AV-unprocessed.smi:3249|AV-procd|sdf|12420|dock10
  -GOLD-   2272018303D 1   1.00000     0.00000
 Structure written by MMmdl.
 44 45  0  0  0  0  0  0  0  0  2 V2000
  154.2510  142.1876  163.5691 C   0  0  0  0  0  0  0  0  0  0  0  0
  153.5053  142.8336  162.4373 C   0  0  0  0  0  0  0  0  0  0  0  0
  152.7818  144.0596  162.4534 C   0  0  0  0  0  0  0  0  0  0  0  0
  152.2346  144.3482  161.2844 N   0  0  0  0  0  0  0  0  0  0  0  0
  152.5887  143.3214  160.4798 N   0  0  0  0  0  0  0  0  0  0  0  0
  152.1519  143.2943  159.0895 C   0  0  1  0  0  0  0  0  0  0  0  0
  151.2853  142.0458  158.8366 C   0  0  0  0  0  0  0  0  0  0  0  0
  151.4469  144.6134  158.6720 C   0  0  1  0  0  0  0  0  0  0  0  0
  151.7586  145.0329  157.2239 C   0  0  0  0  0  0  0  0  0  0  0  0
  149.9803  144.4858  158.8261 N   0  3  0  0  0  0  0  0  0  0  0  0
  149.4587  144.8750  160.1530 C   0  0  0  0  0  0  0  0  0  0  0  0
  147.9238  144.8276  160.1929 C   0  0  2  0  0  0  0  0  0  0  0  0
  147.3381  145.4855  161.4599 C   0  0  0  0  0  0  0  0  0  0  0  0
  145.8142  145.3223  161.4972 C   0  0  0  0  0  0  0  0  0  0  0  0
  145.4478  143.8440  161.3300 C   0  0  0  0  0  0  0  0  0  0  0  0
  146.1284  143.2633  160.0805 C   0  0  0  0  0  0  0  0  0  0  0  0
  147.5377  143.4559  160.1615 O   0  0  0  0  0  0  0  0  0  0  0  0
  153.3534  142.3918  161.1536 C   0  0  0  0  0  0  0  0  0  0  0  0
  154.3271  142.8472  164.4338 H   0  0  0  0  0  0  0  0  0  0  0  0
  155.2673  141.9189  163.2806 H   0  0  0  0  0  0  0  0  0  0  0  0
  153.7592  141.2745  163.9044 H   0  0  0  0  0  0  0  0  0  0  0  0
  152.6385  144.7443  163.2765 H   0  0  0  0  0  0  0  0  0  0  0  0
  153.0543  143.1928  158.4843 H   0  0  0  0  0  0  0  0  0  0  0  0
  151.0641  141.9193  157.7769 H   0  0  0  0  0  0  0  0  0  0  0  0
  150.3359  142.1025  159.3696 H   0  0  0  0  0  0  0  0  0  0  0  0
  151.7974  141.1416  159.1675 H   0  0  0  0  0  0  0  0  0  0  0  0
  151.8039  145.4162  159.3200 H   0  0  0  0  0  0  0  0  0  0  0  0
  152.8190  145.2416  157.0804 H   0  0  0  0  0  0  0  0  0  0  0  0
  151.2172  145.9405  156.9555 H   0  0  0  0  0  0  0  0  0  0  0  0
  151.4740  144.2541  156.5156 H   0  0  0  0  0  0  0  0  0  0  0  0
  149.5380  145.0707  158.1314 H   0  0  0  0  0  0  0  0  0  0  0  0
  149.8603  144.1877  160.8987 H   0  0  0  0  0  0  0  0  0  0  0  0
  149.8166  145.8719  160.4137 H   0  0  0  0  0  0  0  0  0  0  0  0
  147.5315  145.3199  159.3009 H   0  0  0  0  0  0  0  0  0  0  0  0
  147.7741  145.0273  162.3486 H   0  0  0  0  0  0  0  0  0  0  0  0
  147.5955  146.5442  161.4958 H   0  0  0  0  0  0  0  0  0  0  0  0
  145.4116  145.7105  162.4332 H   0  0  0  0  0  0  0  0  0  0  0  0
  145.3619  145.9057  160.6944 H   0  0  0  0  0  0  0  0  0  0  0  0
  145.7661  143.2851  162.2110 H   0  0  0  0  0  0  0  0  0  0  0  0
  144.3659  143.7287  161.2599 H   0  0  0  0  0  0  0  0  0  0  0  0
  145.9231  142.1954  160.0045 H   0  0  0  0  0  0  0  0  0  0  0  0
  145.7384  143.7271  159.1732 H   0  0  0  0  0  0  0  0  0  0  0  0
  153.7244  141.5004  160.6692 H   0  0  0  0  0  0  0  0  0  0  0  0
  149.7242  143.5255  158.6459 H   0  0  0  0  0  0  0  0  0  0  0  0
  1  2  1  0  0  0  0
  1 19  1  0  0  0  0
  1 20  1  0  0  0  0
  1 21  1  0  0  0  0
  2 18  2  0  0  0  0
  2  3  1  0  0  0  0
  3  4  2  0  0  0  0
  3 22  1  0  0  0  0
  4  5  1  0  0  0  0
  5  6  1  0  0  0  0
  5 18  1  0  0  0  0
  6  7  1  0  0  0  0
  6  8  1  0  0  0  0
  6 23  1  0  0  0  0
  7 24  1  0  0  0  0
  7 25  1  0  0  0  0
  7 26  1  0  0  0  0
  8  9  1  0  0  0  0
  8 10  1  0  0  0  0
  8 27  1  0  0  0  0
  9 28  1  0  0  0  0
  9 29  1  0  0  0  0
  9 30  1  0  0  0  0
 10 11  1  0  0  0  0
 10 31  1  0  0  0  0
 10 44  1  0  0  0  0
 11 12  1  0  0  0  0
 11 32  1  0  0  0  0
 11 33  1  0  0  0  0
 12 17  1  0  0  0  0
 12 13  1  0  0  0  0
 12 34  1  0  0  0  0
 13 14  1  0  0  0  0
 13 35  1  0  0  0  0
 13 36  1  0  0  0  0
 14 15  1  0  0  0  0
 14 37  1  0  0  0  0
 14 38  1  0  0  0  0
 15 16  1  0  0  0  0
 15 39  1  0  0  0  0
 15 40  1  0  0  0  0
 16 17  1  0  0  0  0
 16 41  1  0  0  0  0
 16 42  1  0  0  0  0
 18 43  1  0  0  0  0
M  CHG  1  10   1
M  END
> <s_m_source_file>
AV-unprocessed.smi

> <i_m_source_file_index>
3249

> <i_lp_mmshare_version>
43012

> <i_f3d_flags>
0

> <s_epik_input>
W0NIM11jMVtjSF1ubihbY0hdMSlbQ0BIXShbQ0gzXSlbQ0BIXShbQ0gzXSlbTkhdW0NIMl1bQ0BASF0yW0NIMl1bQ0gyXVtDSDJdW0NIMl1PMg==

> <s_epik_cmdline>
J2VwaWtfcHl0aG9uJywgJy1waCcsICc3LjAnLCAnLXRuJywgJzgnLCAnLW1hJywgJzIwMCcsICctbWV0YWxfYmluZGluZycsICctaW1hZScsICc8aW5maWxlLm1hZT4nLCAnLW9tYWUnLCAnPG91dGZpbGUubWFlPic=

> <r_lp_tautomer_probability>
1

> <r_epik_Ionization_Penalty>
0.00659207

> <r_epik_Ionization_Penalty_Charging>
0.00656881

> <r_epik_Ionization_Penalty_Neutral>
2.32662e-05

> <r_epik_State_Penalty>
0.0048654

> <r_epik_Charging_Adjusted_Penalty>
0.0114342

> <i_epik_Tot_Q>
1

> <i_epik_Tot_abs_Q>
1

> <r_epik_Metal_State_Penalty>
-0

> <b_epik_Metal_Only>
0

> <s_lp_Force_Field>
OPLS_2005

> <r_lp_Energy>
19.2424

> <b_lp_Chiralities_Consistent>
1

> <s_lp_Variant>
AV-unprocessed.smi:3249-4

> <Gold.Version>
5.8.1

> <Gold.Id.Protein>
6NUR|6NUR_protein|mol2

> <Gold.PLP.Fitness>
47.5708

> <Gold.PLP.PLP>
-41.6372

> <Gold.PLP.part.hbond>
-2.3574

> <Gold.PLP.part.metal>
0.0000

> <Gold.PLP.part.buried>
-4.5452

> <Gold.PLP.part.nonpolar>
-34.4062

> <Gold.PLP.part.repulsive>
0.3825

> <Gold.PLP.ligand.clash>
0.0000

> <Gold.PLP.ligand.torsion>
1.4029

> <Gold.PLP.Chemscore.Hbond>
2.8785

> <Gold.PLP.Chemscore.CHOScore>
0.0000

> <Gold.PLP.Chemscore.Metal>
0.0000

> <Gold.Chemscore.Hbonds>
donor molecule, donor type, donor heavy atom, donor atom, acceptor molecule, acceptor atom, score
      L1  H    10    31       P1  8029  1.98
      P1  H  6933  6944       L1    17  1.00

> <Gold.PLP.Chemscore.Internal.Correction>
0.1040

> <Gold.Rescore>
     Score         DG    S(hbond)    S(metal)    S(lipo)     H(rot)  DE(clash)    DE(int)     intcor
     16.50     -22.05       1.71        0.00     126.30       1.53       3.70       1.85       ----

> <Gold.Chemscore.Fitness>
16.5009

> <Gold.Chemscore.DG>
-22.0540

> <Gold.Chemscore.ZeroCoef>
-5.4800

> <Gold.Chemscore.Hbond>
1.7131

> <Gold.Chemscore.Metal>
0.0000

> <Gold.Chemscore.Lipo>
126.3033

> <Gold.Chemscore.Internal_Hbond>
0.0000

> <Gold.Chemscore.DEClash>
3.7005

> <Gold.Chemscore.DEInternal>
1.8525

> <Gold.Chemscore.Rot>
1.5333

> <Gold.Chemscore.Internal.Correction>
   9.000000E+99

> <Gold.Chemscore.Hbonds>
donor molecule, donor type, donor heavy atom, donor atom, acceptor molecule, acceptor atom, score
      L1  H    10    31       P1  8029  0.23
      P1  H  6933  6944       L1    17  0.79

> <Gold.Chemscore.Hbond.Weighted>
-5.7217

> <Gold.Chemscore.Metal.Weighted>
-0.0000

> <Gold.Chemscore.Lipo.Weighted>
-14.7775

> <Gold.Chemscore.Internal_Hbond.Weighted>
0.0000

> <Gold.Chemscore.DEClash.Weighted>
3.7005

> <Gold.Chemscore.DEInternal.Weighted>
1.8525

> <Gold.Chemscore.Rot.Weighted>
3.9252

> <Gold.Chemscore.Internal.Correction.Weighted>
   9.000000E+99

> <Gold.Protein.RotatedTorsions>
[ 6907 6896 6895 6894 ] final  -57.16 input  -60.11 | X-H torsion
[ 7974 7965 7964 7962 ] final -125.71 input  175.53 | X-H torsion
[ 8008 7997 7996 7995 ] final   11.67 input   59.86 | X-H torsion
[ 10167 10162 10161 10158 ] final  171.50 input  -65.29 | X-H torsion
[ 10718 10713 10712 10709 ] final -102.66 input   66.30 | X-H torsion
[ 10763 10752 10751 10750 ] final  158.61 input  -60.55 | X-H torsion
[ 11005 11000 10999 10996 ] final   26.35 input  -57.11 | X-H torsion

> <Gold.Protein.ActiveResidues>
 VAL166  LYS551  ARG553  GLY616  TRP617  ASP618  TYR619  PRO620  LYS621  CYS622 
 ASP623  PHE694  ASN695  SER759  ASP760  ASP761  ALA762  ILE779  LEU786  VAL792 
 PHE793  MET794  SER795  GLU796  ALA797  LYS798  CYS799  TRP800  GLU811  SER814 

> <Gold.Protein.RotatedAtoms>
  150.8108  134.7262  159.6686 H   0  0  0  0  0  0  0  0  0  0  0  0  # atno 6907 bound_to 6896
  152.4228  134.5920  159.9986 H   0  0  0  0  0  0  0  0  0  0  0  0  # atno 6908 bound_to 6896
  151.6130  133.3308  159.3107 H   0  0  0  0  0  0  0  0  0  0  0  0  # atno 6909 bound_to 6896
  144.9948  140.7766  143.4532 H   0  0  0  0  0  0  0  0  0  0  0  0  # atno 7974 bound_to 7965
  154.8101  140.2866  155.5859 H   0  0  0  0  0  0  0  0  0  0  0  0  # atno 8008 bound_to 7997
  156.2987  140.2570  156.2917 H   0  0  0  0  0  0  0  0  0  0  0  0  # atno 8009 bound_to 7997
  154.9457  140.0380  157.2108 H   0  0  0  0  0  0  0  0  0  0  0  0  # atno 8010 bound_to 7997
  139.5048  144.3478  151.9953 H   0  0  0  0  0  0  0  0  0  0  0  0  # atno 10167 bound_to 10162
  156.0236  130.5430  150.7140 H   0  0  0  0  0  0  0  0  0  0  0  0  # atno 10718 bound_to 10713
  154.2188  135.2783  155.2932 H   0  0  0  0  0  0  0  0  0  0  0  0  # atno 10763 bound_to 10752
  154.5718  135.5616  153.7106 H   0  0  0  0  0  0  0  0  0  0  0  0  # atno 10764 bound_to 10752
  153.0046  135.6323  154.2328 H   0  0  0  0  0  0  0  0  0  0  0  0  # atno 10765 bound_to 10752
  140.3380  134.2365  155.7693 H   0  0  0  0  0  0  0  0  0  0  0  0  # atno 11005 bound_to 11000
  145.2235  139.2148  143.5080 LP  0  0  0  0  0  0  0  0  0  0  0  0  # atno 17320 bound_to 7965
  146.3439  140.2098  142.8590 LP  0  0  0  0  0  0  0  0  0  0  0  0  # atno 17321 bound_to 7965
  140.2915  144.3748  150.6087 LP  0  0  0  0  0  0  0  0  0  0  0  0  # atno 17342 bound_to 10162
  140.5942  143.2167  151.7195 LP  0  0  0  0  0  0  0  0  0  0  0  0  # atno 17343 bound_to 10162
  157.4771  131.0899  151.0577 LP  0  0  0  0  0  0  0  0  0  0  0  0  # atno 17370 bound_to 10713
  157.1021  130.5986  149.5462 LP  0  0  0  0  0  0  0  0  0  0  0  0  # atno 17371 bound_to 10713
  141.2046  133.7882  157.0278 LP  0  0  0  0  0  0  0  0  0  0  0  0  # atno 17394 bound_to 11000
  140.0805  134.9651  157.1616 LP  0  0  0  0  0  0  0  0  0  0  0  0  # atno 17395 bound_to 11000

$$$$
