AV-unprocessed.smi:266|AV-procd|sdf|2036|dock10
  -GOLD-   2262021253D 1   1.00000     0.00000
 Structure written by MMmdl.
 52 55  0  0  0  0  0  0  0  0  1 V2000
  143.6971  132.6710  148.2514 C   0  0  0  0  0  0  0  0  0  0  0  0
  144.4268  132.3432  149.5638 C   0  0  1  0  0  0  0  0  0  0  0  0
  145.7772  131.9896  149.2969 O   0  0  0  0  0  0  0  0  0  0  0  0
  146.5019  132.1500  150.5020 C   0  0  0  0  0  0  0  0  0  0  0  0
  145.9781  133.4799  151.0256 C   0  0  0  0  0  0  0  0  0  0  0  0
  144.4953  133.4668  150.6334 C   0  0  1  0  0  0  0  0  0  0  0  0
  144.1714  134.7330  150.0845 O   0  0  0  0  0  0  0  0  0  0  0  0
  143.5294  133.1759  151.8122 C   0  0  0  0  0  0  0  0  0  0  0  0
  143.2089  134.3363  152.6319 N   0  0  0  0  0  0  0  0  0  0  0  0
  141.9623  134.7036  153.0846 C   0  0  0  0  0  0  0  0  0  0  0  0
  141.9292  135.7929  153.8011 N   0  0  0  0  0  0  0  0  0  0  0  0
  143.2499  136.2270  153.8294 C   0  0  0  0  0  0  0  0  0  0  0  0
  143.9277  137.3375  154.4147 C   0  0  0  0  0  0  0  0  0  0  0  0
  143.3466  138.3214  155.1446 N   0  0  0  0  0  0  0  0  0  0  0  0
  144.2857  139.0184  156.0140 C   0  0  0  0  0  0  0  0  0  0  0  0
  141.9772  138.1505  155.6298 C   0  0  0  0  0  0  0  0  0  0  0  0
  140.9395  139.0501  154.9152 C   0  0  1  0  0  0  0  0  0  0  0  0
  140.6277  138.5071  153.5057 C   0  0  0  0  0  0  0  0  0  0  0  0
  139.6502  137.3282  153.6169 C   0  0  0  0  0  0  0  0  0  0  0  0
  138.6427  137.6479  155.1147 S   0  0  0  0  0  0  0  0  0  0  0  0
  137.2915  138.0765  154.7231 O   0  0  0  0  0  0  0  0  0  0  0  0
  138.8414  136.5438  156.0658 O   0  0  0  0  0  0  0  0  0  0  0  0
  139.5998  139.1080  155.6693 C   0  0  0  0  0  0  0  0  0  0  0  0
  145.2712  137.4167  154.2385 N   0  0  0  0  0  0  0  0  0  0  0  0
  145.9133  136.4915  153.5202 C   0  0  0  0  0  0  0  0  0  0  0  0
  145.4136  135.4175  152.9068 N   0  0  0  0  0  0  0  0  0  0  0  0
  144.0669  135.3191  153.0962 C   0  0  0  0  0  0  0  0  0  0  0  0
  142.6616  132.9565  148.4388 H   0  0  0  0  0  0  0  0  0  0  0  0
  143.6873  131.8050  147.5894 H   0  0  0  0  0  0  0  0  0  0  0  0
  144.1826  133.4872  147.7155 H   0  0  0  0  0  0  0  0  0  0  0  0
  143.9606  131.4580  149.9999 H   0  0  0  0  0  0  0  0  0  0  0  0
  146.2662  131.3354  151.1887 H   0  0  0  0  0  0  0  0  0  0  0  0
  147.5780  132.1583  150.3274 H   0  0  0  0  0  0  0  0  0  0  0  0
  146.1652  133.6042  152.0909 H   0  0  0  0  0  0  0  0  0  0  0  0
  146.5074  134.2842  150.5112 H   0  0  0  0  0  0  0  0  0  0  0  0
  144.7172  134.8820  149.3276 H   0  0  0  0  0  0  0  0  0  0  0  0
  142.5944  132.7592  151.4344 H   0  0  0  0  0  0  0  0  0  0  0  0
  143.9576  132.4143  152.4655 H   0  0  0  0  0  0  0  0  0  0  0  0
  141.0712  134.1314  152.8700 H   0  0  0  0  0  0  0  0  0  0  0  0
  145.0181  139.5732  155.4268 H   0  0  0  0  0  0  0  0  0  0  0  0
  144.8185  138.3131  156.6530 H   0  0  0  0  0  0  0  0  0  0  0  0
  143.7691  139.7320  156.6564 H   0  0  0  0  0  0  0  0  0  0  0  0
  141.6954  137.1013  155.5457 H   0  0  0  0  0  0  0  0  0  0  0  0
  141.9639  138.3694  156.6978 H   0  0  0  0  0  0  0  0  0  0  0  0
  141.3405  140.0585  154.8160 H   0  0  0  0  0  0  0  0  0  0  0  0
  140.1492  139.2999  152.9292 H   0  0  0  0  0  0  0  0  0  0  0  0
  141.5317  138.2313  152.9614 H   0  0  0  0  0  0  0  0  0  0  0  0
  139.0055  137.2295  152.7437 H   0  0  0  0  0  0  0  0  0  0  0  0
  140.1849  136.3896  153.7632 H   0  0  0  0  0  0  0  0  0  0  0  0
  139.6987  139.1055  156.7550 H   0  0  0  0  0  0  0  0  0  0  0  0
  139.0413  139.9990  155.3813 H   0  0  0  0  0  0  0  0  0  0  0  0
  146.9798  136.6319  153.4235 H   0  0  0  0  0  0  0  0  0  0  0  0
  1  2  1  0  0  0  0
  1 28  1  0  0  0  0
  1 29  1  0  0  0  0
  1 30  1  0  0  0  0
  2  6  1  0  0  0  0
  2  3  1  0  0  0  0
  2 31  1  0  0  0  0
  3  4  1  0  0  0  0
  4  5  1  0  0  0  0
  4 32  1  0  0  0  0
  4 33  1  0  0  0  0
  5  6  1  0  0  0  0
  5 34  1  0  0  0  0
  5 35  1  0  0  0  0
  6  7  1  0  0  0  0
  6  8  1  0  0  0  0
  7 36  1  0  0  0  0
  8  9  1  0  0  0  0
  8 37  1  0  0  0  0
  8 38  1  0  0  0  0
  9 27  1  0  0  0  0
  9 10  1  0  0  0  0
 10 11  2  0  0  0  0
 10 39  1  0  0  0  0
 11 12  1  0  0  0  0
 12 27  2  0  0  0  0
 12 13  1  0  0  0  0
 13 14  1  0  0  0  0
 13 24  2  0  0  0  0
 14 15  1  0  0  0  0
 14 16  1  0  0  0  0
 15 40  1  0  0  0  0
 15 41  1  0  0  0  0
 15 42  1  0  0  0  0
 16 17  1  0  0  0  0
 16 43  1  0  0  0  0
 16 44  1  0  0  0  0
 17 23  1  0  0  0  0
 17 18  1  0  0  0  0
 17 45  1  0  0  0  0
 18 19  1  0  0  0  0
 18 46  1  0  0  0  0
 18 47  1  0  0  0  0
 19 20  1  0  0  0  0
 19 48  1  0  0  0  0
 19 49  1  0  0  0  0
 20 21  2  0  0  0  0
 20 22  2  0  0  0  0
 20 23  1  0  0  0  0
 23 50  1  0  0  0  0
 23 51  1  0  0  0  0
 24 25  1  0  0  0  0
 25 26  2  0  0  0  0
 25 52  1  0  0  0  0
 26 27  1  0  0  0  0
M  END
> <s_m_source_file>
AV-unprocessed.smi

> <i_m_source_file_index>
266

> <i_lp_mmshare_version>
43012

> <i_f3d_flags>
0

> <s_epik_input>
W0NIMl0xW0NIMl1PW0NAQEhdKFtDSDNdKVtDQEBdMShbT0hdKVtDSDJdbihbY0hdbjIpYyhjMjMpbltjSF1uYzNOKFtDSDNdKVtDSDJdW0NAQEhdKFtDSDJdNClbQ0gyXVtDSDJdUzQoPU8pPU8=

> <s_epik_cmdline>
J2VwaWtfcHl0aG9uJywgJy1waCcsICc3LjAnLCAnLXRuJywgJzgnLCAnLW1hJywgJzIwMCcsICctbWV0YWxfYmluZGluZycsICctaW1hZScsICc8aW5maWxlLm1hZT4nLCAnLW9tYWUnLCAnPG91dGZpbGUubWFlPic=

> <r_lp_tautomer_probability>
1

> <r_epik_Ionization_Penalty>
0.00155497

> <r_epik_Ionization_Penalty_Charging>
0

> <r_epik_Ionization_Penalty_Neutral>
0.00155497

> <r_epik_State_Penalty>
-0

> <r_epik_Charging_Adjusted_Penalty>
0

> <i_epik_Tot_Q>
0

> <i_epik_Tot_abs_Q>
0

> <r_epik_Metal_State_Penalty>
-0

> <b_epik_Metal_Only>
0

> <s_lp_Force_Field>
OPLS_2005

> <r_lp_Energy>
31.7584

> <b_lp_Chiralities_Consistent>
1

> <s_lp_Variant>
AV-unprocessed.smi:266-6

> <Gold.Version>
5.8.1

> <Gold.Id.Protein>
6NUR|6NUR_protein|mol2

> <Gold.PLP.Fitness>
45.5022

> <Gold.PLP.PLP>
-38.2215

> <Gold.PLP.part.hbond>
-2.6906

> <Gold.PLP.part.metal>
0.0000

> <Gold.PLP.part.buried>
-2.2699

> <Gold.PLP.part.nonpolar>
-31.7523

> <Gold.PLP.part.repulsive>
0.8994

> <Gold.PLP.ligand.clash>
0.0000

> <Gold.PLP.ligand.torsion>
0.8856

> <Gold.PLP.Chemscore.Hbond>
1.8288

> <Gold.PLP.Chemscore.CHOScore>
1.0018

> <Gold.PLP.Chemscore.Metal>
0.0000

> <Gold.Chemscore.Hbonds>
donor molecule, donor type, donor heavy atom, donor atom, acceptor molecule, acceptor atom, score
      L1  H     7    36       P1  7921  0.55
      P1  H 11000 11005       L1    22  1.00
      L1  C    25    52       P1  7948  0.96

> <Gold.PLP.Chemscore.Internal.Correction>
0.5602

> <Gold.Rescore>
     Score         DG    S(hbond)    S(metal)    S(lipo)     H(rot)  DE(clash)    DE(int)     intcor
     11.08     -15.20       1.89        0.00      82.50       2.45       0.75       3.37       ----

> <Gold.Chemscore.Fitness>
11.0759

> <Gold.Chemscore.DG>
-15.1967

> <Gold.Chemscore.ZeroCoef>
-5.4800

> <Gold.Chemscore.Hbond>
1.8949

> <Gold.Chemscore.Metal>
0.0000

> <Gold.Chemscore.Lipo>
82.4991

> <Gold.Chemscore.Internal_Hbond>
0.0000

> <Gold.Chemscore.DEClash>
0.7497

> <Gold.Chemscore.DEInternal>
3.3711

> <Gold.Chemscore.Rot>
2.4471

> <Gold.Chemscore.Internal.Correction>
   9.000000E+99

> <Gold.Chemscore.Hbonds>
donor molecule, donor type, donor heavy atom, donor atom, acceptor molecule, acceptor atom, score
      L1  H     7    36       P1  7921  0.56
      P1  H 11000 11005       L1    22  1.00

> <Gold.Chemscore.Hbond.Weighted>
-6.3289

> <Gold.Chemscore.Metal.Weighted>
-0.0000

> <Gold.Chemscore.Lipo.Weighted>
-9.6524

> <Gold.Chemscore.Internal_Hbond.Weighted>
0.0000

> <Gold.Chemscore.DEClash.Weighted>
0.7497

> <Gold.Chemscore.DEInternal.Weighted>
3.3711

> <Gold.Chemscore.Rot.Weighted>
6.2645

> <Gold.Chemscore.Internal.Correction.Weighted>
   9.000000E+99

> <Gold.Protein.RotatedTorsions>
[ 6907 6896 6895 6894 ] final  -17.33 input  -60.11 | X-H torsion
[ 7974 7965 7964 7962 ] final -146.33 input  175.53 | X-H torsion
[ 8008 7997 7996 7995 ] final   40.23 input   59.86 | X-H torsion
[ 10167 10162 10161 10158 ] final  163.76 input  -65.29 | X-H torsion
[ 10718 10713 10712 10709 ] final -178.19 input   66.30 | X-H torsion
[ 10763 10752 10751 10750 ] final  119.48 input  -60.55 | X-H torsion
[ 11005 11000 10999 10996 ] final  104.09 input  -57.11 | X-H torsion

> <Gold.Protein.ActiveResidues>
 VAL166  LYS551  ARG553  GLY616  TRP617  ASP618  TYR619  PRO620  LYS621  CYS622 
 ASP623  PHE694  ASN695  SER759  ASP760  ASP761  ALA762  ILE779  LEU786  VAL792 
 PHE793  MET794  SER795  GLU796  ALA797  LYS798  CYS799  TRP800  GLU811  SER814 

> <Gold.Protein.RotatedAtoms>
  151.2949  135.0752  159.9217 H   0  0  0  0  0  0  0  0  0  0  0  0  # atno 6907 bound_to 6896
  152.5309  133.9893  159.7853 H   0  0  0  0  0  0  0  0  0  0  0  0  # atno 6908 bound_to 6896
  151.0169  133.5861  159.2706 H   0  0  0  0  0  0  0  0  0  0  0  0  # atno 6909 bound_to 6896
  144.8166  140.5469  143.5606 H   0  0  0  0  0  0  0  0  0  0  0  0  # atno 7974 bound_to 7965
  155.2496  140.3351  155.4283 H   0  0  0  0  0  0  0  0  0  0  0  0  # atno 8008 bound_to 7997
  156.2221  140.1813  156.7495 H   0  0  0  0  0  0  0  0  0  0  0  0  # atno 8009 bound_to 7997
  154.5841  140.0648  156.9132 H   0  0  0  0  0  0  0  0  0  0  0  0  # atno 8010 bound_to 7997
  139.4878  144.4304  151.9077 H   0  0  0  0  0  0  0  0  0  0  0  0  # atno 10167 bound_to 10162
  156.8407  130.9685  151.3100 H   0  0  0  0  0  0  0  0  0  0  0  0  # atno 10718 bound_to 10713
  153.5837  135.3479  155.2884 H   0  0  0  0  0  0  0  0  0  0  0  0  # atno 10763 bound_to 10752
  154.8664  135.4188  154.2592 H   0  0  0  0  0  0  0  0  0  0  0  0  # atno 10764 bound_to 10752
  153.3384  135.7048  153.6958 H   0  0  0  0  0  0  0  0  0  0  0  0  # atno 10765 bound_to 10752
  139.8789  134.9287  156.5308 H   0  0  0  0  0  0  0  0  0  0  0  0  # atno 11005 bound_to 11000
  145.5199  139.1477  143.3558 LP  0  0  0  0  0  0  0  0  0  0  0  0  # atno 17320 bound_to 7965
  146.2470  140.5340  142.8909 LP  0  0  0  0  0  0  0  0  0  0  0  0  # atno 17321 bound_to 7965
  140.3752  144.2806  150.5915 LP  0  0  0  0  0  0  0  0  0  0  0  0  # atno 17342 bound_to 10162
  140.5283  143.2249  151.8279 LP  0  0  0  0  0  0  0  0  0  0  0  0  # atno 17343 bound_to 10162
  157.6357  130.8765  149.9355 LP  0  0  0  0  0  0  0  0  0  0  0  0  # atno 17370 bound_to 10713
  156.0882  130.3666  150.0446 LP  0  0  0  0  0  0  0  0  0  0  0  0  # atno 17371 bound_to 10713
  140.8382  133.8226  155.9049 LP  0  0  0  0  0  0  0  0  0  0  0  0  # atno 17394 bound_to 11000
  140.9263  134.2078  157.4894 LP  0  0  0  0  0  0  0  0  0  0  0  0  # atno 17395 bound_to 11000

$$$$
