#       Name:                AV-unprocessed.smi:1184
#       Creating user name   scv26
#       Creation time:       Fri Mar 27 03:56:44 2020


#       File generated by GOLD software.
#

@<TRIPOS>MOLECULE
AV-unprocessed.smi:1184
    48    49     1
SMALL
NO_CHARGES


@<TRIPOS>ATOM
      1 ****        -0.9188   2.2506   2.3118 C.3            1 S1                 0.0000
      2 ****        -2.2437   1.7652   1.7056 C.3            1 S1                 0.0000
      3 ****        -2.0954   1.3576   0.2889 N.4            1 S1                 1.0000
      4 ****        -3.3732   1.0943  -0.4150 C.3            1 S1                 0.0000
      5 ****        -3.1694  -0.1775  -1.2523 C.3            1 S1                 0.0000
      6 ****        -1.6552  -0.3778  -1.2880 C.3            1 S1                 0.0000
      7 ****        -1.2101  -1.8278  -1.5638 C.3            1 S1                 0.0000
      8 ****         0.2429  -1.9392  -1.4989 N.am           1 S1                 0.0000
      9 ****         0.9370  -2.3623  -0.4308 C.2            1 S1                 0.0000
     10 ****         0.4200  -2.8836   0.5569 O.2            1 S1                 0.0000
     11 ****         2.4363  -2.0749  -0.4446 C.3            1 S1                 0.0000
     12 ****         2.6461  -0.6460  -0.0091 C.2            1 S1                 0.0000
     13 ****         2.8407   0.5022  -0.8296 C.2            1 S1                 0.0000
     14 ****         2.9097   0.5798  -2.3279 C.3            1 S1                 0.0000
     15 ****         2.9517   1.6081  -0.1131 N.2            1 S1                 0.0000
     16 ****         2.8347   1.2134   1.2229 O.3            1 S1                 0.0000
     17 ****         2.6552  -0.1312   1.2589 C.2            1 S1                 0.0000
     18 ****         2.4860  -0.7453   2.6072 C.3            1 S1                 0.0000
     19 ****        -1.2244   0.1872   0.0667 C.3            1 S1                 0.0000
     20 ****        -1.0709   2.6116   3.3293 H              1 S1                 0.0000
     21 ****        -0.4942   3.0696   1.7302 H              1 S1                 0.0000
     22 ****        -0.1783   1.4515   2.3571 H              1 S1                 0.0000
     23 ****        -2.6472   0.9378   2.2910 H              1 S1                 0.0000
     24 ****        -2.9728   2.5745   1.7601 H              1 S1                 0.0000
     25 ****        -4.2040   0.9632   0.2802 H              1 S1                 0.0000
     26 ****        -3.6055   1.9498  -1.0498 H              1 S1                 0.0000
     27 ****        -3.6467  -1.0209  -0.7512 H              1 S1                 0.0000
     28 ****        -3.6034  -0.0974  -2.2495 H              1 S1                 0.0000
     29 ****        -1.2455   0.2683  -2.0665 H              1 S1                 0.0000
     30 ****        -1.6884  -2.5178  -0.8665 H              1 S1                 0.0000
     31 ****        -1.5318  -2.1288  -2.5611 H              1 S1                 0.0000
     32 ****         0.7621  -1.5446  -2.2700 H              1 S1                 0.0000
     33 ****         2.9437  -2.7748   0.2202 H              1 S1                 0.0000
     34 ****         2.8342  -2.2575  -1.4435 H              1 S1                 0.0000
     35 ****         2.1304  -0.0277  -2.7879 H              1 S1                 0.0000
     36 ****         3.8713   0.2179  -2.6916 H              1 S1                 0.0000
     37 ****         2.7824   1.6021  -2.6857 H              1 S1                 0.0000
     38 ****         2.8261  -1.7810   2.6094 H              1 S1                 0.0000
     39 ****         1.4375  -0.7342   2.9048 H              1 S1                 0.0000
     40 ****         3.0583  -0.2016   3.3591 H              1 S1                 0.0000
     41 ****        -0.1718   0.4705   0.0847 H              1 S1                 0.0000
     42 ****        -1.3913  -0.5533   0.8511 H              1 S1                 0.0000
     43 ****        -1.6648   2.1288  -0.2013 H              1 S1                 0.0000
     44 ****        -0.5710  -3.0119   0.5934 LP             1 S1                 0.0000
     45 ****         0.9910  -3.1788   1.3230 LP             1 S1                 0.0000
     46 ****         3.0909   2.5369  -0.4567 LP             1 S1                 0.0000
     47 ****         2.0502   1.6701   1.6424 LP             1 S1                 0.0000
     48 ****         3.6672   1.4563   1.7209 LP             1 S1                 0.0000
@<TRIPOS>BOND
    1    1    2 1     
    2    1   20 1     
    3    1   21 1     
    4    1   22 1     
    5    2    3 1     
    6    2   23 1     
    7    2   24 1     
    8    3   19 1     
    9    3    4 1     
   10    3   43 1     
   11    4    5 1     
   12    4   25 1     
   13    4   26 1     
   14    5    6 1     
   15    5   27 1     
   16    5   28 1     
   17    6    7 1     
   18    6   19 1     
   19    6   29 1     
   20    7    8 1     
   21    7   30 1     
   22    7   31 1     
   23    8    9 am    
   24    8   32 1     
   25    9   10 2     
   26    9   11 1     
   27   11   12 1     
   28   11   33 1     
   29   11   34 1     
   30   12   17 2     
   31   12   13 1     
   32   13   14 1     
   33   13   15 2     
   34   14   35 1     
   35   14   36 1     
   36   14   37 1     
   37   15   16 1     
   38   16   17 1     
   39   17   18 1     
   40   18   38 1     
   41   18   39 1     
   42   18   40 1     
   43   19   41 1     
   44   19   42 1     
   45   10   44 1     
   46   10   45 1     
   47   15   46 1     
   48   16   47 1     
   49   16   48 1     
@<TRIPOS>SUBSTRUCTURE
      1 S1             1
@<TRIPOS>SET
LONE_PAIRS      STATIC     ATOMS    <user>   **** ""
5 44 45 46 47 48
DONOR_HYDROGENS      STATIC     ATOMS    <user>   **** ""
2 43 32
ATOM$BLUE        STATIC     ATOMS    COLORGROUP SYSTEM
5 44 45 46 47 48
ATOM$RED        STATIC     ATOMS    COLORGROUP SYSTEM
2 43 32
