AV-unprocessed.smi:2226|AV-procd|sdf|9010|dock7
  -GOLD-   2272012213D 1   1.00000     0.00000
 Structure written by MMmdl.
 40 42  0  0  0  0  0  0  0  0  2 V2000
  151.7891  137.8256  154.2879 C   0  0  0  0  0  0  0  0  0  0  0  0
  151.0931  139.0862  154.6400 N   0  3  2  0  0  0  0  0  0  0  0  0
  151.4111  139.6192  155.9872 C   0  0  1  0  0  0  0  0  0  0  0  0
  150.9858  141.1051  156.0509 C   0  0  0  0  0  0  0  0  0  0  0  0
  149.5184  141.3518  155.6443 C   0  0  0  0  0  0  0  0  0  0  0  0
  149.1022  140.5224  154.4124 C   0  0  0  0  0  0  0  0  0  0  0  0
  149.6244  139.0664  154.4331 C   0  0  2  0  0  0  0  0  0  0  0  0
  148.9241  138.1391  155.4578 C   0  0  0  0  0  0  0  0  0  0  0  0
  149.3137  138.3951  156.9320 C   0  0  1  0  0  0  0  0  0  0  0  0
  148.9908  137.2096  157.7249 N   0  0  0  0  0  0  0  0  0  0  0  0
  149.4109  136.9400  158.9710 C   0  0  0  0  0  0  0  0  0  0  0  0
  150.1480  137.7130  159.5908 O   0  0  0  0  0  0  0  0  0  0  0  0
  148.8935  135.7215  159.3853 N   0  0  0  0  0  0  0  0  0  0  0  0
  148.3393  135.6204  160.5540 C   0  0  0  0  0  0  0  0  0  0  0  0
  147.7749  134.4918  161.1264 N   0  0  0  0  0  0  0  0  0  0  0  0
  147.3082  134.8311  162.3661 C   0  0  0  0  0  0  0  0  0  0  0  0
  147.5672  136.1197  162.5675 C   0  0  0  0  0  0  0  0  0  0  0  0
  148.1989  136.6330  161.4753 O   0  0  0  0  0  0  0  0  0  0  0  0
  150.8150  138.7238  157.1018 C   0  0  0  0  0  0  0  0  0  0  0  0
  151.4902  136.9949  154.9267 H   0  0  0  0  0  0  0  0  0  0  0  0
  152.8686  137.9494  154.3794 H   0  0  0  0  0  0  0  0  0  0  0  0
  151.5764  137.5499  153.2549 H   0  0  0  0  0  0  0  0  0  0  0  0
  152.4958  139.6036  156.1037 H   0  0  0  0  0  0  0  0  0  0  0  0
  151.1724  141.5135  157.0446 H   0  0  0  0  0  0  0  0  0  0  0  0
  151.6255  141.6710  155.3724 H   0  0  0  0  0  0  0  0  0  0  0  0
  148.8538  141.1505  156.4800 H   0  0  0  0  0  0  0  0  0  0  0  0
  149.3742  142.4119  155.4331 H   0  0  0  0  0  0  0  0  0  0  0  0
  148.0177  140.5374  154.3001 H   0  0  0  0  0  0  0  0  0  0  0  0
  149.4997  141.0131  153.5230 H   0  0  0  0  0  0  0  0  0  0  0  0
  149.4335  138.6561  153.4405 H   0  0  0  0  0  0  0  0  0  0  0  0
  147.8414  138.2084  155.3461 H   0  0  0  0  0  0  0  0  0  0  0  0
  149.1713  137.1081  155.2008 H   0  0  0  0  0  0  0  0  0  0  0  0
  148.7342  139.2378  157.2989 H   0  0  0  0  0  0  0  0  0  0  0  0
  148.3901  136.5263  157.2866 H   0  0  0  0  0  0  0  0  0  0  0  0
  147.6985  133.5635  160.7364 H   0  0  0  0  0  0  0  0  0  0  0  0
  146.8266  134.0925  162.9896 H   0  0  0  0  0  0  0  0  0  0  0  0
  147.3751  136.7863  163.3953 H   0  0  0  0  0  0  0  0  0  0  0  0
  151.3809  137.7914  157.1218 H   0  0  0  0  0  0  0  0  0  0  0  0
  150.9834  139.1799  158.0783 H   0  0  0  0  0  0  0  0  0  0  0  0
  151.4510  139.7679  153.9860 H   0  0  0  0  0  0  0  0  0  0  0  0
  1  2  1  0  0  0  0
  1 20  1  0  0  0  0
  1 21  1  0  0  0  0
  1 22  1  0  0  0  0
  2  7  1  0  0  0  0
  2  3  1  0  0  0  0
  2 40  1  0  0  0  0
  3 19  1  0  0  0  0
  3  4  1  0  0  0  0
  3 23  1  0  0  0  0
  4  5  1  0  0  0  0
  4 24  1  0  0  0  0
  4 25  1  0  0  0  0
  5  6  1  0  0  0  0
  5 26  1  0  0  0  0
  5 27  1  0  0  0  0
  6  7  1  0  0  0  0
  6 28  1  0  0  0  0
  6 29  1  0  0  0  0
  7  8  1  0  0  0  0
  7 30  1  0  0  0  0
  8  9  1  0  0  0  0
  8 31  1  0  0  0  0
  8 32  1  0  0  0  0
  9 10  1  0  0  0  0
  9 19  1  0  0  0  0
  9 33  1  0  0  0  0
 10 34  1  0  0  0  0
 10 11  1  0  0  0  0
 11 13  1  0  0  0  0
 11 12  2  0  0  0  0
 13 14  2  0  0  0  0
 14 18  1  0  0  0  0
 14 15  1  0  0  0  0
 15 35  1  0  0  0  0
 15 16  1  0  0  0  0
 16 36  1  0  0  0  0
 16 17  2  0  0  0  0
 17 37  1  0  0  0  0
 17 18  1  0  0  0  0
 19 38  1  0  0  0  0
 19 39  1  0  0  0  0
M  CHG  1   2   1
M  END
> <s_m_source_file>
AV-unprocessed.smi

> <i_m_source_file_index>
2226

> <i_lp_mmshare_version>
43012

> <i_f3d_flags>
0

> <s_epik_input>
W0NIMl0xW0NIMl1bQ0gyXVtDQEhdKE4oW0NIM10pW0NIXTEyKVtDSDJdW0NASF0oW0NIMl0yKVtOSF1DKD1PKVtOSF1jM25bY0hdW2NIXW8z

> <s_epik_cmdline>
J2VwaWtfcHl0aG9uJywgJy1waCcsICc3LjAnLCAnLXRuJywgJzgnLCAnLW1hJywgJzIwMCcsICctbWV0YWxfYmluZGluZycsICctaW1hZScsICc8aW5maWxlLm1hZT4nLCAnLW9tYWUnLCAnPG91dGZpbGUubWFlPic=

> <r_lp_tautomer_probability>
0.107061

> <r_epik_Ionization_Penalty>
1.08307

> <r_epik_Ionization_Penalty_Charging>
1.08272

> <r_epik_Ionization_Penalty_Neutral>
0.000345913

> <r_epik_State_Penalty>
2.5744

> <r_epik_Charging_Adjusted_Penalty>
3.65713

> <i_epik_Tot_Q>
1

> <i_epik_Tot_abs_Q>
1

> <r_epik_Metal_State_Penalty>
3.72133

> <b_epik_Metal_Only>
0

> <s_lp_Force_Field>
OPLS_2005

> <r_lp_Energy>
57.8706

> <b_lp_Chiralities_Consistent>
1

> <s_lp_Variant>
AV-unprocessed.smi:2226-10

> <Gold.Version>
5.8.1

> <Gold.Id.Protein>
6NUR|6NUR_protein|mol2

> <Gold.PLP.Fitness>
37.8595

> <Gold.PLP.PLP>
-33.5898

> <Gold.PLP.part.hbond>
-2.8055

> <Gold.PLP.part.metal>
0.0000

> <Gold.PLP.part.buried>
-6.3642

> <Gold.PLP.part.nonpolar>
-26.7163

> <Gold.PLP.part.repulsive>
0.2395

> <Gold.PLP.ligand.clash>
0.0000

> <Gold.PLP.ligand.torsion>
0.6112

> <Gold.PLP.Chemscore.Hbond>
1.8288

> <Gold.PLP.Chemscore.CHOScore>
0.0000

> <Gold.PLP.Chemscore.Metal>
0.0000

> <Gold.Chemscore.Hbonds>
donor molecule, donor type, donor heavy atom, donor atom, acceptor molecule, acceptor atom, score
      P1  H  6896  6908       L1    13  0.77
      P1  H  6931  6943       L1    18  1.00

> <Gold.PLP.Chemscore.Internal.Correction>
0.0060

> <Gold.Rescore>
     Score         DG    S(hbond)    S(metal)    S(lipo)     H(rot)  DE(clash)    DE(int)     intcor
     13.51     -16.63       1.69        0.00      68.86       1.00       0.08       3.04       ----

> <Gold.Chemscore.Fitness>
13.5103

> <Gold.Chemscore.DG>
-16.6266

> <Gold.Chemscore.ZeroCoef>
-5.4800

> <Gold.Chemscore.Hbond>
1.6917

> <Gold.Chemscore.Metal>
0.0000

> <Gold.Chemscore.Lipo>
68.8567

> <Gold.Chemscore.Internal_Hbond>
0.0000

> <Gold.Chemscore.DEClash>
0.0779

> <Gold.Chemscore.DEInternal>
3.0384

> <Gold.Chemscore.Rot>
1.0000

> <Gold.Chemscore.Internal.Correction>
   9.000000E+99

> <Gold.Chemscore.Hbonds>
donor molecule, donor type, donor heavy atom, donor atom, acceptor molecule, acceptor atom, score
      P1  H  6896  6908       L1    13  0.07
      P1  H  6931  6943       L1    18  0.74

> <Gold.Chemscore.Hbond.Weighted>
-5.6504

> <Gold.Chemscore.Metal.Weighted>
-0.0000

> <Gold.Chemscore.Lipo.Weighted>
-8.0562

> <Gold.Chemscore.Internal_Hbond.Weighted>
0.0000

> <Gold.Chemscore.DEClash.Weighted>
0.0779

> <Gold.Chemscore.DEInternal.Weighted>
3.0384

> <Gold.Chemscore.Rot.Weighted>
2.5600

> <Gold.Chemscore.Internal.Correction.Weighted>
   9.000000E+99

> <Gold.Protein.RotatedTorsions>
[ 6907 6896 6895 6894 ] final  174.84 input  -60.11 | X-H torsion
[ 7974 7965 7964 7962 ] final  -95.39 input  175.53 | X-H torsion
[ 8008 7997 7996 7995 ] final -147.87 input   59.86 | X-H torsion
[ 10167 10162 10161 10158 ] final  -39.99 input  -65.29 | X-H torsion
[ 10718 10713 10712 10709 ] final   61.58 input   66.30 | X-H torsion
[ 10763 10752 10751 10750 ] final  -17.32 input  -60.55 | X-H torsion
[ 11005 11000 10999 10996 ] final  128.21 input  -57.11 | X-H torsion

> <Gold.Protein.ActiveResidues>
 VAL166  LYS551  ARG553  GLY616  TRP617  ASP618  TYR619  PRO620  LYS621  CYS622 
 ASP623  PHE694  ASN695  SER759  ASP760  ASP761  ALA762  ILE779  LEU786  VAL792 
 PHE793  MET794  SER795  GLU796  ALA797  LYS798  CYS799  TRP800  GLU811  SER814 

> <Gold.Protein.RotatedAtoms>
  151.7458  133.3324  159.3377 H   0  0  0  0  0  0  0  0  0  0  0  0  # atno 6907 bound_to 6896
  150.7555  134.6237  159.6159 H   0  0  0  0  0  0  0  0  0  0  0  0  # atno 6908 bound_to 6896
  152.3501  134.7020  160.0290 H   0  0  0  0  0  0  0  0  0  0  0  0  # atno 6909 bound_to 6896
  145.3607  140.9491  143.2502 H   0  0  0  0  0  0  0  0  0  0  0  0  # atno 7974 bound_to 7965
  155.5824  140.0644  157.2779 H   0  0  0  0  0  0  0  0  0  0  0  0  # atno 8008 bound_to 7997
  154.4328  140.1849  156.1037 H   0  0  0  0  0  0  0  0  0  0  0  0  # atno 8009 bound_to 7997
  156.0295  140.3308  155.7127 H   0  0  0  0  0  0  0  0  0  0  0  0  # atno 8010 bound_to 7997
  140.7048  143.3180  151.2861 H   0  0  0  0  0  0  0  0  0  0  0  0  # atno 10167 bound_to 10162
  157.5838  130.9002  149.9479 H   0  0  0  0  0  0  0  0  0  0  0  0  # atno 10718 bound_to 10713
  153.5720  135.7007  153.5500 H   0  0  0  0  0  0  0  0  0  0  0  0  # atno 10763 bound_to 10752
  153.3336  135.4040  155.1515 H   0  0  0  0  0  0  0  0  0  0  0  0  # atno 10764 bound_to 10752
  154.8631  135.3725  154.5243 H   0  0  0  0  0  0  0  0  0  0  0  0  # atno 10765 bound_to 10752
  139.9548  134.9615  156.8968 H   0  0  0  0  0  0  0  0  0  0  0  0  # atno 11005 bound_to 11000
  144.8648  139.5123  143.6795 LP  0  0  0  0  0  0  0  0  0  0  0  0  # atno 17320 bound_to 7965
  146.2928  139.7190  142.9148 LP  0  0  0  0  0  0  0  0  0  0  0  0  # atno 17321 bound_to 7965
  139.6625  144.0163  152.2702 LP  0  0  0  0  0  0  0  0  0  0  0  0  # atno 17342 bound_to 10162
  139.9735  144.6477  150.7967 LP  0  0  0  0  0  0  0  0  0  0  0  0  # atno 17343 bound_to 10162
  156.0886  130.3665  150.0440 LP  0  0  0  0  0  0  0  0  0  0  0  0  # atno 17370 bound_to 10713
  156.8574  130.9480  151.3621 LP  0  0  0  0  0  0  0  0  0  0  0  0  # atno 17371 bound_to 10713
  140.5634  134.0513  155.7406 LP  0  0  0  0  0  0  0  0  0  0  0  0  # atno 17394 bound_to 11000
  141.1218  133.9449  157.2715 LP  0  0  0  0  0  0  0  0  0  0  0  0  # atno 17395 bound_to 11000

$$$$
