AV-unprocessed.smi:695|AV-procd|sdf|3384|dock6
  -GOLD-   22720 0363D 1   1.00000     0.00000
 Structure written by MMmdl.
 38 39  0  0  0  0  0  0  0  0  1 V2000
  147.1689  140.8653  153.2135 C   0  0  0  0  0  0  0  0  0  0  0  0
  146.8536  139.3709  153.0629 C   0  0  0  0  0  0  0  0  0  0  0  0
  148.0580  138.5600  153.1932 N   0  0  0  0  0  0  0  0  0  0  0  0
  148.8511  138.5363  154.2731 C   0  0  0  0  0  0  0  0  0  0  0  0
  148.6260  139.1659  155.3069 O   0  0  0  0  0  0  0  0  0  0  0  0
  149.9321  137.7667  154.0788 N   0  0  0  0  0  0  0  0  0  0  0  0
  151.0246  137.5841  155.0319 C   0  0  0  0  0  0  0  0  0  0  0  0
  152.0652  138.7195  154.9594 C   0  0  0  0  0  0  0  0  0  0  0  0
  151.7378  139.8891  155.8413 C   0  0  0  0  0  0  0  0  0  0  0  0
  150.7853  140.8523  155.6151 C   0  0  0  0  0  0  0  0  0  0  0  0
  150.6878  141.9923  156.9286 S   0  0  0  0  0  0  0  0  0  0  0  0
  151.9819  141.1155  157.7396 C   0  0  0  0  0  0  0  0  0  0  0  0
  152.4781  141.5076  158.9794 N   0  0  0  0  0  0  0  0  0  0  0  0
  153.3714  140.7328  159.8351 C   0  0  0  0  0  0  0  0  0  0  0  0
  153.8910  141.6631  160.9279 C   0  0  0  0  0  0  0  0  0  0  0  0
  152.7349  142.6287  161.1016 C   0  0  0  0  0  0  0  0  0  0  0  0
  152.2044  142.7612  159.6757 C   0  0  0  0  0  0  0  0  0  0  0  0
  152.4207  140.0601  157.0493 N   0  0  0  0  0  0  0  0  0  0  0  0
  146.2686  141.4660  153.0840 H   0  0  0  0  0  0  0  0  0  0  0  0
  147.8958  141.1914  152.4692 H   0  0  0  0  0  0  0  0  0  0  0  0
  147.5767  141.0884  154.2001 H   0  0  0  0  0  0  0  0  0  0  0  0
  146.1063  139.0644  153.7966 H   0  0  0  0  0  0  0  0  0  0  0  0
  146.4199  139.1827  152.0807 H   0  0  0  0  0  0  0  0  0  0  0  0
  148.3240  138.0060  152.3925 H   0  0  0  0  0  0  0  0  0  0  0  0
  150.0210  137.2917  153.1926 H   0  0  0  0  0  0  0  0  0  0  0  0
  150.6367  137.4915  156.0479 H   0  0  0  0  0  0  0  0  0  0  0  0
  151.5091  136.6342  154.8057 H   0  0  0  0  0  0  0  0  0  0  0  0
  153.0436  138.3197  155.2282 H   0  0  0  0  0  0  0  0  0  0  0  0
  152.1594  139.0515  153.9249 H   0  0  0  0  0  0  0  0  0  0  0  0
  150.1223  140.9467  154.7681 H   0  0  0  0  0  0  0  0  0  0  0  0
  152.8036  139.9103  160.2717 H   0  0  0  0  0  0  0  0  0  0  0  0
  154.1917  140.3023  159.2600 H   0  0  0  0  0  0  0  0  0  0  0  0
  154.1541  141.1366  161.8455 H   0  0  0  0  0  0  0  0  0  0  0  0
  154.7738  142.1985  160.5755 H   0  0  0  0  0  0  0  0  0  0  0  0
  151.9731  142.1842  161.7436 H   0  0  0  0  0  0  0  0  0  0  0  0
  153.0331  143.5832  161.5359 H   0  0  0  0  0  0  0  0  0  0  0  0
  152.7194  143.5668  159.1513 H   0  0  0  0  0  0  0  0  0  0  0  0
  151.1382  142.9895  159.6730 H   0  0  0  0  0  0  0  0  0  0  0  0
  1  2  1  0  0  0  0
  1 19  1  0  0  0  0
  1 20  1  0  0  0  0
  1 21  1  0  0  0  0
  2  3  1  0  0  0  0
  2 22  1  0  0  0  0
  2 23  1  0  0  0  0
  3  4  1  0  0  0  0
  3 24  1  0  0  0  0
  4  5  2  0  0  0  0
  4  6  1  0  0  0  0
  6  7  1  0  0  0  0
  6 25  1  0  0  0  0
  7  8  1  0  0  0  0
  7 26  1  0  0  0  0
  7 27  1  0  0  0  0
  8  9  1  0  0  0  0
  8 28  1  0  0  0  0
  8 29  1  0  0  0  0
  9 18  1  0  0  0  0
  9 10  2  0  0  0  0
 10 11  1  0  0  0  0
 10 30  1  0  0  0  0
 11 12  1  0  0  0  0
 12 13  1  0  0  0  0
 12 18  2  0  0  0  0
 13 17  1  0  0  0  0
 13 14  1  0  0  0  0
 14 15  1  0  0  0  0
 14 31  1  0  0  0  0
 14 32  1  0  0  0  0
 15 16  1  0  0  0  0
 15 33  1  0  0  0  0
 15 34  1  0  0  0  0
 16 17  1  0  0  0  0
 16 35  1  0  0  0  0
 16 36  1  0  0  0  0
 17 37  1  0  0  0  0
 17 38  1  0  0  0  0
M  END
> <s_m_source_file>
AV-unprocessed.smi

> <i_m_source_file_index>
695

> <i_lp_mmshare_version>
43012

> <i_f3d_flags>
0

> <s_epik_input>
W0NIM11bQ0gyXVtOSF1DKD1PKVtOSF1bQ0gyXVtDSDJdYzFbY0hdc2MobjEpTjJbQ0gyXVtDSDJdW0NIMl1bQ0gyXTI=

> <s_epik_cmdline>
J2VwaWtfcHl0aG9uJywgJy1waCcsICc3LjAnLCAnLXRuJywgJzgnLCAnLW1hJywgJzIwMCcsICctbWV0YWxfYmluZGluZycsICctaW1hZScsICc8aW5maWxlLm1hZT4nLCAnLW9tYWUnLCAnPG91dGZpbGUubWFlPic=

> <r_epik_Ionization_Penalty>
0.166233

> <r_epik_Ionization_Penalty_Charging>
0

> <r_epik_Ionization_Penalty_Neutral>
0.166233

> <r_epik_State_Penalty>
0.155475

> <r_epik_Charging_Adjusted_Penalty>
0.155475

> <i_epik_Tot_Q>
0

> <i_epik_Tot_abs_Q>
0

> <r_epik_Metal_State_Penalty>
0.121092

> <b_epik_Metal_Only>
0

> <s_lp_Force_Field>
OPLS_2005

> <r_lp_Energy>
13.2485

> <b_lp_Chiralities_Consistent>
1

> <s_lp_Variant>
AV-unprocessed.smi:695-1

> <Gold.Version>
5.8.1

> <Gold.Id.Protein>
6NUR|6NUR_protein|mol2

> <Gold.PLP.Fitness>
49.1478

> <Gold.PLP.PLP>
-41.8880

> <Gold.PLP.part.hbond>
-4.0000

> <Gold.PLP.part.metal>
0.0000

> <Gold.PLP.part.buried>
-4.4702

> <Gold.PLP.part.nonpolar>
-34.6464

> <Gold.PLP.part.repulsive>
0.1294

> <Gold.PLP.ligand.clash>
0.0000

> <Gold.PLP.ligand.torsion>
0.5977

> <Gold.PLP.Chemscore.Hbond>
2.8080

> <Gold.PLP.Chemscore.CHOScore>
0.0000

> <Gold.PLP.Chemscore.Metal>
0.0000

> <Gold.Chemscore.Hbonds>
donor molecule, donor type, donor heavy atom, donor atom, acceptor molecule, acceptor atom, score
      L1  H     3    24       P1  7948  0.88
      L1  H     6    25       P1  7948  0.82
      P1  H  7997  8009       L1    18  1.00

> <Gold.PLP.Chemscore.Internal.Correction>
0.0313

> <Gold.Rescore>
     Score         DG    S(hbond)    S(metal)    S(lipo)     H(rot)  DE(clash)    DE(int)     intcor
     17.22     -19.38       2.31        0.00      89.97       1.70       0.07       2.09       ----

> <Gold.Chemscore.Fitness>
17.2187

> <Gold.Chemscore.DG>
-19.3771

> <Gold.Chemscore.ZeroCoef>
-5.4800

> <Gold.Chemscore.Hbond>
2.3095

> <Gold.Chemscore.Metal>
0.0000

> <Gold.Chemscore.Lipo>
89.9664

> <Gold.Chemscore.Internal_Hbond>
0.0000

> <Gold.Chemscore.DEClash>
0.0715

> <Gold.Chemscore.DEInternal>
2.0870

> <Gold.Chemscore.Rot>
1.6963

> <Gold.Chemscore.Internal.Correction>
   9.000000E+99

> <Gold.Chemscore.Hbonds>
donor molecule, donor type, donor heavy atom, donor atom, acceptor molecule, acceptor atom, score
      L1  H     3    24       P1  7948  0.86
      L1  H     6    25       P1  7948  0.18
      P1  H  7997  8009       L1    18  0.51

> <Gold.Chemscore.Hbond.Weighted>
-7.7137

> <Gold.Chemscore.Metal.Weighted>
-0.0000

> <Gold.Chemscore.Lipo.Weighted>
-10.5261

> <Gold.Chemscore.Internal_Hbond.Weighted>
0.0000

> <Gold.Chemscore.DEClash.Weighted>
0.0715

> <Gold.Chemscore.DEInternal.Weighted>
2.0870

> <Gold.Chemscore.Rot.Weighted>
4.3426

> <Gold.Chemscore.Internal.Correction.Weighted>
   9.000000E+99

> <Gold.Protein.RotatedTorsions>
[ 6907 6896 6895 6894 ] final   54.29 input  -60.11 | X-H torsion
[ 7974 7965 7964 7962 ] final -104.70 input  175.53 | X-H torsion
[ 8008 7997 7996 7995 ] final -179.45 input   59.86 | X-H torsion
[ 10167 10162 10161 10158 ] final  -67.57 input  -65.29 | X-H torsion
[ 10718 10713 10712 10709 ] final    3.20 input   66.30 | X-H torsion
[ 10763 10752 10751 10750 ] final   59.84 input  -60.55 | X-H torsion
[ 11005 11000 10999 10996 ] final  125.10 input  -57.11 | X-H torsion

> <Gold.Protein.ActiveResidues>
 VAL166  LYS551  ARG553  GLY616  TRP617  ASP618  TYR619  PRO620  LYS621  CYS622 
 ASP623  PHE694  ASN695  SER759  ASP760  ASP761  ALA762  ILE779  LEU786  VAL792 
 PHE793  MET794  SER795  GLU796  ALA797  LYS798  CYS799  TRP800  GLU811  SER814 

> <Gold.Protein.RotatedAtoms>
  152.3423  134.7117  160.0259 H   0  0  0  0  0  0  0  0  0  0  0  0  # atno 6907 bound_to 6896
  151.7498  133.3321  159.3396 H   0  0  0  0  0  0  0  0  0  0  0  0  # atno 6908 bound_to 6896
  150.7487  134.6135  159.6143 H   0  0  0  0  0  0  0  0  0  0  0  0  # atno 6909 bound_to 6896
  145.2398  140.9201  143.3157 H   0  0  0  0  0  0  0  0  0  0  0  0  # atno 7974 bound_to 7965
  156.0307  140.1281  157.0261 H   0  0  0  0  0  0  0  0  0  0  0  0  # atno 8008 bound_to 7997
  154.4349  140.1050  156.6165 H   0  0  0  0  0  0  0  0  0  0  0  0  # atno 8009 bound_to 7997
  155.5811  140.3468  155.4543 H   0  0  0  0  0  0  0  0  0  0  0  0  # atno 8010 bound_to 7997
  140.5573  143.2312  151.6797 H   0  0  0  0  0  0  0  0  0  0  0  0  # atno 10167 bound_to 10162
  156.8743  130.5631  149.5656 H   0  0  0  0  0  0  0  0  0  0  0  0  # atno 10718 bound_to 10713
  152.9905  135.5557  154.5778 H   0  0  0  0  0  0  0  0  0  0  0  0  # atno 10763 bound_to 10752
  154.5165  135.2805  155.1301 H   0  0  0  0  0  0  0  0  0  0  0  0  # atno 10764 bound_to 10752
  154.2671  135.6370  153.5349 H   0  0  0  0  0  0  0  0  0  0  0  0  # atno 10765 bound_to 10752
  139.9390  134.9637  156.8509 H   0  0  0  0  0  0  0  0  0  0  0  0  # atno 11005 bound_to 11000
  144.9600  139.3990  143.6360 LP  0  0  0  0  0  0  0  0  0  0  0  0  # atno 17320 bound_to 7965
  146.3331  139.8648  142.8850 LP  0  0  0  0  0  0  0  0  0  0  0  0  # atno 17321 bound_to 7965
  139.5053  144.3720  152.0460 LP  0  0  0  0  0  0  0  0  0  0  0  0  # atno 17342 bound_to 10162
  140.2843  144.3824  150.6109 LP  0  0  0  0  0  0  0  0  0  0  0  0  # atno 17343 bound_to 10162
  156.0710  130.5743  150.9383 LP  0  0  0  0  0  0  0  0  0  0  0  0  # atno 17370 bound_to 10713
  157.6177  131.0932  150.8680 LP  0  0  0  0  0  0  0  0  0  0  0  0  # atno 17371 bound_to 10713
  140.6000  134.0181  155.7533 LP  0  0  0  0  0  0  0  0  0  0  0  0  # atno 17394 bound_to 11000
  141.1017  133.9758  157.3067 LP  0  0  0  0  0  0  0  0  0  0  0  0  # atno 17395 bound_to 11000

$$$$
