#       Name:                AV-unprocessed.smi:1626
#       Creating user name   scv26
#       Creation time:       Fri Mar 27 07:18:20 2020


#       File generated by GOLD software.
#

@<TRIPOS>MOLECULE
AV-unprocessed.smi:1626
    53    55     1
SMALL
NO_CHARGES


@<TRIPOS>ATOM
      1 ****        -2.6411   3.7241  -3.4452 C.3            1 S1                 0.0000
      2 ****        -2.5512   2.5267  -2.5145 C.ar           1 S1                 0.0000
      3 ****        -3.0624   2.6525  -1.2028 C.ar           1 S1                 0.0000
      4 ****        -2.9695   1.5389  -0.3765 C.ar           1 S1                 0.0000
      5 ****        -3.3805   1.3410   0.9435 N.pl3          1 S1                 1.0000
      6 ****        -3.0774   0.0704   1.3287 C.2            1 S1                 0.0000
      7 ****        -2.4666  -0.5419   0.2773 N.pl3          1 S1                 0.0000
      8 ****        -1.9454  -1.9092   0.1510 C.3            1 S1                 0.0000
      9 ****        -0.4065  -1.9880   0.2309 C.3            1 S1                 0.0000
     10 ****        -0.0515  -3.3504   0.1081 O.3            1 S1                 0.0000
     11 ****         0.1674  -1.4309   1.5532 C.3            1 S1                 0.0000
     12 ****         1.6528  -1.4040   1.5718 N.4            1 S1                 1.0000
     13 ****         2.1971  -1.4467   2.9536 C.3            1 S1                 0.0000
     14 ****         3.7315  -1.5700   2.9466 C.3            1 S1                 0.0000
     15 ****         4.3958  -0.4509   2.1281 C.3            1 S1                 0.0000
     16 ****         4.2621   0.7859   2.7993 O.3            1 S1                 0.0000
     17 ****         3.7647  -0.3672   0.7285 C.3            1 S1                 0.0000
     18 ****         2.2292  -0.2735   0.7951 C.3            1 S1                 0.0000
     19 ****        -2.3886   0.3322  -0.8121 C.ar           1 S1                 0.0000
     20 ****        -1.8814   0.1903  -2.1012 C.ar           1 S1                 0.0000
     21 ****        -1.9686   1.3110  -2.9577 C.ar           1 S1                 0.0000
     22 ****        -1.4249   1.1867  -4.3709 C.3            1 S1                 0.0000
     23 ****        -3.1447   4.5651  -2.9671 H              1 S1                 0.0000
     24 ****        -3.2019   3.4699  -4.3448 H              1 S1                 0.0000
     25 ****        -1.6450   4.0557  -3.7394 H              1 S1                 0.0000
     26 ****        -3.5098   3.5741  -0.8598 H              1 S1                 0.0000
     27 ****        -3.2828  -0.3698   2.2941 H              1 S1                 0.0000
     28 ****        -2.3962  -2.5022   0.9484 H              1 S1                 0.0000
     29 ****        -2.3104  -2.3261  -0.7890 H              1 S1                 0.0000
     30 ****         0.0128  -1.4575  -0.6224 H              1 S1                 0.0000
     31 ****         0.8827  -3.4176  -0.0164 H              1 S1                 0.0000
     32 ****        -0.1982  -0.4217   1.7464 H              1 S1                 0.0000
     33 ****        -0.2044  -2.0470   2.3736 H              1 S1                 0.0000
     34 ****         1.8889  -0.5511   3.4955 H              1 S1                 0.0000
     35 ****         1.7772  -2.2992   3.4890 H              1 S1                 0.0000
     36 ****         4.1134  -1.5697   3.9683 H              1 S1                 0.0000
     37 ****         4.0071  -2.5352   2.5199 H              1 S1                 0.0000
     38 ****         5.4631  -0.6541   2.0356 H              1 S1                 0.0000
     39 ****         4.7697   1.4371   2.3382 H              1 S1                 0.0000
     40 ****         4.1704   0.4835   0.1794 H              1 S1                 0.0000
     41 ****         4.0414  -1.2555   0.1589 H              1 S1                 0.0000
     42 ****         1.8351  -0.2671  -0.2202 H              1 S1                 0.0000
     43 ****         1.9299   0.6719   1.2504 H              1 S1                 0.0000
     44 ****        -1.4422  -0.7364  -2.4402 H              1 S1                 0.0000
     45 ****        -0.9984   0.1992  -4.5491 H              1 S1                 0.0000
     46 ****        -0.6419   1.9245  -4.5473 H              1 S1                 0.0000
     47 ****        -2.2191   1.3423  -5.1015 H              1 S1                 0.0000
     48 ****         1.9583  -2.2574   1.1269 H              1 S1                 0.0000
     49 ****        -3.8418   2.0190   1.5371 H              1 S1                 0.0000
     50 ****        -0.5233  -3.7496  -0.6780 LP             1 S1                 0.0000
     51 ****        -0.3144  -3.8409   0.9390 LP             1 S1                 0.0000
     52 ****         4.5990   0.6982   3.7368 LP             1 S1                 0.0000
     53 ****         3.3000   1.0581   2.8150 LP             1 S1                 0.0000
@<TRIPOS>BOND
    1    1    2 1     
    2    1   23 1     
    3    1   24 1     
    4    1   25 1     
    5    2   21 ar    
    6    2    3 ar    
    7    3    4 ar    
    8    3   26 1     
    9    4   19 ar    
   10    4    5 1     
   11    5    6 2     
   12    5   49 1     
   13    6    7 1     
   14    6   27 1     
   15    7    8 1     
   16    7   19 1     
   17    8    9 1     
   18    8   28 1     
   19    8   29 1     
   20    9   10 1     
   21    9   11 1     
   22    9   30 1     
   23   10   31 1     
   24   11   12 1     
   25   11   32 1     
   26   11   33 1     
   27   12   18 1     
   28   12   13 1     
   29   12   48 1     
   30   13   14 1     
   31   13   34 1     
   32   13   35 1     
   33   14   15 1     
   34   14   36 1     
   35   14   37 1     
   36   15   16 1     
   37   15   17 1     
   38   15   38 1     
   39   16   39 1     
   40   17   18 1     
   41   17   40 1     
   42   17   41 1     
   43   18   42 1     
   44   18   43 1     
   45   19   20 ar    
   46   20   21 ar    
   47   20   44 1     
   48   21   22 1     
   49   22   45 1     
   50   22   46 1     
   51   22   47 1     
   52   10   50 1     
   53   10   51 1     
   54   16   52 1     
   55   16   53 1     
@<TRIPOS>SUBSTRUCTURE
      1 S1             1
@<TRIPOS>SET
LONE_PAIRS      STATIC     ATOMS    <user>   **** ""
4 50 51 52 53
DONOR_HYDROGENS      STATIC     ATOMS    <user>   **** ""
4 49 31 48 39
ATOM$BLUE        STATIC     ATOMS    COLORGROUP SYSTEM
4 50 51 52 53
ATOM$RED        STATIC     ATOMS    COLORGROUP SYSTEM
4 49 31 48 39
