#       Name:                AV-unprocessed.smi:60
#       Creating user name   scv26
#       Creation time:       Thu Mar 26 16:48:47 2020


#       File generated by GOLD software.
#

@<TRIPOS>MOLECULE
AV-unprocessed.smi:60
    44    45     1
SMALL
NO_CHARGES


@<TRIPOS>ATOM
      1 ****         0.1606   3.4088   0.7970 O.2            1 S1                 0.0000
      2 ****         0.3746   2.1989   0.7409 C.2            1 S1                 0.0000
      3 ****         1.1577   1.5917   1.7274 N.am           1 S1                 0.0000
      4 ****         1.4740   0.2354   1.7921 C.2            1 S1                 0.0000
      5 ****         2.1809  -0.1930   2.7045 O.2            1 S1                 0.0000
      6 ****         0.9438  -0.5867   0.7762 N.am           1 S1                 0.0000
      7 ****         1.2954  -1.9952   0.8066 C.3            1 S1                 0.0000
      8 ****         2.6375  -2.1356   0.4692 O.3            1 S1                 0.0000
      9 ****         3.0860  -3.4811   0.5146 C.3            1 S1                 0.0000
     10 ****         4.5656  -3.5308   0.1154 C.3            1 S1                 0.0000
     11 ****         4.6884  -3.5603  -1.2905 O.3            1 S1                 0.0000
     12 ****         0.1793  -0.0274  -0.2339 C.2            1 S1                 0.0000
     13 ****        -0.1297   1.2929  -0.2973 C.2            1 S1                 0.0000
     14 ****        -0.9790   1.8682  -1.4212 C.3            1 S1                 0.0000
     15 ****        -2.4514   1.9745  -1.0663 C.ar           1 S1                 0.0000
     16 ****        -3.2204   0.8070  -0.8738 C.ar           1 S1                 0.0000
     17 ****        -4.5849   0.9045  -0.5386 C.ar           1 S1                 0.0000
     18 ****        -5.1869   2.1695  -0.3968 C.ar           1 S1                 0.0000
     19 ****        -4.4235   3.3371  -0.5904 C.ar           1 S1                 0.0000
     20 ****        -3.0583   3.2403  -0.9239 C.ar           1 S1                 0.0000
     21 ****         1.5271   2.1870   2.4544 H              1 S1                 0.0000
     22 ****         1.0860  -2.3940   1.8023 H              1 S1                 0.0000
     23 ****         0.6732  -2.5321   0.0880 H              1 S1                 0.0000
     24 ****         2.9805  -3.8479   1.5370 H              1 S1                 0.0000
     25 ****         2.4841  -4.1289  -0.1254 H              1 S1                 0.0000
     26 ****         5.1187  -2.6880   0.5312 H              1 S1                 0.0000
     27 ****         5.0219  -4.4411   0.5047 H              1 S1                 0.0000
     28 ****         5.6065  -3.6024  -1.5111 H              1 S1                 0.0000
     29 ****        -0.1965  -0.6786  -1.0104 H              1 S1                 0.0000
     30 ****        -0.5889   2.8416  -1.7224 H              1 S1                 0.0000
     31 ****        -0.8890   1.2310  -2.3018 H              1 S1                 0.0000
     32 ****        -2.7653  -0.1668  -0.9801 H              1 S1                 0.0000
     33 ****        -5.1695   0.0088  -0.3895 H              1 S1                 0.0000
     34 ****        -6.2332   2.2443  -0.1397 H              1 S1                 0.0000
     35 ****        -4.8847   4.3077  -0.4811 H              1 S1                 0.0000
     36 ****        -2.4790   4.1409  -1.0666 H              1 S1                 0.0000
     37 ****        -0.3990   3.8506   0.0958 LP             1 S1                 0.0000
     38 ****         0.5461   3.9507   1.5438 LP             1 S1                 0.0000
     39 ****         2.5301   0.4324   3.4022 LP             1 S1                 0.0000
     40 ****         2.4058  -1.1664   2.7478 LP             1 S1                 0.0000
     41 ****         3.1845  -1.5962   1.1093 LP             1 S1                 0.0000
     42 ****         2.7703  -1.7872  -0.4587 LP             1 S1                 0.0000
     43 ****         4.2852  -2.7330  -1.6816 LP             1 S1                 0.0000
     44 ****         4.2172  -4.3643  -1.6533 LP             1 S1                 0.0000
@<TRIPOS>BOND
    1    1    2 2     
    2    2   13 1     
    3    2    3 1     
    4    3   21 1     
    5    3    4 1     
    6    4    5 2     
    7    4    6 1     
    8    6    7 1     
    9    6   12 1     
   10    7    8 1     
   11    7   22 1     
   12    7   23 1     
   13    8    9 1     
   14    9   10 1     
   15    9   24 1     
   16    9   25 1     
   17   10   11 1     
   18   10   26 1     
   19   10   27 1     
   20   11   28 1     
   21   12   13 2     
   22   12   29 1     
   23   13   14 1     
   24   14   15 1     
   25   14   30 1     
   26   14   31 1     
   27   15   20 ar    
   28   15   16 ar    
   29   16   17 ar    
   30   16   32 1     
   31   17   18 ar    
   32   17   33 1     
   33   18   19 ar    
   34   18   34 1     
   35   19   20 ar    
   36   19   35 1     
   37   20   36 1     
   38    1   37 1     
   39    1   38 1     
   40    5   39 1     
   41    5   40 1     
   42    8   41 1     
   43    8   42 1     
   44   11   43 1     
   45   11   44 1     
@<TRIPOS>SUBSTRUCTURE
      1 S1             1
@<TRIPOS>SET
LONE_PAIRS      STATIC     ATOMS    <user>   **** ""
8 37 38 39 40 41 42 43 44
DONOR_HYDROGENS      STATIC     ATOMS    <user>   **** ""
2 21 28
ATOM$BLUE        STATIC     ATOMS    COLORGROUP SYSTEM
8 37 38 39 40 41 42 43 44
ATOM$RED        STATIC     ATOMS    COLORGROUP SYSTEM
2 21 28
