AV-unprocessed.smi:664|AV-procd|sdf|3251|dock6
  -GOLD-   22720 0203D 1   1.00000     0.00000
 Structure written by MMmdl.
 31 32  0  0  0  0  0  0  0  0  1 V2000
  147.9976  139.0758  153.7452 C   0  0  0  0  0  0  0  0  0  0  0  0
  149.3985  139.0519  154.2817 C   0  0  0  0  0  0  0  0  0  0  0  0
  150.2668  137.8962  154.1643 C   0  0  0  0  0  0  0  0  0  0  0  0
  151.5166  137.9533  154.6718 C   0  0  0  0  0  0  0  0  0  0  0  0
  152.0217  139.1519  155.3381 C   0  0  0  0  0  0  0  0  0  0  0  0
  153.1560  139.2328  155.8086 O   0  0  0  0  0  0  0  0  0  0  0  0
  151.1175  140.1741  155.3884 N   0  0  0  0  0  0  0  0  0  0  0  0
  151.4569  141.4610  156.0082 C   0  0  0  0  0  0  0  0  0  0  0  0
  150.5605  141.7744  157.2258 C   0  0  2  0  0  0  0  0  0  0  0  0
  149.3277  142.2997  156.7728 O   0  0  0  0  0  0  0  0  0  0  0  0
  151.2554  142.7381  158.1761 C   0  0  0  0  0  0  0  0  0  0  0  0
  151.5267  144.0603  157.7633 C   0  0  0  0  0  0  0  0  0  0  0  0
  152.1606  144.9624  158.6397 C   0  0  0  0  0  0  0  0  0  0  0  0
  152.5258  144.5481  159.9350 C   0  0  0  0  0  0  0  0  0  0  0  0
  152.2542  143.2316  160.3550 C   0  0  0  0  0  0  0  0  0  0  0  0
  152.6978  142.7235  161.9430 Cl  0  0  0  0  0  0  0  0  0  0  0  0
  151.6190  142.3296  159.4789 C   0  0  0  0  0  0  0  0  0  0  0  0
  149.8339  140.1179  154.8691 N   0  0  0  0  0  0  0  0  0  0  0  0
  147.6841  138.0841  153.4184 H   0  0  0  0  0  0  0  0  0  0  0  0
  147.9218  139.7491  152.8910 H   0  0  0  0  0  0  0  0  0  0  0  0
  147.2926  139.4132  154.5059 H   0  0  0  0  0  0  0  0  0  0  0  0
  149.9093  137.0026  153.6742 H   0  0  0  0  0  0  0  0  0  0  0  0
  152.1621  137.0919  154.5834 H   0  0  0  0  0  0  0  0  0  0  0  0
  152.4940  141.3929  156.3428 H   0  0  0  0  0  0  0  0  0  0  0  0
  151.4495  142.2852  155.2922 H   0  0  0  0  0  0  0  0  0  0  0  0
  150.3439  140.8546  157.7712 H   0  0  0  0  0  0  0  0  0  0  0  0
  149.4729  143.1798  156.4611 H   0  0  0  0  0  0  0  0  0  0  0  0
  151.2475  144.3893  156.7728 H   0  0  0  0  0  0  0  0  0  0  0  0
  152.3658  145.9731  158.3186 H   0  0  0  0  0  0  0  0  0  0  0  0
  153.0117  145.2417  160.6055 H   0  0  0  0  0  0  0  0  0  0  0  0
  151.4094  141.3227  159.8100 H   0  0  0  0  0  0  0  0  0  0  0  0
  1  2  1  0  0  0  0
  1 19  1  0  0  0  0
  1 20  1  0  0  0  0
  1 21  1  0  0  0  0
  2 18  2  0  0  0  0
  2  3  1  0  0  0  0
  3  4  2  0  0  0  0
  3 22  1  0  0  0  0
  4  5  1  0  0  0  0
  4 23  1  0  0  0  0
  5  6  2  0  0  0  0
  5  7  1  0  0  0  0
  7  8  1  0  0  0  0
  7 18  1  0  0  0  0
  8  9  1  0  0  0  0
  8 24  1  0  0  0  0
  8 25  1  0  0  0  0
  9 10  1  0  0  0  0
  9 11  1  0  0  0  0
  9 26  1  0  0  0  0
 10 27  1  0  0  0  0
 11 17  1  0  0  0  0
 11 12  2  0  0  0  0
 12 13  1  0  0  0  0
 12 28  1  0  0  0  0
 13 14  2  0  0  0  0
 13 29  1  0  0  0  0
 14 15  1  0  0  0  0
 14 30  1  0  0  0  0
 15 16  1  0  0  0  0
 15 17  2  0  0  0  0
 17 31  1  0  0  0  0
M  END
> <s_m_source_file>
AV-unprocessed.smi

> <i_m_source_file_index>
664

> <i_lp_mmshare_version>
43012

> <i_f3d_flags>
0

> <s_epik_input>
W0NIM11jMVtjSF1bY0hdYyg9TyluKG4xKVtDSDJdW0NASF0oW09IXSljMltjSF1bY0hdW2NIXWMoQ2wpW2NIXTI=

> <s_epik_cmdline>
J2VwaWtfcHl0aG9uJywgJy1waCcsICc3LjAnLCAnLXRuJywgJzgnLCAnLW1hJywgJzIwMCcsICctbWV0YWxfYmluZGluZycsICctaW1hZScsICc8aW5maWxlLm1hZT4nLCAnLW9tYWUnLCAnPG91dGZpbGUubWFlPic=

> <r_lp_tautomer_probability>
1

> <r_epik_Ionization_Penalty>
5.38844e-06

> <r_epik_Ionization_Penalty_Charging>
5.19536e-06

> <r_epik_Ionization_Penalty_Neutral>
1.93084e-07

> <r_epik_State_Penalty>
-0

> <r_epik_Charging_Adjusted_Penalty>
5.19536e-06

> <i_epik_Tot_Q>
0

> <i_epik_Tot_abs_Q>
0

> <r_epik_Metal_State_Penalty>
-0

> <b_epik_Metal_Only>
0

> <s_lp_Force_Field>
OPLS_2005

> <r_lp_Energy>
26.5125

> <b_lp_Chiralities_Consistent>
1

> <s_lp_Variant>
AV-unprocessed.smi:664-1

> <Gold.Version>
5.8.1

> <Gold.Id.Protein>
6NUR|6NUR_protein|mol2

> <Gold.PLP.Fitness>
48.3154

> <Gold.PLP.PLP>
-42.8815

> <Gold.PLP.part.hbond>
-1.9494

> <Gold.PLP.part.metal>
0.0000

> <Gold.PLP.part.buried>
-2.6892

> <Gold.PLP.part.nonpolar>
-37.4774

> <Gold.PLP.part.repulsive>
0.0754

> <Gold.PLP.ligand.clash>
0.0000

> <Gold.PLP.ligand.torsion>
0.2870

> <Gold.PLP.Chemscore.Hbond>
2.0000

> <Gold.PLP.Chemscore.CHOScore>
0.0000

> <Gold.PLP.Chemscore.Metal>
0.0000

> <Gold.Chemscore.Hbonds>
donor molecule, donor type, donor heavy atom, donor atom, acceptor molecule, acceptor atom, score
      L1  H    10    27       P1  8028  1.00
      P1  H  7997  8010       L1     6  1.00

> <Gold.PLP.Chemscore.Internal.Correction>
0.0079

> <Gold.Rescore>
     Score         DG    S(hbond)    S(metal)    S(lipo)     H(rot)  DE(clash)    DE(int)     intcor
     19.40     -21.23       1.98        0.00     118.22       1.84       0.41       1.42       ----

> <Gold.Chemscore.Fitness>
19.4032

> <Gold.Chemscore.DG>
-21.2296

> <Gold.Chemscore.ZeroCoef>
-5.4800

> <Gold.Chemscore.Hbond>
1.9846

> <Gold.Chemscore.Metal>
0.0000

> <Gold.Chemscore.Lipo>
118.2185

> <Gold.Chemscore.Internal_Hbond>
0.0000

> <Gold.Chemscore.DEClash>
0.4098

> <Gold.Chemscore.DEInternal>
1.4166

> <Gold.Chemscore.Rot>
1.8400

> <Gold.Chemscore.Internal.Correction>
   9.000000E+99

> <Gold.Chemscore.Hbonds>
donor molecule, donor type, donor heavy atom, donor atom, acceptor molecule, acceptor atom, score
      L1  H    10    27       P1  8028  0.95
      P1  H  7997  8010       L1     6  0.96

> <Gold.Chemscore.Hbond.Weighted>
-6.6285

> <Gold.Chemscore.Metal.Weighted>
-0.0000

> <Gold.Chemscore.Lipo.Weighted>
-13.8316

> <Gold.Chemscore.Internal_Hbond.Weighted>
0.0000

> <Gold.Chemscore.DEClash.Weighted>
0.4098

> <Gold.Chemscore.DEInternal.Weighted>
1.4166

> <Gold.Chemscore.Rot.Weighted>
4.7105

> <Gold.Chemscore.Internal.Correction.Weighted>
   9.000000E+99

> <Gold.Protein.RotatedTorsions>
[ 6907 6896 6895 6894 ] final   12.31 input  -60.11 | X-H torsion
[ 7974 7965 7964 7962 ] final    0.51 input  175.53 | X-H torsion
[ 8008 7997 7996 7995 ] final   97.59 input   59.86 | X-H torsion
[ 10167 10162 10161 10158 ] final  -16.44 input  -65.29 | X-H torsion
[ 10718 10713 10712 10709 ] final   34.96 input   66.30 | X-H torsion
[ 10763 10752 10751 10750 ] final -133.49 input  -60.55 | X-H torsion
[ 11005 11000 10999 10996 ] final  -53.14 input  -57.11 | X-H torsion

> <Gold.Protein.ActiveResidues>
 VAL166  LYS551  ARG553  GLY616  TRP617  ASP618  TYR619  PRO620  LYS621  CYS622 
 ASP623  PHE694  ASN695  SER759  ASP760  ASP761  ALA762  ILE779  LEU786  VAL792 
 PHE793  MET794  SER795  GLU796  ALA797  LYS798  CYS799  TRP800  GLU811  SER814 

> <Gold.Protein.RotatedAtoms>
  151.7684  135.0792  160.0355 H   0  0  0  0  0  0  0  0  0  0  0  0  # atno 6907 bound_to 6896
  152.3306  133.5949  159.5815 H   0  0  0  0  0  0  0  0  0  0  0  0  # atno 6908 bound_to 6896
  150.7420  133.9790  159.3612 H   0  0  0  0  0  0  0  0  0  0  0  0  # atno 6909 bound_to 6896
  146.2435  140.1127  142.8343 H   0  0  0  0  0  0  0  0  0  0  0  0  # atno 7974 bound_to 7965
  156.0917  140.3256  155.7824 H   0  0  0  0  0  0  0  0  0  0  0  0  # atno 8008 bound_to 7997
  155.4985  140.0567  157.2960 H   0  0  0  0  0  0  0  0  0  0  0  0  # atno 8009 bound_to 7997
  154.4642  140.1981  156.0180 H   0  0  0  0  0  0  0  0  0  0  0  0  # atno 8010 bound_to 7997
  140.7234  143.5116  150.9743 H   0  0  0  0  0  0  0  0  0  0  0  0  # atno 10167 bound_to 10162
  157.3168  130.7427  149.6759 H   0  0  0  0  0  0  0  0  0  0  0  0  # atno 10718 bound_to 10713
  154.8732  135.3764  154.4582 H   0  0  0  0  0  0  0  0  0  0  0  0  # atno 10763 bound_to 10752
  153.5252  135.7028  153.5716 H   0  0  0  0  0  0  0  0  0  0  0  0  # atno 10764 bound_to 10752
  153.3945  135.3964  155.1911 H   0  0  0  0  0  0  0  0  0  0  0  0  # atno 10765 bound_to 10752
  141.0961  133.6624  156.4128 H   0  0  0  0  0  0  0  0  0  0  0  0  # atno 11005 bound_to 11000
  145.0473  140.8991  143.5016 LP  0  0  0  0  0  0  0  0  0  0  0  0  # atno 17320 bound_to 7965
  145.1218  139.2688  143.5584 LP  0  0  0  0  0  0  0  0  0  0  0  0  # atno 17321 bound_to 7965
  139.8830  143.7049  152.3155 LP  0  0  0  0  0  0  0  0  0  0  0  0  # atno 17342 bound_to 10162
  139.7337  144.7576  151.0761 LP  0  0  0  0  0  0  0  0  0  0  0  0  # atno 17343 bound_to 10162
  155.9682  130.4235  150.4565 LP  0  0  0  0  0  0  0  0  0  0  0  0  # atno 17370 bound_to 10713
  157.2573  131.0559  151.2342 LP  0  0  0  0  0  0  0  0  0  0  0  0  # atno 17371 bound_to 10713
  140.5137  134.6371  157.5293 LP  0  0  0  0  0  0  0  0  0  0  0  0  # atno 17394 bound_to 11000
  139.9798  134.7156  155.9881 LP  0  0  0  0  0  0  0  0  0  0  0  0  # atno 17395 bound_to 11000

$$$$
