#       Name:                AV-unprocessed.smi:184
#       Creating user name   scv26
#       Creation time:       Thu Mar 26 19:27:08 2020


#       File generated by GOLD software.
#

@<TRIPOS>MOLECULE
AV-unprocessed.smi:184
    63    67     1
SMALL
NO_CHARGES


@<TRIPOS>ATOM
      1 ****        -5.7245   0.1873  -2.7635 O.2            1 S1                 0.0000
      2 ****        -4.8050  -0.1899  -2.0411 C.2            1 S1                 0.0000
      3 ****        -3.4387   0.5149  -2.1243 C.3            1 S1                 0.0000
      4 ****        -2.3972  -0.0864  -1.2746 N.pl3          1 S1                 0.0000
      5 ****        -1.1444   0.4355  -1.3335 C.ar           1 S1                 0.0000
      6 ****        -0.9813   1.7500  -1.6401 N.ar           1 S1                 0.0000
      7 ****         0.2413   2.2855  -1.6951 C.ar           1 S1                 0.0000
      8 ****         1.4196   1.6961  -1.4877 N.ar           1 S1                 0.0000
      9 ****         1.2662   0.3746  -1.1903 C.ar           1 S1                 0.0000
     10 ****         0.0327  -0.3306  -1.0953 C.ar           1 S1                 0.0000
     11 ****         0.2770  -1.6661  -0.7956 N.2            1 S1                 0.0000
     12 ****         1.5764  -1.7413  -0.7028 C.2            1 S1                 0.0000
     13 ****         2.2500  -0.5601  -0.9172 N.pl3          1 S1                 0.0000
     14 ****         3.6916  -0.3603  -0.8799 C.3            1 S1                 0.0000
     15 ****         4.2651  -0.1439   0.5474 C.3            1 S1                 0.0000
     16 ****         4.0077  -1.3198   1.2932 O.3            1 S1                 0.0000
     17 ****         5.7935   0.0575   0.5246 C.3            1 S1                 0.0000
     18 ****         6.1749   1.4620   0.0220 C.3            1 S1                 0.0000
     19 ****         5.5364   2.4544   0.8181 O.3            1 S1                 0.0000
     20 ****         4.1159   2.3896   0.7558 C.3            1 S1                 0.0000
     21 ****         3.6291   1.0388   1.3094 C.3            1 S1                 0.0000
     22 ****        -2.8095  -0.7024  -0.0119 C.3            1 S1                 0.0000
     23 ****        -3.2650   0.3642   1.0142 C.3            1 S1                 0.0000
     24 ****        -3.8202  -0.2758   2.2948 C.3            1 S1                 0.0000
     25 ****        -4.9694  -1.2418   1.9717 C.3            1 S1                 0.0000
     26 ****        -4.5071  -2.3317   0.9917 C.3            1 S1                 0.0000
     27 ****        -3.9181  -1.7413  -0.3045 C.3            1 S1                 0.0000
     28 ****        -4.9683  -1.1950  -1.1641 N.am           1 S1                 0.0000
     29 ****        -3.1062   0.5019  -3.1632 H              1 S1                 0.0000
     30 ****        -3.5918   1.5588  -1.8469 H              1 S1                 0.0000
     31 ****         0.2814   3.3367  -1.9397 H              1 S1                 0.0000
     32 ****         2.0836  -2.6668  -0.4718 H              1 S1                 0.0000
     33 ****         4.1619  -1.2285  -1.3443 H              1 S1                 0.0000
     34 ****         3.9296   0.4849  -1.5251 H              1 S1                 0.0000
     35 ****         4.3577  -1.2055   2.1636 H              1 S1                 0.0000
     36 ****         6.1951  -0.0625   1.5322 H              1 S1                 0.0000
     37 ****         6.2740  -0.7064  -0.0879 H              1 S1                 0.0000
     38 ****         7.2536   1.6010   0.0925 H              1 S1                 0.0000
     39 ****         5.9114   1.5959  -1.0275 H              1 S1                 0.0000
     40 ****         3.7025   3.2051   1.3492 H              1 S1                 0.0000
     41 ****         3.7806   2.5456  -0.2696 H              1 S1                 0.0000
     42 ****         2.5404   0.9886   1.2895 H              1 S1                 0.0000
     43 ****         3.9091   0.9860   2.3627 H              1 S1                 0.0000
     44 ****        -1.9781  -1.2443   0.4371 H              1 S1                 0.0000
     45 ****        -2.4300   1.0192   1.2656 H              1 S1                 0.0000
     46 ****        -4.0338   1.0061   0.5831 H              1 S1                 0.0000
     47 ****        -3.0237  -0.8103   2.8138 H              1 S1                 0.0000
     48 ****        -4.1681   0.5008   2.9765 H              1 S1                 0.0000
     49 ****        -5.3378  -1.7008   2.8894 H              1 S1                 0.0000
     50 ****        -5.8073  -0.6890   1.5449 H              1 S1                 0.0000
     51 ****        -3.7492  -2.9464   1.4792 H              1 S1                 0.0000
     52 ****        -5.3353  -3.0021   0.7593 H              1 S1                 0.0000
     53 ****        -3.4733  -2.5610  -0.8711 H              1 S1                 0.0000
     54 ****        -5.8765  -1.6332  -1.1123 H              1 S1                 0.0000
     55 ****        -6.6191  -0.2559  -2.7066 LP             1 S1                 0.0000
     56 ****        -5.5782   0.9375  -3.4083 LP             1 S1                 0.0000
     57 ****        -1.7819   2.3198  -1.8257 LP             1 S1                 0.0000
     58 ****         2.3020   2.1634  -1.5432 LP             1 S1                 0.0000
     59 ****        -0.3906  -2.4012  -0.6780 LP             1 S1                 0.0000
     60 ****         4.4482  -2.1019   0.8525 LP             1 S1                 0.0000
     61 ****         3.0216  -1.4778   1.3442 LP             1 S1                 0.0000
     62 ****         5.8285   3.3558   0.4982 LP             1 S1                 0.0000
     63 ****         5.8195   2.3305   1.7691 LP             1 S1                 0.0000
@<TRIPOS>BOND
    1    1    2 2     
    2    2   28 am    
    3    2    3 1     
    4    3    4 1     
    5    3   29 1     
    6    3   30 1     
    7    4    5 1     
    8    4   22 1     
    9    5   10 ar    
   10    5    6 ar    
   11    6    7 ar    
   12    7    8 ar    
   13    7   31 1     
   14    8    9 ar    
   15    9   13 1     
   16    9   10 ar    
   17   10   11 1     
   18   11   12 2     
   19   12   13 1     
   20   12   32 1     
   21   13   14 1     
   22   14   15 1     
   23   14   33 1     
   24   14   34 1     
   25   15   21 1     
   26   15   16 1     
   27   15   17 1     
   28   16   35 1     
   29   17   18 1     
   30   17   36 1     
   31   17   37 1     
   32   18   19 1     
   33   18   38 1     
   34   18   39 1     
   35   19   20 1     
   36   20   21 1     
   37   20   40 1     
   38   20   41 1     
   39   21   42 1     
   40   21   43 1     
   41   22   27 1     
   42   22   23 1     
   43   22   44 1     
   44   23   24 1     
   45   23   45 1     
   46   23   46 1     
   47   24   25 1     
   48   24   47 1     
   49   24   48 1     
   50   25   26 1     
   51   25   49 1     
   52   25   50 1     
   53   26   27 1     
   54   26   51 1     
   55   26   52 1     
   56   27   28 1     
   57   27   53 1     
   58   28   54 1     
   59    1   55 1     
   60    1   56 1     
   61    6   57 1     
   62    8   58 1     
   63   11   59 1     
   64   16   60 1     
   65   16   61 1     
   66   19   62 1     
   67   19   63 1     
@<TRIPOS>SUBSTRUCTURE
      1 S1             1
@<TRIPOS>SET
LONE_PAIRS      STATIC     ATOMS    <user>   **** ""
9 55 56 57 58 59 60 61 62 63
DONOR_HYDROGENS      STATIC     ATOMS    <user>   **** ""
2 35 54
ATOM$BLUE        STATIC     ATOMS    COLORGROUP SYSTEM
9 55 56 57 58 59 60 61 62 63
ATOM$RED        STATIC     ATOMS    COLORGROUP SYSTEM
2 35 54
