#       Name:                AV-unprocessed.smi:103
#       Creating user name   scv26
#       Creation time:       Thu Mar 26 17:55:01 2020


#       File generated by GOLD software.
#

@<TRIPOS>MOLECULE
AV-unprocessed.smi:103
    64    66     1
SMALL
NO_CHARGES


@<TRIPOS>ATOM
      1 ****        -4.1278   4.2988  -1.6490 C.3            1 S1                 0.0000
      2 ****        -2.6800   4.1649  -1.1959 C.2            1 S1                 0.0000
      3 ****        -1.8012   4.9173  -1.6166 O.2            1 S1                 0.0000
      4 ****        -2.5107   3.1630  -0.3215 O.3            1 S1                 0.0000
      5 ****        -1.2164   2.8749   0.1812 C.3            1 S1                 0.0000
      6 ****        -1.2280   1.4976   0.8542 C.3            1 S1                 0.0000
      7 ****        -0.0045   1.2911   1.5421 O.3            1 S1                 0.0000
      8 ****         0.2375  -0.0746   1.6663 C.3            1 S1                 0.0000
      9 ****         1.7016  -0.2995   1.4222 N.pl3          1 S1                 0.0000
     10 ****         2.6008  -1.0993   2.0996 C.2            1 S1                 0.0000
     11 ****         2.2443  -2.1536   3.5014 S.o2           1 S1                 0.0000
     12 ****         1.1973  -3.4624   2.7437 C.3            1 S1                 0.0000
     13 ****         3.5211  -2.7478   3.9278 O.2            1 S1                 0.0000
     14 ****         1.4363  -1.3649   4.4438 O.2            1 S1                 0.0000
     15 ****         3.8169  -1.1450   1.6266 N.2            1 S1                 0.0000
     16 ****         3.7659  -0.2826   0.5411 C.ar           1 S1                 0.0000
     17 ****         4.7143   0.1479  -0.4206 C.ar           1 S1                 0.0000
     18 ****         5.9903  -0.2625  -0.4245 N.pl3          1 S1                 0.0000
     19 ****         4.3135   1.0117  -1.3824 N.ar           1 S1                 0.0000
     20 ****         3.0450   1.4335  -1.4025 C.ar           1 S1                 0.0000
     21 ****         2.0475   1.1202  -0.5716 N.ar           1 S1                 0.0000
     22 ****         2.4533   0.2525   0.4022 C.ar           1 S1                 0.0000
     23 ****        -0.6548  -0.8129   0.6447 C.3            1 S1                 0.0000
     24 ****         0.0954  -1.6571  -0.2240 O.3            1 S1                 0.0000
     25 ****        -0.4748  -2.7306  -0.7908 C.2            1 S1                 0.0000
     26 ****         0.4968  -3.4994  -1.6755 C.3            1 S1                 0.0000
     27 ****        -1.6410  -3.0959  -0.6437 O.2            1 S1                 0.0000
     28 ****        -1.3084   0.3253  -0.1243 C.3            1 S1                 0.0000
     29 ****        -2.6601  -0.0147  -0.4091 O.3            1 S1                 0.0000
     30 ****        -3.1669   0.1678  -1.6408 C.2            1 S1                 0.0000
     31 ****        -4.6220  -0.2692  -1.7381 C.3            1 S1                 0.0000
     32 ****        -2.5722   0.6377  -2.6105 O.2            1 S1                 0.0000
     33 ****        -4.7259   4.7678  -0.8677 H              1 S1                 0.0000
     34 ****        -4.5503   3.3178  -1.8679 H              1 S1                 0.0000
     35 ****        -4.1919   4.9104  -2.5491 H              1 S1                 0.0000
     36 ****        -0.4728   2.8942  -0.6173 H              1 S1                 0.0000
     37 ****        -0.9407   3.6439   0.9038 H              1 S1                 0.0000
     38 ****        -2.0307   1.4350   1.5914 H              1 S1                 0.0000
     39 ****         0.0486  -0.3922   2.6879 H              1 S1                 0.0000
     40 ****         0.9507  -4.2096   3.4975 H              1 S1                 0.0000
     41 ****         1.7421  -3.9362   1.9273 H              1 S1                 0.0000
     42 ****         0.2782  -3.0234   2.3591 H              1 S1                 0.0000
     43 ****         6.3134  -0.9086   0.2813 H              1 S1                 0.0000
     44 ****         6.6280   0.0805  -1.1281 H              1 S1                 0.0000
     45 ****         2.7930   2.1199  -2.1975 H              1 S1                 0.0000
     46 ****        -1.3965  -1.3737   1.2164 H              1 S1                 0.0000
     47 ****         1.3559  -3.8325  -1.0930 H              1 S1                 0.0000
     48 ****         0.8528  -2.8640  -2.4865 H              1 S1                 0.0000
     49 ****         0.0115  -4.3742  -2.1088 H              1 S1                 0.0000
     50 ****        -0.7189   0.5456  -1.0159 H              1 S1                 0.0000
     51 ****        -4.7728  -1.2130  -1.2138 H              1 S1                 0.0000
     52 ****        -4.9116  -0.4041  -2.7802 H              1 S1                 0.0000
     53 ****        -5.2721   0.4840  -1.2927 H              1 S1                 0.0000
     54 ****        -2.0307   5.6373  -2.2716 LP             1 S1                 0.0000
     55 ****        -0.8577   4.8085  -1.3034 LP             1 S1                 0.0000
     56 ****        -0.0605   1.7031   2.4515 LP             1 S1                 0.0000
     57 ****         0.7414   1.7159   1.0291 LP             1 S1                 0.0000
     58 ****         4.5958  -1.6733   1.9646 LP             1 S1                 0.0000
     59 ****         4.9617   1.3322  -2.0732 LP             1 S1                 0.0000
     60 ****         1.1170   1.4773  -0.6525 LP             1 S1                 0.0000
     61 ****        -2.2581  -2.5736  -0.0552 LP             1 S1                 0.0000
     62 ****        -1.9713  -3.9149  -1.1128 LP             1 S1                 0.0000
     63 ****        -1.6186   0.9254  -2.5210 LP             1 S1                 0.0000
     64 ****        -3.0425   0.7318  -3.4880 LP             1 S1                 0.0000
@<TRIPOS>BOND
    1    1    2 1     
    2    1   33 1     
    3    1   34 1     
    4    1   35 1     
    5    2    3 2     
    6    2    4 1     
    7    4    5 1     
    8    5    6 1     
    9    5   36 1     
   10    5   37 1     
   11    6   28 1     
   12    6    7 1     
   13    6   38 1     
   14    7    8 1     
   15    8    9 1     
   16    8   23 1     
   17    8   39 1     
   18    9   22 1     
   19    9   10 1     
   20   10   11 1     
   21   10   15 2     
   22   11   12 1     
   23   11   13 2     
   24   11   14 2     
   25   12   40 1     
   26   12   41 1     
   27   12   42 1     
   28   15   16 1     
   29   16   22 ar    
   30   16   17 ar    
   31   17   18 1     
   32   17   19 ar    
   33   18   43 1     
   34   18   44 1     
   35   19   20 ar    
   36   20   21 ar    
   37   20   45 1     
   38   21   22 ar    
   39   23   24 1     
   40   23   28 1     
   41   23   46 1     
   42   24   25 1     
   43   25   26 1     
   44   25   27 2     
   45   26   47 1     
   46   26   48 1     
   47   26   49 1     
   48   28   29 1     
   49   28   50 1     
   50   29   30 1     
   51   30   31 1     
   52   30   32 2     
   53   31   51 1     
   54   31   52 1     
   55   31   53 1     
   56    3   54 1     
   57    3   55 1     
   58    7   56 1     
   59    7   57 1     
   60   15   58 1     
   61   19   59 1     
   62   21   60 1     
   63   27   61 1     
   64   27   62 1     
   65   32   63 1     
   66   32   64 1     
@<TRIPOS>SUBSTRUCTURE
      1 S1             1
@<TRIPOS>SET
LONE_PAIRS      STATIC     ATOMS    <user>   **** ""
13 54 55 56 57 13 14 58 59 60 61 62 63 64
DONOR_HYDROGENS      STATIC     ATOMS    <user>   **** ""
2 43 44
ATOM$BLUE        STATIC     ATOMS    COLORGROUP SYSTEM
13 54 55 56 57 13 14 58 59 60 61 62 63 64
ATOM$RED        STATIC     ATOMS    COLORGROUP SYSTEM
2 43 44
