AV-unprocessed.smi:2152|AV-procd|sdf|8764|dock1
  -GOLD-   2272011543D 1   1.00000     0.00000
 Structure written by MMmdl.
 41 42  0  0  0  0  0  0  0  0  1 V2000
  149.2766  140.4197  154.3155 C   0  0  0  0  0  0  0  0  0  0  0  0
  147.9156  141.0227  154.7042 C   0  0  2  0  0  0  0  0  0  0  0  0
  147.6078  142.2970  153.8908 C   0  0  0  0  0  0  0  0  0  0  0  0
  146.2202  142.8639  154.2316 C   0  0  0  0  0  0  0  0  0  0  0  0
  146.0796  143.1318  155.7373 C   0  0  0  0  0  0  0  0  0  0  0  0
  146.3847  141.8669  156.5590 C   0  0  0  0  0  0  0  0  0  0  0  0
  147.7697  141.2752  156.2276 C   0  0  2  0  0  0  0  0  0  0  0  0
  148.8191  142.1583  156.7410 N   0  0  0  0  0  0  0  0  0  0  0  0
  149.7578  141.8336  157.6432 C   0  0  0  0  0  0  0  0  0  0  0  0
  149.8640  140.7108  158.1385 O   0  0  0  0  0  0  0  0  0  0  0  0
  150.7395  142.9527  158.0159 C   0  0  0  0  0  0  0  0  0  0  0  0
  151.7336  142.5412  159.0152 N   0  0  0  0  0  0  0  0  0  0  0  0
  152.6024  141.5034  158.7307 C   0  0  0  0  0  0  0  0  0  0  0  0
  153.5336  141.0520  159.5992 C   0  0  0  0  0  0  0  0  0  0  0  0
  153.6798  141.6520  160.9200 C   0  0  0  0  0  0  0  0  0  0  0  0
  154.5053  141.2606  161.7456 O   0  0  0  0  0  0  0  0  0  0  0  0
  152.7863  142.7191  161.1808 N   0  0  0  0  0  0  0  0  0  0  0  0
  152.8365  143.3768  162.4700 C   0  0  0  0  0  0  0  0  0  0  0  0
  151.8065  143.1780  160.2727 C   0  0  0  0  0  0  0  0  0  0  0  0
  151.0338  144.0963  160.5589 O   0  0  0  0  0  0  0  0  0  0  0  0
  150.0938  141.1208  154.4867 H   0  0  0  0  0  0  0  0  0  0  0  0
  149.2950  140.1471  153.2601 H   0  0  0  0  0  0  0  0  0  0  0  0
  149.4843  139.5176  154.8916 H   0  0  0  0  0  0  0  0  0  0  0  0
  147.1618  140.2815  154.4339 H   0  0  0  0  0  0  0  0  0  0  0  0
  148.3692  143.0544  154.0817 H   0  0  0  0  0  0  0  0  0  0  0  0
  147.6562  142.0778  152.8235 H   0  0  0  0  0  0  0  0  0  0  0  0
  146.0473  143.7842  153.6728 H   0  0  0  0  0  0  0  0  0  0  0  0
  145.4500  142.1601  153.9133 H   0  0  0  0  0  0  0  0  0  0  0  0
  146.7552  143.9362  156.0305 H   0  0  0  0  0  0  0  0  0  0  0  0
  145.0713  143.4830  155.9584 H   0  0  0  0  0  0  0  0  0  0  0  0
  146.3138  142.0873  157.6249 H   0  0  0  0  0  0  0  0  0  0  0  0
  145.6186  141.1178  156.3548 H   0  0  0  0  0  0  0  0  0  0  0  0
  147.8342  140.3120  156.7371 H   0  0  0  0  0  0  0  0  0  0  0  0
  148.8207  143.1033  156.3858 H   0  0  0  0  0  0  0  0  0  0  0  0
  151.2417  143.2804  157.1047 H   0  0  0  0  0  0  0  0  0  0  0  0
  150.1865  143.8224  158.3758 H   0  0  0  0  0  0  0  0  0  0  0  0
  152.5311  141.0217  157.7663 H   0  0  0  0  0  0  0  0  0  0  0  0
  154.1777  140.2332  159.3138 H   0  0  0  0  0  0  0  0  0  0  0  0
  152.8259  144.4549  162.2988 H   0  0  0  0  0  0  0  0  0  0  0  0
  153.7501  143.1189  163.0054 H   0  0  0  0  0  0  0  0  0  0  0  0
  151.9557  143.0524  163.0263 H   0  0  0  0  0  0  0  0  0  0  0  0
  1  2  1  0  0  0  0
  1 21  1  0  0  0  0
  1 22  1  0  0  0  0
  1 23  1  0  0  0  0
  2  7  1  0  0  0  0
  2  3  1  0  0  0  0
  2 24  1  0  0  0  0
  3  4  1  0  0  0  0
  3 25  1  0  0  0  0
  3 26  1  0  0  0  0
  4  5  1  0  0  0  0
  4 27  1  0  0  0  0
  4 28  1  0  0  0  0
  5  6  1  0  0  0  0
  5 29  1  0  0  0  0
  5 30  1  0  0  0  0
  6  7  1  0  0  0  0
  6 31  1  0  0  0  0
  6 32  1  0  0  0  0
  7  8  1  0  0  0  0
  7 33  1  0  0  0  0
  8  9  1  0  0  0  0
  8 34  1  0  0  0  0
  9 10  2  0  0  0  0
  9 11  1  0  0  0  0
 11 12  1  0  0  0  0
 11 35  1  0  0  0  0
 11 36  1  0  0  0  0
 12 19  1  0  0  0  0
 12 13  1  0  0  0  0
 13 14  2  0  0  0  0
 13 37  1  0  0  0  0
 14 15  1  0  0  0  0
 14 38  1  0  0  0  0
 15 16  2  0  0  0  0
 15 17  1  0  0  0  0
 17 18  1  0  0  0  0
 17 19  1  0  0  0  0
 18 39  1  0  0  0  0
 18 40  1  0  0  0  0
 18 41  1  0  0  0  0
 19 20  2  0  0  0  0
M  END
> <s_m_source_file>
AV-unprocessed.smi

> <i_m_source_file_index>
2152

> <i_lp_mmshare_version>
43012

> <i_f3d_flags>
0

> <s_epik_input>
W0NIM11bQ0BASF0xW0NIMl1bQ0gyXVtDSDJdW0NIMl1bQ0BIXTFbTkhdQyg9TylbQ0gyXW4yW2NIXVtjSF1jKD1PKW4oW0NIM10pYzI9Tw==

> <s_epik_cmdline>
J2VwaWtfcHl0aG9uJywgJy1waCcsICc3LjAnLCAnLXRuJywgJzgnLCAnLW1hJywgJzIwMCcsICctbWV0YWxfYmluZGluZycsICctaW1hZScsICc8aW5maWxlLm1hZT4nLCAnLW9tYWUnLCAnPG91dGZpbGUubWFlPic=

> <r_lp_tautomer_probability>
1

> <r_epik_Ionization_Penalty>
3.20555e-08

> <r_epik_Ionization_Penalty_Charging>
1.30086e-08

> <r_epik_Ionization_Penalty_Neutral>
1.90469e-08

> <r_epik_State_Penalty>
-0

> <r_epik_Charging_Adjusted_Penalty>
1.30086e-08

> <i_epik_Tot_Q>
0

> <i_epik_Tot_abs_Q>
0

> <r_epik_Metal_State_Penalty>
-0

> <b_epik_Metal_Only>
0

> <s_lp_Force_Field>
OPLS_2005

> <r_lp_Energy>
17.3754

> <b_lp_Chiralities_Consistent>
1

> <s_lp_Variant>
AV-unprocessed.smi:2152-3

> <Gold.Version>
5.8.1

> <Gold.Id.Protein>
6NUR|6NUR_protein|mol2

> <Gold.PLP.Fitness>
44.9085

> <Gold.PLP.PLP>
-41.9172

> <Gold.PLP.part.hbond>
-2.0000

> <Gold.PLP.part.metal>
0.0000

> <Gold.PLP.part.buried>
-5.2942

> <Gold.PLP.part.nonpolar>
-34.2190

> <Gold.PLP.part.repulsive>
0.1322

> <Gold.PLP.ligand.clash>
0.0000

> <Gold.PLP.ligand.torsion>
0.0098

> <Gold.PLP.Chemscore.Hbond>
1.0000

> <Gold.PLP.Chemscore.CHOScore>
0.0000

> <Gold.PLP.Chemscore.Metal>
0.0000

> <Gold.Chemscore.Hbonds>
donor molecule, donor type, donor heavy atom, donor atom, acceptor molecule, acceptor atom, score
      L1  H     8    34       P1  8028  1.00

> <Gold.PLP.Chemscore.Internal.Correction>
0.0109

> <Gold.Rescore>
     Score         DG    S(hbond)    S(metal)    S(lipo)     H(rot)  DE(clash)    DE(int)     intcor
     11.99     -13.12       0.98        0.00      70.65       1.52       0.16       0.97       ----

> <Gold.Chemscore.Fitness>
11.9934

> <Gold.Chemscore.DG>
-13.1225

> <Gold.Chemscore.ZeroCoef>
-5.4800

> <Gold.Chemscore.Hbond>
0.9817

> <Gold.Chemscore.Metal>
0.0000

> <Gold.Chemscore.Lipo>
70.6456

> <Gold.Chemscore.Internal_Hbond>
0.0000

> <Gold.Chemscore.DEClash>
0.1605

> <Gold.Chemscore.DEInternal>
0.9686

> <Gold.Chemscore.Rot>
1.5242

> <Gold.Chemscore.Internal.Correction>
   9.000000E+99

> <Gold.Chemscore.Hbonds>
donor molecule, donor type, donor heavy atom, donor atom, acceptor molecule, acceptor atom, score
      L1  H     8    34       P1  8028  0.98

> <Gold.Chemscore.Hbond.Weighted>
-3.2788

> <Gold.Chemscore.Metal.Weighted>
-0.0000

> <Gold.Chemscore.Lipo.Weighted>
-8.2655

> <Gold.Chemscore.Internal_Hbond.Weighted>
0.0000

> <Gold.Chemscore.DEClash.Weighted>
0.1605

> <Gold.Chemscore.DEInternal.Weighted>
0.9686

> <Gold.Chemscore.Rot.Weighted>
3.9019

> <Gold.Chemscore.Internal.Correction.Weighted>
   9.000000E+99

> <Gold.Protein.RotatedTorsions>
[ 6907 6896 6895 6894 ] final   48.22 input  -60.11 | X-H torsion
[ 7974 7965 7964 7962 ] final -169.64 input  175.53 | X-H torsion
[ 8008 7997 7996 7995 ] final -117.28 input   59.86 | X-H torsion
[ 10167 10162 10161 10158 ] final -125.09 input  -65.29 | X-H torsion
[ 10718 10713 10712 10709 ] final  107.44 input   66.30 | X-H torsion
[ 10763 10752 10751 10750 ] final  140.92 input  -60.55 | X-H torsion
[ 11005 11000 10999 10996 ] final  -31.91 input  -57.11 | X-H torsion

> <Gold.Protein.ActiveResidues>
 VAL166  LYS551  ARG553  GLY616  TRP617  ASP618  TYR619  PRO620  LYS621  CYS622 
 ASP623  PHE694  ASN695  SER759  ASP760  ASP761  ALA762  ILE779  LEU786  VAL792 
 PHE793  MET794  SER795  GLU796  ALA797  LYS798  CYS799  TRP800  GLU811  SER814 

> <Gold.Protein.RotatedAtoms>
  152.2770  134.7870  160.0403 H   0  0  0  0  0  0  0  0  0  0  0  0  # atno 6907 bound_to 6896
  151.8462  133.3427  159.3667 H   0  0  0  0  0  0  0  0  0  0  0  0  # atno 6908 bound_to 6896
  150.7174  134.5271  159.5726 H   0  0  0  0  0  0  0  0  0  0  0  0  # atno 6909 bound_to 6896
  144.7182  140.2190  143.6318 H   0  0  0  0  0  0  0  0  0  0  0  0  # atno 7974 bound_to 7965
  155.0812  140.0394  157.2639 H   0  0  0  0  0  0  0  0  0  0  0  0  # atno 8008 bound_to 7997
  154.6905  140.2652  155.6792 H   0  0  0  0  0  0  0  0  0  0  0  0  # atno 8009 bound_to 7997
  156.2727  140.2760  156.1482 H   0  0  0  0  0  0  0  0  0  0  0  0  # atno 8010 bound_to 7997
  139.9858  143.5693  152.2361 H   0  0  0  0  0  0  0  0  0  0  0  0  # atno 10167 bound_to 10162
  157.6628  131.0872  150.6156 H   0  0  0  0  0  0  0  0  0  0  0  0  # atno 10718 bound_to 10713
  153.9306  135.2990  155.3446 H   0  0  0  0  0  0  0  0  0  0  0  0  # atno 10763 bound_to 10752
  154.7528  135.4972  153.9324 H   0  0  0  0  0  0  0  0  0  0  0  0  # atno 10764 bound_to 10752
  153.1093  135.6755  153.9634 H   0  0  0  0  0  0  0  0  0  0  0  0  # atno 10765 bound_to 10752
  140.9508  133.7222  156.1217 H   0  0  0  0  0  0  0  0  0  0  0  0  # atno 11005 bound_to 11000
  145.8519  139.2179  143.1767 LP  0  0  0  0  0  0  0  0  0  0  0  0  # atno 17320 bound_to 7965
  146.0253  140.8310  142.9903 LP  0  0  0  0  0  0  0  0  0  0  0  0  # atno 17321 bound_to 7965
  139.6376  144.7651  151.2406 LP  0  0  0  0  0  0  0  0  0  0  0  0  # atno 17342 bound_to 10162
  140.7472  143.6372  150.8368 LP  0  0  0  0  0  0  0  0  0  0  0  0  # atno 17343 bound_to 10162
  156.6458  130.4471  149.5736 LP  0  0  0  0  0  0  0  0  0  0  0  0  # atno 17370 bound_to 10713
  156.2174  130.6716  151.1333 LP  0  0  0  0  0  0  0  0  0  0  0  0  # atno 17371 bound_to 10713
  140.7605  134.3944  157.5526 LP  0  0  0  0  0  0  0  0  0  0  0  0  # atno 17394 bound_to 11000
  139.8847  134.8958  156.2688 LP  0  0  0  0  0  0  0  0  0  0  0  0  # atno 17395 bound_to 11000

$$$$
