AV-unprocessed.smi:1676|AV-procd|sdf|6719|dock1
  -GOLD-   22720 7463D 1   1.00000     0.00000
 Structure written by MMmdl.
 42 43  0  0  0  0  0  0  0  0  2 V2000
  150.4613  136.5156  155.4766 C   0  0  0  0  0  0  0  0  0  0  0  0
  149.6976  135.6227  156.4119 C   0  0  0  0  0  0  0  0  0  0  0  0
  149.3974  134.3929  156.0295 N   0  0  0  0  0  0  0  0  0  0  0  0
  148.7128  133.8141  157.1024 O   0  0  0  0  0  0  0  0  0  0  0  0
  148.6277  134.7291  158.1012 C   0  0  0  0  0  0  0  0  0  0  0  0
  147.9349  134.2945  159.3478 C   0  0  0  0  0  0  0  0  0  0  0  0
  149.2261  135.9010  157.7277 C   0  0  0  0  0  0  0  0  0  0  0  0
  149.3648  137.1787  158.5206 C   0  0  0  0  0  0  0  0  0  0  0  0
  150.5953  137.9901  158.0943 C   0  0  0  0  0  0  0  0  0  0  0  0
  151.7031  137.4570  158.0252 O   0  0  0  0  0  0  0  0  0  0  0  0
  150.3432  139.2854  157.8268 N   0  0  0  0  0  0  0  0  0  0  0  0
  151.1970  140.4054  157.3871 C   0  0  0  0  0  0  0  0  0  0  0  0
  151.6608  140.0018  155.9609 C   0  0  0  0  0  0  0  0  0  0  0  0
  150.8471  140.0869  155.0138 O   0  0  0  0  0  0  0  0  0  0  0  0
  152.8311  139.5720  155.8398 O   0  5  0  0  0  0  0  0  0  0  0  0
  150.4658  141.7896  157.3628 C   0  0  0  0  0  0  0  0  0  0  0  0
  151.3649  143.0208  157.1386 C   0  0  0  0  0  0  0  0  0  0  0  0
  151.8475  143.6409  158.4602 C   0  0  0  0  0  0  0  0  0  0  0  0
  152.8586  142.7857  159.2386 C   0  0  0  0  0  0  0  0  0  0  0  0
  152.3953  141.3495  159.5473 C   0  0  0  0  0  0  0  0  0  0  0  0
  152.4505  140.4206  158.3191 C   0  0  0  0  0  0  0  0  0  0  0  0
  150.4024  137.5595  155.7834 H   0  0  0  0  0  0  0  0  0  0  0  0
  150.0719  136.4496  154.4604 H   0  0  0  0  0  0  0  0  0  0  0  0
  151.5153  136.2391  155.4494 H   0  0  0  0  0  0  0  0  0  0  0  0
  148.2695  134.8805  160.2042 H   0  0  0  0  0  0  0  0  0  0  0  0
  148.1384  133.2447  159.5603 H   0  0  0  0  0  0  0  0  0  0  0  0
  146.8565  134.4188  159.2525 H   0  0  0  0  0  0  0  0  0  0  0  0
  148.4814  137.8078  158.4086 H   0  0  0  0  0  0  0  0  0  0  0  0
  149.4471  136.9665  159.5873 H   0  0  0  0  0  0  0  0  0  0  0  0
  149.3806  139.5584  157.9620 H   0  0  0  0  0  0  0  0  0  0  0  0
  149.6908  141.7852  156.5946 H   0  0  0  0  0  0  0  0  0  0  0  0
  149.9202  141.9469  158.2926 H   0  0  0  0  0  0  0  0  0  0  0  0
  152.2066  142.7910  156.4849 H   0  0  0  0  0  0  0  0  0  0  0  0
  150.7798  143.7761  156.6131 H   0  0  0  0  0  0  0  0  0  0  0  0
  152.3066  144.6066  158.2468 H   0  0  0  0  0  0  0  0  0  0  0  0
  150.9890  143.8585  159.0967 H   0  0  0  0  0  0  0  0  0  0  0  0
  153.8064  142.7583  158.6995 H   0  0  0  0  0  0  0  0  0  0  0  0
  153.0732  143.2914  160.1804 H   0  0  0  0  0  0  0  0  0  0  0  0
  153.0771  140.9447  160.2962 H   0  0  0  0  0  0  0  0  0  0  0  0
  151.4098  141.3363  160.0135 H   0  0  0  0  0  0  0  0  0  0  0  0
  152.6412  139.4064  158.6751 H   0  0  0  0  0  0  0  0  0  0  0  0
  153.3492  140.6775  157.7550 H   0  0  0  0  0  0  0  0  0  0  0  0
  1  2  1  0  0  0  0
  1 22  1  0  0  0  0
  1 23  1  0  0  0  0
  1 24  1  0  0  0  0
  2  7  1  0  0  0  0
  2  3  2  0  0  0  0
  3  4  1  0  0  0  0
  4  5  1  0  0  0  0
  5  6  1  0  0  0  0
  5  7  2  0  0  0  0
  6 25  1  0  0  0  0
  6 26  1  0  0  0  0
  6 27  1  0  0  0  0
  7  8  1  0  0  0  0
  8  9  1  0  0  0  0
  8 28  1  0  0  0  0
  8 29  1  0  0  0  0
  9 10  2  0  0  0  0
  9 11  1  0  0  0  0
 11 12  1  0  0  0  0
 11 30  1  0  0  0  0
 12 21  1  0  0  0  0
 12 13  1  0  0  0  0
 12 16  1  0  0  0  0
 13 14  2  0  0  0  0
 13 15  1  0  0  0  0
 16 17  1  0  0  0  0
 16 31  1  0  0  0  0
 16 32  1  0  0  0  0
 17 18  1  0  0  0  0
 17 33  1  0  0  0  0
 17 34  1  0  0  0  0
 18 19  1  0  0  0  0
 18 35  1  0  0  0  0
 18 36  1  0  0  0  0
 19 20  1  0  0  0  0
 19 37  1  0  0  0  0
 19 38  1  0  0  0  0
 20 21  1  0  0  0  0
 20 39  1  0  0  0  0
 20 40  1  0  0  0  0
 21 41  1  0  0  0  0
 21 42  1  0  0  0  0
M  CHG  1  15  -1
M  END
> <s_m_source_file>
AV-unprocessed.smi

> <i_m_source_file_index>
1676

> <i_lp_mmshare_version>
43012

> <i_f3d_flags>
0

> <s_epik_input>
W0NIM11jMW5vYyhbQ0gzXSljMVtDSDJdQyg9TylbTkhdQzIoQyg9TylbT0hdKVtDSDJdW0NIMl1bQ0gyXVtDSDJdW0NIMl1bQ0gyXTI=

> <s_epik_cmdline>
J2VwaWtfcHl0aG9uJywgJy1waCcsICc3LjAnLCAnLXRuJywgJzgnLCAnLW1hJywgJzIwMCcsICctbWV0YWxfYmluZGluZycsICctaW1hZScsICc8aW5maWxlLm1hZT4nLCAnLW9tYWUnLCAnPG91dGZpbGUubWFlPic=

> <r_epik_Ionization_Penalty>
0.000392727

> <r_epik_Ionization_Penalty_Charging>
0.000392708

> <r_epik_Ionization_Penalty_Neutral>
1.90763e-08

> <r_epik_State_Penalty>
0.000240388

> <r_epik_Charging_Adjusted_Penalty>
0.000633096

> <i_epik_Tot_Q>
-1

> <i_epik_Tot_abs_Q>
1

> <r_epik_Metal_State_Penalty>
-0

> <b_epik_Metal_Only>
0

> <s_lp_Force_Field>
OPLS_2005

> <r_lp_Energy>
9.66029

> <b_lp_Chiralities_Consistent>
1

> <s_lp_Variant>
AV-unprocessed.smi:1676-1

> <Gold.Version>
5.8.1

> <Gold.Id.Protein>
6NUR|6NUR_protein|mol2

> <Gold.PLP.Fitness>
37.8340

> <Gold.PLP.PLP>
-30.6810

> <Gold.PLP.part.hbond>
-2.0000

> <Gold.PLP.part.metal>
0.0000

> <Gold.PLP.part.buried>
-5.3577

> <Gold.PLP.part.nonpolar>
-23.7619

> <Gold.PLP.part.repulsive>
0.1607

> <Gold.PLP.ligand.clash>
0.0000

> <Gold.PLP.ligand.torsion>
0.9791

> <Gold.PLP.Chemscore.Hbond>
3.0000

> <Gold.PLP.Chemscore.CHOScore>
0.0000

> <Gold.PLP.Chemscore.Metal>
0.0000

> <Gold.Chemscore.Hbonds>
donor molecule, donor type, donor heavy atom, donor atom, acceptor molecule, acceptor atom, score
      P1  H  7989  7998       L1    14  1.00
      P1  H  7997  8010       L1    15  2.00

> <Gold.PLP.Chemscore.Internal.Correction>
0.1112

> <Gold.Rescore>
     Score         DG    S(hbond)    S(metal)    S(lipo)     H(rot)  DE(clash)    DE(int)     intcor
     15.19     -16.14       1.94        0.00      77.16       1.89       0.01       0.93       ----

> <Gold.Chemscore.Fitness>
15.1942

> <Gold.Chemscore.DG>
-16.1437

> <Gold.Chemscore.ZeroCoef>
-5.4800

> <Gold.Chemscore.Hbond>
1.9402

> <Gold.Chemscore.Metal>
0.0000

> <Gold.Chemscore.Lipo>
77.1607

> <Gold.Chemscore.Internal_Hbond>
0.0000

> <Gold.Chemscore.DEClash>
0.0148

> <Gold.Chemscore.DEInternal>
0.9348

> <Gold.Chemscore.Rot>
1.8924

> <Gold.Chemscore.Internal.Correction>
   9.000000E+99

> <Gold.Chemscore.Hbonds>
donor molecule, donor type, donor heavy atom, donor atom, acceptor molecule, acceptor atom, score
      P1  H  7989  7998       L1    14  0.78
      P1  H  7997  8010       L1    15  1.00

> <Gold.Chemscore.Hbond.Weighted>
-6.4804

> <Gold.Chemscore.Metal.Weighted>
-0.0000

> <Gold.Chemscore.Lipo.Weighted>
-9.0278

> <Gold.Chemscore.Internal_Hbond.Weighted>
0.0000

> <Gold.Chemscore.DEClash.Weighted>
0.0148

> <Gold.Chemscore.DEInternal.Weighted>
0.9348

> <Gold.Chemscore.Rot.Weighted>
4.8445

> <Gold.Chemscore.Internal.Correction.Weighted>
   9.000000E+99

> <Gold.Protein.RotatedTorsions>
[ 6907 6896 6895 6894 ] final  -50.26 input  -60.11 | X-H torsion
[ 7974 7965 7964 7962 ] final  -80.05 input  175.53 | X-H torsion
[ 8008 7997 7996 7995 ] final   84.66 input   59.86 | X-H torsion
[ 10167 10162 10161 10158 ] final   42.05 input  -65.29 | X-H torsion
[ 10718 10713 10712 10709 ] final  -61.72 input   66.30 | X-H torsion
[ 10763 10752 10751 10750 ] final   69.42 input  -60.55 | X-H torsion
[ 11005 11000 10999 10996 ] final  118.73 input  -57.11 | X-H torsion

> <Gold.Protein.ActiveResidues>
 VAL166  LYS551  ARG553  GLY616  TRP617  ASP618  TYR619  PRO620  LYS621  CYS622 
 ASP623  PHE694  ASN695  SER759  ASP760  ASP761  ALA762  ILE779  LEU786  VAL792 
 PHE793  MET794  SER795  GLU796  ALA797  LYS798  CYS799  TRP800  GLU811  SER814 

> <Gold.Protein.RotatedAtoms>
  150.8724  134.8100  159.7164 H   0  0  0  0  0  0  0  0  0  0  0  0  # atno 6907 bound_to 6896
  152.4723  134.4925  159.9710 H   0  0  0  0  0  0  0  0  0  0  0  0  # atno 6908 bound_to 6896
  151.5012  133.3465  159.2905 H   0  0  0  0  0  0  0  0  0  0  0  0  # atno 6909 bound_to 6896
  145.5651  140.9475  143.1426 H   0  0  0  0  0  0  0  0  0  0  0  0  # atno 7974 bound_to 7965
  155.9400  140.3409  155.6319 H   0  0  0  0  0  0  0  0  0  0  0  0  # atno 8008 bound_to 7997
  155.7052  140.0765  157.2412 H   0  0  0  0  0  0  0  0  0  0  0  0  # atno 8009 bound_to 7997
  154.4101  140.1633  156.2222 H   0  0  0  0  0  0  0  0  0  0  0  0  # atno 8010 bound_to 7997
  140.3583  144.2261  150.6140 H   0  0  0  0  0  0  0  0  0  0  0  0  # atno 10167 bound_to 10162
  156.0903  130.4201  150.1034 H   0  0  0  0  0  0  0  0  0  0  0  0  # atno 10718 bound_to 10713
  153.0286  135.5211  154.7286 H   0  0  0  0  0  0  0  0  0  0  0  0  # atno 10763 bound_to 10752
  154.6320  135.2901  155.0207 H   0  0  0  0  0  0  0  0  0  0  0  0  # atno 10764 bound_to 10752
  154.1156  135.6615  153.4945 H   0  0  0  0  0  0  0  0  0  0  0  0  # atno 10765 bound_to 10752
  139.9120  134.9623  156.7547 H   0  0  0  0  0  0  0  0  0  0  0  0  # atno 11005 bound_to 11000
  144.7464  139.7309  143.7290 LP  0  0  0  0  0  0  0  0  0  0  0  0  # atno 17320 bound_to 7965
  146.1824  139.5022  142.9858 LP  0  0  0  0  0  0  0  0  0  0  0  0  # atno 17321 bound_to 7965
  140.5152  143.2280  151.8474 LP  0  0  0  0  0  0  0  0  0  0  0  0  # atno 17342 bound_to 10162
  139.4817  144.4903  151.9194 LP  0  0  0  0  0  0  0  0  0  0  0  0  # atno 17343 bound_to 10162
  156.9046  130.9631  151.3571 LP  0  0  0  0  0  0  0  0  0  0  0  0  # atno 17370 bound_to 10713
  157.6050  130.8540  149.8860 LP  0  0  0  0  0  0  0  0  0  0  0  0  # atno 17371 bound_to 10713
  140.6745  133.9529  155.7875 LP  0  0  0  0  0  0  0  0  0  0  0  0  # atno 17394 bound_to 11000
  141.0554  134.0424  157.3729 LP  0  0  0  0  0  0  0  0  0  0  0  0  # atno 17395 bound_to 11000

$$$$
