AV-unprocessed.smi:278|AV-procd|sdf|2091|dock7
  -GOLD-   2262021373D 1   1.00000     0.00000
 Structure written by MMmdl.
 50 54  0  0  0  0  0  0  0  0  1 V2000
  144.9697  136.1033  162.5764 O   0  0  0  0  0  0  0  0  0  0  0  0
  146.3133  136.3123  162.0161 S   0  0  0  0  0  0  0  0  0  0  0  0
  147.0324  137.5761  162.2402 O   0  0  0  0  0  0  0  0  0  0  0  0
  147.3922  134.9147  162.5163 C   0  0  0  0  0  0  0  0  0  0  0  0
  147.5059  133.9980  161.2910 C   0  0  0  0  0  0  0  0  0  0  0  0
  147.3531  134.8419  160.0125 C   0  0  2  0  0  0  0  0  0  0  0  0
  148.5915  135.6742  159.6629 C   0  0  0  0  0  0  0  0  0  0  0  0
  148.0777  136.8398  158.9574 N   0  0  0  0  0  0  0  0  0  0  0  0
  148.8928  137.8698  158.6100 C   0  0  0  0  0  0  0  0  0  0  0  0
  148.3717  138.9057  157.8994 N   0  0  0  0  0  0  0  0  0  0  0  0
  149.1394  139.9381  157.5396 C   0  0  0  0  0  0  0  0  0  0  0  0
  150.4340  140.1411  157.7879 N   0  0  0  0  0  0  0  0  0  0  0  0
  150.9628  139.1144  158.5121 C   0  0  0  0  0  0  0  0  0  0  0  0
  150.2730  137.9512  158.9612 C   0  0  0  0  0  0  0  0  0  0  0  0
  151.1473  137.1398  159.6778 N   0  0  0  0  0  0  0  0  0  0  0  0
  152.2841  137.7795  159.6456 C   0  0  0  0  0  0  0  0  0  0  0  0
  152.2610  138.9761  158.9680 N   0  0  0  0  0  0  0  0  0  0  0  0
  153.3719  139.8914  158.7790 C   0  0  0  0  0  0  0  0  0  0  0  0
  153.7172  140.6682  160.0636 C   0  0  2  0  0  0  0  0  0  0  0  0
  153.9924  139.7752  161.1267 O   0  0  0  0  0  0  0  0  0  0  0  0
  152.6189  141.6740  160.4653 C   0  0  2  0  0  0  0  0  0  0  0  0
  152.4211  142.8774  159.5393 C   0  0  0  0  0  0  0  0  0  0  0  0
  151.7583  143.8619  160.4770 C   0  0  0  0  0  0  0  0  0  0  0  0
  152.5008  143.5949  161.7840 C   0  0  0  0  0  0  0  0  0  0  0  0
  152.8314  142.2084  161.7700 O   0  0  0  0  0  0  0  0  0  0  0  0
  146.6877  137.0812  159.3221 C   0  0  0  0  0  0  0  0  0  0  0  0
  146.2731  135.9055  160.2185 C   0  0  2  0  0  0  0  0  0  0  0  0
  147.0971  134.2125  159.1590 H   0  0  0  0  0  0  0  0  0  0  0  0
  145.2772  135.5317  159.9790 H   0  0  0  0  0  0  0  0  0  0  0  0
  148.3663  135.3229  162.7864 H   0  0  0  0  0  0  0  0  0  0  0  0
  146.9755  134.4097  163.3878 H   0  0  0  0  0  0  0  0  0  0  0  0
  148.4364  133.4295  161.2966 H   0  0  0  0  0  0  0  0  0  0  0  0
  146.6927  133.2721  161.3240 H   0  0  0  0  0  0  0  0  0  0  0  0
  149.1153  135.9991  160.5630 H   0  0  0  0  0  0  0  0  0  0  0  0
  149.2909  135.1093  159.0458 H   0  0  0  0  0  0  0  0  0  0  0  0
  148.6447  140.7130  156.9728 H   0  0  0  0  0  0  0  0  0  0  0  0
  153.1764  137.3938  160.1171 H   0  0  0  0  0  0  0  0  0  0  0  0
  154.2351  139.3158  158.4429 H   0  0  0  0  0  0  0  0  0  0  0  0
  153.1209  140.5783  157.9696 H   0  0  0  0  0  0  0  0  0  0  0  0
  154.6346  141.2316  159.8888 H   0  0  0  0  0  0  0  0  0  0  0  0
  154.4926  140.2359  161.7827 H   0  0  0  0  0  0  0  0  0  0  0  0
  151.6696  141.1379  160.5171 H   0  0  0  0  0  0  0  0  0  0  0  0
  153.3725  143.2853  159.1968 H   0  0  0  0  0  0  0  0  0  0  0  0
  151.8144  142.6451  158.6635 H   0  0  0  0  0  0  0  0  0  0  0  0
  151.8399  144.8968  160.1434 H   0  0  0  0  0  0  0  0  0  0  0  0
  150.7004  143.6198  160.5891 H   0  0  0  0  0  0  0  0  0  0  0  0
  153.4277  144.1693  161.8175 H   0  0  0  0  0  0  0  0  0  0  0  0
  151.9090  143.8565  162.6616 H   0  0  0  0  0  0  0  0  0  0  0  0
  146.5479  138.0429  159.8163 H   0  0  0  0  0  0  0  0  0  0  0  0
  146.0879  137.0856  158.4117 H   0  0  0  0  0  0  0  0  0  0  0  0
  1  2  2  0  0  0  0
  2 27  1  0  0  0  0
  2  3  2  0  0  0  0
  2  4  1  0  0  0  0
  4  5  1  0  0  0  0
  4 30  1  0  0  0  0
  4 31  1  0  0  0  0
  5  6  1  0  0  0  0
  5 32  1  0  0  0  0
  5 33  1  0  0  0  0
  6 28  1  0  0  0  0
  6 27  1  0  0  0  0
  6  7  1  0  0  0  0
  7  8  1  0  0  0  0
  7 34  1  0  0  0  0
  7 35  1  0  0  0  0
  8  9  1  0  0  0  0
  8 26  1  0  0  0  0
  9 14  1  0  0  0  0
  9 10  2  0  0  0  0
 10 11  1  0  0  0  0
 11 12  2  0  0  0  0
 11 36  1  0  0  0  0
 12 13  1  0  0  0  0
 13 17  1  0  0  0  0
 13 14  2  0  0  0  0
 14 15  1  0  0  0  0
 15 16  2  0  0  0  0
 16 17  1  0  0  0  0
 16 37  1  0  0  0  0
 17 18  1  0  0  0  0
 18 19  1  0  0  0  0
 18 38  1  0  0  0  0
 18 39  1  0  0  0  0
 19 20  1  0  0  0  0
 19 21  1  0  0  0  0
 19 40  1  0  0  0  0
 20 41  1  0  0  0  0
 21 25  1  0  0  0  0
 21 22  1  0  0  0  0
 21 42  1  0  0  0  0
 22 23  1  0  0  0  0
 22 43  1  0  0  0  0
 22 44  1  0  0  0  0
 23 24  1  0  0  0  0
 23 45  1  0  0  0  0
 23 46  1  0  0  0  0
 24 25  1  0  0  0  0
 24 47  1  0  0  0  0
 24 48  1  0  0  0  0
 26 27  1  0  0  0  0
 26 49  1  0  0  0  0
 26 50  1  0  0  0  0
 27 29  1  0  0  0  0
M  END
> <s_m_source_file>
AV-unprocessed.smi

> <i_m_source_file_index>
278

> <i_lp_mmshare_version>
43012

> <i_f3d_flags>
0

> <s_epik_input>
W0NIMl0xW0NIMl1TKD1PKSg9TylbQ0BASF0oW0NAQEhdMTIpW0NIMl1OKFtDSDJdMiljKG5bY0hdbjMpYyhjMzQpbltjSF1uNFtDSDJdW0NASF0oW09IXSlbQ0BASF01W0NIMl1bQ0gyXVtDSDJdTzU=

> <s_epik_cmdline>
J2VwaWtfcHl0aG9uJywgJy1waCcsICc3LjAnLCAnLXRuJywgJzgnLCAnLW1hJywgJzIwMCcsICctbWV0YWxfYmluZGluZycsICctaW1hZScsICc8aW5maWxlLm1hZT4nLCAnLW9tYWUnLCAnPG91dGZpbGUubWFlPic=

> <r_lp_tautomer_probability>
1

> <r_epik_Ionization_Penalty>
0.000636766

> <r_epik_Ionization_Penalty_Charging>
0

> <r_epik_Ionization_Penalty_Neutral>
0.000636766

> <r_epik_State_Penalty>
0.000329976

> <r_epik_Charging_Adjusted_Penalty>
0.000329976

> <i_epik_Tot_Q>
0

> <i_epik_Tot_abs_Q>
0

> <r_epik_Metal_State_Penalty>
-0

> <b_epik_Metal_Only>
0

> <s_lp_Force_Field>
OPLS_2005

> <r_lp_Energy>
50.4142

> <b_lp_Chiralities_Consistent>
1

> <s_lp_Variant>
AV-unprocessed.smi:278-5

> <Gold.Version>
5.8.1

> <Gold.Id.Protein>
6NUR|6NUR_protein|mol2

> <Gold.PLP.Fitness>
49.9886

> <Gold.PLP.PLP>
-44.5143

> <Gold.PLP.part.hbond>
-2.9680

> <Gold.PLP.part.metal>
0.0000

> <Gold.PLP.part.buried>
-5.0217

> <Gold.PLP.part.nonpolar>
-35.7203

> <Gold.PLP.part.repulsive>
0.0721

> <Gold.PLP.ligand.clash>
0.0000

> <Gold.PLP.ligand.torsion>
0.6012

> <Gold.PLP.Chemscore.Hbond>
2.1316

> <Gold.PLP.Chemscore.CHOScore>
0.0000

> <Gold.PLP.Chemscore.Metal>
0.0000

> <Gold.Chemscore.Hbonds>
donor molecule, donor type, donor heavy atom, donor atom, acceptor molecule, acceptor atom, score
      P1  H  6896  6908       L1    15  1.00
      P1  H  6931  6943       L1     3  0.46
      P1  H  6934  6947       L1     3  0.61

> <Gold.PLP.Chemscore.Internal.Correction>
0.2819

> <Gold.Rescore>
     Score         DG    S(hbond)    S(metal)    S(lipo)     H(rot)  DE(clash)    DE(int)     intcor
     16.76     -18.55       2.36        0.00      90.88       2.13       0.02       1.77       ----

> <Gold.Chemscore.Fitness>
16.7620

> <Gold.Chemscore.DG>
-18.5473

> <Gold.Chemscore.ZeroCoef>
-5.4800

> <Gold.Chemscore.Hbond>
2.3650

> <Gold.Chemscore.Metal>
0.0000

> <Gold.Chemscore.Lipo>
90.8797

> <Gold.Chemscore.Internal_Hbond>
0.0000

> <Gold.Chemscore.DEClash>
0.0177

> <Gold.Chemscore.DEInternal>
1.7676

> <Gold.Chemscore.Rot>
2.1346

> <Gold.Chemscore.Internal.Correction>
   9.000000E+99

> <Gold.Chemscore.Hbonds>
donor molecule, donor type, donor heavy atom, donor atom, acceptor molecule, acceptor atom, score
      P1  H  6896  6908       L1    15  0.81
      P1  H  6931  6943       L1     3  0.46
      P1  H  6934  6947       L1     3  0.60

> <Gold.Chemscore.Hbond.Weighted>
-7.8990

> <Gold.Chemscore.Metal.Weighted>
-0.0000

> <Gold.Chemscore.Lipo.Weighted>
-10.6329

> <Gold.Chemscore.Internal_Hbond.Weighted>
0.0000

> <Gold.Chemscore.DEClash.Weighted>
0.0177

> <Gold.Chemscore.DEInternal.Weighted>
1.7676

> <Gold.Chemscore.Rot.Weighted>
5.4646

> <Gold.Chemscore.Internal.Correction.Weighted>
   9.000000E+99

> <Gold.Protein.RotatedTorsions>
[ 6907 6896 6895 6894 ] final -132.91 input  -60.11 | X-H torsion
[ 7974 7965 7964 7962 ] final  171.15 input  175.53 | X-H torsion
[ 8008 7997 7996 7995 ] final -179.45 input   59.86 | X-H torsion
[ 10167 10162 10161 10158 ] final  -33.02 input  -65.29 | X-H torsion
[ 10718 10713 10712 10709 ] final   42.80 input   66.30 | X-H torsion
[ 10763 10752 10751 10750 ] final  -43.27 input  -60.55 | X-H torsion
[ 11005 11000 10999 10996 ] final   36.37 input  -57.11 | X-H torsion

> <Gold.Protein.ActiveResidues>
 VAL166  LYS551  ARG553  GLY616  TRP617  ASP618  TYR619  PRO620  LYS621  CYS622 
 ASP623  PHE694  ASN695  SER759  ASP760  ASP761  ALA762  ILE779  LEU786  VAL792 
 PHE793  MET794  SER795  GLU796  ALA797  LYS798  CYS799  TRP800  GLU811  SER814 

> <Gold.Protein.RotatedAtoms>
  150.9679  133.6376  159.2742 H   0  0  0  0  0  0  0  0  0  0  0  0  # atno 6907 bound_to 6896
  151.3675  135.0915  159.9464 H   0  0  0  0  0  0  0  0  0  0  0  0  # atno 6908 bound_to 6896
  152.5172  133.9240  159.7602 H   0  0  0  0  0  0  0  0  0  0  0  0  # atno 6909 bound_to 6896
  144.7303  139.9308  143.6424 H   0  0  0  0  0  0  0  0  0  0  0  0  # atno 7974 bound_to 7965
  156.0306  140.1281  157.0262 H   0  0  0  0  0  0  0  0  0  0  0  0  # atno 8008 bound_to 7997
  154.4348  140.1050  156.6164 H   0  0  0  0  0  0  0  0  0  0  0  0  # atno 8009 bound_to 7997
  155.5812  140.3468  155.4543 H   0  0  0  0  0  0  0  0  0  0  0  0  # atno 8010 bound_to 7997
  140.7211  143.3651  151.1886 H   0  0  0  0  0  0  0  0  0  0  0  0  # atno 10167 bound_to 10162
  157.4088  130.7902  149.7412 H   0  0  0  0  0  0  0  0  0  0  0  0  # atno 10718 bound_to 10713
  153.9928  135.6703  153.4755 H   0  0  0  0  0  0  0  0  0  0  0  0  # atno 10763 bound_to 10752
  153.0697  135.4981  154.8275 H   0  0  0  0  0  0  0  0  0  0  0  0  # atno 10764 bound_to 10752
  154.7099  135.3095  154.9175 H   0  0  0  0  0  0  0  0  0  0  0  0  # atno 10765 bound_to 10752
  140.2332  134.3502  155.7955 H   0  0  0  0  0  0  0  0  0  0  0  0  # atno 11005 bound_to 11000
  146.0859  139.3847  143.0436 LP  0  0  0  0  0  0  0  0  0  0  0  0  # atno 17320 bound_to 7965
  145.7778  140.9869  143.1115 LP  0  0  0  0  0  0  0  0  0  0  0  0  # atno 17321 bound_to 7965
  139.7211  143.9221  152.2986 LP  0  0  0  0  0  0  0  0  0  0  0  0  # atno 17342 bound_to 10162
  139.8979  144.6928  150.8698 LP  0  0  0  0  0  0  0  0  0  0  0  0  # atno 17343 bound_to 10162
  155.9844  130.3991  150.3312 LP  0  0  0  0  0  0  0  0  0  0  0  0  # atno 17370 bound_to 10713
  157.1448  131.0306  151.2912 LP  0  0  0  0  0  0  0  0  0  0  0  0  # atno 17371 bound_to 10713
  141.2216  133.7257  156.8766 LP  0  0  0  0  0  0  0  0  0  0  0  0  # atno 17394 bound_to 11000
  140.1729  134.9087  157.2855 LP  0  0  0  0  0  0  0  0  0  0  0  0  # atno 17395 bound_to 11000

$$$$
