AV-unprocessed.smi:3316|AV-procd|sdf|12757|dock1
  -GOLD-   2272019 93D 1   1.00000     0.00000
 Structure written by MMmdl.
 41 43  0  0  0  0  0  0  0  0  2 V2000
  144.9167  134.3890  153.5808 C   0  0  0  0  0  0  0  0  0  0  0  0
  145.7229  134.7772  152.3313 C   0  0  2  0  0  0  0  0  0  0  0  0
  145.5520  136.2704  151.9910 C   0  0  0  0  0  0  0  0  0  0  0  0
  146.6235  137.0921  152.5901 N   0  3  0  0  0  0  0  0  0  0  0  0
  146.4900  138.5377  152.3261 C   0  0  0  0  0  0  0  0  0  0  0  0
  147.4937  139.3519  153.1627 C   0  0  2  0  0  0  0  0  0  0  0  0
  147.7509  138.7668  154.5880 C   0  0  0  0  0  0  0  0  0  0  0  0
  147.4306  139.9574  155.5210 C   0  0  1  0  0  0  0  0  0  0  0  0
  148.4458  141.0493  155.2573 C   0  0  0  0  0  0  0  0  0  0  0  0
  148.1849  141.5495  154.0482 C   0  0  0  0  0  0  0  0  0  0  0  0
  147.0013  140.7859  153.4906 C   0  0  2  0  0  0  0  0  0  0  0  0
  146.2187  140.5377  154.7869 C   0  0  0  0  0  0  0  0  0  0  0  0
  145.3809  133.8756  151.1512 C   0  0  0  0  0  0  0  0  0  0  0  0
  144.0656  133.8300  150.6426 C   0  0  0  0  0  0  0  0  0  0  0  0
  143.7922  132.9793  149.5528 C   0  0  0  0  0  0  0  0  0  0  0  0
  144.7267  132.1994  148.9689 N   0  0  0  0  0  0  0  0  0  0  0  0
  145.9842  132.2469  149.4575 C   0  0  0  0  0  0  0  0  0  0  0  0
  146.3619  133.0623  150.5432 C   0  0  0  0  0  0  0  0  0  0  0  0
  145.0879  133.3455  153.8473 H   0  0  0  0  0  0  0  0  0  0  0  0
  143.8453  134.5211  153.4274 H   0  0  0  0  0  0  0  0  0  0  0  0
  145.2048  134.9977  154.4382 H   0  0  0  0  0  0  0  0  0  0  0  0
  146.7750  134.6175  152.5733 H   0  0  0  0  0  0  0  0  0  0  0  0
  145.5447  136.4189  150.9104 H   0  0  0  0  0  0  0  0  0  0  0  0
  144.5908  136.6245  152.3656 H   0  0  0  0  0  0  0  0  0  0  0  0
  146.6191  136.9482  153.5898 H   0  0  0  0  0  0  0  0  0  0  0  0
  146.6701  138.7151  151.2650 H   0  0  0  0  0  0  0  0  0  0  0  0
  145.4659  138.8503  152.5319 H   0  0  0  0  0  0  0  0  0  0  0  0
  148.4313  139.4153  152.6067 H   0  0  0  0  0  0  0  0  0  0  0  0
  147.0886  137.9271  154.8034 H   0  0  0  0  0  0  0  0  0  0  0  0
  148.7770  138.4177  154.7102 H   0  0  0  0  0  0  0  0  0  0  0  0
  147.2723  139.7206  156.5734 H   0  0  0  0  0  0  0  0  0  0  0  0
  149.2424  141.3279  155.9313 H   0  0  0  0  0  0  0  0  0  0  0  0
  148.7247  142.3226  153.5216 H   0  0  0  0  0  0  0  0  0  0  0  0
  146.4563  141.3080  152.7036 H   0  0  0  0  0  0  0  0  0  0  0  0
  145.3869  139.8390  154.6856 H   0  0  0  0  0  0  0  0  0  0  0  0
  145.8459  141.4579  155.2417 H   0  0  0  0  0  0  0  0  0  0  0  0
  143.2785  134.4331  151.0708 H   0  0  0  0  0  0  0  0  0  0  0  0
  142.7957  132.9228  149.1403 H   0  0  0  0  0  0  0  0  0  0  0  0
  146.7117  131.6150  148.9700 H   0  0  0  0  0  0  0  0  0  0  0  0
  147.3836  133.0609  150.8937 H   0  0  0  0  0  0  0  0  0  0  0  0
  147.5110  136.7786  152.2232 H   0  0  0  0  0  0  0  0  0  0  0  0
  1  2  1  0  0  0  0
  1 19  1  0  0  0  0
  1 20  1  0  0  0  0
  1 21  1  0  0  0  0
  2  3  1  0  0  0  0
  2 13  1  0  0  0  0
  2 22  1  0  0  0  0
  3  4  1  0  0  0  0
  3 23  1  0  0  0  0
  3 24  1  0  0  0  0
  4  5  1  0  0  0  0
  4 25  1  0  0  0  0
  4 41  1  0  0  0  0
  5  6  1  0  0  0  0
  5 26  1  0  0  0  0
  5 27  1  0  0  0  0
  6 11  1  0  0  0  0
  6  7  1  0  0  0  0
  6 28  1  0  0  0  0
  7  8  1  0  0  0  0
  7 29  1  0  0  0  0
  7 30  1  0  0  0  0
  8 12  1  0  0  0  0
  8  9  1  0  0  0  0
  8 31  1  0  0  0  0
  9 10  2  0  0  0  0
  9 32  1  0  0  0  0
 10 11  1  0  0  0  0
 10 33  1  0  0  0  0
 11 12  1  0  0  0  0
 11 34  1  0  0  0  0
 12 35  1  0  0  0  0
 12 36  1  0  0  0  0
 13 18  1  0  0  0  0
 13 14  2  0  0  0  0
 14 15  1  0  0  0  0
 14 37  1  0  0  0  0
 15 16  2  0  0  0  0
 15 38  1  0  0  0  0
 16 17  1  0  0  0  0
 17 18  2  0  0  0  0
 17 39  1  0  0  0  0
 18 40  1  0  0  0  0
M  CHG  1   4   1
M  END
> <s_m_source_file>
AV-unprocessed.smi

> <i_m_source_file_index>
3316

> <i_lp_mmshare_version>
43012

> <i_f3d_flags>
0

> <s_epik_input>
W2NIXTFbY0hdbltjSF1bY0hdYzFbQ0BIXShbQ0gzXSlbQ0gyXVtOSF1bQ0gyXVtDQEhdKFtDSDJdW0NASF0yMylbQ0BIXShbQ0gyXTMpW0NIXT1bQ0hdMg==

> <s_epik_cmdline>
J2VwaWtfcHl0aG9uJywgJy1waCcsICc3LjAnLCAnLXRuJywgJzgnLCAnLW1hJywgJzIwMCcsICctbWV0YWxfYmluZGluZycsICctaW1hZScsICc8aW5maWxlLm1hZT4nLCAnLW9tYWUnLCAnPG91dGZpbGUubWFlPic=

> <r_lp_tautomer_probability>
1

> <r_epik_Ionization_Penalty>
0.00280406

> <r_epik_Ionization_Penalty_Charging>
0.000446589

> <r_epik_Ionization_Penalty_Neutral>
0.00235747

> <r_epik_State_Penalty>
-0

> <r_epik_Charging_Adjusted_Penalty>
0.000446589

> <i_epik_Tot_Q>
1

> <i_epik_Tot_abs_Q>
1

> <r_epik_Metal_State_Penalty>
-0

> <b_epik_Metal_Only>
0

> <s_lp_Force_Field>
OPLS_2005

> <r_lp_Energy>
65.5539

> <b_lp_Chiralities_Consistent>
1

> <s_lp_Variant>
AV-unprocessed.smi:3316-5

> <Gold.Version>
5.8.1

> <Gold.Id.Protein>
6NUR|6NUR_protein|mol2

> <Gold.PLP.Fitness>
43.2106

> <Gold.PLP.PLP>
-33.2638

> <Gold.PLP.part.hbond>
-1.6285

> <Gold.PLP.part.metal>
0.0000

> <Gold.PLP.part.buried>
-2.6715

> <Gold.PLP.part.nonpolar>
-30.0726

> <Gold.PLP.part.repulsive>
0.2266

> <Gold.PLP.ligand.clash>
0.0000

> <Gold.PLP.ligand.torsion>
0.8458

> <Gold.PLP.Chemscore.Hbond>
2.0000

> <Gold.PLP.Chemscore.CHOScore>
1.8259

> <Gold.PLP.Chemscore.Metal>
0.0000

> <Gold.Chemscore.Hbonds>
donor molecule, donor type, donor heavy atom, donor atom, acceptor molecule, acceptor atom, score
      L1  H     4    41       P1  7948  2.00
      L1  C    15    38       P1 10186  0.95
      L1  C    17    39       P1 10747  0.50

> <Gold.PLP.Chemscore.Internal.Correction>
0.1607

> <Gold.Rescore>
     Score         DG    S(hbond)    S(metal)    S(lipo)     H(rot)  DE(clash)    DE(int)     intcor
     17.35     -18.21       1.58        0.00      93.60       1.36       0.13       0.72       ----

> <Gold.Chemscore.Fitness>
17.3495

> <Gold.Chemscore.DG>
-18.2056

> <Gold.Chemscore.ZeroCoef>
-5.4800

> <Gold.Chemscore.Hbond>
1.5766

> <Gold.Chemscore.Metal>
0.0000

> <Gold.Chemscore.Lipo>
93.6049

> <Gold.Chemscore.Internal_Hbond>
0.0000

> <Gold.Chemscore.DEClash>
0.1338

> <Gold.Chemscore.DEInternal>
0.7224

> <Gold.Chemscore.Rot>
1.3640

> <Gold.Chemscore.Internal.Correction>
   9.000000E+99

> <Gold.Chemscore.Hbonds>
donor molecule, donor type, donor heavy atom, donor atom, acceptor molecule, acceptor atom, score
      L1  H     4    41       P1  7948  0.97

> <Gold.Chemscore.Hbond.Weighted>
-5.2658

> <Gold.Chemscore.Metal.Weighted>
-0.0000

> <Gold.Chemscore.Lipo.Weighted>
-10.9518

> <Gold.Chemscore.Internal_Hbond.Weighted>
0.0000

> <Gold.Chemscore.DEClash.Weighted>
0.1338

> <Gold.Chemscore.DEInternal.Weighted>
0.7224

> <Gold.Chemscore.Rot.Weighted>
3.4919

> <Gold.Chemscore.Internal.Correction.Weighted>
   9.000000E+99

> <Gold.Protein.RotatedTorsions>
[ 6907 6896 6895 6894 ] final  -78.46 input  -60.11 | X-H torsion
[ 7974 7965 7964 7962 ] final   82.97 input  175.53 | X-H torsion
[ 8008 7997 7996 7995 ] final -178.57 input   59.86 | X-H torsion
[ 10167 10162 10161 10158 ] final   62.56 input  -65.29 | X-H torsion
[ 10718 10713 10712 10709 ] final  -69.90 input   66.30 | X-H torsion
[ 10763 10752 10751 10750 ] final -130.87 input  -60.55 | X-H torsion
[ 11005 11000 10999 10996 ] final -130.09 input  -57.11 | X-H torsion

> <Gold.Protein.ActiveResidues>
 VAL166  LYS551  ARG553  GLY616  TRP617  ASP618  TYR619  PRO620  LYS621  CYS622 
 ASP623  PHE694  ASN695  SER759  ASP760  ASP761  ALA762  ILE779  LEU786  VAL792 
 PHE793  MET794  SER795  GLU796  ALA797  LYS798  CYS799  TRP800  GLU811  SER814 

> <Gold.Protein.RotatedAtoms>
  150.6972  134.4269  159.5230 H   0  0  0  0  0  0  0  0  0  0  0  0  # atno 6907 bound_to 6896
  152.2002  134.8591  160.0518 H   0  0  0  0  0  0  0  0  0  0  0  0  # atno 6908 bound_to 6896
  151.9514  133.3632  159.4038 H   0  0  0  0  0  0  0  0  0  0  0  0  # atno 6909 bound_to 6896
  145.6180  139.2380  143.2154 H   0  0  0  0  0  0  0  0  0  0  0  0  # atno 7974 bound_to 7965
  156.0204  140.1260  157.0363 H   0  0  0  0  0  0  0  0  0  0  0  0  # atno 8008 bound_to 7997
  154.4309  140.1070  156.6026 H   0  0  0  0  0  0  0  0  0  0  0  0  # atno 8009 bound_to 7997
  155.5953  140.3470  155.4580 H   0  0  0  0  0  0  0  0  0  0  0  0  # atno 8010 bound_to 7997
  140.1426  144.4539  150.6803 H   0  0  0  0  0  0  0  0  0  0  0  0  # atno 10167 bound_to 10162
  156.0433  130.4321  150.2216 H   0  0  0  0  0  0  0  0  0  0  0  0  # atno 10718 bound_to 10713
  154.8753  135.3848  154.4154 H   0  0  0  0  0  0  0  0  0  0  0  0  # atno 10763 bound_to 10752
  153.4863  135.7030  153.5914 H   0  0  0  0  0  0  0  0  0  0  0  0  # atno 10764 bound_to 10752
  153.4307  135.3879  155.2136 H   0  0  0  0  0  0  0  0  0  0  0  0  # atno 10765 bound_to 10752
  140.9376  134.1236  157.4180 H   0  0  0  0  0  0  0  0  0  0  0  0  # atno 11005 bound_to 11000
  146.1453  140.7001  142.9348 LP  0  0  0  0  0  0  0  0  0  0  0  0  # atno 17320 bound_to 7965
  144.7242  140.4473  143.6985 LP  0  0  0  0  0  0  0  0  0  0  0  0  # atno 17321 bound_to 7965
  140.6751  143.2302  151.5527 LP  0  0  0  0  0  0  0  0  0  0  0  0  # atno 17342 bound_to 10162
  139.5465  144.2508  152.1451 LP  0  0  0  0  0  0  0  0  0  0  0  0  # atno 17343 bound_to 10162
  157.0308  131.0007  151.3312 LP  0  0  0  0  0  0  0  0  0  0  0  0  # atno 17370 bound_to 10713
  157.5278  130.8039  149.7882 LP  0  0  0  0  0  0  0  0  0  0  0  0  # atno 17371 bound_to 10713
  139.8812  135.0026  156.6136 LP  0  0  0  0  0  0  0  0  0  0  0  0  # atno 17394 bound_to 11000
  140.7778  133.8685  155.8543 LP  0  0  0  0  0  0  0  0  0  0  0  0  # atno 17395 bound_to 11000

$$$$
