#       Name:                AV-unprocessed.smi:2253
#       Creating user name   scv26
#       Creation time:       Fri Mar 27 12:32:19 2020


#       File generated by GOLD software.
#

@<TRIPOS>MOLECULE
AV-unprocessed.smi:2253
    55    57     1
SMALL
NO_CHARGES


@<TRIPOS>ATOM
      1 ****        -1.6153  -6.4254   0.0099 C.3            1 S1                 0.0000
      2 ****        -1.9167  -4.9781  -0.0345 N.4            1 S1                 1.0000
      3 ****        -1.4302  -4.3369  -1.2819 C.3            1 S1                 0.0000
      4 ****        -1.8275  -2.8494  -1.3344 C.3            1 S1                 0.0000
      5 ****        -1.2915  -2.0638  -0.1128 C.3            1 S1                 0.0000
      6 ****         0.2068  -1.9250  -0.1271 N.4            1 S1                 1.0000
      7 ****         0.8363  -1.4690   1.1461 C.3            1 S1                 0.0000
      8 ****         0.5674   0.0231   1.4166 C.3            1 S1                 0.0000
      9 ****         1.0939   0.8864   0.2575 C.3            1 S1                 0.0000
     10 ****         0.7666   2.2910   0.4873 N.am           1 S1                 0.0000
     11 ****         1.4178   3.3302  -0.0569 C.2            1 S1                 0.0000
     12 ****         2.3565   3.1975  -0.8408 O.2            1 S1                 0.0000
     13 ****         0.9064   4.4988   0.3682 N.am           1 S1                 0.0000
     14 ****         1.3039   5.8323   0.0664 C.ar           1 S1                 0.0000
     15 ****         2.3730   6.1862  -0.7938 C.ar           1 S1                 0.0000
     16 ****         2.6536   7.5524  -0.9966 C.ar           1 S1                 0.0000
     17 ****         1.9567   8.5507  -0.4146 N.ar           1 S1                 0.0000
     18 ****         0.9383   8.2114   0.4033 C.ar           1 S1                 0.0000
     19 ****         0.5754   6.8769   0.6745 C.ar           1 S1                 0.0000
     20 ****        -0.4584   6.6069   1.5081 F              1 S1                 0.0000
     21 ****         0.5100   0.3888  -1.0792 C.3            1 S1                 0.0000
     22 ****         0.7503  -1.1234  -1.2626 C.3            1 S1                 0.0000
     23 ****        -1.8528  -2.7797   1.1405 C.3            1 S1                 0.0000
     24 ****        -1.4537  -4.2668   1.1832 C.3            1 S1                 0.0000
     25 ****        -0.5388  -6.6015   0.0261 H              1 S1                 0.0000
     26 ****        -2.0319  -6.9326  -0.8610 H              1 S1                 0.0000
     27 ****        -2.0501  -6.8821   0.8996 H              1 S1                 0.0000
     28 ****        -0.3465  -4.4430  -1.3529 H              1 S1                 0.0000
     29 ****        -1.8546  -4.8562  -2.1422 H              1 S1                 0.0000
     30 ****        -1.5196  -2.4096  -2.2807 H              1 S1                 0.0000
     31 ****        -2.9166  -2.7832  -1.3442 H              1 S1                 0.0000
     32 ****        -1.7227  -1.0632  -0.1332 H              1 S1                 0.0000
     33 ****         0.5467  -2.0835   1.9959 H              1 S1                 0.0000
     34 ****         1.9134  -1.6201   1.0598 H              1 S1                 0.0000
     35 ****        -0.5006   0.1908   1.5613 H              1 S1                 0.0000
     36 ****         1.0532   0.3189   2.3472 H              1 S1                 0.0000
     37 ****         2.1803   0.7800   0.2268 H              1 S1                 0.0000
     38 ****         0.0054   2.4869   1.1212 H              1 S1                 0.0000
     39 ****         0.1288   4.4283   1.0082 H              1 S1                 0.0000
     40 ****         2.9834   5.4565  -1.3005 H              1 S1                 0.0000
     41 ****         3.4634   7.8508  -1.6459 H              1 S1                 0.0000
     42 ****         0.3965   9.0282   0.8566 H              1 S1                 0.0000
     43 ****        -0.5564   0.6102  -1.1299 H              1 S1                 0.0000
     44 ****         0.9677   0.9285  -1.9091 H              1 S1                 0.0000
     45 ****         1.8251  -1.3035  -1.3159 H              1 S1                 0.0000
     46 ****         0.3652  -1.4550  -2.2238 H              1 S1                 0.0000
     47 ****        -1.5785  -2.2732   2.0644 H              1 S1                 0.0000
     48 ****        -2.9421  -2.7192   1.1167 H              1 S1                 0.0000
     49 ****        -1.8943  -4.7361   2.0638 H              1 S1                 0.0000
     50 ****        -0.3718  -4.3684   1.2796 H              1 S1                 0.0000
     51 ****         0.5521  -2.8636  -0.2678 H              1 S1                 0.0000
     52 ****        -2.9241  -4.8993  -0.0465 H              1 S1                 0.0000
     53 ****         2.6665   2.2826  -1.0994 LP             1 S1                 0.0000
     54 ****         2.8096   4.0045  -1.2195 LP             1 S1                 0.0000
     55 ****         2.1870   9.5090  -0.5836 LP             1 S1                 0.0000
@<TRIPOS>BOND
    1    1    2 1     
    2    1   25 1     
    3    1   26 1     
    4    1   27 1     
    5    2   24 1     
    6    2    3 1     
    7    2   52 1     
    8    3    4 1     
    9    3   28 1     
   10    3   29 1     
   11    4    5 1     
   12    4   30 1     
   13    4   31 1     
   14    5    6 1     
   15    5   23 1     
   16    5   32 1     
   17    6   22 1     
   18    6    7 1     
   19    6   51 1     
   20    7    8 1     
   21    7   33 1     
   22    7   34 1     
   23    8    9 1     
   24    8   35 1     
   25    8   36 1     
   26    9   10 1     
   27    9   21 1     
   28    9   37 1     
   29   10   11 am    
   30   10   38 1     
   31   11   12 2     
   32   11   13 am    
   33   13   14 1     
   34   13   39 1     
   35   14   19 ar    
   36   14   15 ar    
   37   15   16 ar    
   38   15   40 1     
   39   16   17 ar    
   40   16   41 1     
   41   17   18 ar    
   42   18   19 ar    
   43   18   42 1     
   44   19   20 1     
   45   21   22 1     
   46   21   43 1     
   47   21   44 1     
   48   22   45 1     
   49   22   46 1     
   50   23   24 1     
   51   23   47 1     
   52   23   48 1     
   53   24   49 1     
   54   24   50 1     
   55   12   53 1     
   56   12   54 1     
   57   17   55 1     
@<TRIPOS>SUBSTRUCTURE
      1 S1             1
@<TRIPOS>SET
LONE_PAIRS      STATIC     ATOMS    <user>   **** ""
3 53 54 55
DONOR_HYDROGENS      STATIC     ATOMS    <user>   **** ""
4 52 51 38 39
ATOM$BLUE        STATIC     ATOMS    COLORGROUP SYSTEM
3 53 54 55
ATOM$RED        STATIC     ATOMS    COLORGROUP SYSTEM
4 52 51 38 39
