#       Name:                AV-unprocessed.smi:1417
#       Creating user name   scv26
#       Creation time:       Fri Mar 27 05:41:30 2020


#       File generated by GOLD software.
#

@<TRIPOS>MOLECULE
AV-unprocessed.smi:1417
    47    48     1
SMALL
NO_CHARGES


@<TRIPOS>ATOM
      1 ****        -6.1629   4.1829   0.4099 C.3            1 S1                 0.0000
      2 ****        -5.4452   2.8769   0.3985 C.2            1 S1                 0.0000
      3 ****        -4.1234   2.5422   0.4860 C.2            1 S1                 0.0000
      4 ****        -4.1487   1.1190   0.4101 C.2            1 S1                 0.0000
      5 ****        -3.0247   0.2540   0.4513 N.am           1 S1                 0.0000
      6 ****        -1.7253   0.5788   0.5581 C.2            1 S1                 0.0000
      7 ****        -1.2821   1.7221   0.6649 O.2            1 S1                 0.0000
      8 ****        -0.9473  -0.5134   0.5299 N.am           1 S1                 0.0000
      9 ****         0.5113  -0.5063   0.5999 C.3            1 S1                 0.0000
     10 ****         1.1237  -0.1710  -0.7725 C.3            1 S1                 0.0000
     11 ****         2.6576  -0.2648  -0.7368 C.3            1 S1                 0.0000
     12 ****         3.1032  -1.6077  -0.2772 N.4            1 S1                 1.0000
     13 ****         4.5742  -1.7901  -0.3478 C.3            1 S1                 0.0000
     14 ****         5.0024  -2.0768  -1.7910 C.2            1 S1                 0.0000
     15 ****         5.8187  -1.1263  -2.2841 N.pl3          1 S1                -1.0000
     16 ****         4.5826  -3.0821  -2.3607 O.2            1 S1                 0.0000
     17 ****         2.5570  -1.9343   1.0642 C.3            1 S1                 0.0000
     18 ****         1.0197  -1.8797   1.0665 C.3            1 S1                 0.0000
     19 ****        -5.3722   0.6380   0.2886 N.2            1 S1                 0.0000
     20 ****        -6.2107   1.7587   0.2813 O.3            1 S1                 0.0000
     21 ****        -5.4736   5.0069   0.2240 H              1 S1                 0.0000
     22 ****        -6.6401   4.3523   1.3750 H              1 S1                 0.0000
     23 ****        -6.9348   4.2091  -0.3593 H              1 S1                 0.0000
     24 ****        -3.2890   3.2195   0.5868 H              1 S1                 0.0000
     25 ****        -3.2376  -0.7298   0.3767 H              1 S1                 0.0000
     26 ****        -1.3951  -1.4141   0.4438 H              1 S1                 0.0000
     27 ****         0.8306   0.2430   1.3270 H              1 S1                 0.0000
     28 ****         0.7372  -0.8558  -1.5289 H              1 S1                 0.0000
     29 ****         0.8282   0.8314  -1.0841 H              1 S1                 0.0000
     30 ****         3.0478  -0.0575  -1.7336 H              1 S1                 0.0000
     31 ****         3.0646   0.5013  -0.0749 H              1 S1                 0.0000
     32 ****         5.0871  -0.9276   0.0840 H              1 S1                 0.0000
     33 ****         4.8722  -2.6554   0.2459 H              1 S1                 0.0000
     34 ****         6.1660  -1.2252  -3.2458 H              1 S1                 0.0000
     35 ****         2.8785  -2.9340   1.3593 H              1 S1                 0.0000
     36 ****         2.9616  -1.2394   1.8017 H              1 S1                 0.0000
     37 ****         0.6457  -2.0974   2.0677 H              1 S1                 0.0000
     38 ****         0.6302  -2.6623   0.4134 H              1 S1                 0.0000
     39 ****         2.7124  -2.2838  -0.9180 H              1 S1                 0.0000
     40 ****        -1.9080   2.5018   0.6773 LP             1 S1                 0.0000
     41 ****        -0.2961   1.8712   0.7393 LP             1 S1                 0.0000
     42 ****         6.0816  -0.3398  -1.7253 LP             1 S1                 0.0000
     43 ****         3.9655  -3.7070  -1.8824 LP             1 S1                 0.0000
     44 ****         4.8582  -3.2750  -3.3024 LP             1 S1                 0.0000
     45 ****        -5.6422  -0.3222   0.2171 LP             1 S1                 0.0000
     46 ****        -6.7230   1.7900  -0.5769 LP             1 S1                 0.0000
     47 ****        -6.8493   1.7061   1.0490 LP             1 S1                 0.0000
@<TRIPOS>BOND
    1    1    2 1     
    2    1   21 1     
    3    1   22 1     
    4    1   23 1     
    5    2   20 1     
    6    2    3 2     
    7    3    4 1     
    8    3   24 1     
    9    4    5 1     
   10    4   19 2     
   11    5    6 am    
   12    5   25 1     
   13    6    7 2     
   14    6    8 am    
   15    8    9 1     
   16    8   26 1     
   17    9   18 1     
   18    9   10 1     
   19    9   27 1     
   20   10   11 1     
   21   10   28 1     
   22   10   29 1     
   23   11   12 1     
   24   11   30 1     
   25   11   31 1     
   26   12   13 1     
   27   12   17 1     
   28   12   39 1     
   29   13   14 1     
   30   13   32 1     
   31   13   33 1     
   32   14   15 1     
   33   14   16 2     
   34   15   34 1     
   35   17   18 1     
   36   17   35 1     
   37   17   36 1     
   38   18   37 1     
   39   18   38 1     
   40   19   20 1     
   41    7   40 1     
   42    7   41 1     
   43   15   42 1     
   44   16   43 1     
   45   16   44 1     
   46   19   45 1     
   47   20   46 1     
   48   20   47 1     
@<TRIPOS>SUBSTRUCTURE
      1 S1             1
@<TRIPOS>SET
LONE_PAIRS      STATIC     ATOMS    <user>   **** ""
8 40 41 42 43 44 45 46 47
DONOR_HYDROGENS      STATIC     ATOMS    <user>   **** ""
4 25 26 39 34
ATOM$BLUE        STATIC     ATOMS    COLORGROUP SYSTEM
8 40 41 42 43 44 45 46 47
ATOM$RED        STATIC     ATOMS    COLORGROUP SYSTEM
4 25 26 39 34
