AV-unprocessed.smi:276|AV-procd|sdf|2085|dock1
  -GOLD-   2262021363D 1   1.00000     0.00000
 Structure written by MMmdl.
 57 61  0  0  0  0  0  0  0  0  1 V2000
  145.5335  132.2655  161.4868 C   0  0  0  0  0  0  0  0  0  0  0  0
  145.8541  133.6220  161.7384 O   0  0  0  0  0  0  0  0  0  0  0  0
  146.6274  134.2021  160.6998 C   0  0  1  0  0  0  0  0  0  0  0  0
  145.8392  134.5282  159.4256 C   0  0  0  0  0  0  0  0  0  0  0  0
  146.6129  135.8584  159.3366 C   0  0  2  0  0  0  0  0  0  0  0  0
  147.8063  135.7337  158.4878 N   0  0  0  0  0  0  0  0  0  0  0  0
  147.5717  135.3436  157.1008 C   0  0  0  0  0  0  0  0  0  0  0  0
  148.6817  136.7628  158.5364 C   0  0  0  0  0  0  0  0  0  0  0  0
  149.8232  136.5644  159.2417 N   0  0  0  0  0  0  0  0  0  0  0  0
  150.7282  137.5429  159.3388 C   0  0  0  0  0  0  0  0  0  0  0  0
  150.6921  138.7694  158.8136 N   0  0  0  0  0  0  0  0  0  0  0  0
  149.5522  138.9653  158.0912 C   0  0  0  0  0  0  0  0  0  0  0  0
  148.5035  138.0230  157.8956 C   0  0  0  0  0  0  0  0  0  0  0  0
  147.5130  138.5803  157.0948 N   0  0  0  0  0  0  0  0  0  0  0  0
  147.9469  139.7845  156.8400 C   0  0  0  0  0  0  0  0  0  0  0  0
  149.1638  140.0983  157.4002 N   0  0  0  0  0  0  0  0  0  0  0  0
  149.8818  141.3545  157.2832 C   0  0  0  0  0  0  0  0  0  0  0  0
  150.5293  141.7848  158.6132 C   0  0  1  0  0  0  0  0  0  0  0  0
  151.7732  141.1348  158.7948 O   0  0  0  0  0  0  0  0  0  0  0  0
  150.6945  143.3135  158.7279 C   0  0  1  0  0  0  0  0  0  0  0  0
  151.3301  143.8376  160.0181 C   0  0  0  0  0  0  0  0  0  0  0  0
  151.8369  145.1888  159.5661 C   0  0  0  0  0  0  0  0  0  0  0  0
  152.3173  144.8857  158.1485 C   0  0  0  0  0  0  0  0  0  0  0  0
  151.4708  143.8487  157.6586 O   0  0  0  0  0  0  0  0  0  0  0  0
  146.8567  135.7155  160.8636 C   0  0  0  0  0  0  0  0  0  0  0  0
  145.9867  136.5214  161.8456 C   0  0  0  0  0  0  0  0  0  0  0  0
  147.1512  136.4644  162.8380 C   0  0  0  0  0  0  0  0  0  0  0  0
  148.0762  136.2533  161.6368 C   0  0  0  0  0  0  0  0  0  0  0  0
  144.9459  131.8691  162.3149 H   0  0  0  0  0  0  0  0  0  0  0  0
  146.4353  131.6594  161.3930 H   0  0  0  0  0  0  0  0  0  0  0  0
  144.9436  132.1591  160.5757 H   0  0  0  0  0  0  0  0  0  0  0  0
  147.5597  133.6698  160.4988 H   0  0  0  0  0  0  0  0  0  0  0  0
  145.9902  133.8185  158.6127 H   0  0  0  0  0  0  0  0  0  0  0  0
  144.7760  134.6805  159.6191 H   0  0  0  0  0  0  0  0  0  0  0  0
  145.9621  136.6918  159.0725 H   0  0  0  0  0  0  0  0  0  0  0  0
  148.4016  135.6138  156.4451 H   0  0  0  0  0  0  0  0  0  0  0  0
  146.6697  135.8201  156.7150 H   0  0  0  0  0  0  0  0  0  0  0  0
  147.4436  134.2639  157.0296 H   0  0  0  0  0  0  0  0  0  0  0  0
  151.6068  137.3102  159.9221 H   0  0  0  0  0  0  0  0  0  0  0  0
  147.3898  140.4802  156.2296 H   0  0  0  0  0  0  0  0  0  0  0  0
  150.6358  141.2535  156.5013 H   0  0  0  0  0  0  0  0  0  0  0  0
  149.1794  142.1162  156.9424 H   0  0  0  0  0  0  0  0  0  0  0  0
  149.8869  141.4581  159.4319 H   0  0  0  0  0  0  0  0  0  0  0  0
  152.3727  141.7464  159.1945 H   0  0  0  0  0  0  0  0  0  0  0  0
  149.7077  143.7709  158.6369 H   0  0  0  0  0  0  0  0  0  0  0  0
  150.6228  143.9002  160.8455 H   0  0  0  0  0  0  0  0  0  0  0  0
  152.1710  143.2197  160.3342 H   0  0  0  0  0  0  0  0  0  0  0  0
  151.0161  145.9070  159.5398 H   0  0  0  0  0  0  0  0  0  0  0  0
  152.6227  145.5897  160.2067 H   0  0  0  0  0  0  0  0  0  0  0  0
  152.2879  145.7631  157.5022 H   0  0  0  0  0  0  0  0  0  0  0  0
  153.3421  144.5132  158.1668 H   0  0  0  0  0  0  0  0  0  0  0  0
  145.7874  137.5353  161.4943 H   0  0  0  0  0  0  0  0  0  0  0  0
  145.0725  136.0305  162.1801 H   0  0  0  0  0  0  0  0  0  0  0  0
  147.3245  137.3858  163.3945 H   0  0  0  0  0  0  0  0  0  0  0  0
  147.1055  135.5940  163.4949 H   0  0  0  0  0  0  0  0  0  0  0  0
  148.8766  135.5302  161.7958 H   0  0  0  0  0  0  0  0  0  0  0  0
  148.4589  137.2032  161.2643 H   0  0  0  0  0  0  0  0  0  0  0  0
  1  2  1  0  0  0  0
  1 29  1  0  0  0  0
  1 30  1  0  0  0  0
  1 31  1  0  0  0  0
  2  3  1  0  0  0  0
  3 25  1  0  0  0  0
  3  4  1  0  0  0  0
  3 32  1  0  0  0  0
  4  5  1  0  0  0  0
  4 33  1  0  0  0  0
  4 34  1  0  0  0  0
  5  6  1  0  0  0  0
  5 25  1  0  0  0  0
  5 35  1  0  0  0  0
  6  7  1  0  0  0  0
  6  8  1  0  0  0  0
  7 36  1  0  0  0  0
  7 37  1  0  0  0  0
  7 38  1  0  0  0  0
  8 13  1  0  0  0  0
  8  9  2  0  0  0  0
  9 10  1  0  0  0  0
 10 11  2  0  0  0  0
 10 39  1  0  0  0  0
 11 12  1  0  0  0  0
 12 16  1  0  0  0  0
 12 13  2  0  0  0  0
 13 14  1  0  0  0  0
 14 15  2  0  0  0  0
 15 16  1  0  0  0  0
 15 40  1  0  0  0  0
 16 17  1  0  0  0  0
 17 18  1  0  0  0  0
 17 41  1  0  0  0  0
 17 42  1  0  0  0  0
 18 19  1  0  0  0  0
 18 20  1  0  0  0  0
 18 43  1  0  0  0  0
 19 44  1  0  0  0  0
 20 24  1  0  0  0  0
 20 21  1  0  0  0  0
 20 45  1  0  0  0  0
 21 22  1  0  0  0  0
 21 46  1  0  0  0  0
 21 47  1  0  0  0  0
 22 23  1  0  0  0  0
 22 48  1  0  0  0  0
 22 49  1  0  0  0  0
 23 24  1  0  0  0  0
 23 50  1  0  0  0  0
 23 51  1  0  0  0  0
 25 28  1  0  0  0  0
 25 26  1  0  0  0  0
 26 27  1  0  0  0  0
 26 52  1  0  0  0  0
 26 53  1  0  0  0  0
 27 28  1  0  0  0  0
 27 54  1  0  0  0  0
 27 55  1  0  0  0  0
 28 56  1  0  0  0  0
 28 57  1  0  0  0  0
M  END
> <s_m_source_file>
AV-unprocessed.smi

> <i_m_source_file_index>
276

> <i_lp_mmshare_version>
43012

> <i_f3d_flags>
0

> <s_epik_input>
W0NIMl0xW0NIMl1bQ0gyXUMxMltDQEhdKE9bQ0gzXSlbQ0gyXVtDQEhdMk4oW0NIM10pYyhuW2NIXW4zKWMoYzM0KW5bY0hdbjRbQ0gyXVtDQEhdKFtPSF0pW0NAQEhdNVtDSDJdW0NIMl1bQ0gyXU81

> <s_epik_cmdline>
J2VwaWtfcHl0aG9uJywgJy1waCcsICc3LjAnLCAnLXRuJywgJzgnLCAnLW1hJywgJzIwMCcsICctbWV0YWxfYmluZGluZycsICctaW1hZScsICc8aW5maWxlLm1hZT4nLCAnLW9tYWUnLCAnPG91dGZpbGUubWFlPic=

> <r_lp_tautomer_probability>
1

> <r_epik_Ionization_Penalty>
0.00204117

> <r_epik_Ionization_Penalty_Charging>
0

> <r_epik_Ionization_Penalty_Neutral>
0.00204117

> <r_epik_State_Penalty>
0.00127401

> <r_epik_Charging_Adjusted_Penalty>
0.00127401

> <i_epik_Tot_Q>
0

> <i_epik_Tot_abs_Q>
0

> <r_epik_Metal_State_Penalty>
-0

> <b_epik_Metal_Only>
0

> <s_lp_Force_Field>
OPLS_2005

> <r_lp_Energy>
58.9981

> <b_lp_Chiralities_Consistent>
1

> <s_lp_Variant>
AV-unprocessed.smi:276-16

> <Gold.Version>
5.8.1

> <Gold.Id.Protein>
6NUR|6NUR_protein|mol2

> <Gold.PLP.Fitness>
42.9484

> <Gold.PLP.PLP>
-41.0017

> <Gold.PLP.part.hbond>
-1.0000

> <Gold.PLP.part.metal>
0.0000

> <Gold.PLP.part.buried>
-7.2676

> <Gold.PLP.part.nonpolar>
-32.8947

> <Gold.PLP.part.repulsive>
0.1409

> <Gold.PLP.ligand.clash>
0.0000

> <Gold.PLP.ligand.torsion>
1.0285

> <Gold.PLP.Chemscore.Hbond>
1.0000

> <Gold.PLP.Chemscore.CHOScore>
0.0000

> <Gold.PLP.Chemscore.Metal>
0.0000

> <Gold.Chemscore.Hbonds>
donor molecule, donor type, donor heavy atom, donor atom, acceptor molecule, acceptor atom, score
      P1  H  6896  6907       L1     9  1.00

> <Gold.PLP.Chemscore.Internal.Correction>
1.0037

> <Gold.Rescore>
     Score         DG    S(hbond)    S(metal)    S(lipo)     H(rot)  DE(clash)    DE(int)     intcor
     11.28     -14.03       0.79        0.00     109.89       2.72       0.04       2.70       ----

> <Gold.Chemscore.Fitness>
11.2819

> <Gold.Chemscore.DG>
-14.0251

> <Gold.Chemscore.ZeroCoef>
-5.4800

> <Gold.Chemscore.Hbond>
0.7915

> <Gold.Chemscore.Metal>
0.0000

> <Gold.Chemscore.Lipo>
109.8923

> <Gold.Chemscore.Internal_Hbond>
0.0000

> <Gold.Chemscore.DEClash>
0.0442

> <Gold.Chemscore.DEInternal>
2.6990

> <Gold.Chemscore.Rot>
2.7172

> <Gold.Chemscore.Internal.Correction>
   9.000000E+99

> <Gold.Chemscore.Hbonds>
donor molecule, donor type, donor heavy atom, donor atom, acceptor molecule, acceptor atom, score
      P1  H  6896  6907       L1     9  0.37

> <Gold.Chemscore.Hbond.Weighted>
-2.6437

> <Gold.Chemscore.Metal.Weighted>
-0.0000

> <Gold.Chemscore.Lipo.Weighted>
-12.8574

> <Gold.Chemscore.Internal_Hbond.Weighted>
0.0000

> <Gold.Chemscore.DEClash.Weighted>
0.0442

> <Gold.Chemscore.DEInternal.Weighted>
2.6990

> <Gold.Chemscore.Rot.Weighted>
6.9560

> <Gold.Chemscore.Internal.Correction.Weighted>
   9.000000E+99

> <Gold.Protein.RotatedTorsions>
[ 6907 6896 6895 6894 ] final  -45.34 input  -60.11 | X-H torsion
[ 7974 7965 7964 7962 ] final   64.70 input  175.53 | X-H torsion
[ 8008 7997 7996 7995 ] final  154.83 input   59.86 | X-H torsion
[ 10167 10162 10161 10158 ] final  -54.46 input  -65.29 | X-H torsion
[ 10718 10713 10712 10709 ] final   54.65 input   66.30 | X-H torsion
[ 10763 10752 10751 10750 ] final  -21.73 input  -60.55 | X-H torsion
[ 11005 11000 10999 10996 ] final  129.24 input  -57.11 | X-H torsion

> <Gold.Protein.ActiveResidues>
 VAL166  LYS551  ARG553  GLY616  TRP617  ASP618  TYR619  PRO620  LYS621  CYS622 
 ASP623  PHE694  ASN695  SER759  ASP760  ASP761  ALA762  ILE779  LEU786  VAL792 
 PHE793  MET794  SER795  GLU796  ALA797  LYS798  CYS799  TRP800  GLU811  SER814 

> <Gold.Protein.RotatedAtoms>
  150.9230  134.8647  159.7500 H   0  0  0  0  0  0  0  0  0  0  0  0  # atno 6907 bound_to 6896
  152.5001  134.4191  159.9484 H   0  0  0  0  0  0  0  0  0  0  0  0  # atno 6908 bound_to 6896
  151.4223  133.3655  159.2793 H   0  0  0  0  0  0  0  0  0  0  0  0  # atno 6909 bound_to 6896
  145.8471  139.3231  143.0897 H   0  0  0  0  0  0  0  0  0  0  0  0  # atno 7974 bound_to 7965
  156.2511  140.1956  156.6706 H   0  0  0  0  0  0  0  0  0  0  0  0  # atno 8008 bound_to 7997
  154.6395  140.0585  156.9855 H   0  0  0  0  0  0  0  0  0  0  0  0  # atno 8009 bound_to 7997
  155.1584  140.3257  155.4419 H   0  0  0  0  0  0  0  0  0  0  0  0  # atno 8010 bound_to 7997
  140.6429  143.2518  151.4939 H   0  0  0  0  0  0  0  0  0  0  0  0  # atno 10167 bound_to 10162
  157.5276  130.8608  149.8643 H   0  0  0  0  0  0  0  0  0  0  0  0  # atno 10718 bound_to 10713
  153.6407  135.6985  153.5242 H   0  0  0  0  0  0  0  0  0  0  0  0  # atno 10763 bound_to 10752
  153.2785  135.4193  155.1055 H   0  0  0  0  0  0  0  0  0  0  0  0  # atno 10764 bound_to 10752
  154.8500  135.3596  154.5951 H   0  0  0  0  0  0  0  0  0  0  0  0  # atno 10765 bound_to 10752
  139.9604  134.9603  156.9119 H   0  0  0  0  0  0  0  0  0  0  0  0  # atno 11005 bound_to 11000
  145.9400  140.8987  143.0313 LP  0  0  0  0  0  0  0  0  0  0  0  0  # atno 17320 bound_to 7965
  144.6730  140.1535  143.7428 LP  0  0  0  0  0  0  0  0  0  0  0  0  # atno 17321 bound_to 7965
  139.5639  144.2090  152.1734 LP  0  0  0  0  0  0  0  0  0  0  0  0  # atno 17342 bound_to 10162
  140.1366  144.5240  150.6769 LP  0  0  0  0  0  0  0  0  0  0  0  0  # atno 17343 bound_to 10162
  156.0398  130.3742  150.1464 LP  0  0  0  0  0  0  0  0  0  0  0  0  # atno 17370 bound_to 10713
  156.9650  130.9817  151.3471 LP  0  0  0  0  0  0  0  0  0  0  0  0  # atno 17371 bound_to 10713
  140.5512  134.0625  155.7370 LP  0  0  0  0  0  0  0  0  0  0  0  0  # atno 17394 bound_to 11000
  141.1281  133.9349  157.2593 LP  0  0  0  0  0  0  0  0  0  0  0  0  # atno 17395 bound_to 11000

$$$$
