AV-unprocessed.smi:925|AV-procd|sdf|4181|dock10
  -GOLD-   22720 2 83D 1   1.00000     0.00000
 Structure written by MMmdl.
 29 30  0  0  0  0  0  0  0  0  1 V2000
  151.6322  141.2854  157.1633 O   0  0  0  0  0  0  0  0  0  0  0  0
  150.8592  142.1542  156.7585 C   0  0  0  0  0  0  0  0  0  0  0  0
  149.9531  141.9939  155.7776 N   0  0  0  0  0  0  0  0  0  0  0  0
  149.6846  140.8305  155.0088 C   0  0  0  0  0  0  0  0  0  0  0  0
  150.6093  139.9039  154.7117 N   0  0  0  0  0  0  0  0  0  0  0  0
  150.0826  138.8697  153.9486 N   0  0  0  0  0  0  0  0  0  0  0  0
  148.7831  139.0566  153.7007 C   0  0  0  0  0  0  0  0  0  0  0  0
  148.0755  140.5143  154.3753 S   0  0  0  0  0  0  0  0  0  0  0  0
  150.8203  143.3995  157.2552 N   0  0  0  0  0  0  0  0  0  0  0  0
  151.6740  143.9067  158.3257 C   0  0  0  0  0  0  0  0  0  0  0  0
  151.8599  142.8415  159.4266 C   0  0  0  0  0  0  0  0  0  0  0  0
  152.6942  143.3840  160.5984 C   0  0  0  0  0  0  0  0  0  0  0  0
  152.0810  144.6707  161.1730 C   0  0  0  0  0  0  0  0  0  0  0  0
  151.8991  145.7349  160.0795 C   0  0  0  0  0  0  0  0  0  0  0  0
  151.0614  145.1939  158.9095 C   0  0  0  0  0  0  0  0  0  0  0  0
  149.3886  142.7999  155.5537 H   0  0  0  0  0  0  0  0  0  0  0  0
  148.2372  138.3306  153.1166 H   0  0  0  0  0  0  0  0  0  0  0  0
  150.1530  144.0475  156.8631 H   0  0  0  0  0  0  0  0  0  0  0  0
  152.6519  144.1579  157.9100 H   0  0  0  0  0  0  0  0  0  0  0  0
  150.8859  142.5177  159.7965 H   0  0  0  0  0  0  0  0  0  0  0  0
  152.3441  141.9546  159.0160 H   0  0  0  0  0  0  0  0  0  0  0  0
  152.7720  142.6279  161.3802 H   0  0  0  0  0  0  0  0  0  0  0  0
  153.7113  143.5841  160.2593 H   0  0  0  0  0  0  0  0  0  0  0  0
  151.1156  144.4443  161.6274 H   0  0  0  0  0  0  0  0  0  0  0  0
  152.7147  145.0609  161.9702 H   0  0  0  0  0  0  0  0  0  0  0  0
  151.4228  146.6213  160.4992 H   0  0  0  0  0  0  0  0  0  0  0  0
  152.8760  146.0529  159.7131 H   0  0  0  0  0  0  0  0  0  0  0  0
  150.9813  145.9561  158.1334 H   0  0  0  0  0  0  0  0  0  0  0  0
  150.0453  144.9968  159.2552 H   0  0  0  0  0  0  0  0  0  0  0  0
  1  2  2  0  0  0  0
  2  3  1  0  0  0  0
  2  9  1  0  0  0  0
  3  4  1  0  0  0  0
  3 16  1  0  0  0  0
  4  8  1  0  0  0  0
  4  5  2  0  0  0  0
  5  6  1  0  0  0  0
  6  7  2  0  0  0  0
  7  8  1  0  0  0  0
  7 17  1  0  0  0  0
  9 10  1  0  0  0  0
  9 18  1  0  0  0  0
 10 15  1  0  0  0  0
 10 11  1  0  0  0  0
 10 19  1  0  0  0  0
 11 12  1  0  0  0  0
 11 20  1  0  0  0  0
 11 21  1  0  0  0  0
 12 13  1  0  0  0  0
 12 22  1  0  0  0  0
 12 23  1  0  0  0  0
 13 14  1  0  0  0  0
 13 24  1  0  0  0  0
 13 25  1  0  0  0  0
 14 15  1  0  0  0  0
 14 26  1  0  0  0  0
 14 27  1  0  0  0  0
 15 28  1  0  0  0  0
 15 29  1  0  0  0  0
M  END
> <s_m_source_file>
AV-unprocessed.smi

> <i_m_source_file_index>
925

> <i_lp_mmshare_version>
43012

> <i_f3d_flags>
0

> <s_epik_input>
czFbY0hdbm5jMVtOSF1DKD1PKVtOSF1bQ0hdMltDSDJdW0NIMl1bQ0gyXVtDSDJdW0NIMl0y

> <s_epik_cmdline>
J2VwaWtfcHl0aG9uJywgJy1waCcsICc3LjAnLCAnLXRuJywgJzgnLCAnLW1hJywgJzIwMCcsICctbWV0YWxfYmluZGluZycsICctaW1hZScsICc8aW5maWxlLm1hZT4nLCAnLW9tYWUnLCAnPG91dGZpbGUubWFlPic=

> <r_lp_tautomer_probability>
1

> <r_epik_Ionization_Penalty>
0.000322846

> <r_epik_Ionization_Penalty_Charging>
0

> <r_epik_Ionization_Penalty_Neutral>
0.000322846

> <r_epik_State_Penalty>
-0

> <r_epik_Charging_Adjusted_Penalty>
0

> <i_epik_Tot_Q>
0

> <i_epik_Tot_abs_Q>
0

> <r_epik_Metal_State_Penalty>
0.17121

> <b_epik_Metal_Only>
0

> <s_lp_Force_Field>
OPLS_2005

> <r_lp_Energy>
7.89547

> <b_lp_Chiralities_Consistent>
1

> <s_lp_Variant>
AV-unprocessed.smi:925-1

> <Gold.Version>
5.8.1

> <Gold.Id.Protein>
6NUR|6NUR_protein|mol2

> <Gold.PLP.Fitness>
44.3433

> <Gold.PLP.PLP>
-33.2354

> <Gold.PLP.part.hbond>
-3.0000

> <Gold.PLP.part.metal>
0.0000

> <Gold.PLP.part.buried>
-2.1308

> <Gold.PLP.part.nonpolar>
-28.9957

> <Gold.PLP.part.repulsive>
1.0153

> <Gold.PLP.ligand.clash>
0.0000

> <Gold.PLP.ligand.torsion>
0.4477

> <Gold.PLP.Chemscore.Hbond>
3.0000

> <Gold.PLP.Chemscore.CHOScore>
1.0000

> <Gold.PLP.Chemscore.Metal>
0.0000

> <Gold.Chemscore.Hbonds>
donor molecule, donor type, donor heavy atom, donor atom, acceptor molecule, acceptor atom, score
      L1  H     3    16       P1  8028  1.00
      L1  H     9    18       P1  8028  1.00
      P1  H  7989  7998       L1     5  0.95
      L1  C     7    17       P1  7948  1.00

> <Gold.PLP.Chemscore.Internal.Correction>
0.0032

> <Gold.Rescore>
     Score         DG    S(hbond)    S(metal)    S(lipo)     H(rot)  DE(clash)    DE(int)     intcor
     16.63     -20.14       2.23        0.00      83.41       1.00       0.56       2.95       ----

> <Gold.Chemscore.Fitness>
16.6255

> <Gold.Chemscore.DG>
-20.1354

> <Gold.Chemscore.ZeroCoef>
-5.4800

> <Gold.Chemscore.Hbond>
2.2326

> <Gold.Chemscore.Metal>
0.0000

> <Gold.Chemscore.Lipo>
83.4068

> <Gold.Chemscore.Internal_Hbond>
0.0000

> <Gold.Chemscore.DEClash>
0.5619

> <Gold.Chemscore.DEInternal>
2.9480

> <Gold.Chemscore.Rot>
1.0000

> <Gold.Chemscore.Internal.Correction>
   9.000000E+99

> <Gold.Chemscore.Hbonds>
donor molecule, donor type, donor heavy atom, donor atom, acceptor molecule, acceptor atom, score
      L1  H     3    16       P1  8028  0.95
      L1  H     9    18       P1  8028  0.97
      P1  H  7989  7998       L1     5  0.09

> <Gold.Chemscore.Hbond.Weighted>
-7.4568

> <Gold.Chemscore.Metal.Weighted>
-0.0000

> <Gold.Chemscore.Lipo.Weighted>
-9.7586

> <Gold.Chemscore.Internal_Hbond.Weighted>
0.0000

> <Gold.Chemscore.DEClash.Weighted>
0.5619

> <Gold.Chemscore.DEInternal.Weighted>
2.9480

> <Gold.Chemscore.Rot.Weighted>
2.5600

> <Gold.Chemscore.Internal.Correction.Weighted>
   9.000000E+99

> <Gold.Protein.RotatedTorsions>
[ 6907 6896 6895 6894 ] final  137.19 input  -60.11 | X-H torsion
[ 7974 7965 7964 7962 ] final   54.67 input  175.53 | X-H torsion
[ 8008 7997 7996 7995 ] final  -53.21 input   59.86 | X-H torsion
[ 10167 10162 10161 10158 ] final -147.31 input  -65.29 | X-H torsion
[ 10718 10713 10712 10709 ] final   82.85 input   66.30 | X-H torsion
[ 10763 10752 10751 10750 ] final  -16.26 input  -60.55 | X-H torsion
[ 11005 11000 10999 10996 ] final   77.31 input  -57.11 | X-H torsion

> <Gold.Protein.ActiveResidues>
 VAL166  LYS551  ARG553  GLY616  TRP617  ASP618  TYR619  PRO620  LYS621  CYS622 
 ASP623  PHE694  ASN695  SER759  ASP760  ASP761  ALA762  ILE779  LEU786  VAL792 
 PHE793  MET794  SER795  GLU796  ALA797  LYS798  CYS799  TRP800  GLU811  SER814 

> <Gold.Protein.RotatedAtoms>
  152.2809  133.5469  159.5496 H   0  0  0  0  0  0  0  0  0  0  0  0  # atno 6907 bound_to 6896
  150.7195  134.0565  159.3825 H   0  0  0  0  0  0  0  0  0  0  0  0  # atno 6908 bound_to 6896
  151.8476  135.0569  160.0506 H   0  0  0  0  0  0  0  0  0  0  0  0  # atno 6909 bound_to 6896
  145.9585  139.4037  143.0263 H   0  0  0  0  0  0  0  0  0  0  0  0  # atno 7974 bound_to 7965
  154.4127  140.1205  156.5117 H   0  0  0  0  0  0  0  0  0  0  0  0  # atno 8008 bound_to 7997
  155.6792  140.3496  155.4829 H   0  0  0  0  0  0  0  0  0  0  0  0  # atno 8009 bound_to 7997
  155.9566  140.1115  157.0921 H   0  0  0  0  0  0  0  0  0  0  0  0  # atno 8010 bound_to 7997
  139.7634  143.8344  152.2611 H   0  0  0  0  0  0  0  0  0  0  0  0  # atno 10167 bound_to 10162
  157.6866  131.0065  150.2435 H   0  0  0  0  0  0  0  0  0  0  0  0  # atno 10718 bound_to 10713
  153.5558  135.7010  153.5570 H   0  0  0  0  0  0  0  0  0  0  0  0  # atno 10763 bound_to 10752
  153.3473  135.4004  155.1619 H   0  0  0  0  0  0  0  0  0  0  0  0  # atno 10764 bound_to 10752
  154.8655  135.3757  154.5072 H   0  0  0  0  0  0  0  0  0  0  0  0  # atno 10765 bound_to 10752
  139.9260  134.7672  156.1505 H   0  0  0  0  0  0  0  0  0  0  0  0  # atno 11005 bound_to 11000
  145.8073  140.9742  143.0967 LP  0  0  0  0  0  0  0  0  0  0  0  0  # atno 17320 bound_to 7965
  144.6810  139.9877  143.7484 LP  0  0  0  0  0  0  0  0  0  0  0  0  # atno 17321 bound_to 7965
  139.8356  144.7233  150.9395 LP  0  0  0  0  0  0  0  0  0  0  0  0  # atno 17342 bound_to 10162
  140.7809  143.4029  151.1118 LP  0  0  0  0  0  0  0  0  0  0  0  0  # atno 17343 bound_to 10162
  156.3045  130.3763  149.7719 LP  0  0  0  0  0  0  0  0  0  0  0  0  # atno 17370 bound_to 10713
  156.5338  130.8269  151.3246 LP  0  0  0  0  0  0  0  0  0  0  0  0  # atno 17371 bound_to 10713
  141.0818  133.6751  156.2351 LP  0  0  0  0  0  0  0  0  0  0  0  0  # atno 17394 bound_to 11000
  140.6335  134.5239  157.5562 LP  0  0  0  0  0  0  0  0  0  0  0  0  # atno 17395 bound_to 11000

$$$$
