AV-unprocessed.smi:1978|AV-procd|sdf|7992|dock8
  -GOLD-   2272010173D 1   1.00000     0.00000
 Structure written by MMmdl.
 45 46  0  0  0  0  0  0  0  0  2 V2000
  147.1893  134.5920  162.8254 C   0  0  0  0  0  0  0  0  0  0  0  0
  147.4484  135.3956  161.5973 C   0  0  0  0  0  0  0  0  0  0  0  0
  147.5736  135.0634  160.2775 C   0  0  0  0  0  0  0  0  0  0  0  0
  147.8145  136.3166  159.6541 C   0  0  0  0  0  0  0  0  0  0  0  0
  148.0084  136.4077  158.2518 N   0  0  0  0  0  0  0  0  0  0  0  0
  148.7601  135.6071  157.4770 C   0  0  0  0  0  0  0  0  0  0  0  0
  149.4198  134.6479  157.8780 O   0  0  0  0  0  0  0  0  0  0  0  0
  148.6979  135.9753  156.1882 N   0  0  0  0  0  0  0  0  0  0  0  0
  149.4025  135.3214  155.0868 C   0  0  0  0  0  0  0  0  0  0  0  0
  148.7137  134.0101  154.6077 C   0  0  2  0  0  0  0  0  0  0  0  0
  149.7838  132.9334  154.2960 C   0  0  0  0  0  0  0  0  0  0  0  0
  147.8042  134.2261  153.4269 N   0  3  1  0  0  0  0  0  0  0  0  0
  147.4326  132.9678  152.7094 C   0  0  0  0  0  0  0  0  0  0  0  0
  146.7140  133.2564  151.3811 C   0  0  0  0  0  0  0  0  0  0  0  0
  145.4743  134.1270  151.5925 C   0  0  0  0  0  0  0  0  0  0  0  0
  145.8676  135.4008  152.3476 C   0  0  0  0  0  0  0  0  0  0  0  0
  146.6024  135.0937  153.6699 C   0  0  1  0  0  0  0  0  0  0  0  0
  145.6450  134.5317  154.7453 C   0  0  0  0  0  0  0  0  0  0  0  0
  147.8329  137.3226  160.5148 N   0  0  0  0  0  0  0  0  0  0  0  0
  147.5973  136.7377  161.7644 O   0  0  0  0  0  0  0  0  0  0  0  0
  147.3457  133.5300  162.6356 H   0  0  0  0  0  0  0  0  0  0  0  0
  146.1627  134.7281  163.1652 H   0  0  0  0  0  0  0  0  0  0  0  0
  147.8569  134.8920  163.6334 H   0  0  0  0  0  0  0  0  0  0  0  0
  147.5049  134.0810  159.8343 H   0  0  0  0  0  0  0  0  0  0  0  0
  147.5152  137.1573  157.7902 H   0  0  0  0  0  0  0  0  0  0  0  0
  148.1279  136.7746  155.9515 H   0  0  0  0  0  0  0  0  0  0  0  0
  149.4220  136.0694  154.2962 H   0  0  0  0  0  0  0  0  0  0  0  0
  150.4441  135.1245  155.3462 H   0  0  0  0  0  0  0  0  0  0  0  0
  148.1025  133.6387  155.4317 H   0  0  0  0  0  0  0  0  0  0  0  0
  150.4802  132.7940  155.1215 H   0  0  0  0  0  0  0  0  0  0  0  0
  150.3703  133.2037  153.4171 H   0  0  0  0  0  0  0  0  0  0  0  0
  149.3593  131.9455  154.1296 H   0  0  0  0  0  0  0  0  0  0  0  0
  148.3088  132.3767  152.4578 H   0  0  0  0  0  0  0  0  0  0  0  0
  146.8144  132.3390  153.3505 H   0  0  0  0  0  0  0  0  0  0  0  0
  147.4008  133.7587  150.6987 H   0  0  0  0  0  0  0  0  0  0  0  0
  146.4313  132.3196  150.8996 H   0  0  0  0  0  0  0  0  0  0  0  0
  145.0270  134.3827  150.6314 H   0  0  0  0  0  0  0  0  0  0  0  0
  144.7175  133.5731  152.1485 H   0  0  0  0  0  0  0  0  0  0  0  0
  146.5152  136.0047  151.7103 H   0  0  0  0  0  0  0  0  0  0  0  0
  144.9824  136.0088  152.5379 H   0  0  0  0  0  0  0  0  0  0  0  0
  146.9451  136.0681  154.0144 H   0  0  0  0  0  0  0  0  0  0  0  0
  144.8133  135.2171  154.9119 H   0  0  0  0  0  0  0  0  0  0  0  0
  146.1395  134.3963  155.7062 H   0  0  0  0  0  0  0  0  0  0  0  0
  145.2165  133.5714  154.4609 H   0  0  0  0  0  0  0  0  0  0  0  0
  148.3640  134.7488  152.7684 H   0  0  0  0  0  0  0  0  0  0  0  0
  1  2  1  0  0  0  0
  1 21  1  0  0  0  0
  1 22  1  0  0  0  0
  1 23  1  0  0  0  0
  2 20  1  0  0  0  0
  2  3  2  0  0  0  0
  3  4  1  0  0  0  0
  3 24  1  0  0  0  0
  4  5  1  0  0  0  0
  4 19  2  0  0  0  0
  5  6  1  0  0  0  0
  5 25  1  0  0  0  0
  6  7  2  0  0  0  0
  6  8  1  0  0  0  0
  8  9  1  0  0  0  0
  8 26  1  0  0  0  0
  9 10  1  0  0  0  0
  9 27  1  0  0  0  0
  9 28  1  0  0  0  0
 10 11  1  0  0  0  0
 10 12  1  0  0  0  0
 10 29  1  0  0  0  0
 11 30  1  0  0  0  0
 11 31  1  0  0  0  0
 11 32  1  0  0  0  0
 12 17  1  0  0  0  0
 12 13  1  0  0  0  0
 12 45  1  0  0  0  0
 13 14  1  0  0  0  0
 13 33  1  0  0  0  0
 13 34  1  0  0  0  0
 14 15  1  0  0  0  0
 14 35  1  0  0  0  0
 14 36  1  0  0  0  0
 15 16  1  0  0  0  0
 15 37  1  0  0  0  0
 15 38  1  0  0  0  0
 16 17  1  0  0  0  0
 16 39  1  0  0  0  0
 16 40  1  0  0  0  0
 17 18  1  0  0  0  0
 17 41  1  0  0  0  0
 18 42  1  0  0  0  0
 18 43  1  0  0  0  0
 18 44  1  0  0  0  0
 19 20  1  0  0  0  0
M  CHG  1  12   1
M  END
> <s_m_source_file>
AV-unprocessed.smi

> <i_m_source_file_index>
1978

> <i_lp_mmshare_version>
43012

> <i_f3d_flags>
0

> <s_epik_input>
W0NIM11jMVtjSF1jKG5vMSlbTkhdQyg9TylbTkhdW0NIMl1bQ0BIXShbQ0gzXSlOMltDSDJdW0NIMl1bQ0gyXVtDSDJdW0NASF0yW0NIM10=

> <s_epik_cmdline>
J2VwaWtfcHl0aG9uJywgJy1waCcsICc3LjAnLCAnLXRuJywgJzgnLCAnLW1hJywgJzIwMCcsICctbWV0YWxfYmluZGluZycsICctaW1hZScsICc8aW5maWxlLm1hZT4nLCAnLW9tYWUnLCAnPG91dGZpbGUubWFlPic=

> <r_epik_Ionization_Penalty>
0.00265971

> <r_epik_Ionization_Penalty_Charging>
0.00262393

> <r_epik_Ionization_Penalty_Neutral>
3.57846e-05

> <r_epik_State_Penalty>
0.00182566

> <r_epik_Charging_Adjusted_Penalty>
0.00444959

> <i_epik_Tot_Q>
1

> <i_epik_Tot_abs_Q>
1

> <r_epik_Metal_State_Penalty>
0.0216344

> <b_epik_Metal_Only>
0

> <s_lp_Force_Field>
OPLS_2005

> <r_lp_Energy>
24.7796

> <b_lp_Chiralities_Consistent>
1

> <s_lp_Variant>
AV-unprocessed.smi:1978-1

> <Gold.Version>
5.8.1

> <Gold.Id.Protein>
6NUR|6NUR_protein|mol2

> <Gold.PLP.Fitness>
39.9857

> <Gold.PLP.PLP>
-30.9467

> <Gold.PLP.part.hbond>
-4.8582

> <Gold.PLP.part.metal>
0.0000

> <Gold.PLP.part.buried>
-3.3586

> <Gold.PLP.part.nonpolar>
-22.3028

> <Gold.PLP.part.repulsive>
0.0530

> <Gold.PLP.ligand.clash>
0.0000

> <Gold.PLP.ligand.torsion>
1.2029

> <Gold.PLP.Chemscore.Hbond>
3.7840

> <Gold.PLP.Chemscore.CHOScore>
0.0000

> <Gold.PLP.Chemscore.Metal>
0.0000

> <Gold.Chemscore.Hbonds>
donor molecule, donor type, donor heavy atom, donor atom, acceptor molecule, acceptor atom, score
      L1  H    12    45       P1  7948  2.00
      P1  H  6896  6909       L1     7  1.00
      P1  H  6934  6947       L1    19  0.73

> <Gold.PLP.Chemscore.Internal.Correction>
0.0929

> <Gold.Rescore>
     Score         DG    S(hbond)    S(metal)    S(lipo)     H(rot)  DE(clash)    DE(int)     intcor
     16.82     -18.26       2.92        0.00      59.78       1.55       0.17       1.28       ----

> <Gold.Chemscore.Fitness>
16.8185

> <Gold.Chemscore.DG>
-18.2624

> <Gold.Chemscore.ZeroCoef>
-5.4800

> <Gold.Chemscore.Hbond>
2.9192

> <Gold.Chemscore.Metal>
0.0000

> <Gold.Chemscore.Lipo>
59.7751

> <Gold.Chemscore.Internal_Hbond>
0.0000

> <Gold.Chemscore.DEClash>
0.1671

> <Gold.Chemscore.DEInternal>
1.2769

> <Gold.Chemscore.Rot>
1.5474

> <Gold.Chemscore.Internal.Correction>
   9.000000E+99

> <Gold.Chemscore.Hbonds>
donor molecule, donor type, donor heavy atom, donor atom, acceptor molecule, acceptor atom, score
      L1  H    12    45       P1  7948  0.45
      P1  H  6896  6909       L1     7  0.96
      P1  H  6934  6947       L1    19  0.15

> <Gold.Chemscore.Hbond.Weighted>
-9.7500

> <Gold.Chemscore.Metal.Weighted>
-0.0000

> <Gold.Chemscore.Lipo.Weighted>
-6.9937

> <Gold.Chemscore.Internal_Hbond.Weighted>
0.0000

> <Gold.Chemscore.DEClash.Weighted>
0.1671

> <Gold.Chemscore.DEInternal.Weighted>
1.2769

> <Gold.Chemscore.Rot.Weighted>
3.9612

> <Gold.Chemscore.Internal.Correction.Weighted>
   9.000000E+99

> <Gold.Protein.RotatedTorsions>
[ 6907 6896 6895 6894 ] final   22.23 input  -60.11 | X-H torsion
[ 7974 7965 7964 7962 ] final  -30.51 input  175.53 | X-H torsion
[ 8008 7997 7996 7995 ] final  -79.29 input   59.86 | X-H torsion
[ 10167 10162 10161 10158 ] final  -48.14 input  -65.29 | X-H torsion
[ 10718 10713 10712 10709 ] final  -83.39 input   66.30 | X-H torsion
[ 10763 10752 10751 10750 ] final -110.06 input  -60.55 | X-H torsion
[ 11005 11000 10999 10996 ] final -137.41 input  -57.11 | X-H torsion

> <Gold.Protein.ActiveResidues>
 VAL166  LYS551  ARG553  GLY616  TRP617  ASP618  TYR619  PRO620  LYS621  CYS622 
 ASP623  PHE694  ASN695  SER759  ASP760  ASP761  ALA762  ILE779  LEU786  VAL792 
 PHE793  MET794  SER795  GLU796  ALA797  LYS798  CYS799  TRP800  GLU811  SER814 

> <Gold.Protein.RotatedAtoms>
  151.9240  135.0286  160.0523 H   0  0  0  0  0  0  0  0  0  0  0  0  # atno 6907 bound_to 6896
  152.2175  133.4953  159.5152 H   0  0  0  0  0  0  0  0  0  0  0  0  # atno 6908 bound_to 6896
  150.6991  134.1302  159.4110 H   0  0  0  0  0  0  0  0  0  0  0  0  # atno 6909 bound_to 6896
  146.1137  140.5550  142.8766 H   0  0  0  0  0  0  0  0  0  0  0  0  # atno 7974 bound_to 7965
  154.5771  140.0680  156.9050 H   0  0  0  0  0  0  0  0  0  0  0  0  # atno 8008 bound_to 7997
  155.2529  140.3353  155.4262 H   0  0  0  0  0  0  0  0  0  0  0  0  # atno 8009 bound_to 7997
  156.2162  140.1779  156.7568 H   0  0  0  0  0  0  0  0  0  0  0  0  # atno 8010 bound_to 7997
  140.6744  143.2753  151.4028 H   0  0  0  0  0  0  0  0  0  0  0  0  # atno 10167 bound_to 10162
  156.0019  130.4664  150.4250 H   0  0  0  0  0  0  0  0  0  0  0  0  # atno 10718 bound_to 10713
  154.8227  135.4578  154.0827 H   0  0  0  0  0  0  0  0  0  0  0  0  # atno 10763 bound_to 10752
  153.2167  135.6889  153.8055 H   0  0  0  0  0  0  0  0  0  0  0  0  # atno 10764 bound_to 10752
  153.7487  135.3301  155.3294 H   0  0  0  0  0  0  0  0  0  0  0  0  # atno 10765 bound_to 10752
  140.8713  134.2047  157.4649 H   0  0  0  0  0  0  0  0  0  0  0  0  # atno 11005 bound_to 11000
  144.7534  140.5247  143.6786 LP  0  0  0  0  0  0  0  0  0  0  0  0  # atno 17320 bound_to 7965
  145.5611  139.1479  143.3341 LP  0  0  0  0  0  0  0  0  0  0  0  0  # atno 17321 bound_to 7965
  139.6029  144.1258  152.2217 LP  0  0  0  0  0  0  0  0  0  0  0  0  # atno 17342 bound_to 10162
  140.0648  144.5827  150.7236 LP  0  0  0  0  0  0  0  0  0  0  0  0  # atno 17343 bound_to 10162
  157.2304  131.0502  151.2496 LP  0  0  0  0  0  0  0  0  0  0  0  0  # atno 17370 bound_to 10713
  157.3717  130.7184  149.6569 LP  0  0  0  0  0  0  0  0  0  0  0  0  # atno 17371 bound_to 10713
  139.8712  134.9775  156.4964 LP  0  0  0  0  0  0  0  0  0  0  0  0  # atno 17394 bound_to 11000
  140.8569  133.8089  155.9225 LP  0  0  0  0  0  0  0  0  0  0  0  0  # atno 17395 bound_to 11000

$$$$
