AV-unprocessed.smi:108|AV-procd|sdf|1030|dock5
  -GOLD-   2262018 33D 1   1.00000     0.00000
 Structure written by MMmdl.
 59 62  0  0  0  0  0  0  0  0  1 V2000
  150.8677  136.1983  157.1782 O   0  0  0  0  0  0  0  0  0  0  0  0
  149.8085  136.4854  157.7402 C   0  0  0  0  0  0  0  0  0  0  0  0
  149.8456  137.3457  159.0220 C   0  0  0  0  0  0  0  0  0  0  0  0
  150.9651  138.3127  159.0514 N   0  0  0  0  0  0  0  0  0  0  0  0
  152.1624  137.9417  159.7105 C   0  0  0  0  0  0  0  0  0  0  0  0
  152.2764  136.8460  160.2622 O   0  0  0  0  0  0  0  0  0  0  0  0
  153.2271  138.9365  159.6830 C   0  0  0  0  0  0  0  0  0  0  0  0
  154.4196  138.6499  160.2322 F   0  0  0  0  0  0  0  0  0  0  0  0
  153.0415  140.1376  159.0981 C   0  0  0  0  0  0  0  0  0  0  0  0
  151.8443  140.5149  158.5117 N   0  0  0  0  0  0  0  0  0  0  0  0
  151.6624  141.8470  157.7985 C   0  0  1  0  0  0  0  0  0  0  0  0
  150.4556  142.6628  158.2814 C   0  0  0  0  0  0  0  0  0  0  0  0
  151.0681  143.6347  159.2864 C   0  0  0  0  0  0  0  0  0  0  0  0
  152.5655  143.3089  159.2837 C   0  0  0  0  0  0  0  0  0  0  0  0
  152.7798  142.6381  158.0494 O   0  0  0  0  0  0  0  0  0  0  0  0
  150.7879  139.5784  158.4424 C   0  0  0  0  0  0  0  0  0  0  0  0
  149.7313  139.8613  157.8726 O   0  0  0  0  0  0  0  0  0  0  0  0
  148.6098  136.0573  157.2716 N   0  0  0  0  0  0  0  0  0  0  0  0
  148.5282  135.1921  156.0824 C   0  0  0  0  0  0  0  0  0  0  0  0
  149.5361  134.0230  156.1189 C   0  0  0  0  0  0  0  0  0  0  0  0
  149.1352  132.8481  155.2427 C   0  0  0  0  0  0  0  0  0  0  0  0
  149.7318  131.5832  155.4334 C   0  0  0  0  0  0  0  0  0  0  0  0
  149.3450  130.4908  154.6336 C   0  0  0  0  0  0  0  0  0  0  0  0
  148.3623  130.6592  153.6389 C   0  0  0  0  0  0  0  0  0  0  0  0
  147.7663  131.9204  153.4448 C   0  0  0  0  0  0  0  0  0  0  0  0
  148.1520  133.0133  154.2450 C   0  0  0  0  0  0  0  0  0  0  0  0
  147.3188  136.4109  157.8873 C   0  0  0  0  0  0  0  0  0  0  0  0
  147.1221  135.8999  159.3108 C   0  0  0  0  0  0  0  0  0  0  0  0
  147.0818  134.5173  159.6053 C   0  0  0  0  0  0  0  0  0  0  0  0
  146.8969  134.0781  160.9304 C   0  0  0  0  0  0  0  0  0  0  0  0
  146.7569  135.0151  161.9716 C   0  0  0  0  0  0  0  0  0  0  0  0
  146.8047  136.3929  161.6867 C   0  0  0  0  0  0  0  0  0  0  0  0
  146.9882  136.8325  160.3613 C   0  0  0  0  0  0  0  0  0  0  0  0
  148.8944  137.8656  159.1366 H   0  0  0  0  0  0  0  0  0  0  0  0
  149.8965  136.6847  159.8880 H   0  0  0  0  0  0  0  0  0  0  0  0
  153.8829  140.8123  159.0918 H   0  0  0  0  0  0  0  0  0  0  0  0
  151.5748  141.5997  156.7393 H   0  0  0  0  0  0  0  0  0  0  0  0
  150.0584  143.2184  157.4309 H   0  0  0  0  0  0  0  0  0  0  0  0
  149.6508  142.0389  158.6697 H   0  0  0  0  0  0  0  0  0  0  0  0
  150.8993  144.6618  158.9616 H   0  0  0  0  0  0  0  0  0  0  0  0
  150.6376  143.5264  160.2822 H   0  0  0  0  0  0  0  0  0  0  0  0
  153.1874  144.2008  159.3639 H   0  0  0  0  0  0  0  0  0  0  0  0
  152.8222  142.6464  160.1112 H   0  0  0  0  0  0  0  0  0  0  0  0
  147.5196  134.7893  155.9823 H   0  0  0  0  0  0  0  0  0  0  0  0
  148.6819  135.7840  155.1785 H   0  0  0  0  0  0  0  0  0  0  0  0
  150.5187  134.3781  155.8066 H   0  0  0  0  0  0  0  0  0  0  0  0
  149.6610  133.6712  157.1438 H   0  0  0  0  0  0  0  0  0  0  0  0
  150.4810  131.4454  156.1997 H   0  0  0  0  0  0  0  0  0  0  0  0
  149.8010  129.5234  154.7841 H   0  0  0  0  0  0  0  0  0  0  0  0
  148.0656  129.8209  153.0258 H   0  0  0  0  0  0  0  0  0  0  0  0
  147.0118  132.0493  152.6828 H   0  0  0  0  0  0  0  0  0  0  0  0
  147.6877  133.9772  154.0955 H   0  0  0  0  0  0  0  0  0  0  0  0
  147.1923  137.4937  157.9102 H   0  0  0  0  0  0  0  0  0  0  0  0
  146.4993  136.0622  157.2584 H   0  0  0  0  0  0  0  0  0  0  0  0
  147.1907  133.7818  158.8221 H   0  0  0  0  0  0  0  0  0  0  0  0
  146.8629  133.0207  161.1477 H   0  0  0  0  0  0  0  0  0  0  0  0
  146.6154  134.6775  162.9877 H   0  0  0  0  0  0  0  0  0  0  0  0
  146.7006  137.1131  162.4851 H   0  0  0  0  0  0  0  0  0  0  0  0
  147.0228  137.8919  160.1530 H   0  0  0  0  0  0  0  0  0  0  0  0
  1  2  2  0  0  0  0
  2  3  1  0  0  0  0
  2 18  1  0  0  0  0
  3  4  1  0  0  0  0
  3 34  1  0  0  0  0
  3 35  1  0  0  0  0
  4 16  1  0  0  0  0
  4  5  1  0  0  0  0
  5  6  2  0  0  0  0
  5  7  1  0  0  0  0
  7  8  1  0  0  0  0
  7  9  2  0  0  0  0
  9 10  1  0  0  0  0
  9 36  1  0  0  0  0
 10 11  1  0  0  0  0
 10 16  1  0  0  0  0
 11 15  1  0  0  0  0
 11 12  1  0  0  0  0
 11 37  1  0  0  0  0
 12 13  1  0  0  0  0
 12 38  1  0  0  0  0
 12 39  1  0  0  0  0
 13 14  1  0  0  0  0
 13 40  1  0  0  0  0
 13 41  1  0  0  0  0
 14 15  1  0  0  0  0
 14 42  1  0  0  0  0
 14 43  1  0  0  0  0
 16 17  2  0  0  0  0
 18 19  1  0  0  0  0
 18 27  1  0  0  0  0
 19 20  1  0  0  0  0
 19 44  1  0  0  0  0
 19 45  1  0  0  0  0
 20 21  1  0  0  0  0
 20 46  1  0  0  0  0
 20 47  1  0  0  0  0
 21 26  1  0  0  0  0
 21 22  2  0  0  0  0
 22 23  1  0  0  0  0
 22 48  1  0  0  0  0
 23 24  2  0  0  0  0
 23 49  1  0  0  0  0
 24 25  1  0  0  0  0
 24 50  1  0  0  0  0
 25 26  2  0  0  0  0
 25 51  1  0  0  0  0
 26 52  1  0  0  0  0
 27 28  1  0  0  0  0
 27 53  1  0  0  0  0
 27 54  1  0  0  0  0
 28 33  1  0  0  0  0
 28 29  2  0  0  0  0
 29 30  1  0  0  0  0
 29 55  1  0  0  0  0
 30 31  2  0  0  0  0
 30 56  1  0  0  0  0
 31 32  1  0  0  0  0
 31 57  1  0  0  0  0
 32 33  2  0  0  0  0
 32 58  1  0  0  0  0
 33 59  1  0  0  0  0
M  END
> <s_m_source_file>
AV-unprocessed.smi

> <i_m_source_file_index>
108

> <i_lp_mmshare_version>
43012

> <i_f3d_flags>
0

> <s_epik_input>
W2NIXTFbY0hdW2NIXVtjSF1bY0hdYzFbQ0gyXVtDSDJdTihbQ0gyXWMyW2NIXVtjSF1bY0hdW2NIXVtjSF0yKUMoPU8pW0NIMl1uM2MoPU8pYyhGKVtjSF1uKGMzPU8pW0NAQEhdNFtDSDJdW0NIMl1bQ0gyXU80

> <s_epik_cmdline>
J2VwaWtfcHl0aG9uJywgJy1waCcsICc3LjAnLCAnLXRuJywgJzgnLCAnLW1hJywgJzIwMCcsICctbWV0YWxfYmluZGluZycsICctaW1hZScsICc8aW5maWxlLm1hZT4nLCAnLW9tYWUnLCAnPG91dGZpbGUubWFlPic=

> <r_lp_tautomer_probability>
1

> <r_epik_Ionization_Penalty>
5.46209e-09

> <r_epik_Ionization_Penalty_Charging>
4.22697e-09

> <r_epik_Ionization_Penalty_Neutral>
1.23512e-09

> <r_epik_State_Penalty>
-0

> <r_epik_Charging_Adjusted_Penalty>
4.22697e-09

> <i_epik_Tot_Q>
0

> <i_epik_Tot_abs_Q>
0

> <r_epik_Metal_State_Penalty>
-0

> <b_epik_Metal_Only>
0

> <s_epik_Chemistry_Notes>
This compound contains an acetal/aminal-like group ( X-CH(R)-Y where X, Y are N, S, or O) that may be acid/base labile, releasing an aldehyde.

> <s_lp_Force_Field>
OPLS_2005

> <r_lp_Energy>
38.0932

> <b_lp_Chiralities_Consistent>
1

> <s_lp_Variant>
AV-unprocessed.smi:108-2

> <Gold.Version>
5.8.1

> <Gold.Id.Protein>
6NUR|6NUR_protein|mol2

> <Gold.PLP.Fitness>
50.0183

> <Gold.PLP.PLP>
-49.4828

> <Gold.PLP.part.hbond>
-0.9457

> <Gold.PLP.part.metal>
0.0000

> <Gold.PLP.part.buried>
-5.3988

> <Gold.PLP.part.nonpolar>
-44.4848

> <Gold.PLP.part.repulsive>
0.0086

> <Gold.PLP.ligand.clash>
0.0000

> <Gold.PLP.ligand.torsion>
1.3406

> <Gold.PLP.Chemscore.Hbond>
0.9913

> <Gold.PLP.Chemscore.CHOScore>
0.0000

> <Gold.PLP.Chemscore.Metal>
0.0000

> <Gold.Chemscore.Hbonds>
donor molecule, donor type, donor heavy atom, donor atom, acceptor molecule, acceptor atom, score
      P1  H  6896  6907       L1     6  1.00

> <Gold.PLP.Chemscore.Internal.Correction>
0.2430

> <Gold.Rescore>
     Score         DG    S(hbond)    S(metal)    S(lipo)     H(rot)  DE(clash)    DE(int)     intcor
     15.21     -17.39       1.00        0.00     123.17       2.28       0.05       2.13       ----

> <Gold.Chemscore.Fitness>
15.2126

> <Gold.Chemscore.DG>
-17.3894

> <Gold.Chemscore.ZeroCoef>
-5.4800

> <Gold.Chemscore.Hbond>
0.9953

> <Gold.Chemscore.Metal>
0.0000

> <Gold.Chemscore.Lipo>
123.1663

> <Gold.Chemscore.Internal_Hbond>
0.0000

> <Gold.Chemscore.DEClash>
0.0506

> <Gold.Chemscore.DEInternal>
2.1262

> <Gold.Chemscore.Rot>
2.2756

> <Gold.Chemscore.Internal.Correction>
   9.000000E+99

> <Gold.Chemscore.Hbonds>
donor molecule, donor type, donor heavy atom, donor atom, acceptor molecule, acceptor atom, score
      P1  H  6896  6907       L1     6  1.00

> <Gold.Chemscore.Hbond.Weighted>
-3.3244

> <Gold.Chemscore.Metal.Weighted>
-0.0000

> <Gold.Chemscore.Lipo.Weighted>
-14.4105

> <Gold.Chemscore.Internal_Hbond.Weighted>
0.0000

> <Gold.Chemscore.DEClash.Weighted>
0.0506

> <Gold.Chemscore.DEInternal.Weighted>
2.1262

> <Gold.Chemscore.Rot.Weighted>
5.8255

> <Gold.Chemscore.Internal.Correction.Weighted>
   9.000000E+99

> <Gold.Protein.RotatedTorsions>
[ 6907 6896 6895 6894 ] final   21.52 input  -60.11 | X-H torsion
[ 7974 7965 7964 7962 ] final  157.74 input  175.53 | X-H torsion
[ 8008 7997 7996 7995 ] final  -10.75 input   59.86 | X-H torsion
[ 10167 10162 10161 10158 ] final  171.66 input  -65.29 | X-H torsion
[ 10718 10713 10712 10709 ] final  172.24 input   66.30 | X-H torsion
[ 10763 10752 10751 10750 ] final  134.34 input  -60.55 | X-H torsion
[ 11005 11000 10999 10996 ] final -177.66 input  -57.11 | X-H torsion

> <Gold.Protein.ActiveResidues>
 VAL166  LYS551  ARG553  GLY616  TRP617  ASP618  TYR619  PRO620  LYS621  CYS622 
 ASP623  PHE694  ASN695  SER759  ASP760  ASP761  ALA762  ILE779  LEU786  VAL792 
 PHE793  MET794  SER795  GLU796  ALA797  LYS798  CYS799  TRP800  GLU811  SER814 

> <Gold.Protein.RotatedAtoms>
  151.9131  135.0330  160.0515 H   0  0  0  0  0  0  0  0  0  0  0  0  # atno 6907 bound_to 6896
  152.2262  133.5018  159.5198 H   0  0  0  0  0  0  0  0  0  0  0  0  # atno 6908 bound_to 6896
  150.7013  134.1193  159.4071 H   0  0  0  0  0  0  0  0  0  0  0  0  # atno 6909 bound_to 6896
  144.7886  139.7382  143.6231 H   0  0  0  0  0  0  0  0  0  0  0  0  # atno 7974 bound_to 7965
  154.5527  140.2321  155.8460 H   0  0  0  0  0  0  0  0  0  0  0  0  # atno 8008 bound_to 7997
  156.1961  140.3065  155.9390 H   0  0  0  0  0  0  0  0  0  0  0  0  # atno 8009 bound_to 7997
  155.3040  140.0432  157.3022 H   0  0  0  0  0  0  0  0  0  0  0  0  # atno 8010 bound_to 7997
  139.5053  144.3461  151.9970 H   0  0  0  0  0  0  0  0  0  0  0  0  # atno 10167 bound_to 10162
  156.9818  131.0121  151.2879 H   0  0  0  0  0  0  0  0  0  0  0  0  # atno 10718 bound_to 10713
  153.8219  135.3115  155.3411 H   0  0  0  0  0  0  0  0  0  0  0  0  # atno 10763 bound_to 10752
  154.8009  135.4727  154.0276 H   0  0  0  0  0  0  0  0  0  0  0  0  # atno 10764 bound_to 10752
  153.1688  135.6874  153.8727 H   0  0  0  0  0  0  0  0  0  0  0  0  # atno 10765 bound_to 10752
  140.4384  134.6454  157.4746 H   0  0  0  0  0  0  0  0  0  0  0  0  # atno 11005 bound_to 11000
  146.2128  139.5497  142.9670 LP  0  0  0  0  0  0  0  0  0  0  0  0  # atno 17320 bound_to 7965
  145.5855  141.0377  143.2098 LP  0  0  0  0  0  0  0  0  0  0  0  0  # atno 17321 bound_to 7965
  140.2898  144.3766  150.6092 LP  0  0  0  0  0  0  0  0  0  0  0  0  # atno 17342 bound_to 10162
  140.5955  143.2167  151.7172 LP  0  0  0  0  0  0  0  0  0  0  0  0  # atno 17343 bound_to 10162
  157.5521  130.8189  149.8158 LP  0  0  0  0  0  0  0  0  0  0  0  0  # atno 17370 bound_to 10713
  156.0241  130.3785  150.1873 LP  0  0  0  0  0  0  0  0  0  0  0  0  # atno 17371 bound_to 10713
  140.0086  134.6725  155.9416 LP  0  0  0  0  0  0  0  0  0  0  0  0  # atno 17394 bound_to 11000
  141.1716  133.6537  156.4672 LP  0  0  0  0  0  0  0  0  0  0  0  0  # atno 17395 bound_to 11000

$$$$
