AV-unprocessed.smi:20|AV-procd|sdf|117|dock3
  -GOLD-   2262015283D 1   1.00000     0.00000
 Structure written by MMmdl.
 57 61  0  0  0  0  0  0  0  0  1 V2000
  146.0418  133.0680  154.5597 O   0  0  0  0  0  0  0  0  0  0  0  0
  145.5495  134.1748  154.3538 C   0  0  0  0  0  0  0  0  0  0  0  0
  146.3517  135.3866  153.9114 C   0  0  0  0  0  0  0  0  0  0  0  0
  145.2659  136.3824  153.4364 C   0  0  2  0  0  0  0  0  0  0  0  0
  145.0275  136.2831  151.9056 C   0  0  0  0  0  0  0  0  0  0  0  0
  146.1855  136.8943  151.0973 C   0  0  0  0  0  0  0  0  0  0  0  0
  146.4856  138.3275  151.5582 C   0  0  0  0  0  0  0  0  0  0  0  0
  146.7015  138.3718  153.0027 N   0  0  0  0  0  0  0  0  0  0  0  0
  147.3253  139.4931  153.4450 C   0  0  0  0  0  0  0  0  0  0  0  0
  146.8153  140.7179  153.1446 N   0  0  0  0  0  0  0  0  0  0  0  0
  147.4271  141.8270  153.5699 C   0  0  0  0  0  0  0  0  0  0  0  0
  148.5393  141.9400  154.2981 N   0  0  0  0  0  0  0  0  0  0  0  0
  149.0527  140.7152  154.6065 C   0  0  0  0  0  0  0  0  0  0  0  0
  148.5154  139.4535  154.2251 C   0  0  0  0  0  0  0  0  0  0  0  0
  149.3050  138.4298  154.7371 N   0  0  0  0  0  0  0  0  0  0  0  0
  150.2584  139.0511  155.3766 C   0  0  0  0  0  0  0  0  0  0  0  0
  150.1864  140.4256  155.3441 N   0  0  0  0  0  0  0  0  0  0  0  0
  151.1003  141.3649  155.9692 C   0  0  0  0  0  0  0  0  0  0  0  0
  150.9896  141.4172  157.5164 C   0  0  2  0  0  0  0  0  0  0  0  0
  149.5412  141.6986  157.9921 C   0  0  0  0  0  0  0  0  0  0  0  0
  148.7069  140.5680  157.8460 O   0  0  0  0  0  0  0  0  0  0  0  0
  151.9772  142.4631  158.0970 C   0  0  1  0  0  0  0  0  0  0  0  0
  151.6973  143.9076  157.6852 C   0  0  0  0  0  0  0  0  0  0  0  0
  152.1182  144.7500  158.8934 C   0  0  0  0  0  0  0  0  0  0  0  0
  152.6080  143.8268  159.8543 O   0  0  0  0  0  0  0  0  0  0  0  0
  151.9707  142.5832  159.6228 C   0  0  0  0  0  0  0  0  0  0  0  0
  145.5978  137.8455  153.8080 C   0  0  0  0  0  0  0  0  0  0  0  0
  144.0069  135.8923  154.1907 C   0  0  0  0  0  0  0  0  0  0  0  0
  144.2640  134.4949  154.4793 N   0  0  0  0  0  0  0  0  0  0  0  0
  146.9025  135.7689  154.7716 H   0  0  0  0  0  0  0  0  0  0  0  0
  147.0734  135.1221  153.1392 H   0  0  0  0  0  0  0  0  0  0  0  0
  144.8701  135.2467  151.6040 H   0  0  0  0  0  0  0  0  0  0  0  0
  144.1117  136.8164  151.6463 H   0  0  0  0  0  0  0  0  0  0  0  0
  147.0828  136.2842  151.1991 H   0  0  0  0  0  0  0  0  0  0  0  0
  145.9378  136.8924  150.0356 H   0  0  0  0  0  0  0  0  0  0  0  0
  147.3465  138.7100  151.0111 H   0  0  0  0  0  0  0  0  0  0  0  0
  145.6457  138.9784  151.3118 H   0  0  0  0  0  0  0  0  0  0  0  0
  146.9585  142.7576  153.2854 H   0  0  0  0  0  0  0  0  0  0  0  0
  151.0479  138.5208  155.8890 H   0  0  0  0  0  0  0  0  0  0  0  0
  152.1056  141.0762  155.6639 H   0  0  0  0  0  0  0  0  0  0  0  0
  150.9238  142.3549  155.5467 H   0  0  0  0  0  0  0  0  0  0  0  0
  151.2893  140.4447  157.9101 H   0  0  0  0  0  0  0  0  0  0  0  0
  149.5147  141.9612  159.0487 H   0  0  0  0  0  0  0  0  0  0  0  0
  149.1127  142.5422  157.4503 H   0  0  0  0  0  0  0  0  0  0  0  0
  149.1542  139.8156  158.2024 H   0  0  0  0  0  0  0  0  0  0  0  0
  152.9925  142.2108  157.7860 H   0  0  0  0  0  0  0  0  0  0  0  0
  152.2517  144.1835  156.7877 H   0  0  0  0  0  0  0  0  0  0  0  0
  150.6370  144.0638  157.4818 H   0  0  0  0  0  0  0  0  0  0  0  0
  152.8871  145.4811  158.6419 H   0  0  0  0  0  0  0  0  0  0  0  0
  151.2624  145.2856  159.3059 H   0  0  0  0  0  0  0  0  0  0  0  0
  150.9529  142.6129  160.0164 H   0  0  0  0  0  0  0  0  0  0  0  0
  152.5110  141.7757  160.1170 H   0  0  0  0  0  0  0  0  0  0  0  0
  144.7199  138.4740  153.6505 H   0  0  0  0  0  0  0  0  0  0  0  0
  145.8444  137.9077  154.8693 H   0  0  0  0  0  0  0  0  0  0  0  0
  143.8779  136.4176  155.1382 H   0  0  0  0  0  0  0  0  0  0  0  0
  143.0881  136.0144  153.6164 H   0  0  0  0  0  0  0  0  0  0  0  0
  143.5399  133.8507  154.7629 H   0  0  0  0  0  0  0  0  0  0  0  0
  1  2  2  0  0  0  0
  2 29  1  0  0  0  0
  2  3  1  0  0  0  0
  3  4  1  0  0  0  0
  3 30  1  0  0  0  0
  3 31  1  0  0  0  0
  4 27  1  0  0  0  0
  4  5  1  0  0  0  0
  4 28  1  0  0  0  0
  5  6  1  0  0  0  0
  5 32  1  0  0  0  0
  5 33  1  0  0  0  0
  6  7  1  0  0  0  0
  6 34  1  0  0  0  0
  6 35  1  0  0  0  0
  7  8  1  0  0  0  0
  7 36  1  0  0  0  0
  7 37  1  0  0  0  0
  8  9  1  0  0  0  0
  8 27  1  0  0  0  0
  9 14  1  0  0  0  0
  9 10  2  0  0  0  0
 10 11  1  0  0  0  0
 11 12  2  0  0  0  0
 11 38  1  0  0  0  0
 12 13  1  0  0  0  0
 13 17  1  0  0  0  0
 13 14  2  0  0  0  0
 14 15  1  0  0  0  0
 15 16  2  0  0  0  0
 16 17  1  0  0  0  0
 16 39  1  0  0  0  0
 17 18  1  0  0  0  0
 18 19  1  0  0  0  0
 18 40  1  0  0  0  0
 18 41  1  0  0  0  0
 19 20  1  0  0  0  0
 19 22  1  0  0  0  0
 19 42  1  0  0  0  0
 20 21  1  0  0  0  0
 20 43  1  0  0  0  0
 20 44  1  0  0  0  0
 21 45  1  0  0  0  0
 22 26  1  0  0  0  0
 22 23  1  0  0  0  0
 22 46  1  0  0  0  0
 23 24  1  0  0  0  0
 23 47  1  0  0  0  0
 23 48  1  0  0  0  0
 24 25  1  0  0  0  0
 24 49  1  0  0  0  0
 24 50  1  0  0  0  0
 25 26  1  0  0  0  0
 26 51  1  0  0  0  0
 26 52  1  0  0  0  0
 27 53  1  0  0  0  0
 27 54  1  0  0  0  0
 28 29  1  0  0  0  0
 28 55  1  0  0  0  0
 28 56  1  0  0  0  0
 29 57  1  0  0  0  0
M  END
> <s_m_source_file>
AV-unprocessed.smi

> <i_m_source_file_index>
20

> <i_lp_mmshare_version>
43012

> <i_f3d_flags>
0

> <s_epik_input>
W0NIMl0xW05IXUMoPU8pW0NIMl1bQ0BAXTEyW0NIMl1bQ0gyXVtDSDJdTihbQ0gyXTIpYyhuW2NIXW4zKWMoYzM0KW5bY0hdbjRbQ0gyXVtDQEhdKFtDSDJdW09IXSlbQ0BASF01W0NIMl1bQ0gyXU9bQ0gyXTU=

> <s_epik_cmdline>
J2VwaWtfcHl0aG9uJywgJy1waCcsICc3LjAnLCAnLXRuJywgJzgnLCAnLW1hJywgJzIwMCcsICctbWV0YWxfYmluZGluZycsICctaW1hZScsICc8aW5maWxlLm1hZT4nLCAnLW9tYWUnLCAnPG91dGZpbGUubWFlPic=

> <r_lp_tautomer_probability>
1

> <r_epik_Ionization_Penalty>
0.0019697

> <r_epik_Ionization_Penalty_Charging>
0

> <r_epik_Ionization_Penalty_Neutral>
0.0019697

> <r_epik_State_Penalty>
0.00113613

> <r_epik_Charging_Adjusted_Penalty>
0.00113613

> <i_epik_Tot_Q>
0

> <i_epik_Tot_abs_Q>
0

> <r_epik_Metal_State_Penalty>
-0

> <b_epik_Metal_Only>
0

> <s_lp_Force_Field>
OPLS_2005

> <r_lp_Energy>
58.6133

> <b_lp_Chiralities_Consistent>
1

> <s_lp_Variant>
AV-unprocessed.smi:20-5

> <Gold.Version>
5.8.1

> <Gold.Id.Protein>
6NUR|6NUR_protein|mol2

> <Gold.PLP.Fitness>
43.8599

> <Gold.PLP.PLP>
-43.0513

> <Gold.PLP.part.hbond>
-1.3607

> <Gold.PLP.part.metal>
0.0000

> <Gold.PLP.part.buried>
-3.4499

> <Gold.PLP.part.nonpolar>
-39.5871

> <Gold.PLP.part.repulsive>
1.2612

> <Gold.PLP.ligand.clash>
0.0000

> <Gold.PLP.ligand.torsion>
0.6539

> <Gold.PLP.Chemscore.Hbond>
0.5525

> <Gold.PLP.Chemscore.CHOScore>
0.0000

> <Gold.PLP.Chemscore.Metal>
0.0000

> <Gold.Chemscore.Hbonds>
donor molecule, donor type, donor heavy atom, donor atom, acceptor molecule, acceptor atom, score
      L1  H    29    57       P1 10957  0.42
      P1  H  8011  8017       L1    12  0.03

> <Gold.PLP.Chemscore.Internal.Correction>
0.4589

> <Gold.Rescore>
     Score         DG    S(hbond)    S(metal)    S(lipo)     H(rot)  DE(clash)    DE(int)     intcor
     11.04     -12.48       0.83        0.00      96.09       2.74       0.58       0.86       ----

> <Gold.Chemscore.Fitness>
11.0439

> <Gold.Chemscore.DG>
-12.4839

> <Gold.Chemscore.ZeroCoef>
-5.4800

> <Gold.Chemscore.Hbond>
0.8321

> <Gold.Chemscore.Metal>
0.0000

> <Gold.Chemscore.Lipo>
96.0928

> <Gold.Chemscore.Internal_Hbond>
0.0000

> <Gold.Chemscore.DEClash>
0.5810

> <Gold.Chemscore.DEInternal>
0.8590

> <Gold.Chemscore.Rot>
2.7415

> <Gold.Chemscore.Internal.Correction>
   9.000000E+99

> <Gold.Chemscore.Hbonds>
donor molecule, donor type, donor heavy atom, donor atom, acceptor molecule, acceptor atom, score
      L1  H    29    57       P1 10957  0.42

> <Gold.Chemscore.Hbond.Weighted>
-2.7792

> <Gold.Chemscore.Metal.Weighted>
-0.0000

> <Gold.Chemscore.Lipo.Weighted>
-11.2429

> <Gold.Chemscore.Internal_Hbond.Weighted>
0.0000

> <Gold.Chemscore.DEClash.Weighted>
0.5810

> <Gold.Chemscore.DEInternal.Weighted>
0.8590

> <Gold.Chemscore.Rot.Weighted>
7.0182

> <Gold.Chemscore.Internal.Correction.Weighted>
   9.000000E+99

> <Gold.Protein.RotatedTorsions>
[ 6907 6896 6895 6894 ] final  -91.15 input  -60.11 | X-H torsion
[ 7974 7965 7964 7962 ] final   87.23 input  175.53 | X-H torsion
[ 8008 7997 7996 7995 ] final -104.04 input   59.86 | X-H torsion
[ 10167 10162 10161 10158 ] final   88.30 input  -65.29 | X-H torsion
[ 10718 10713 10712 10709 ] final  -30.46 input   66.30 | X-H torsion
[ 10763 10752 10751 10750 ] final   53.96 input  -60.55 | X-H torsion
[ 11005 11000 10999 10996 ] final   51.42 input  -57.11 | X-H torsion

> <Gold.Protein.ActiveResidues>
 VAL166  LYS551  ARG553  GLY616  TRP617  ASP618  TYR619  PRO620  LYS621  CYS622 
 ASP623  PHE694  ASN695  SER759  ASP760  ASP761  ALA762  ILE779  LEU786  VAL792 
 PHE793  MET794  SER795  GLU796  ALA797  LYS798  CYS799  TRP800  GLU811  SER814 

> <Gold.Protein.RotatedAtoms>
  150.6889  134.2321  159.4438 H   0  0  0  0  0  0  0  0  0  0  0  0  # atno 6907 bound_to 6896
  152.0271  134.9787  160.0581 H   0  0  0  0  0  0  0  0  0  0  0  0  # atno 6908 bound_to 6896
  152.1340  133.4390  159.4771 H   0  0  0  0  0  0  0  0  0  0  0  0  # atno 6909 bound_to 6896
  145.5617  139.2304  143.2456 H   0  0  0  0  0  0  0  0  0  0  0  0  # atno 7974 bound_to 7965
  154.8796  140.0420  157.1774 H   0  0  0  0  0  0  0  0  0  0  0  0  # atno 8008 bound_to 7997
  154.8653  140.2950  155.5493 H   0  0  0  0  0  0  0  0  0  0  0  0  # atno 8009 bound_to 7997
  156.2999  140.2439  156.3634 H   0  0  0  0  0  0  0  0  0  0  0  0  # atno 8010 bound_to 7997
  139.8686  144.6505  150.8975 H   0  0  0  0  0  0  0  0  0  0  0  0  # atno 10167 bound_to 10162
  156.3995  130.4387  149.7333 H   0  0  0  0  0  0  0  0  0  0  0  0  # atno 10718 bound_to 10713
  152.9800  135.5761  154.4826 H   0  0  0  0  0  0  0  0  0  0  0  0  # atno 10763 bound_to 10752
  154.4373  135.2775  155.1874 H   0  0  0  0  0  0  0  0  0  0  0  0  # atno 10764 bound_to 10752
  154.3557  135.6199  153.5719 H   0  0  0  0  0  0  0  0  0  0  0  0  # atno 10765 bound_to 10752
  140.0934  134.5179  155.8830 H   0  0  0  0  0  0  0  0  0  0  0  0  # atno 11005 bound_to 11000
  146.1846  140.6442  142.9173 LP  0  0  0  0  0  0  0  0  0  0  0  0  # atno 17320 bound_to 7965
  144.7480  140.5117  143.6822 LP  0  0  0  0  0  0  0  0  0  0  0  0  # atno 17321 bound_to 7965
  140.7764  143.3683  151.1697 LP  0  0  0  0  0  0  0  0  0  0  0  0  # atno 17342 bound_to 10162
  139.7305  143.9080  152.3018 LP  0  0  0  0  0  0  0  0  0  0  0  0  # atno 17343 bound_to 10162
  156.4355  130.7836  151.2856 LP  0  0  0  0  0  0  0  0  0  0  0  0  # atno 17370 bound_to 10713
  157.7503  131.0141  150.3450 LP  0  0  0  0  0  0  0  0  0  0  0  0  # atno 17371 bound_to 10713
  141.2085  133.6674  156.6373 LP  0  0  0  0  0  0  0  0  0  0  0  0  # atno 17394 bound_to 11000
  140.3320  134.7920  157.4334 LP  0  0  0  0  0  0  0  0  0  0  0  0  # atno 17395 bound_to 11000

$$$$
