AV-unprocessed.smi:1824|AV-procd|sdf|7409|dock3
  -GOLD-   22720 9 83D 1   1.00000     0.00000
 Structure written by MMmdl.
 45 47  0  0  0  0  0  0  0  0  2 V2000
  147.5313  136.4010  158.1851 C   0  0  0  0  0  0  0  0  0  0  0  0
  149.0633  136.4831  158.2961 C   0  0  2  0  0  0  0  0  0  0  0  0
  149.6610  137.7244  157.6046 C   0  0  0  0  0  0  0  0  0  0  0  0
  149.6435  137.6265  156.1486 N   0  0  0  0  0  0  0  0  0  0  0  0
  150.2192  138.8277  155.5411 C   0  0  0  0  0  0  0  0  0  0  0  0
  151.7433  138.9905  155.7063 C   0  0  1  0  0  0  0  0  0  0  0  0
  152.2070  139.8735  154.7040 O   0  0  0  0  0  0  0  0  0  0  0  0
  152.1021  139.5538  157.0952 C   0  0  0  0  0  0  0  0  0  0  0  0
  151.5237  140.8831  157.3406 N   0  0  0  0  0  0  0  0  0  0  0  0
  150.6537  141.6037  156.5822 C   0  0  0  0  0  0  0  0  0  0  0  0
  150.4153  142.7767  157.2316 N   0  3  0  0  0  0  0  0  0  0  0  0
  151.1421  142.8059  158.4239 C   0  0  0  0  0  0  0  0  0  0  0  0
  151.2262  143.7775  159.4162 C   0  0  0  0  0  0  0  0  0  0  0  0
  152.0622  143.4921  160.5157 C   0  0  0  0  0  0  0  0  0  0  0  0
  152.1794  144.4030  161.5106 F   0  0  0  0  0  0  0  0  0  0  0  0
  152.7762  142.2780  160.5989 C   0  0  0  0  0  0  0  0  0  0  0  0
  153.5663  142.0430  161.6732 F   0  0  0  0  0  0  0  0  0  0  0  0
  152.6843  141.3015  159.5854 C   0  0  0  0  0  0  0  0  0  0  0  0
  151.8562  141.5917  158.5016 C   0  0  0  0  0  0  0  0  0  0  0  0
  150.3352  136.4031  155.7510 C   0  0  0  0  0  0  0  0  0  0  0  0
  149.7080  135.1517  156.3927 C   0  0  1  0  0  0  0  0  0  0  0  0
  150.4885  133.8775  156.0529 C   0  0  0  0  0  0  0  0  0  0  0  0
  149.6958  135.2976  157.8115 O   0  0  0  0  0  0  0  0  0  0  0  0
  147.0625  137.2653  158.6561 H   0  0  0  0  0  0  0  0  0  0  0  0
  147.1526  135.5082  158.6828 H   0  0  0  0  0  0  0  0  0  0  0  0
  147.1953  136.3742  157.1488 H   0  0  0  0  0  0  0  0  0  0  0  0
  149.3017  136.5448  159.3583 H   0  0  0  0  0  0  0  0  0  0  0  0
  149.1191  138.6147  157.9261 H   0  0  0  0  0  0  0  0  0  0  0  0
  150.6898  137.8535  157.9450 H   0  0  0  0  0  0  0  0  0  0  0  0
  149.9966  138.8328  154.4728 H   0  0  0  0  0  0  0  0  0  0  0  0
  149.7174  139.7064  155.9490 H   0  0  0  0  0  0  0  0  0  0  0  0
  152.2520  138.0352  155.5847 H   0  0  0  0  0  0  0  0  0  0  0  0
  153.0958  140.1188  154.9138 H   0  0  0  0  0  0  0  0  0  0  0  0
  151.7969  138.8745  157.8916 H   0  0  0  0  0  0  0  0  0  0  0  0
  153.1844  139.6571  157.1825 H   0  0  0  0  0  0  0  0  0  0  0  0
  150.2292  141.2999  155.6358 H   0  0  0  0  0  0  0  0  0  0  0  0
  150.6803  144.7076  159.3574 H   0  0  0  0  0  0  0  0  0  0  0  0
  153.2304  140.3734  159.6639 H   0  0  0  0  0  0  0  0  0  0  0  0
  150.3062  136.2830  154.6691 H   0  0  0  0  0  0  0  0  0  0  0  0
  151.3882  136.4676  156.0299 H   0  0  0  0  0  0  0  0  0  0  0  0
  148.6856  135.0325  156.0326 H   0  0  0  0  0  0  0  0  0  0  0  0
  150.5195  133.7111  154.9758 H   0  0  0  0  0  0  0  0  0  0  0  0
  150.0250  133.0033  156.5103 H   0  0  0  0  0  0  0  0  0  0  0  0
  151.5162  133.9364  156.4127 H   0  0  0  0  0  0  0  0  0  0  0  0
  149.8002  143.5016  156.8843 H   0  0  0  0  0  0  0  0  0  0  0  0
  1  2  1  0  0  0  0
  1 24  1  0  0  0  0
  1 25  1  0  0  0  0
  1 26  1  0  0  0  0
  2 23  1  0  0  0  0
  2  3  1  0  0  0  0
  2 27  1  0  0  0  0
  3  4  1  0  0  0  0
  3 28  1  0  0  0  0
  3 29  1  0  0  0  0
  4  5  1  0  0  0  0
  4 20  1  0  0  0  0
  5  6  1  0  0  0  0
  5 30  1  0  0  0  0
  5 31  1  0  0  0  0
  6  7  1  0  0  0  0
  6  8  1  0  0  0  0
  6 32  1  0  0  0  0
  7 33  1  0  0  0  0
  8  9  1  0  0  0  0
  8 34  1  0  0  0  0
  8 35  1  0  0  0  0
  9 19  1  0  0  0  0
  9 10  1  0  0  0  0
 10 11  2  0  0  0  0
 10 36  1  0  0  0  0
 11 12  1  0  0  0  0
 11 45  1  0  0  0  0
 12 19  2  0  0  0  0
 12 13  1  0  0  0  0
 13 14  2  0  0  0  0
 13 37  1  0  0  0  0
 14 15  1  0  0  0  0
 14 16  1  0  0  0  0
 16 17  1  0  0  0  0
 16 18  2  0  0  0  0
 18 19  1  0  0  0  0
 18 38  1  0  0  0  0
 20 21  1  0  0  0  0
 20 39  1  0  0  0  0
 20 40  1  0  0  0  0
 21 22  1  0  0  0  0
 21 23  1  0  0  0  0
 21 41  1  0  0  0  0
 22 42  1  0  0  0  0
 22 43  1  0  0  0  0
 22 44  1  0  0  0  0
M  CHG  1  11   1
M  END
> <s_m_source_file>
AV-unprocessed.smi

> <i_m_source_file_index>
1824

> <i_lp_mmshare_version>
43012

> <i_f3d_flags>
0

> <s_epik_input>
W0NIM11bQ0BASF0xW0NIMl1OKFtDSDJdW0NASF0oTzEpW0NIM10pW0NIMl1bQ0BIXShbT0hdKVtDSDJdbihbY0hdbjIpYyhjMjMpW2NIXWMoRiljKEYpW2NIXTM=

> <s_epik_cmdline>
J2VwaWtfcHl0aG9uJywgJy1waCcsICc3LjAnLCAnLXRuJywgJzgnLCAnLW1hJywgJzIwMCcsICctbWV0YWxfYmluZGluZycsICctaW1hZScsICc8aW5maWxlLm1hZT4nLCAnLW9tYWUnLCAnPG91dGZpbGUubWFlPic=

> <r_epik_Ionization_Penalty>
2.58709

> <r_epik_Ionization_Penalty_Charging>
2.37273

> <r_epik_Ionization_Penalty_Neutral>
0.214359

> <r_epik_State_Penalty>
2.71799

> <r_epik_Charging_Adjusted_Penalty>
5.09071

> <i_epik_Tot_Q>
1

> <i_epik_Tot_abs_Q>
1

> <r_epik_Metal_State_Penalty>
6.80217

> <b_epik_Metal_Only>
0

> <s_lp_Force_Field>
OPLS_2005

> <r_lp_Energy>
35.2621

> <b_lp_Chiralities_Consistent>
1

> <s_lp_Variant>
AV-unprocessed.smi:1824-17

> <Gold.Version>
5.8.1

> <Gold.Id.Protein>
6NUR|6NUR_protein|mol2

> <Gold.PLP.Fitness>
52.1758

> <Gold.PLP.PLP>
-42.0100

> <Gold.PLP.part.hbond>
-2.7714

> <Gold.PLP.part.metal>
0.0000

> <Gold.PLP.part.buried>
-5.5307

> <Gold.PLP.part.nonpolar>
-33.6576

> <Gold.PLP.part.repulsive>
0.0344

> <Gold.PLP.ligand.clash>
0.4851

> <Gold.PLP.ligand.torsion>
0.2838

> <Gold.PLP.Chemscore.Hbond>
3.7120

> <Gold.PLP.Chemscore.CHOScore>
0.0000

> <Gold.PLP.Chemscore.Metal>
0.0000

> <Gold.Chemscore.Hbonds>
donor molecule, donor type, donor heavy atom, donor atom, acceptor molecule, acceptor atom, score
      L1  H    11    45       P1  8028  2.00
      P1  H  6896  6908       L1    23  0.82
      P1  H  7989  7998       L1     7  0.74

> <Gold.PLP.Chemscore.Internal.Correction>
0.0825

> <Gold.Rescore>
     Score         DG    S(hbond)    S(metal)    S(lipo)     H(rot)  DE(clash)    DE(int)     intcor
     17.33     -19.02       2.55        0.00      93.63       2.32       0.04       1.65       ----

> <Gold.Chemscore.Fitness>
17.3279

> <Gold.Chemscore.DG>
-19.0157

> <Gold.Chemscore.ZeroCoef>
-5.4800

> <Gold.Chemscore.Hbond>
2.5517

> <Gold.Chemscore.Metal>
0.0000

> <Gold.Chemscore.Lipo>
93.6307

> <Gold.Chemscore.Internal_Hbond>
0.0000

> <Gold.Chemscore.DEClash>
0.0364

> <Gold.Chemscore.DEInternal>
1.6515

> <Gold.Chemscore.Rot>
2.3210

> <Gold.Chemscore.Internal.Correction>
   9.000000E+99

> <Gold.Chemscore.Hbonds>
donor molecule, donor type, donor heavy atom, donor atom, acceptor molecule, acceptor atom, score
      L1  H    11    45       P1  8028  0.98
      P1  H  6896  6908       L1    23  0.43
      P1  H  7989  7998       L1     7  0.48

> <Gold.Chemscore.Hbond.Weighted>
-8.5226

> <Gold.Chemscore.Metal.Weighted>
-0.0000

> <Gold.Chemscore.Lipo.Weighted>
-10.9548

> <Gold.Chemscore.Internal_Hbond.Weighted>
0.0000

> <Gold.Chemscore.DEClash.Weighted>
0.0364

> <Gold.Chemscore.DEInternal.Weighted>
1.6515

> <Gold.Chemscore.Rot.Weighted>
5.9416

> <Gold.Chemscore.Internal.Correction.Weighted>
   9.000000E+99

> <Gold.Protein.RotatedTorsions>
[ 6907 6896 6895 6894 ] final  159.84 input  -60.11 | X-H torsion
[ 7974 7965 7964 7962 ] final  166.91 input  175.53 | X-H torsion
[ 8008 7997 7996 7995 ] final  -93.34 input   59.86 | X-H torsion
[ 10167 10162 10161 10158 ] final    9.21 input  -65.29 | X-H torsion
[ 10718 10713 10712 10709 ] final -147.04 input   66.30 | X-H torsion
[ 10763 10752 10751 10750 ] final  118.59 input  -60.55 | X-H torsion
[ 11005 11000 10999 10996 ] final  -92.74 input  -57.11 | X-H torsion

> <Gold.Protein.ActiveResidues>
 VAL166  LYS551  ARG553  GLY616  TRP617  ASP618  TYR619  PRO620  LYS621  CYS622 
 ASP623  PHE694  ASN695  SER759  ASP760  ASP761  ALA762  ILE779  LEU786  VAL792 
 PHE793  MET794  SER795  GLU796  ALA797  LYS798  CYS799  TRP800  GLU811  SER814 

> <Gold.Protein.RotatedAtoms>
  151.9795  133.3753  159.4101 H   0  0  0  0  0  0  0  0  0  0  0  0  # atno 6907 bound_to 6896
  150.6937  134.4053  159.5147 H   0  0  0  0  0  0  0  0  0  0  0  0  # atno 6908 bound_to 6896
  152.1770  134.8786  160.0580 H   0  0  0  0  0  0  0  0  0  0  0  0  # atno 6909 bound_to 6896
  144.7444  139.8685  143.6387 H   0  0  0  0  0  0  0  0  0  0  0  0  # atno 7974 bound_to 7965
  154.7344  140.0500  157.0755 H   0  0  0  0  0  0  0  0  0  0  0  0  # atno 8008 bound_to 7997
  155.0259  140.3152  155.4757 H   0  0  0  0  0  0  0  0  0  0  0  0  # atno 8009 bound_to 7997
  156.2849  140.2158  156.5379 H   0  0  0  0  0  0  0  0  0  0  0  0  # atno 8010 bound_to 7997
  140.6269  143.8082  150.7244 H   0  0  0  0  0  0  0  0  0  0  0  0  # atno 10167 bound_to 10162
  156.4025  130.7941  151.2152 H   0  0  0  0  0  0  0  0  0  0  0  0  # atno 10718 bound_to 10713
  153.5700  135.3504  155.2834 H   0  0  0  0  0  0  0  0  0  0  0  0  # atno 10763 bound_to 10752
  154.8683  135.4157  154.2736 H   0  0  0  0  0  0  0  0  0  0  0  0  # atno 10764 bound_to 10752
  153.3500  135.7054  153.6866 H   0  0  0  0  0  0  0  0  0  0  0  0  # atno 10765 bound_to 10752
  141.1514  133.7841  157.0063 H   0  0  0  0  0  0  0  0  0  0  0  0  # atno 11005 bound_to 11000
  146.1297  139.4330  143.0176 LP  0  0  0  0  0  0  0  0  0  0  0  0  # atno 17320 bound_to 7965
  145.7181  141.0084  143.1417 LP  0  0  0  0  0  0  0  0  0  0  0  0  # atno 17321 bound_to 7965
  140.1684  143.4215  152.2018 LP  0  0  0  0  0  0  0  0  0  0  0  0  # atno 17342 bound_to 10162
  139.5488  144.7320  151.4500 LP  0  0  0  0  0  0  0  0  0  0  0  0  # atno 17343 bound_to 10162
  157.7504  131.0282  150.4040 LP  0  0  0  0  0  0  0  0  0  0  0  0  # atno 17370 bound_to 10713
  156.4323  130.3974  149.6752 LP  0  0  0  0  0  0  0  0  0  0  0  0  # atno 17371 bound_to 10713
  140.0907  134.9594  157.1771 LP  0  0  0  0  0  0  0  0  0  0  0  0  # atno 17394 bound_to 11000
  140.3450  134.2662  155.7206 LP  0  0  0  0  0  0  0  0  0  0  0  0  # atno 17395 bound_to 11000

$$$$
