AV-unprocessed.smi:2450|AV-procd|sdf|9665|dock7
  -GOLD-   2272013303D 1   1.00000     0.00000
 Structure written by MMmdl.
 41 42  0  0  0  0  0  0  0  0  1 V2000
  153.1720  143.2301  160.4255 C   0  0  0  0  0  0  0  0  0  0  0  0
  152.0771  142.8866  159.4048 C   0  0  0  0  0  0  0  0  0  0  0  0
  151.9014  143.9506  158.3053 C   0  0  2  0  0  0  0  0  0  0  0  0
  151.4779  145.3066  158.8901 C   0  0  0  0  0  0  0  0  0  0  0  0
  150.9136  143.5048  157.3252 N   0  0  0  0  0  0  0  0  0  0  0  0
  150.8289  142.2711  156.8078 C   0  0  0  0  0  0  0  0  0  0  0  0
  151.5907  141.3514  157.1065 O   0  0  0  0  0  0  0  0  0  0  0  0
  149.8029  142.1815  155.9450 N   0  0  0  0  0  0  0  0  0  0  0  0
  149.3336  141.0351  155.2429 C   0  0  0  0  0  0  0  0  0  0  0  0
  150.1783  139.9310  154.9706 C   0  0  0  0  0  0  0  0  0  0  0  0
  149.6841  138.8541  154.2146 C   0  0  0  0  0  0  0  0  0  0  0  0
  148.3639  138.9252  153.7408 C   0  0  0  0  0  0  0  0  0  0  0  0
  147.5519  139.9744  153.9786 N   0  0  0  0  0  0  0  0  0  0  0  0
  148.0090  141.0145  154.7189 C   0  0  0  0  0  0  0  0  0  0  0  0
  147.1081  142.0804  154.9457 N   0  0  0  0  0  0  0  0  0  0  0  0
  146.1363  142.4581  153.9253 C   0  0  0  0  0  0  0  0  0  0  0  0
  145.1304  143.3478  154.6493 C   0  0  0  0  0  0  0  0  0  0  0  0
  145.0629  142.7043  156.0308 C   0  0  0  0  0  0  0  0  0  0  0  0
  146.4873  142.1884  156.2630 C   0  0  0  0  0  0  0  0  0  0  0  0
  153.2262  142.4693  161.2041 H   0  0  0  0  0  0  0  0  0  0  0  0
  152.9718  144.1862  160.9097 H   0  0  0  0  0  0  0  0  0  0  0  0
  154.1543  143.2912  159.9565 H   0  0  0  0  0  0  0  0  0  0  0  0
  152.2976  141.9192  158.9518 H   0  0  0  0  0  0  0  0  0  0  0  0
  151.1332  142.7634  159.9371 H   0  0  0  0  0  0  0  0  0  0  0  0
  152.8676  144.0812  157.8141 H   0  0  0  0  0  0  0  0  0  0  0  0
  152.2109  145.6687  159.6113 H   0  0  0  0  0  0  0  0  0  0  0  0
  150.5161  145.2367  159.3993 H   0  0  0  0  0  0  0  0  0  0  0  0
  151.3872  146.0616  158.1085 H   0  0  0  0  0  0  0  0  0  0  0  0
  150.2394  144.1917  157.0204 H   0  0  0  0  0  0  0  0  0  0  0  0
  149.2193  143.0015  155.8653 H   0  0  0  0  0  0  0  0  0  0  0  0
  151.2031  139.9007  155.3070 H   0  0  0  0  0  0  0  0  0  0  0  0
  150.3073  138.0005  153.9930 H   0  0  0  0  0  0  0  0  0  0  0  0
  147.9501  138.1219  153.1498 H   0  0  0  0  0  0  0  0  0  0  0  0
  146.6132  142.9781  153.0939 H   0  0  0  0  0  0  0  0  0  0  0  0
  145.6248  141.5783  153.5326 H   0  0  0  0  0  0  0  0  0  0  0  0
  145.5192  144.3638  154.7295 H   0  0  0  0  0  0  0  0  0  0  0  0
  144.1630  143.3910  154.1488 H   0  0  0  0  0  0  0  0  0  0  0  0
  144.7309  143.3946  156.8065 H   0  0  0  0  0  0  0  0  0  0  0  0
  144.3679  141.8641  156.0085 H   0  0  0  0  0  0  0  0  0  0  0  0
  146.4840  141.2359  156.7951 H   0  0  0  0  0  0  0  0  0  0  0  0
  147.0485  142.9079  156.8599 H   0  0  0  0  0  0  0  0  0  0  0  0
  1  2  1  0  0  0  0
  1 20  1  0  0  0  0
  1 21  1  0  0  0  0
  1 22  1  0  0  0  0
  2  3  1  0  0  0  0
  2 23  1  0  0  0  0
  2 24  1  0  0  0  0
  3  4  1  0  0  0  0
  3  5  1  0  0  0  0
  3 25  1  0  0  0  0
  4 26  1  0  0  0  0
  4 27  1  0  0  0  0
  4 28  1  0  0  0  0
  5  6  1  0  0  0  0
  5 29  1  0  0  0  0
  6  7  2  0  0  0  0
  6  8  1  0  0  0  0
  8  9  1  0  0  0  0
  8 30  1  0  0  0  0
  9 14  1  0  0  0  0
  9 10  2  0  0  0  0
 10 11  1  0  0  0  0
 10 31  1  0  0  0  0
 11 12  2  0  0  0  0
 11 32  1  0  0  0  0
 12 13  1  0  0  0  0
 12 33  1  0  0  0  0
 13 14  2  0  0  0  0
 14 15  1  0  0  0  0
 15 19  1  0  0  0  0
 15 16  1  0  0  0  0
 16 17  1  0  0  0  0
 16 34  1  0  0  0  0
 16 35  1  0  0  0  0
 17 18  1  0  0  0  0
 17 36  1  0  0  0  0
 17 37  1  0  0  0  0
 18 19  1  0  0  0  0
 18 38  1  0  0  0  0
 18 39  1  0  0  0  0
 19 40  1  0  0  0  0
 19 41  1  0  0  0  0
M  END
> <s_m_source_file>
AV-unprocessed.smi

> <i_m_source_file_index>
2450

> <i_lp_mmshare_version>
43012

> <i_f3d_flags>
0

> <s_epik_input>
W0NIM11bQ0gyXVtDQEhdKFtDSDNdKVtOSF1DKD1PKVtOSF1jMVtjSF1bY0hdW2NIXW5jMU4yW0NIMl1bQ0gyXVtDSDJdW0NIMl0y

> <s_epik_cmdline>
J2VwaWtfcHl0aG9uJywgJy1waCcsICc3LjAnLCAnLXRuJywgJzgnLCAnLW1hJywgJzIwMCcsICctbWV0YWxfYmluZGluZycsICctaW1hZScsICc8aW5maWxlLm1hZT4nLCAnLW9tYWUnLCAnPG91dGZpbGUubWFlPic=

> <r_lp_tautomer_probability>
1

> <r_epik_Ionization_Penalty>
0.103391

> <r_epik_Ionization_Penalty_Charging>
0

> <r_epik_Ionization_Penalty_Neutral>
0.103391

> <r_epik_State_Penalty>
0.0927616

> <r_epik_Charging_Adjusted_Penalty>
0.0927616

> <i_epik_Tot_Q>
0

> <i_epik_Tot_abs_Q>
0

> <r_epik_Metal_State_Penalty>
0.0789158

> <b_epik_Metal_Only>
0

> <s_lp_Force_Field>
OPLS_2005

> <r_lp_Energy>
32.2235

> <b_lp_Chiralities_Consistent>
1

> <s_lp_Variant>
AV-unprocessed.smi:2450-1

> <Gold.Version>
5.8.1

> <Gold.Id.Protein>
6NUR|6NUR_protein|mol2

> <Gold.PLP.Fitness>
48.3182

> <Gold.PLP.PLP>
-40.7764

> <Gold.PLP.part.hbond>
-2.0000

> <Gold.PLP.part.metal>
0.0000

> <Gold.PLP.part.buried>
-4.3731

> <Gold.PLP.part.nonpolar>
-34.5158

> <Gold.PLP.part.repulsive>
0.5261

> <Gold.PLP.ligand.clash>
0.0000

> <Gold.PLP.ligand.torsion>
0.8602

> <Gold.PLP.Chemscore.Hbond>
1.9760

> <Gold.PLP.Chemscore.CHOScore>
1.0000

> <Gold.PLP.Chemscore.Metal>
0.0000

> <Gold.Chemscore.Hbonds>
donor molecule, donor type, donor heavy atom, donor atom, acceptor molecule, acceptor atom, score
      L1  H     5    29       P1  8028  0.98
      L1  H     8    30       P1  8028  1.00
      L1  C    12    33       P1  7948  1.00

> <Gold.PLP.Chemscore.Internal.Correction>
0.3342

> <Gold.Rescore>
     Score         DG    S(hbond)    S(metal)    S(lipo)     H(rot)  DE(clash)    DE(int)     intcor
     16.43     -19.54       1.95        0.00      93.43       1.32       0.06       3.04       ----

> <Gold.Chemscore.Fitness>
16.4347

> <Gold.Chemscore.DG>
-19.5385

> <Gold.Chemscore.ZeroCoef>
-5.4800

> <Gold.Chemscore.Hbond>
1.9452

> <Gold.Chemscore.Metal>
0.0000

> <Gold.Chemscore.Lipo>
93.4286

> <Gold.Chemscore.Internal_Hbond>
0.0000

> <Gold.Chemscore.DEClash>
0.0605

> <Gold.Chemscore.DEInternal>
3.0433

> <Gold.Chemscore.Rot>
1.3163

> <Gold.Chemscore.Internal.Correction>
   9.000000E+99

> <Gold.Chemscore.Hbonds>
donor molecule, donor type, donor heavy atom, donor atom, acceptor molecule, acceptor atom, score
      L1  H     5    29       P1  8028  0.83
      L1  H     8    30       P1  8028  0.99

> <Gold.Chemscore.Hbond.Weighted>
-6.4969

> <Gold.Chemscore.Metal.Weighted>
-0.0000

> <Gold.Chemscore.Lipo.Weighted>
-10.9311

> <Gold.Chemscore.Internal_Hbond.Weighted>
0.0000

> <Gold.Chemscore.DEClash.Weighted>
0.0605

> <Gold.Chemscore.DEInternal.Weighted>
3.0433

> <Gold.Chemscore.Rot.Weighted>
3.3696

> <Gold.Chemscore.Internal.Correction.Weighted>
   9.000000E+99

> <Gold.Protein.RotatedTorsions>
[ 6907 6896 6895 6894 ] final   84.14 input  -60.11 | X-H torsion
[ 7974 7965 7964 7962 ] final   -3.01 input  175.53 | X-H torsion
[ 8008 7997 7996 7995 ] final -135.69 input   59.86 | X-H torsion
[ 10167 10162 10161 10158 ] final  -43.91 input  -65.29 | X-H torsion
[ 10718 10713 10712 10709 ] final   87.55 input   66.30 | X-H torsion
[ 10763 10752 10751 10750 ] final -103.61 input  -60.55 | X-H torsion
[ 11005 11000 10999 10996 ] final   -9.35 input  -57.11 | X-H torsion

> <Gold.Protein.ActiveResidues>
 VAL166  LYS551  ARG553  GLY616  TRP617  ASP618  TYR619  PRO620  LYS621  CYS622 
 ASP623  PHE694  ASN695  SER759  ASP760  ASP761  ALA762  ILE779  LEU786  VAL792 
 PHE793  MET794  SER795  GLU796  ALA797  LYS798  CYS799  TRP800  GLU811  SER814 

> <Gold.Protein.RotatedAtoms>
  152.5345  134.2786  159.8998 H   0  0  0  0  0  0  0  0  0  0  0  0  # atno 6907 bound_to 6896
  151.2741  133.4234  159.2630 H   0  0  0  0  0  0  0  0  0  0  0  0  # atno 6908 bound_to 6896
  151.0341  134.9576  159.8183 H   0  0  0  0  0  0  0  0  0  0  0  0  # atno 6909 bound_to 6896
  146.2396  140.1657  142.8332 H   0  0  0  0  0  0  0  0  0  0  0  0  # atno 7974 bound_to 7965
  155.3828  140.0495  157.3043 H   0  0  0  0  0  0  0  0  0  0  0  0  # atno 8008 bound_to 7997
  154.5074  140.2179  155.9185 H   0  0  0  0  0  0  0  0  0  0  0  0  # atno 8009 bound_to 7997
  156.1542  140.3129  155.8704 H   0  0  0  0  0  0  0  0  0  0  0  0  # atno 8010 bound_to 7997
  140.6916  143.2958  151.3420 H   0  0  0  0  0  0  0  0  0  0  0  0  # atno 10167 bound_to 10162
  157.6941  131.0260  150.3141 H   0  0  0  0  0  0  0  0  0  0  0  0  # atno 10718 bound_to 10713
  154.7819  135.4817  153.9864 H   0  0  0  0  0  0  0  0  0  0  0  0  # atno 10763 bound_to 10752
  153.1506  135.6790  153.8895 H   0  0  0  0  0  0  0  0  0  0  0  0  # atno 10764 bound_to 10752
  153.8540  135.3163  155.3412 H   0  0  0  0  0  0  0  0  0  0  0  0  # atno 10765 bound_to 10752
  140.7332  133.8732  155.8909 H   0  0  0  0  0  0  0  0  0  0  0  0  # atno 11005 bound_to 11000
  145.0052  140.8667  143.5257 LP  0  0  0  0  0  0  0  0  0  0  0  0  # atno 17320 bound_to 7965
  145.1683  139.2419  143.5355 LP  0  0  0  0  0  0  0  0  0  0  0  0  # atno 17321 bound_to 7965
  139.6326  144.0692  152.2489 LP  0  0  0  0  0  0  0  0  0  0  0  0  # atno 17342 bound_to 10162
  140.0171  144.6180  150.7597 LP  0  0  0  0  0  0  0  0  0  0  0  0  # atno 17343 bound_to 10162
  156.3638  130.3851  149.7230 LP  0  0  0  0  0  0  0  0  0  0  0  0  # atno 17370 bound_to 10713
  156.4667  130.7977  151.2996 LP  0  0  0  0  0  0  0  0  0  0  0  0  # atno 17371 bound_to 10713
  140.9902  134.1288  157.4415 LP  0  0  0  0  0  0  0  0  0  0  0  0  # atno 17394 bound_to 11000
  139.8822  135.0038  156.6210 LP  0  0  0  0  0  0  0  0  0  0  0  0  # atno 17395 bound_to 11000

$$$$
