#       Name:                AV-unprocessed.smi:1535
#       Creating user name   scv26
#       Creation time:       Fri Mar 27 06:32:30 2020


#       File generated by GOLD software.
#

@<TRIPOS>MOLECULE
AV-unprocessed.smi:1535
    51    52     1
SMALL
NO_CHARGES


@<TRIPOS>ATOM
      1 ****        -5.5972   2.6494  -2.3275 C.3            1 S1                 0.0000
      2 ****        -4.2645   2.3854  -1.6494 C.ar           1 S1                 0.0000
      3 ****        -4.2077   2.3467  -0.2381 C.ar           1 S1                 0.0000
      4 ****        -2.9886   2.1019   0.4313 C.ar           1 S1                 0.0000
      5 ****        -2.7075   2.0214   1.7843 N.2            1 S1                 0.0000
      6 ****        -1.4016   1.7708   1.7716 C.2            1 S1                 0.0000
      7 ****        -0.8019   1.6808   0.5692 N.pl3          1 S1                 0.0000
      8 ****         0.6030   1.4138   0.3153 C.3            1 S1                 0.0000
      9 ****         0.9398  -0.0876   0.3912 C.3            1 S1                 0.0000
     10 ****         0.2049  -0.7791  -0.6002 O.3            1 S1                 0.0000
     11 ****         2.4446  -0.3414   0.1588 C.3            1 S1                 0.0000
     12 ****         2.9050  -1.7148   0.3849 N.3            1 S1                 0.0000
     13 ****         4.2360  -1.8894  -0.1872 C.3            1 S1                 0.0000
     14 ****         2.8938  -2.0772   1.8069 C.3            1 S1                 0.0000
     15 ****         3.1636  -3.5631   2.1133 C.3            1 S1                 0.0000
     16 ****         3.1561  -3.8259   3.6244 C.3            1 S1                 0.0000
     17 ****         2.1991  -4.4417   1.4306 C.1            1 S1                 0.0000
     18 ****         1.4414  -5.1327   0.8946 N.1            1 S1                 0.0000
     19 ****        -1.8180   1.8955  -0.3560 C.ar           1 S1                 0.0000
     20 ****        -1.8618   1.9329  -1.7609 C.ar           1 S1                 0.0000
     21 ****        -3.0878   2.1797  -2.4136 C.ar           1 S1                 0.0000
     22 ****        -3.1242   2.2185  -3.9312 C.3            1 S1                 0.0000
     23 ****        -6.4040   2.7372  -1.5993 H              1 S1                 0.0000
     24 ****        -5.8491   1.8353  -3.0074 H              1 S1                 0.0000
     25 ****        -5.5578   3.5779  -2.8975 H              1 S1                 0.0000
     26 ****        -5.1033   2.5043   0.3446 H              1 S1                 0.0000
     27 ****        -0.8470   1.6436   2.6898 H              1 S1                 0.0000
     28 ****         0.8681   1.8202  -0.6617 H              1 S1                 0.0000
     29 ****         1.1894   1.9663   1.0506 H              1 S1                 0.0000
     30 ****         0.6237  -0.4549   1.3661 H              1 S1                 0.0000
     31 ****         0.4856  -0.4755  -1.4497 H              1 S1                 0.0000
     32 ****         2.6729  -0.0467  -0.8668 H              1 S1                 0.0000
     33 ****         3.0242   0.3329   0.7914 H              1 S1                 0.0000
     34 ****         4.5576  -2.9288  -0.1367 H              1 S1                 0.0000
     35 ****         4.9733  -1.2754   0.3318 H              1 S1                 0.0000
     36 ****         4.2444  -1.6090  -1.2411 H              1 S1                 0.0000
     37 ****         3.6172  -1.4609   2.3430 H              1 S1                 0.0000
     38 ****         1.9251  -1.8405   2.2424 H              1 S1                 0.0000
     39 ****         4.1484  -3.8431   1.7417 H              1 S1                 0.0000
     40 ****         3.3755  -4.8720   3.8392 H              1 S1                 0.0000
     41 ****         2.1841  -3.5936   4.0608 H              1 S1                 0.0000
     42 ****         3.9057  -3.2193   4.1332 H              1 S1                 0.0000
     43 ****        -0.9593   1.7708  -2.3311 H              1 S1                 0.0000
     44 ****        -2.1279   2.0948  -4.3566 H              1 S1                 0.0000
     45 ****        -3.5197   3.1722  -4.2810 H              1 S1                 0.0000
     46 ****        -3.7558   1.4183  -4.3171 H              1 S1                 0.0000
     47 ****        -3.3237   2.1245   2.5651 LP             1 S1                 0.0000
     48 ****        -0.7716  -0.5980  -0.4834 LP             1 S1                 0.0000
     49 ****         0.3737  -1.7615  -0.5208 LP             1 S1                 0.0000
     50 ****         2.2655  -2.3323  -0.0730 LP             1 S1                 0.0000
     51 ****         0.7866  -5.7298   0.4314 LP             1 S1                 0.0000
@<TRIPOS>BOND
    1    1    2 1     
    2    1   23 1     
    3    1   24 1     
    4    1   25 1     
    5    2   21 ar    
    6    2    3 ar    
    7    3    4 ar    
    8    3   26 1     
    9    4   19 ar    
   10    4    5 1     
   11    5    6 2     
   12    6    7 1     
   13    6   27 1     
   14    7    8 1     
   15    7   19 1     
   16    8    9 1     
   17    8   28 1     
   18    8   29 1     
   19    9   10 1     
   20    9   11 1     
   21    9   30 1     
   22   10   31 1     
   23   11   12 1     
   24   11   32 1     
   25   11   33 1     
   26   12   13 1     
   27   12   14 1     
   28   13   34 1     
   29   13   35 1     
   30   13   36 1     
   31   14   15 1     
   32   14   37 1     
   33   14   38 1     
   34   15   16 1     
   35   15   17 1     
   36   15   39 1     
   37   16   40 1     
   38   16   41 1     
   39   16   42 1     
   40   17   18 3     
   41   19   20 ar    
   42   20   21 ar    
   43   20   43 1     
   44   21   22 1     
   45   22   44 1     
   46   22   45 1     
   47   22   46 1     
   48    5   47 1     
   49   10   48 1     
   50   10   49 1     
   51   12   50 1     
   52   18   51 1     
@<TRIPOS>SUBSTRUCTURE
      1 S1             1
@<TRIPOS>SET
LONE_PAIRS      STATIC     ATOMS    <user>   **** ""
5 47 48 49 50 51
DONOR_HYDROGENS      STATIC     ATOMS    <user>   **** ""
1 31
ATOM$BLUE        STATIC     ATOMS    COLORGROUP SYSTEM
5 47 48 49 50 51
ATOM$RED        STATIC     ATOMS    COLORGROUP SYSTEM
1 31
