AV-unprocessed.smi:1576|AV-procd|sdf|6347|dock2
  -GOLD-   22720 6563D 1   1.00000     0.00000
 Structure written by MMmdl.
 45 47  0  0  0  0  0  0  0  0  3 V2000
  159.4524  130.5199  150.3034 O   0  0  0  0  0  0  0  0  0  0  0  0
  160.6360  130.7449  150.0267 C   0  0  0  0  0  0  0  0  0  0  0  0
  161.1901  131.9336  150.3243 N   0  0  0  0  0  0  0  0  0  0  0  0
  160.5918  133.0730  150.9253 C   0  0  0  0  0  0  0  0  0  0  0  0
  161.2229  134.3217  150.7423 C   0  0  0  0  0  0  0  0  0  0  0  0
  160.6556  135.4813  151.3091 C   0  0  0  0  0  0  0  0  0  0  0  0
  159.4523  135.3747  152.0434 C   0  0  0  0  0  0  0  0  0  0  0  0
  158.8181  136.4689  152.6460 N   0  0  0  0  0  0  0  0  0  0  0  0
  157.6083  136.8809  151.9384 C   0  0  0  0  0  0  0  0  0  0  0  0
  157.0498  138.1895  152.5234 C   0  0  0  0  0  0  0  0  0  0  0  0
  156.8275  138.0629  154.0390 C   0  0  0  0  0  0  0  0  0  0  0  0
  158.1206  137.5996  154.7291 C   0  0  0  0  0  0  0  0  0  0  0  0
  158.6540  136.3062  154.0884 C   0  0  0  0  0  0  0  0  0  0  0  0
  158.8669  134.1653  152.1797 N   0  3  0  0  0  0  0  0  0  0  0  0
  159.3787  133.0307  151.6546 C   0  0  0  0  0  0  0  0  0  0  0  0
  161.5272  129.8972  149.4458 N   0  5  0  0  0  0  0  0  0  0  0  0
  161.6288  129.6420  148.0036 C   0  0  2  0  0  0  0  0  0  0  0  0
  160.7623  130.6611  147.2267 C   0  0  0  0  0  0  0  0  0  0  0  0
  159.2937  130.2185  147.2613 C   0  0  0  0  0  0  0  0  0  0  0  0
  159.3410  128.3903  147.2021 S   0  0  0  0  0  0  0  0  0  0  0  0
  158.4723  127.8464  148.2576 O   0  0  0  0  0  0  0  0  0  0  0  0
  159.1943  127.9490  145.8062 O   0  0  0  0  0  0  0  0  0  0  0  0
  161.1055  128.2262  147.6915 C   0  0  0  0  0  0  0  0  0  0  0  0
  162.1831  131.9983  150.1546 H   0  0  0  0  0  0  0  0  0  0  0  0
  162.1415  134.3917  150.1781 H   0  0  0  0  0  0  0  0  0  0  0  0
  161.1418  136.4370  151.1791 H   0  0  0  0  0  0  0  0  0  0  0  0
  157.8302  137.0145  150.8787 H   0  0  0  0  0  0  0  0  0  0  0  0
  156.8560  136.0945  152.0110 H   0  0  0  0  0  0  0  0  0  0  0  0
  157.7458  139.0054  152.3233 H   0  0  0  0  0  0  0  0  0  0  0  0
  156.1147  138.4514  152.0275 H   0  0  0  0  0  0  0  0  0  0  0  0
  156.4990  139.0165  154.4533 H   0  0  0  0  0  0  0  0  0  0  0  0
  156.0294  137.3454  154.2343 H   0  0  0  0  0  0  0  0  0  0  0  0
  158.8757  138.3831  154.6527 H   0  0  0  0  0  0  0  0  0  0  0  0
  157.9427  137.4437  155.7934 H   0  0  0  0  0  0  0  0  0  0  0  0
  157.9649  135.4844  154.2876 H   0  0  0  0  0  0  0  0  0  0  0  0
  159.6107  136.0377  154.5389 H   0  0  0  0  0  0  0  0  0  0  0  0
  158.7924  132.1409  151.8297 H   0  0  0  0  0  0  0  0  0  0  0  0
  162.6636  129.7143  147.6654 H   0  0  0  0  0  0  0  0  0  0  0  0
  160.8846  131.6815  147.5922 H   0  0  0  0  0  0  0  0  0  0  0  0
  161.0924  130.6667  146.1874 H   0  0  0  0  0  0  0  0  0  0  0  0
  158.8142  130.5179  148.1947 H   0  0  0  0  0  0  0  0  0  0  0  0
  158.7088  130.6092  146.4290 H   0  0  0  0  0  0  0  0  0  0  0  0
  161.6423  127.8031  146.8426 H   0  0  0  0  0  0  0  0  0  0  0  0
  161.1995  127.5312  148.5267 H   0  0  0  0  0  0  0  0  0  0  0  0
  157.9941  134.1043  152.7045 H   0  0  0  0  0  0  0  0  0  0  0  0
  1  2  2  0  0  0  0
  2  3  1  0  0  0  0
  2 16  1  0  0  0  0
  3  4  1  0  0  0  0
  3 24  1  0  0  0  0
  4 15  1  0  0  0  0
  4  5  2  0  0  0  0
  5  6  1  0  0  0  0
  5 25  1  0  0  0  0
  6  7  2  0  0  0  0
  6 26  1  0  0  0  0
  7  8  1  0  0  0  0
  7 14  1  0  0  0  0
  8 13  1  0  0  0  0
  8  9  1  0  0  0  0
  9 10  1  0  0  0  0
  9 27  1  0  0  0  0
  9 28  1  0  0  0  0
 10 11  1  0  0  0  0
 10 29  1  0  0  0  0
 10 30  1  0  0  0  0
 11 12  1  0  0  0  0
 11 31  1  0  0  0  0
 11 32  1  0  0  0  0
 12 13  1  0  0  0  0
 12 33  1  0  0  0  0
 12 34  1  0  0  0  0
 13 35  1  0  0  0  0
 13 36  1  0  0  0  0
 14 15  2  0  0  0  0
 14 45  1  0  0  0  0
 15 37  1  0  0  0  0
 16 17  1  0  0  0  0
 17 23  1  0  0  0  0
 17 18  1  0  0  0  0
 17 38  1  0  0  0  0
 18 19  1  0  0  0  0
 18 39  1  0  0  0  0
 18 40  1  0  0  0  0
 19 20  1  0  0  0  0
 19 41  1  0  0  0  0
 19 42  1  0  0  0  0
 20 21  2  0  0  0  0
 20 22  2  0  0  0  0
 20 23  1  0  0  0  0
 23 43  1  0  0  0  0
 23 44  1  0  0  0  0
M  CHG  1  14   1
M  CHG  1  16  -1
M  END
> <s_m_source_file>
AV-unprocessed.smi

> <i_m_source_file_index>
1576

> <i_lp_mmshare_version>
43012

> <i_f3d_flags>
0

> <s_epik_input>
Tz1TMSg9TylbQ0gyXVtDSDJdW0NASF0oW0NIMl0xKVtOSF1DKD1PKVtOSF1jMltjSF1bY0hdYyhuW2NIXTIpTjNbQ0gyXVtDSDJdW0NIMl1bQ0gyXVtDSDJdMw==

> <s_epik_cmdline>
J2VwaWtfcHl0aG9uJywgJy1waCcsICc3LjAnLCAnLXRuJywgJzgnLCAnLW1hJywgJzIwMCcsICctbWV0YWxfYmluZGluZycsICctaW1hZScsICc8aW5maWxlLm1hZT4nLCAnLW9tYWUnLCAnPG91dGZpbGUubWFlPic=

> <r_lp_tautomer_probability>
0.999994

> <r_epik_Ionization_Penalty>
8.26491

> <r_epik_Ionization_Penalty_Charging>
8.26491

> <r_epik_Ionization_Penalty_Neutral>
3.15169e-06

> <r_epik_State_Penalty>
7.8977

> <r_epik_Charging_Adjusted_Penalty>
16.1626

> <i_epik_Tot_Q>
0

> <i_epik_Tot_abs_Q>
2

> <r_epik_Metal_State_Penalty>
3.88896

> <b_epik_Metal_Only>
1

> <s_lp_Force_Field>
OPLS_2005

> <r_lp_Energy>
29.9243

> <b_lp_Chiralities_Consistent>
1

> <s_lp_Variant>
AV-unprocessed.smi:1576-5

> <Gold.Version>
5.8.1

> <Gold.Id.Protein>
6NUR|6NUR_protein|mol2

> <Gold.PLP.Fitness>
44.6937

> <Gold.PLP.PLP>
-43.7099

> <Gold.PLP.part.hbond>
-2.4596

> <Gold.PLP.part.metal>
0.0000

> <Gold.PLP.part.buried>
-4.4518

> <Gold.PLP.part.nonpolar>
-38.8928

> <Gold.PLP.part.repulsive>
1.7665

> <Gold.PLP.ligand.clash>
0.0000

> <Gold.PLP.ligand.torsion>
1.0825

> <Gold.PLP.Chemscore.Hbond>
1.0000

> <Gold.PLP.Chemscore.CHOScore>
0.0000

> <Gold.PLP.Chemscore.Metal>
0.0000

> <Gold.Chemscore.Hbonds>
donor molecule, donor type, donor heavy atom, donor atom, acceptor molecule, acceptor atom, score
      P1  H 10713 10718       L1     1  1.00

> <Gold.PLP.Chemscore.Internal.Correction>
0.1487

> <Gold.Rescore>
     Score         DG    S(hbond)    S(metal)    S(lipo)     H(rot)  DE(clash)    DE(int)     intcor
     16.20     -20.86       0.95        0.00     131.25       1.24       1.41       3.24       ----

> <Gold.Chemscore.Fitness>
16.2042

> <Gold.Chemscore.DG>
-20.8552

> <Gold.Chemscore.ZeroCoef>
-5.4800

> <Gold.Chemscore.Hbond>
0.9535

> <Gold.Chemscore.Metal>
0.0000

> <Gold.Chemscore.Lipo>
131.2510

> <Gold.Chemscore.Internal_Hbond>
0.0000

> <Gold.Chemscore.DEClash>
1.4082

> <Gold.Chemscore.DEInternal>
3.2427

> <Gold.Chemscore.Rot>
1.2366

> <Gold.Chemscore.Internal.Correction>
   9.000000E+99

> <Gold.Chemscore.Hbonds>
donor molecule, donor type, donor heavy atom, donor atom, acceptor molecule, acceptor atom, score
      P1  H 10713 10718       L1     1  0.99

> <Gold.Chemscore.Hbond.Weighted>
-3.1845

> <Gold.Chemscore.Metal.Weighted>
-0.0000

> <Gold.Chemscore.Lipo.Weighted>
-15.3564

> <Gold.Chemscore.Internal_Hbond.Weighted>
0.0000

> <Gold.Chemscore.DEClash.Weighted>
1.4082

> <Gold.Chemscore.DEInternal.Weighted>
3.2427

> <Gold.Chemscore.Rot.Weighted>
3.1657

> <Gold.Chemscore.Internal.Correction.Weighted>
   9.000000E+99

> <Gold.Protein.RotatedTorsions>
[ 6907 6896 6895 6894 ] final   53.70 input  -60.11 | X-H torsion
[ 7974 7965 7964 7962 ] final  -26.08 input  175.53 | X-H torsion
[ 8008 7997 7996 7995 ] final  -76.46 input   59.86 | X-H torsion
[ 10167 10162 10161 10158 ] final   42.28 input  -65.29 | X-H torsion
[ 10718 10713 10712 10709 ] final   74.93 input   66.30 | X-H torsion
[ 10763 10752 10751 10750 ] final  -36.01 input  -60.55 | X-H torsion
[ 11005 11000 10999 10996 ] final  170.30 input  -57.11 | X-H torsion

> <Gold.Protein.ActiveResidues>
 VAL166  LYS551  ARG553  GLY616  TRP617  ASP618  TYR619  PRO620  LYS621  CYS622 
 ASP623  PHE694  ASN695  SER759  ASP760  ASP761  ALA762  ILE779  LEU786  VAL792 
 PHE793  MET794  SER795  GLU796  ALA797  LYS798  CYS799  TRP800  GLU811  SER814 

> <Gold.Protein.RotatedAtoms>
  152.3364  134.7192  160.0275 H   0  0  0  0  0  0  0  0  0  0  0  0  # atno 6907 bound_to 6896
  151.7592  133.3327  159.3421 H   0  0  0  0  0  0  0  0  0  0  0  0  # atno 6908 bound_to 6896
  150.7453  134.6054  159.6102 H   0  0  0  0  0  0  0  0  0  0  0  0  # atno 6909 bound_to 6896
  146.1449  140.4972  142.8636 H   0  0  0  0  0  0  0  0  0  0  0  0  # atno 7974 bound_to 7965
  154.5508  140.0726  156.8664 H   0  0  0  0  0  0  0  0  0  0  0  0  # atno 8008 bound_to 7997
  155.2998  140.3383  155.4230 H   0  0  0  0  0  0  0  0  0  0  0  0  # atno 8009 bound_to 7997
  156.1959  140.1703  156.7985 H   0  0  0  0  0  0  0  0  0  0  0  0  # atno 8010 bound_to 7997
  140.3559  144.2290  150.6142 H   0  0  0  0  0  0  0  0  0  0  0  0  # atno 10167 bound_to 10162
  157.6613  130.9702  150.1281 H   0  0  0  0  0  0  0  0  0  0  0  0  # atno 10718 bound_to 10713
  153.8726  135.6829  153.4773 H   0  0  0  0  0  0  0  0  0  0  0  0  # atno 10763 bound_to 10752
  153.1278  135.4711  154.9299 H   0  0  0  0  0  0  0  0  0  0  0  0  # atno 10764 bound_to 10752
  154.7707  135.3237  154.8147 H   0  0  0  0  0  0  0  0  0  0  0  0  # atno 10765 bound_to 10752
  140.3069  134.7549  157.3960 H   0  0  0  0  0  0  0  0  0  0  0  0  # atno 11005 bound_to 11000
  144.7834  140.5888  143.6590 LP  0  0  0  0  0  0  0  0  0  0  0  0  # atno 17320 bound_to 7965
  145.4961  139.1486  143.3683 LP  0  0  0  0  0  0  0  0  0  0  0  0  # atno 17321 bound_to 7965
  140.5174  143.2274  151.8442 LP  0  0  0  0  0  0  0  0  0  0  0  0  # atno 17342 bound_to 10162
  139.4820  144.4878  151.9224 LP  0  0  0  0  0  0  0  0  0  0  0  0  # atno 17343 bound_to 10162
  156.2135  130.3668  149.8641 LP  0  0  0  0  0  0  0  0  0  0  0  0  # atno 17370 bound_to 10713
  156.6513  130.8745  151.3532 LP  0  0  0  0  0  0  0  0  0  0  0  0  # atno 17371 bound_to 10713
  140.1059  134.5410  155.8310 LP  0  0  0  0  0  0  0  0  0  0  0  0  # atno 17394 bound_to 11000
  141.2116  133.6709  156.6598 LP  0  0  0  0  0  0  0  0  0  0  0  0  # atno 17395 bound_to 11000

$$$$
