AV-unprocessed.smi:38|AV-procd|sdf|342|dock8
  -GOLD-   2262016183D 1   1.00000     0.00000
 Structure written by MMmdl.
 28 29  0  0  0  0  0  0  0  0  1 V2000
  151.4443  145.3652  158.8152 O   0  0  0  0  0  0  0  0  0  0  0  0
  151.5234  144.1665  158.5533 C   0  0  0  0  0  0  0  0  0  0  0  0
  150.9456  143.6629  157.3840 N   0  0  0  0  0  0  0  0  0  0  0  0
  150.9651  142.3270  156.9780 C   0  0  0  0  0  0  0  0  0  0  0  0
  150.4090  141.9991  155.9308 O   0  0  0  0  0  0  0  0  0  0  0  0
  151.6306  141.4080  157.8206 N   0  0  0  0  0  0  0  0  0  0  0  0
  151.7030  139.9465  157.4413 C   0  0  2  0  0  0  0  0  0  0  0  0
  150.8169  139.0970  158.3581 C   0  0  0  0  0  0  0  0  0  0  0  0
  151.8348  138.3848  159.2298 C   0  0  1  0  0  0  0  0  0  0  0  0
  151.3540  137.1179  159.6302 O   0  0  0  0  0  0  0  0  0  0  0  0
  153.0501  138.2829  158.3038 C   0  0  2  0  0  0  0  0  0  0  0  0
  154.3839  138.1454  159.0537 C   0  0  0  0  0  0  0  0  0  0  0  0
  155.4501  138.5535  158.2239 O   0  0  0  0  0  0  0  0  0  0  0  0
  153.0220  139.5180  157.5951 O   0  0  0  0  0  0  0  0  0  0  0  0
  152.2179  141.8638  158.9931 C   0  0  0  0  0  0  0  0  0  0  0  0
  152.1897  143.1618  159.3767 C   0  0  0  0  0  0  0  0  0  0  0  0
  152.7817  143.5267  160.5266 F   0  0  0  0  0  0  0  0  0  0  0  0
  150.4721  144.3214  156.7828 H   0  0  0  0  0  0  0  0  0  0  0  0
  151.4318  139.8562  156.3888 H   0  0  0  0  0  0  0  0  0  0  0  0
  152.0665  138.9893  160.1074 H   0  0  0  0  0  0  0  0  0  0  0  0
  152.9037  137.4646  157.5957 H   0  0  0  0  0  0  0  0  0  0  0  0
  150.1021  139.6993  158.9205 H   0  0  0  0  0  0  0  0  0  0  0  0
  150.2659  138.3898  157.7362 H   0  0  0  0  0  0  0  0  0  0  0  0
  150.5244  137.2338  160.0680 H   0  0  0  0  0  0  0  0  0  0  0  0
  154.3796  138.7207  159.9800 H   0  0  0  0  0  0  0  0  0  0  0  0
  154.5596  137.1028  159.3208 H   0  0  0  0  0  0  0  0  0  0  0  0
  155.8358  137.7863  157.8295 H   0  0  0  0  0  0  0  0  0  0  0  0
  152.7254  141.1605  159.6365 H   0  0  0  0  0  0  0  0  0  0  0  0
  1  2  2  0  0  0  0
  2 16  1  0  0  0  0
  2  3  1  0  0  0  0
  3 18  1  0  0  0  0
  3  4  1  0  0  0  0
  4  5  2  0  0  0  0
  4  6  1  0  0  0  0
  6  7  1  0  0  0  0
  6 15  1  0  0  0  0
  7 19  1  0  0  0  0
  7 14  1  0  0  0  0
  7  8  1  0  0  0  0
  8  9  1  0  0  0  0
  8 22  1  0  0  0  0
  8 23  1  0  0  0  0
  9 20  1  0  0  0  0
  9 10  1  0  0  0  0
  9 11  1  0  0  0  0
 10 24  1  0  0  0  0
 11 21  1  0  0  0  0
 11 12  1  0  0  0  0
 11 14  1  0  0  0  0
 12 13  1  0  0  0  0
 12 25  1  0  0  0  0
 12 26  1  0  0  0  0
 13 27  1  0  0  0  0
 15 16  2  0  0  0  0
 15 28  1  0  0  0  0
 16 17  1  0  0  0  0
M  END
> <s_m_source_file>
AV-unprocessed.smi

> <i_m_source_file_index>
38

> <i_lp_mmshare_version>
43012

> <i_f3d_flags>
0

> <s_epik_input>
Tz1jMVtuSF1jKD1PKW4oW2NIXWMxRilbQ0BIXTJbQ0gyXVtDQEhdKFtPSF0pW0NASF0oTzIpW0NIMl1bT0hd

> <s_epik_cmdline>
J2VwaWtfcHl0aG9uJywgJy1waCcsICc3LjAnLCAnLXRuJywgJzgnLCAnLW1hJywgJzIwMCcsICctbWV0YWxfYmluZGluZycsICctaW1hZScsICc8aW5maWxlLm1hZT4nLCAnLW9tYWUnLCAnPG91dGZpbGUubWFlPic=

> <r_lp_tautomer_probability>
0.999537

> <r_epik_Ionization_Penalty>
0.0357432

> <r_epik_Ionization_Penalty_Charging>
0.0357431

> <r_epik_Ionization_Penalty_Neutral>
1.19946e-07

> <r_epik_State_Penalty>
0.0298169

> <r_epik_Charging_Adjusted_Penalty>
0.06556

> <i_epik_Tot_Q>
0

> <i_epik_Tot_abs_Q>
0

> <r_epik_Metal_State_Penalty>
2.348

> <b_epik_Metal_Only>
0

> <s_epik_Chemistry_Notes>
This compound contains an acetal/aminal-like group ( X-CH(R)-Y where X, Y are N, S, or O) that may be acid/base labile, releasing an aldehyde.

> <s_lp_Force_Field>
OPLS_2005

> <r_lp_Energy>
27.0037

> <b_lp_Chiralities_Consistent>
1

> <s_lp_Variant>
AV-unprocessed.smi:38-8

> <Gold.Version>
5.8.1

> <Gold.Id.Protein>
6NUR|6NUR_protein|mol2

> <Gold.PLP.Fitness>
39.5943

> <Gold.PLP.PLP>
-30.0222

> <Gold.PLP.part.hbond>
-4.4901

> <Gold.PLP.part.metal>
0.0000

> <Gold.PLP.part.buried>
-5.2562

> <Gold.PLP.part.nonpolar>
-20.2996

> <Gold.PLP.part.repulsive>
0.2354

> <Gold.PLP.ligand.clash>
0.0000

> <Gold.PLP.ligand.torsion>
0.4265

> <Gold.PLP.Chemscore.Hbond>
3.4720

> <Gold.PLP.Chemscore.CHOScore>
0.0000

> <Gold.PLP.Chemscore.Metal>
0.0000

> <Gold.Chemscore.Hbonds>
donor molecule, donor type, donor heavy atom, donor atom, acceptor molecule, acceptor atom, score
      L1  H     3    18       P1  8028  0.98
      P1  H  6896  6909       L1    10  0.98
      P1  H  7997  8008       L1    13  0.46
      P1  H  7997  8009       L1    14  1.00

> <Gold.PLP.Chemscore.Internal.Correction>
0.0091

> <Gold.Rescore>
     Score         DG    S(hbond)    S(metal)    S(lipo)     H(rot)  DE(clash)    DE(int)     intcor
     11.61     -12.07       2.88        0.00      37.83       2.91       0.02       0.44       ----

> <Gold.Chemscore.Fitness>
11.6149

> <Gold.Chemscore.DG>
-12.0718

> <Gold.Chemscore.ZeroCoef>
-5.4800

> <Gold.Chemscore.Hbond>
2.8819

> <Gold.Chemscore.Metal>
0.0000

> <Gold.Chemscore.Lipo>
37.8308

> <Gold.Chemscore.Internal_Hbond>
0.0000

> <Gold.Chemscore.DEClash>
0.0217

> <Gold.Chemscore.DEInternal>
0.4351

> <Gold.Chemscore.Rot>
2.9141

> <Gold.Chemscore.Internal.Correction>
   9.000000E+99

> <Gold.Chemscore.Hbonds>
donor molecule, donor type, donor heavy atom, donor atom, acceptor molecule, acceptor atom, score
      L1  H     3    18       P1  8028  0.90
      P1  H  6896  6909       L1    10  0.27
      P1  H  7997  8008       L1    13  0.28
      P1  H  7997  8009       L1    14  0.93

> <Gold.Chemscore.Hbond.Weighted>
-9.6257

> <Gold.Chemscore.Metal.Weighted>
-0.0000

> <Gold.Chemscore.Lipo.Weighted>
-4.4262

> <Gold.Chemscore.Internal_Hbond.Weighted>
0.0000

> <Gold.Chemscore.DEClash.Weighted>
0.0217

> <Gold.Chemscore.DEInternal.Weighted>
0.4351

> <Gold.Chemscore.Rot.Weighted>
7.4601

> <Gold.Chemscore.Internal.Correction.Weighted>
   9.000000E+99

> <Gold.Protein.RotatedTorsions>
[ 6907 6896 6895 6894 ] final  130.96 input  -60.11 | X-H torsion
[ 7974 7965 7964 7962 ] final  -29.61 input  175.53 | X-H torsion
[ 8008 7997 7996 7995 ] final -173.30 input   59.86 | X-H torsion
[ 10167 10162 10161 10158 ] final -162.53 input  -65.29 | X-H torsion
[ 10718 10713 10712 10709 ] final   38.85 input   66.30 | X-H torsion
[ 10763 10752 10751 10750 ] final   43.62 input  -60.55 | X-H torsion
[ 11005 11000 10999 10996 ] final   56.41 input  -57.11 | X-H torsion

> <Gold.Protein.ActiveResidues>
 VAL166  LYS551  ARG553  GLY616  TRP617  ASP618  TYR619  PRO620  LYS621  CYS622 
 ASP623  PHE694  ASN695  SER759  ASP760  ASP761  ALA762  ILE779  LEU786  VAL792 
 PHE793  MET794  SER795  GLU796  ALA797  LYS798  CYS799  TRP800  GLU811  SER814 

> <Gold.Protein.RotatedAtoms>
  152.3474  133.6138  159.5919 H   0  0  0  0  0  0  0  0  0  0  0  0  # atno 6907 bound_to 6896
  150.7516  133.9628  159.3530 H   0  0  0  0  0  0  0  0  0  0  0  0  # atno 6908 bound_to 6896
  151.7484  135.0839  160.0378 H   0  0  0  0  0  0  0  0  0  0  0  0  # atno 6909 bound_to 6896
  146.1203  140.5435  142.8738 H   0  0  0  0  0  0  0  0  0  0  0  0  # atno 7974 bound_to 7965
  155.9556  140.1135  157.0939 H   0  0  0  0  0  0  0  0  0  0  0  0  # atno 8008 bound_to 7997
  154.4120  140.1192  156.5177 H   0  0  0  0  0  0  0  0  0  0  0  0  # atno 8009 bound_to 7997
  155.6786  140.3473  155.4848 H   0  0  0  0  0  0  0  0  0  0  0  0  # atno 8010 bound_to 7997
  139.6386  144.0303  152.2074 H   0  0  0  0  0  0  0  0  0  0  0  0  # atno 10167 bound_to 10162
  157.3637  130.7663  149.7067 H   0  0  0  0  0  0  0  0  0  0  0  0  # atno 10718 bound_to 10713
  152.9857  135.6096  154.3141 H   0  0  0  0  0  0  0  0  0  0  0  0  # atno 10763 bound_to 10752
  154.2855  135.2776  155.2680 H   0  0  0  0  0  0  0  0  0  0  0  0  # atno 10764 bound_to 10752
  154.4999  135.5869  153.6580 H   0  0  0  0  0  0  0  0  0  0  0  0  # atno 10765 bound_to 10752
  140.0531  134.5708  155.9240 H   0  0  0  0  0  0  0  0  0  0  0  0  # atno 11005 bound_to 11000
  144.7591  140.5380  143.6748 LP  0  0  0  0  0  0  0  0  0  0  0  0  # atno 17320 bound_to 7965
  145.5479  139.1476  143.3410 LP  0  0  0  0  0  0  0  0  0  0  0  0  # atno 17321 bound_to 7965
  139.9987  144.6309  150.7749 LP  0  0  0  0  0  0  0  0  0  0  0  0  # atno 17342 bound_to 10162
  140.7478  143.2913  151.3324 LP  0  0  0  0  0  0  0  0  0  0  0  0  # atno 17343 bound_to 10162
  155.9742  130.4106  150.3941 LP  0  0  0  0  0  0  0  0  0  0  0  0  # atno 17370 bound_to 10713
  157.2022  131.0440  151.2644 LP  0  0  0  0  0  0  0  0  0  0  0  0  # atno 17371 bound_to 10713
  141.1939  133.6581  156.5572 LP  0  0  0  0  0  0  0  0  0  0  0  0  # atno 17394 bound_to 11000
  140.3886  134.7460  157.4707 LP  0  0  0  0  0  0  0  0  0  0  0  0  # atno 17395 bound_to 11000

$$$$
