#       Name:                AV-unprocessed.smi:2973
#       Creating user name   scv26
#       Creation time:       Fri Mar 27 16:25:33 2020


#       File generated by GOLD software.
#

@<TRIPOS>MOLECULE
AV-unprocessed.smi:2973
    56    58     1
SMALL
NO_CHARGES


@<TRIPOS>ATOM
      1 ****        -4.6342   0.1341  -2.0727 C.3            1 S1                 0.0000
      2 ****        -3.6763   1.2622  -1.6342 C.3            1 S1                 0.0000
      3 ****        -4.4757   2.4231  -1.0030 C.3            1 S1                 0.0000
      4 ****        -3.5692   3.6009  -0.6117 C.3            1 S1                 0.0000
      5 ****        -2.4478   3.1517   0.3353 C.3            1 S1                 0.0000
      6 ****        -1.6320   2.0073  -0.2864 C.3            1 S1                 0.0000
      7 ****        -2.5260   0.8076  -0.6832 C.3            1 S1                 0.0000
      8 ****        -3.0243   0.1203   0.4968 N.am           1 S1                 0.0000
      9 ****        -2.5589  -1.1301   0.6088 C.2            1 S1                 0.0000
     10 ****        -2.8185  -1.9027   1.5295 O.2            1 S1                 0.0000
     11 ****        -1.7620  -1.3808  -0.4458 N.am           1 S1                 0.0000
     12 ****        -1.0389  -2.6440  -0.6579 C.3            1 S1                 0.0000
     13 ****         0.3840  -2.6823  -0.0725 C.2            1 S1                 0.0000
     14 ****         1.0705  -3.6902  -0.2361 O.2            1 S1                 0.0000
     15 ****         0.8300  -1.6035   0.5939 N.am           1 S1                 0.0000
     16 ****         2.1530  -1.4692   1.1889 C.3            1 S1                 0.0000
     17 ****         3.2116  -1.1129   0.1319 C.3            1 S1                 0.0000
     18 ****         4.5895  -0.9369   0.7387 C.ar           1 S1                 0.0000
     19 ****         5.1416   0.3372   0.9943 C.ar           1 S1                 0.0000
     20 ****         6.4261   0.4280   1.5701 C.ar           1 S1                 0.0000
     21 ****         7.1298  -0.7549   1.8777 C.ar           1 S1                 0.0000
     22 ****         6.5309  -2.0007   1.6005 C.ar           1 S1                 0.0000
     23 ****         5.2984  -2.0464   1.0487 N.pl3          1 S1                 1.0000
     24 ****        -1.6763  -0.3184  -1.2588 C.2            1 S1                 0.0000
     25 ****        -1.0169  -0.2269  -2.2944 O.2            1 S1                 0.0000
     26 ****        -5.1498  -0.3107  -1.2212 H              1 S1                 0.0000
     27 ****        -4.1098  -0.6632  -2.5995 H              1 S1                 0.0000
     28 ****        -5.3965   0.5157  -2.7525 H              1 S1                 0.0000
     29 ****        -3.2142   1.6519  -2.5430 H              1 S1                 0.0000
     30 ****        -5.2363   2.7737  -1.7015 H              1 S1                 0.0000
     31 ****        -5.0118   2.0690  -0.1216 H              1 S1                 0.0000
     32 ****        -3.1343   4.0411  -1.5100 H              1 S1                 0.0000
     33 ****        -4.1619   4.3851  -0.1396 H              1 S1                 0.0000
     34 ****        -1.7929   3.9938   0.5605 H              1 S1                 0.0000
     35 ****        -2.8744   2.8311   1.2865 H              1 S1                 0.0000
     36 ****        -1.1126   2.3858  -1.1684 H              1 S1                 0.0000
     37 ****        -0.8534   1.6936   0.4111 H              1 S1                 0.0000
     38 ****        -3.6461   0.5577   1.1613 H              1 S1                 0.0000
     39 ****        -1.6062  -3.4730  -0.2316 H              1 S1                 0.0000
     40 ****        -0.9762  -2.8550  -1.7268 H              1 S1                 0.0000
     41 ****         0.2049  -0.8161   0.6887 H              1 S1                 0.0000
     42 ****         2.1042  -0.6848   1.9449 H              1 S1                 0.0000
     43 ****         2.4215  -2.3890   1.7114 H              1 S1                 0.0000
     44 ****         3.2638  -1.8903  -0.6318 H              1 S1                 0.0000
     45 ****         2.9279  -0.1946  -0.3842 H              1 S1                 0.0000
     46 ****         4.5894   1.2343   0.7547 H              1 S1                 0.0000
     47 ****         6.8656   1.3934   1.7746 H              1 S1                 0.0000
     48 ****         8.1143  -0.7065   2.3197 H              1 S1                 0.0000
     49 ****         6.9957  -2.9545   1.8034 H              1 S1                 0.0000
     50 ****         4.8830  -2.9587   0.8580 H              1 S1                 0.0000
     51 ****        -3.4212  -1.6109   2.2722 LP             1 S1                 0.0000
     52 ****        -2.4270  -2.8229   1.5355 LP             1 S1                 0.0000
     53 ****         0.7020  -4.4693  -0.7434 LP             1 S1                 0.0000
     54 ****         1.9969  -3.7304   0.1382 LP             1 S1                 0.0000
     55 ****        -1.0180   0.6275  -2.8140 LP             1 S1                 0.0000
     56 ****        -0.4802  -1.0070  -2.6160 LP             1 S1                 0.0000
@<TRIPOS>BOND
    1    1    2 1     
    2    1   26 1     
    3    1   27 1     
    4    1   28 1     
    5    2    7 1     
    6    2    3 1     
    7    2   29 1     
    8    3    4 1     
    9    3   30 1     
   10    3   31 1     
   11    4    5 1     
   12    4   32 1     
   13    4   33 1     
   14    5    6 1     
   15    5   34 1     
   16    5   35 1     
   17    6    7 1     
   18    6   36 1     
   19    6   37 1     
   20    7   24 1     
   21    7    8 1     
   22    8    9 am    
   23    8   38 1     
   24    9   10 2     
   25    9   11 am    
   26   11   12 1     
   27   11   24 am    
   28   12   13 1     
   29   12   39 1     
   30   12   40 1     
   31   13   14 2     
   32   13   15 am    
   33   15   16 1     
   34   15   41 1     
   35   16   17 1     
   36   16   42 1     
   37   16   43 1     
   38   17   18 1     
   39   17   44 1     
   40   17   45 1     
   41   18   23 ar    
   42   18   19 ar    
   43   19   20 ar    
   44   19   46 1     
   45   20   21 ar    
   46   20   47 1     
   47   21   22 ar    
   48   21   48 1     
   49   22   23 ar    
   50   22   49 1     
   51   23   50 1     
   52   24   25 2     
   53   10   51 1     
   54   10   52 1     
   55   14   53 1     
   56   14   54 1     
   57   25   55 1     
   58   25   56 1     
@<TRIPOS>SUBSTRUCTURE
      1 S1             1
@<TRIPOS>SET
LONE_PAIRS      STATIC     ATOMS    <user>   **** ""
6 51 52 53 54 55 56
DONOR_HYDROGENS      STATIC     ATOMS    <user>   **** ""
3 38 41 50
ATOM$BLUE        STATIC     ATOMS    COLORGROUP SYSTEM
6 51 52 53 54 55 56
ATOM$RED        STATIC     ATOMS    COLORGROUP SYSTEM
3 38 41 50
