AV-unprocessed.smi:1439|AV-procd|sdf|5872|dock4
  -GOLD-   22720 5543D 1   1.00000     0.00000
 Structure written by MMmdl.
 35 36  0  0  0  0  0  0  0  0  2 V2000
  144.2453  141.8353  155.0442 N   0  0  0  0  0  0  0  0  0  0  0  0
  145.2450  142.7014  155.2376 C   0  0  0  0  0  0  0  0  0  0  0  0
  145.2909  143.4311  156.2259 O   0  0  0  0  0  0  0  0  0  0  0  0
  146.3689  142.7437  154.1947 C   0  0  0  0  0  0  0  0  0  0  0  0
  147.1041  141.4348  154.1129 C   0  0  0  0  0  0  0  0  0  0  0  0
  146.8478  140.4014  153.2487 C   0  0  0  0  0  0  0  0  0  0  0  0
  147.9461  139.0733  153.4886 S   0  0  0  0  0  0  0  0  0  0  0  0
  148.7377  139.9758  154.7816 C   0  0  0  0  0  0  0  0  0  0  0  0
  149.7792  139.5311  155.5014 N   0  5  0  0  0  0  0  0  0  0  0  0
  150.8877  140.3010  155.6173 C   0  0  0  0  0  0  0  0  0  0  0  0
  151.9882  140.1515  155.0829 O   0  0  0  0  0  0  0  0  0  0  0  0
  150.6634  141.4951  156.5543 C   0  0  0  0  0  0  0  0  0  0  0  0
  151.5628  141.4329  157.8018 C   0  0  0  0  0  0  0  0  0  0  0  0
  151.3471  142.6231  158.7480 C   0  0  1  0  0  0  0  0  0  0  0  0
  152.3814  142.7170  159.8672 C   0  0  0  0  0  0  0  0  0  0  0  0
  152.2815  144.1768  160.2464 C   0  0  0  0  0  0  0  0  0  0  0  0
  152.0649  144.8448  158.8901 C   0  0  0  0  0  0  0  0  0  0  0  0
  151.4659  143.8599  158.0505 O   0  0  0  0  0  0  0  0  0  0  0  0
  148.1666  141.1686  154.9819 N   0  0  0  0  0  0  0  0  0  0  0  0
  143.4758  141.8036  155.6968 H   0  0  0  0  0  0  0  0  0  0  0  0
  144.2492  141.2371  154.2306 H   0  0  0  0  0  0  0  0  0  0  0  0
  145.9463  143.0010  153.2226 H   0  0  0  0  0  0  0  0  0  0  0  0
  147.0522  143.5525  154.4551 H   0  0  0  0  0  0  0  0  0  0  0  0
  146.0858  140.3417  152.4863 H   0  0  0  0  0  0  0  0  0  0  0  0
  150.8690  142.4079  155.9942 H   0  0  0  0  0  0  0  0  0  0  0  0
  149.6189  141.5565  156.8664 H   0  0  0  0  0  0  0  0  0  0  0  0
  151.3590  140.5088  158.3448 H   0  0  0  0  0  0  0  0  0  0  0  0
  152.6118  141.3913  157.5054 H   0  0  0  0  0  0  0  0  0  0  0  0
  150.3500  142.5779  159.1893 H   0  0  0  0  0  0  0  0  0  0  0  0
  152.1725  142.0428  160.6983 H   0  0  0  0  0  0  0  0  0  0  0  0
  153.3808  142.4970  159.4890 H   0  0  0  0  0  0  0  0  0  0  0  0
  151.4126  144.3364  160.8864 H   0  0  0  0  0  0  0  0  0  0  0  0
  153.1639  144.5473  160.7688 H   0  0  0  0  0  0  0  0  0  0  0  0
  151.4386  145.7340  158.9664 H   0  0  0  0  0  0  0  0  0  0  0  0
  153.0184  145.1391  158.4504 H   0  0  0  0  0  0  0  0  0  0  0  0
  1  2  1  0  0  0  0
  1 20  1  0  0  0  0
  1 21  1  0  0  0  0
  2  3  2  0  0  0  0
  2  4  1  0  0  0  0
  4  5  1  0  0  0  0
  4 22  1  0  0  0  0
  4 23  1  0  0  0  0
  5 19  1  0  0  0  0
  5  6  2  0  0  0  0
  6  7  1  0  0  0  0
  6 24  1  0  0  0  0
  7  8  1  0  0  0  0
  8  9  1  0  0  0  0
  8 19  2  0  0  0  0
  9 10  1  0  0  0  0
 10 11  2  0  0  0  0
 10 12  1  0  0  0  0
 12 13  1  0  0  0  0
 12 25  1  0  0  0  0
 12 26  1  0  0  0  0
 13 14  1  0  0  0  0
 13 27  1  0  0  0  0
 13 28  1  0  0  0  0
 14 18  1  0  0  0  0
 14 15  1  0  0  0  0
 14 29  1  0  0  0  0
 15 16  1  0  0  0  0
 15 30  1  0  0  0  0
 15 31  1  0  0  0  0
 16 17  1  0  0  0  0
 16 32  1  0  0  0  0
 16 33  1  0  0  0  0
 17 18  1  0  0  0  0
 17 34  1  0  0  0  0
 17 35  1  0  0  0  0
M  CHG  1   9  -1
M  END
> <s_m_source_file>
AV-unprocessed.smi

> <i_m_source_file_index>
1439

> <i_lp_mmshare_version>
43012

> <i_f3d_flags>
0

> <s_epik_input>
W05IMl1DKD1PKVtDSDJdYzFbY0hdc2MobjEpW05IXUMoPU8pW0NIMl1bQ0gyXVtDQEBIXTJbQ0gyXVtDSDJdW0NIMl1PMg==

> <s_epik_cmdline>
J2VwaWtfcHl0aG9uJywgJy1waCcsICc3LjAnLCAnLXRuJywgJzgnLCAnLW1hJywgJzIwMCcsICctbWV0YWxfYmluZGluZycsICctaW1hZScsICc8aW5maWxlLm1hZT4nLCAnLW9tYWUnLCAnPG91dGZpbGUubWFlPic=

> <r_lp_tautomer_probability>
1

> <r_epik_Ionization_Penalty>
4.85214

> <r_epik_Ionization_Penalty_Charging>
4.5239

> <r_epik_Ionization_Penalty_Neutral>
0.32824

> <r_epik_State_Penalty>
4.52362

> <r_epik_Charging_Adjusted_Penalty>
9.04752

> <i_epik_Tot_Q>
-1

> <i_epik_Tot_abs_Q>
1

> <r_epik_Metal_State_Penalty>
0.831335

> <b_epik_Metal_Only>
1

> <s_lp_Force_Field>
OPLS_2005

> <r_lp_Energy>
13.9468

> <b_lp_Chiralities_Consistent>
1

> <s_lp_Variant>
AV-unprocessed.smi:1439-4

> <Gold.Version>
5.8.1

> <Gold.Id.Protein>
6NUR|6NUR_protein|mol2

> <Gold.PLP.Fitness>
44.1354

> <Gold.PLP.PLP>
-38.9078

> <Gold.PLP.part.hbond>
-2.2059

> <Gold.PLP.part.metal>
0.0000

> <Gold.PLP.part.buried>
-5.0775

> <Gold.PLP.part.nonpolar>
-33.6180

> <Gold.PLP.part.repulsive>
0.4428

> <Gold.PLP.ligand.clash>
0.0000

> <Gold.PLP.ligand.torsion>
1.5791

> <Gold.PLP.Chemscore.Hbond>
1.7344

> <Gold.PLP.Chemscore.CHOScore>
1.0000

> <Gold.PLP.Chemscore.Metal>
0.0000

> <Gold.Chemscore.Hbonds>
donor molecule, donor type, donor heavy atom, donor atom, acceptor molecule, acceptor atom, score
      L1  H     1    21       P1 10175  1.00
      P1  H  7989  7998       L1    11  0.80
      L1  C     6    24       P1 10175  1.00

> <Gold.PLP.Chemscore.Internal.Correction>
0.1825

> <Gold.Rescore>
     Score         DG    S(hbond)    S(metal)    S(lipo)     H(rot)  DE(clash)    DE(int)     intcor
     10.24     -12.97       1.07        0.00      88.40       2.51       0.05       2.68       ----

> <Gold.Chemscore.Fitness>
10.2375

> <Gold.Chemscore.DG>
-12.9680

> <Gold.Chemscore.ZeroCoef>
-5.4800

> <Gold.Chemscore.Hbond>
1.0694

> <Gold.Chemscore.Metal>
0.0000

> <Gold.Chemscore.Lipo>
88.3996

> <Gold.Chemscore.Internal_Hbond>
0.0000

> <Gold.Chemscore.DEClash>
0.0543

> <Gold.Chemscore.DEInternal>
2.6762

> <Gold.Chemscore.Rot>
2.5103

> <Gold.Chemscore.Internal.Correction>
   9.000000E+99

> <Gold.Chemscore.Hbonds>
donor molecule, donor type, donor heavy atom, donor atom, acceptor molecule, acceptor atom, score
      L1  H     1    21       P1 10175  0.64
      P1  H  7989  7998       L1    11  0.20

> <Gold.Chemscore.Hbond.Weighted>
-3.5717

> <Gold.Chemscore.Metal.Weighted>
-0.0000

> <Gold.Chemscore.Lipo.Weighted>
-10.3428

> <Gold.Chemscore.Internal_Hbond.Weighted>
0.0000

> <Gold.Chemscore.DEClash.Weighted>
0.0543

> <Gold.Chemscore.DEInternal.Weighted>
2.6762

> <Gold.Chemscore.Rot.Weighted>
6.4264

> <Gold.Chemscore.Internal.Correction.Weighted>
   9.000000E+99

> <Gold.Protein.RotatedTorsions>
[ 6907 6896 6895 6894 ] final  152.98 input  -60.11 | X-H torsion
[ 7974 7965 7964 7962 ] final  -41.02 input  175.53 | X-H torsion
[ 8008 7997 7996 7995 ] final -159.29 input   59.86 | X-H torsion
[ 10167 10162 10161 10158 ] final   -8.19 input  -65.29 | X-H torsion
[ 10718 10713 10712 10709 ] final  -48.27 input   66.30 | X-H torsion
[ 10763 10752 10751 10750 ] final  166.63 input  -60.55 | X-H torsion
[ 11005 11000 10999 10996 ] final  -53.53 input  -57.11 | X-H torsion

> <Gold.Protein.ActiveResidues>
 VAL166  LYS551  ARG553  GLY616  TRP617  ASP618  TYR619  PRO620  LYS621  CYS622 
 ASP623  PHE694  ASN695  SER759  ASP760  ASP761  ALA762  ILE779  LEU786  VAL792 
 PHE793  MET794  SER795  GLU796  ALA797  LYS798  CYS799  TRP800  GLU811  SER814 

> <Gold.Protein.RotatedAtoms>
  152.0791  133.4144  159.4492 H   0  0  0  0  0  0  0  0  0  0  0  0  # atno 6907 bound_to 6896
  150.6862  134.3003  159.4712 H   0  0  0  0  0  0  0  0  0  0  0  0  # atno 6908 bound_to 6896
  152.0843  134.9450  160.0623 H   0  0  0  0  0  0  0  0  0  0  0  0  # atno 6909 bound_to 6896
  146.0250  140.6803  142.9160 H   0  0  0  0  0  0  0  0  0  0  0  0  # atno 7974 bound_to 7965
  155.7604  140.0838  157.2158 H   0  0  0  0  0  0  0  0  0  0  0  0  # atno 8008 bound_to 7997
  154.4004  140.1544  156.2882 H   0  0  0  0  0  0  0  0  0  0  0  0  # atno 8009 bound_to 7997
  155.8845  140.3418  155.5914 H   0  0  0  0  0  0  0  0  0  0  0  0  # atno 8010 bound_to 7997
  140.7052  143.5996  150.8811 H   0  0  0  0  0  0  0  0  0  0  0  0  # atno 10167 bound_to 10162
  156.2004  130.4156  149.9249 H   0  0  0  0  0  0  0  0  0  0  0  0  # atno 10718 bound_to 10713
  154.3418  135.2754  155.2418 H   0  0  0  0  0  0  0  0  0  0  0  0  # atno 10763 bound_to 10752
  154.4686  135.5889  153.6309 H   0  0  0  0  0  0  0  0  0  0  0  0  # atno 10764 bound_to 10752
  152.9857  135.6082  154.3620 H   0  0  0  0  0  0  0  0  0  0  0  0  # atno 10765 bound_to 10752
  141.0980  133.6622  156.4185 H   0  0  0  0  0  0  0  0  0  0  0  0  # atno 11005 bound_to 11000
  144.7006  140.3634  143.7159 LP  0  0  0  0  0  0  0  0  0  0  0  0  # atno 17320 bound_to 7965
  145.7132  139.1690  143.2526 LP  0  0  0  0  0  0  0  0  0  0  0  0  # atno 17321 bound_to 7965
  139.9721  143.6045  152.2970 LP  0  0  0  0  0  0  0  0  0  0  0  0  # atno 17342 bound_to 10162
  139.6636  144.7662  151.1916 LP  0  0  0  0  0  0  0  0  0  0  0  0  # atno 17343 bound_to 10162
  156.6960  130.8914  151.3594 LP  0  0  0  0  0  0  0  0  0  0  0  0  # atno 17370 bound_to 10713
  157.6982  130.9304  150.0707 LP  0  0  0  0  0  0  0  0  0  0  0  0  # atno 17371 bound_to 10713
  140.5091  134.6412  157.5278 LP  0  0  0  0  0  0  0  0  0  0  0  0  # atno 17394 bound_to 11000
  139.9823  134.7117  155.9837 LP  0  0  0  0  0  0  0  0  0  0  0  0  # atno 17395 bound_to 11000

$$$$
