AV-unprocessed.smi:2055|AV-procd|sdf|8335|dock1
  -GOLD-   2272011 03D 1   1.00000     0.00000
 Structure written by MMmdl.
 43 44  0  0  0  0  0  0  0  0  1 V2000
  144.9405  133.8750  150.7793 C   0  0  0  0  0  0  0  0  0  0  0  0
  145.9134  133.8986  151.9681 C   0  0  1  0  0  0  0  0  0  0  0  0
  147.0398  132.8554  151.8245 C   0  0  0  0  0  0  0  0  0  0  0  0
  146.5087  131.6009  151.4540 O   0  0  0  0  0  0  0  0  0  0  0  0
  146.4809  135.2382  152.0932 N   0  0  0  0  0  0  0  0  0  0  0  0
  145.7795  136.3595  152.3107 C   0  0  0  0  0  0  0  0  0  0  0  0
  144.5529  136.4010  152.4062 O   0  0  0  0  0  0  0  0  0  0  0  0
  146.5789  137.4274  152.4397 N   0  0  0  0  0  0  0  0  0  0  0  0
  146.1218  138.7785  152.7519 C   0  0  0  0  0  0  0  0  0  0  0  0
  147.1657  139.6858  153.3950 C   0  0  0  0  0  0  0  0  0  0  0  0
  146.9257  141.0717  153.4607 C   0  0  0  0  0  0  0  0  0  0  0  0
  147.8998  141.8957  154.0526 C   0  0  0  0  0  0  0  0  0  0  0  0
  149.0556  141.4245  154.5641 N   0  0  0  0  0  0  0  0  0  0  0  0
  149.3046  140.0942  154.5098 C   0  0  0  0  0  0  0  0  0  0  0  0
  150.5192  139.6556  155.0824 N   0  0  0  0  0  0  0  0  0  0  0  0
  151.4561  138.9002  154.2555 C   0  0  0  0  0  0  0  0  0  0  0  0
  152.5183  138.2177  155.1337 C   0  0  0  0  0  0  0  0  0  0  0  0
  153.1577  139.1878  155.9559 O   0  0  0  0  0  0  0  0  0  0  0  0
  152.2374  139.8169  156.8417 C   0  0  0  0  0  0  0  0  0  0  0  0
  151.1600  140.5611  156.0345 C   0  0  0  0  0  0  0  0  0  0  0  0
  148.3819  139.1924  153.9215 C   0  0  0  0  0  0  0  0  0  0  0  0
  144.4628  132.9001  150.6789 H   0  0  0  0  0  0  0  0  0  0  0  0
  145.4530  134.0919  149.8416 H   0  0  0  0  0  0  0  0  0  0  0  0
  144.1489  134.6141  150.9053 H   0  0  0  0  0  0  0  0  0  0  0  0
  145.3440  133.6819  152.8743 H   0  0  0  0  0  0  0  0  0  0  0  0
  147.7785  133.1729  151.0879 H   0  0  0  0  0  0  0  0  0  0  0  0
  147.5668  132.7227  152.7700 H   0  0  0  0  0  0  0  0  0  0  0  0
  147.2135  131.0590  151.1333 H   0  0  0  0  0  0  0  0  0  0  0  0
  147.4857  135.3114  152.0312 H   0  0  0  0  0  0  0  0  0  0  0  0
  147.5749  137.2935  152.3462 H   0  0  0  0  0  0  0  0  0  0  0  0
  145.7921  139.2446  151.8233 H   0  0  0  0  0  0  0  0  0  0  0  0
  145.2436  138.7256  153.3980 H   0  0  0  0  0  0  0  0  0  0  0  0
  146.0139  141.4969  153.0674 H   0  0  0  0  0  0  0  0  0  0  0  0
  147.7467  142.9626  154.1184 H   0  0  0  0  0  0  0  0  0  0  0  0
  150.9272  138.1373  153.6831 H   0  0  0  0  0  0  0  0  0  0  0  0
  151.9348  139.5752  153.5449 H   0  0  0  0  0  0  0  0  0  0  0  0
  152.0691  137.4395  155.7528 H   0  0  0  0  0  0  0  0  0  0  0  0
  153.2668  137.7324  154.5075 H   0  0  0  0  0  0  0  0  0  0  0  0
  151.7847  139.0739  157.5005 H   0  0  0  0  0  0  0  0  0  0  0  0
  152.7793  140.5170  157.4777 H   0  0  0  0  0  0  0  0  0  0  0  0
  151.6105  141.3871  155.4830 H   0  0  0  0  0  0  0  0  0  0  0  0
  150.4388  140.9960  156.7262 H   0  0  0  0  0  0  0  0  0  0  0  0
  148.5972  138.1369  153.8669 H   0  0  0  0  0  0  0  0  0  0  0  0
  1  2  1  0  0  0  0
  1 22  1  0  0  0  0
  1 23  1  0  0  0  0
  1 24  1  0  0  0  0
  2  3  1  0  0  0  0
  2  5  1  0  0  0  0
  2 25  1  0  0  0  0
  3  4  1  0  0  0  0
  3 26  1  0  0  0  0
  3 27  1  0  0  0  0
  4 28  1  0  0  0  0
  5  6  1  0  0  0  0
  5 29  1  0  0  0  0
  6  7  2  0  0  0  0
  6  8  1  0  0  0  0
  8  9  1  0  0  0  0
  8 30  1  0  0  0  0
  9 10  1  0  0  0  0
  9 31  1  0  0  0  0
  9 32  1  0  0  0  0
 10 21  1  0  0  0  0
 10 11  2  0  0  0  0
 11 12  1  0  0  0  0
 11 33  1  0  0  0  0
 12 13  2  0  0  0  0
 12 34  1  0  0  0  0
 13 14  1  0  0  0  0
 14 15  1  0  0  0  0
 14 21  2  0  0  0  0
 15 20  1  0  0  0  0
 15 16  1  0  0  0  0
 16 17  1  0  0  0  0
 16 35  1  0  0  0  0
 16 36  1  0  0  0  0
 17 18  1  0  0  0  0
 17 37  1  0  0  0  0
 17 38  1  0  0  0  0
 18 19  1  0  0  0  0
 19 20  1  0  0  0  0
 19 39  1  0  0  0  0
 19 40  1  0  0  0  0
 20 41  1  0  0  0  0
 20 42  1  0  0  0  0
 21 43  1  0  0  0  0
M  END
> <s_m_source_file>
AV-unprocessed.smi

> <i_m_source_file_index>
2055

> <i_lp_mmshare_version>
43012

> <i_f3d_flags>
0

> <s_epik_input>
W09IXVtDSDJdW0NAQEhdKFtDSDNdKVtOSF1DKD1PKVtOSF1bQ0gyXWMxW2NIXVtjSF1uYyhbY0hdMSlOMltDSDJdW0NIMl1PW0NIMl1bQ0gyXTI=

> <s_epik_cmdline>
J2VwaWtfcHl0aG9uJywgJy1waCcsICc3LjAnLCAnLXRuJywgJzgnLCAnLW1hJywgJzIwMCcsICctbWV0YWxfYmluZGluZycsICctaW1hZScsICc8aW5maWxlLm1hZT4nLCAnLW9tYWUnLCAnPG91dGZpbGUubWFlPic=

> <r_lp_tautomer_probability>
1

> <r_epik_Ionization_Penalty>
0.0122173

> <r_epik_Ionization_Penalty_Charging>
0

> <r_epik_Ionization_Penalty_Neutral>
0.0122173

> <r_epik_State_Penalty>
0.00940497

> <r_epik_Charging_Adjusted_Penalty>
0.00940497

> <i_epik_Tot_Q>
0

> <i_epik_Tot_abs_Q>
0

> <r_epik_Metal_State_Penalty>
0.00921475

> <b_epik_Metal_Only>
0

> <s_lp_Force_Field>
OPLS_2005

> <r_lp_Energy>
11.6971

> <b_lp_Chiralities_Consistent>
1

> <s_lp_Variant>
AV-unprocessed.smi:2055-2

> <Gold.Version>
5.8.1

> <Gold.Id.Protein>
6NUR|6NUR_protein|mol2

> <Gold.PLP.Fitness>
48.9787

> <Gold.PLP.PLP>
-34.9807

> <Gold.PLP.part.hbond>
-4.0000

> <Gold.PLP.part.metal>
0.0000

> <Gold.PLP.part.buried>
-1.7425

> <Gold.PLP.part.nonpolar>
-29.4503

> <Gold.PLP.part.repulsive>
0.4621

> <Gold.PLP.ligand.clash>
0.0000

> <Gold.PLP.ligand.torsion>
0.6942

> <Gold.PLP.Chemscore.Hbond>
3.9440

> <Gold.PLP.Chemscore.CHOScore>
1.0000

> <Gold.PLP.Chemscore.Metal>
0.0000

> <Gold.Chemscore.Hbonds>
donor molecule, donor type, donor heavy atom, donor atom, acceptor molecule, acceptor atom, score
      L1  H     4    28       P1 10747  1.00
      L1  H     5    29       P1  7948  1.00
      L1  H     8    30       P1  7948  0.98
      P1  H  7997  8008       L1    18  0.60
      L1  C    12    34       P1  8028  0.94

> <Gold.PLP.Chemscore.Internal.Correction>
0.5543

> <Gold.Rescore>
     Score         DG    S(hbond)    S(metal)    S(lipo)     H(rot)  DE(clash)    DE(int)     intcor
     17.84     -20.21       3.77        0.00      77.56       2.70       0.64       1.73       ----

> <Gold.Chemscore.Fitness>
17.8400

> <Gold.Chemscore.DG>
-20.2133

> <Gold.Chemscore.ZeroCoef>
-5.4800

> <Gold.Chemscore.Hbond>
3.7660

> <Gold.Chemscore.Metal>
0.0000

> <Gold.Chemscore.Lipo>
77.5613

> <Gold.Chemscore.Internal_Hbond>
0.0000

> <Gold.Chemscore.DEClash>
0.6441

> <Gold.Chemscore.DEInternal>
1.7293

> <Gold.Chemscore.Rot>
2.7031

> <Gold.Chemscore.Internal.Correction>
   9.000000E+99

> <Gold.Chemscore.Hbonds>
donor molecule, donor type, donor heavy atom, donor atom, acceptor molecule, acceptor atom, score
      L1  H     4    28       P1 10747  0.94
      L1  H     5    29       P1  7948  0.96
      L1  H     8    30       P1  7948  0.93
      P1  H  7997  8008       L1    18  0.04

> <Gold.Chemscore.Hbond.Weighted>
-12.5786

> <Gold.Chemscore.Metal.Weighted>
-0.0000

> <Gold.Chemscore.Lipo.Weighted>
-9.0747

> <Gold.Chemscore.Internal_Hbond.Weighted>
0.0000

> <Gold.Chemscore.DEClash.Weighted>
0.6441

> <Gold.Chemscore.DEInternal.Weighted>
1.7293

> <Gold.Chemscore.Rot.Weighted>
6.9199

> <Gold.Chemscore.Internal.Correction.Weighted>
   9.000000E+99

> <Gold.Protein.RotatedTorsions>
[ 6907 6896 6895 6894 ] final -148.48 input  -60.11 | X-H torsion
[ 7974 7965 7964 7962 ] final -141.96 input  175.53 | X-H torsion
[ 8008 7997 7996 7995 ] final  -50.92 input   59.86 | X-H torsion
[ 10167 10162 10161 10158 ] final   71.16 input  -65.29 | X-H torsion
[ 10718 10713 10712 10709 ] final   12.83 input   66.30 | X-H torsion
[ 10763 10752 10751 10750 ] final   29.68 input  -60.55 | X-H torsion
[ 11005 11000 10999 10996 ] final  159.29 input  -57.11 | X-H torsion

> <Gold.Protein.ActiveResidues>
 VAL166  LYS551  ARG553  GLY616  TRP617  ASP618  TYR619  PRO620  LYS621  CYS622 
 ASP623  PHE694  ASN695  SER759  ASP760  ASP761  ALA762  ILE779  LEU786  VAL792 
 PHE793  MET794  SER795  GLU796  ALA797  LYS798  CYS799  TRP800  GLU811  SER814 

> <Gold.Protein.RotatedAtoms>
  151.1704  133.4788  159.2593 H   0  0  0  0  0  0  0  0  0  0  0  0  # atno 6907 bound_to 6896
  151.1361  135.0155  159.8615 H   0  0  0  0  0  0  0  0  0  0  0  0  # atno 6908 bound_to 6896
  152.5461  134.1602  159.8608 H   0  0  0  0  0  0  0  0  0  0  0  0  # atno 6909 bound_to 6896
  144.8479  140.6016  143.5409 H   0  0  0  0  0  0  0  0  0  0  0  0  # atno 7974 bound_to 7965
  154.4072  140.1260  156.4745 H   0  0  0  0  0  0  0  0  0  0  0  0  # atno 8008 bound_to 7997
  155.7146  140.3493  155.4969 H   0  0  0  0  0  0  0  0  0  0  0  0  # atno 8009 bound_to 7997
  155.9269  140.1062  157.1153 H   0  0  0  0  0  0  0  0  0  0  0  0  # atno 8010 bound_to 7997
  140.0492  144.5326  150.7376 H   0  0  0  0  0  0  0  0  0  0  0  0  # atno 10167 bound_to 10162
  157.0158  130.6135  149.5714 H   0  0  0  0  0  0  0  0  0  0  0  0  # atno 10718 bound_to 10713
  153.0416  135.6483  154.0929 H   0  0  0  0  0  0  0  0  0  0  0  0  # atno 10763 bound_to 10752
  154.0634  135.2886  155.3322 H   0  0  0  0  0  0  0  0  0  0  0  0  # atno 10764 bound_to 10752
  154.6642  135.5380  153.8121 H   0  0  0  0  0  0  0  0  0  0  0  0  # atno 10765 bound_to 10752
  140.1948  134.8381  157.2952 H   0  0  0  0  0  0  0  0  0  0  0  0  # atno 11005 bound_to 11000
  145.4559  139.1518  143.3893 LP  0  0  0  0  0  0  0  0  0  0  0  0  # atno 17320 bound_to 7965
  146.2760  140.4687  142.8795 LP  0  0  0  0  0  0  0  0  0  0  0  0  # atno 17321 bound_to 7965
  140.7225  143.2602  151.4232 LP  0  0  0  0  0  0  0  0  0  0  0  0  # atno 17342 bound_to 10162
  139.5964  144.1388  152.2148 LP  0  0  0  0  0  0  0  0  0  0  0  0  # atno 17343 bound_to 10162
  156.0119  130.5212  150.8016 LP  0  0  0  0  0  0  0  0  0  0  0  0  # atno 17370 bound_to 10713
  157.5286  131.0935  150.9985 LP  0  0  0  0  0  0  0  0  0  0  0  0  # atno 17371 bound_to 10713
  140.2120  134.4127  155.7608 LP  0  0  0  0  0  0  0  0  0  0  0  0  # atno 17394 bound_to 11000
  141.2227  133.7123  156.8352 LP  0  0  0  0  0  0  0  0  0  0  0  0  # atno 17395 bound_to 11000

$$$$
