AV-unprocessed.smi:1307|AV-procd|sdf|5436|dock5
  -GOLD-   22720 5 03D 1   1.00000     0.00000
 Structure written by MMmdl.
 41 41  0  0  0  0  0  0  0  0  1 V2000
  147.5041  133.6728  161.7879 C   0  0  0  0  0  0  0  0  0  0  0  0
  147.1109  135.0710  162.2987 C   0  0  0  0  0  0  0  0  0  0  0  0
  145.7212  135.0011  162.9626 C   0  0  0  0  0  0  0  0  0  0  0  0
  147.1837  136.1466  161.1806 C   0  0  2  0  0  0  0  0  0  0  0  0
  146.1098  135.9696  160.0934 C   0  0  0  0  0  0  0  0  0  0  0  0
  148.4924  136.1252  160.5264 N   0  0  0  0  0  0  0  0  0  0  0  0
  148.9073  136.9583  159.5594 C   0  0  0  0  0  0  0  0  0  0  0  0
  148.2126  137.8669  159.1018 O   0  0  0  0  0  0  0  0  0  0  0  0
  150.3425  136.7306  159.0566 C   0  0  0  0  0  0  0  0  0  0  0  0
  150.4339  136.4698  157.5978 N   0  0  0  0  0  0  0  0  0  0  0  0
  151.1494  137.3755  156.7531 C   0  0  0  0  0  0  0  0  0  0  0  0
  151.7744  138.6408  157.3592 C   0  0  0  0  0  0  0  0  0  0  0  0
  152.3824  139.3728  156.4246 F   0  0  0  0  0  0  0  0  0  0  0  0
  150.8611  139.4307  157.9235 F   0  0  0  0  0  0  0  0  0  0  0  0
  152.7004  138.3241  158.2649 F   0  0  0  0  0  0  0  0  0  0  0  0
  151.2384  137.1298  155.4330 C   0  0  0  0  0  0  0  0  0  0  0  0
  150.6252  135.9577  154.8721 C   0  0  0  0  0  0  0  0  0  0  0  0
  149.9399  135.0947  155.6559 C   0  0  0  0  0  0  0  0  0  0  0  0
  149.2913  133.8744  155.1243 C   0  0  0  0  0  0  0  0  0  0  0  0
  148.7251  134.0324  153.9211 N   0  0  0  0  0  0  0  0  0  0  0  0
  149.2256  132.7725  155.6694 O   0  0  0  0  0  0  0  0  0  0  0  0
  149.8127  135.3385  157.1159 C   0  0  0  0  0  0  0  0  0  0  0  0
  149.1928  134.5979  157.8855 O   0  0  0  0  0  0  0  0  0  0  0  0
  146.8678  133.3607  160.9591 H   0  0  0  0  0  0  0  0  0  0  0  0
  147.4094  132.9257  162.5765 H   0  0  0  0  0  0  0  0  0  0  0  0
  148.5384  133.6402  161.4476 H   0  0  0  0  0  0  0  0  0  0  0  0
  147.8239  135.3443  163.0779 H   0  0  0  0  0  0  0  0  0  0  0  0
  144.9422  134.7942  162.2282 H   0  0  0  0  0  0  0  0  0  0  0  0
  145.4640  135.9323  163.4674 H   0  0  0  0  0  0  0  0  0  0  0  0
  145.6841  134.2139  163.7161 H   0  0  0  0  0  0  0  0  0  0  0  0
  147.0196  137.1222  161.6414 H   0  0  0  0  0  0  0  0  0  0  0  0
  145.1042  136.1013  160.4913 H   0  0  0  0  0  0  0  0  0  0  0  0
  146.1642  134.9805  159.6374 H   0  0  0  0  0  0  0  0  0  0  0  0
  146.2335  136.7074  159.2996 H   0  0  0  0  0  0  0  0  0  0  0  0
  149.1388  135.4155  160.8389 H   0  0  0  0  0  0  0  0  0  0  0  0
  150.9535  137.5702  159.3742 H   0  0  0  0  0  0  0  0  0  0  0  0
  150.7724  135.8993  159.6188 H   0  0  0  0  0  0  0  0  0  0  0  0
  151.7640  137.8058  154.7751 H   0  0  0  0  0  0  0  0  0  0  0  0
  150.7387  135.8035  153.8094 H   0  0  0  0  0  0  0  0  0  0  0  0
  148.2627  133.2549  153.4731 H   0  0  0  0  0  0  0  0  0  0  0  0
  148.7689  134.9315  153.4636 H   0  0  0  0  0  0  0  0  0  0  0  0
  1  2  1  0  0  0  0
  1 24  1  0  0  0  0
  1 25  1  0  0  0  0
  1 26  1  0  0  0  0
  2  3  1  0  0  0  0
  2  4  1  0  0  0  0
  2 27  1  0  0  0  0
  3 28  1  0  0  0  0
  3 29  1  0  0  0  0
  3 30  1  0  0  0  0
  4  5  1  0  0  0  0
  4  6  1  0  0  0  0
  4 31  1  0  0  0  0
  5 32  1  0  0  0  0
  5 33  1  0  0  0  0
  5 34  1  0  0  0  0
  6  7  1  0  0  0  0
  6 35  1  0  0  0  0
  7  8  2  0  0  0  0
  7  9  1  0  0  0  0
  9 10  1  0  0  0  0
  9 36  1  0  0  0  0
  9 37  1  0  0  0  0
 10 22  1  0  0  0  0
 10 11  1  0  0  0  0
 11 12  1  0  0  0  0
 11 16  2  0  0  0  0
 12 13  1  0  0  0  0
 12 14  1  0  0  0  0
 12 15  1  0  0  0  0
 16 17  1  0  0  0  0
 16 38  1  0  0  0  0
 17 18  2  0  0  0  0
 17 39  1  0  0  0  0
 18 19  1  0  0  0  0
 18 22  1  0  0  0  0
 19 20  1  0  0  0  0
 19 21  2  0  0  0  0
 20 40  1  0  0  0  0
 20 41  1  0  0  0  0
 22 23  2  0  0  0  0
M  END
> <s_m_source_file>
AV-unprocessed.smi

> <i_m_source_file_index>
1307

> <i_lp_mmshare_version>
43012

> <i_f3d_flags>
0

> <s_epik_input>
W0NIM11bQ0hdKFtDSDNdKVtDQEhdKFtDSDNdKVtOSF1DKD1PKVtDSDJdbjFjKEMoRikoRilGKVtjSF1bY0hdYyhjMT1PKUMoPU8pW05IMl0=

> <s_epik_cmdline>
J2VwaWtfcHl0aG9uJywgJy1waCcsICc3LjAnLCAnLXRuJywgJzgnLCAnLW1hJywgJzIwMCcsICctbWV0YWxfYmluZGluZycsICctaW1hZScsICc8aW5maWxlLm1hZT4nLCAnLW9tYWUnLCAnPG91dGZpbGUubWFlPic=

> <r_lp_tautomer_probability>
1

> <r_epik_Ionization_Penalty>
2.05992e-06

> <r_epik_Ionization_Penalty_Charging>
8.21357e-10

> <r_epik_Ionization_Penalty_Neutral>
2.0591e-06

> <r_epik_State_Penalty>
-0

> <r_epik_Charging_Adjusted_Penalty>
8.21357e-10

> <i_epik_Tot_Q>
0

> <i_epik_Tot_abs_Q>
0

> <r_epik_Metal_State_Penalty>
-0

> <b_epik_Metal_Only>
0

> <s_lp_Force_Field>
OPLS_2005

> <r_lp_Energy>
26.4012

> <b_lp_Chiralities_Consistent>
1

> <s_lp_Variant>
AV-unprocessed.smi:1307-1

> <Gold.Version>
5.8.1

> <Gold.Id.Protein>
6NUR|6NUR_protein|mol2

> <Gold.PLP.Fitness>
37.6394

> <Gold.PLP.PLP>
-32.6025

> <Gold.PLP.part.hbond>
-3.0000

> <Gold.PLP.part.metal>
0.0000

> <Gold.PLP.part.buried>
-5.4651

> <Gold.PLP.part.nonpolar>
-24.8981

> <Gold.PLP.part.repulsive>
0.2142

> <Gold.PLP.ligand.clash>
3.9762

> <Gold.PLP.ligand.torsion>
0.6303

> <Gold.PLP.Chemscore.Hbond>
2.0783

> <Gold.PLP.Chemscore.CHOScore>
0.0000

> <Gold.PLP.Chemscore.Metal>
0.0000

> <Gold.Chemscore.Hbonds>
donor molecule, donor type, donor heavy atom, donor atom, acceptor molecule, acceptor atom, score
      L1  H    20    41       P1  7948  0.98
      P1  H  6896  6907       L1    23  0.78
      P1  H  6934  6947       L1     8  0.05

> <Gold.PLP.Chemscore.Internal.Correction>
4.0386

> <Gold.Rescore>
     Score         DG    S(hbond)    S(metal)    S(lipo)     H(rot)  DE(clash)    DE(int)     intcor
      5.10     -11.34       1.07        0.00      62.83       1.97       0.01       6.23       ----

> <Gold.Chemscore.Fitness>
5.1025

> <Gold.Chemscore.DG>
-11.3443

> <Gold.Chemscore.ZeroCoef>
-5.4800

> <Gold.Chemscore.Hbond>
1.0663

> <Gold.Chemscore.Metal>
0.0000

> <Gold.Chemscore.Lipo>
62.8348

> <Gold.Chemscore.Internal_Hbond>
0.0000

> <Gold.Chemscore.DEClash>
0.0121

> <Gold.Chemscore.DEInternal>
6.2296

> <Gold.Chemscore.Rot>
1.9723

> <Gold.Chemscore.Internal.Correction>
   9.000000E+99

> <Gold.Chemscore.Hbonds>
donor molecule, donor type, donor heavy atom, donor atom, acceptor molecule, acceptor atom, score
      L1  H    20    41       P1  7948  0.50
      P1  H  6896  6907       L1    23  0.27
      P1  H  6934  6947       L1     8  0.04

> <Gold.Chemscore.Hbond.Weighted>
-3.5616

> <Gold.Chemscore.Metal.Weighted>
-0.0000

> <Gold.Chemscore.Lipo.Weighted>
-7.3517

> <Gold.Chemscore.Internal_Hbond.Weighted>
0.0000

> <Gold.Chemscore.DEClash.Weighted>
0.0121

> <Gold.Chemscore.DEInternal.Weighted>
6.2296

> <Gold.Chemscore.Rot.Weighted>
5.0490

> <Gold.Chemscore.Internal.Correction.Weighted>
   9.000000E+99

> <Gold.Protein.RotatedTorsions>
[ 6907 6896 6895 6894 ] final  -94.35 input  -60.11 | X-H torsion
[ 7974 7965 7964 7962 ] final  107.17 input  175.53 | X-H torsion
[ 8008 7997 7996 7995 ] final  -59.77 input   59.86 | X-H torsion
[ 10167 10162 10161 10158 ] final   -9.20 input  -65.29 | X-H torsion
[ 10718 10713 10712 10709 ] final  106.51 input   66.30 | X-H torsion
[ 10763 10752 10751 10750 ] final  -90.06 input  -60.55 | X-H torsion
[ 11005 11000 10999 10996 ] final  109.27 input  -57.11 | X-H torsion

> <Gold.Protein.ActiveResidues>
 VAL166  LYS551  ARG553  GLY616  TRP617  ASP618  TYR619  PRO620  LYS621  CYS622 
 ASP623  PHE694  ASN695  SER759  ASP760  ASP761  ALA762  ILE779  LEU786  VAL792 
 PHE793  MET794  SER795  GLU796  ALA797  LYS798  CYS799  TRP800  GLU811  SER814 

> <Gold.Protein.RotatedAtoms>
  150.6940  134.1826  159.4254 H   0  0  0  0  0  0  0  0  0  0  0  0  # atno 6907 bound_to 6896
  151.9800  135.0031  160.0566 H   0  0  0  0  0  0  0  0  0  0  0  0  # atno 6908 bound_to 6896
  152.1764  133.4642  159.4972 H   0  0  0  0  0  0  0  0  0  0  0  0  # atno 6909 bound_to 6896
  145.2970  139.2581  143.3834 H   0  0  0  0  0  0  0  0  0  0  0  0  # atno 7974 bound_to 7965
  154.4367  140.1054  156.6168 H   0  0  0  0  0  0  0  0  0  0  0  0  # atno 8008 bound_to 7997
  155.5750  140.3490  155.4506 H   0  0  0  0  0  0  0  0  0  0  0  0  # atno 8009 bound_to 7997
  156.0361  140.1271  157.0196 H   0  0  0  0  0  0  0  0  0  0  0  0  # atno 8010 bound_to 7997
  140.7081  143.5884  150.8919 H   0  0  0  0  0  0  0  0  0  0  0  0  # atno 10167 bound_to 10162
  157.6665  131.0852  150.6018 H   0  0  0  0  0  0  0  0  0  0  0  0  # atno 10718 bound_to 10713
  154.6618  135.5318  153.8028 H   0  0  0  0  0  0  0  0  0  0  0  0  # atno 10763 bound_to 10752
  153.0447  135.6507  154.0859 H   0  0  0  0  0  0  0  0  0  0  0  0  # atno 10764 bound_to 10752
  154.0767  135.2950  155.3278 H   0  0  0  0  0  0  0  0  0  0  0  0  # atno 10765 bound_to 10752
  139.8859  134.9453  156.6100 H   0  0  0  0  0  0  0  0  0  0  0  0  # atno 11005 bound_to 11000
  146.3165  140.3475  142.8653 LP  0  0  0  0  0  0  0  0  0  0  0  0  # atno 17320 bound_to 7965
  144.9125  140.7774  143.5799 LP  0  0  0  0  0  0  0  0  0  0  0  0  # atno 17321 bound_to 7965
  139.9609  143.6164  152.3002 LP  0  0  0  0  0  0  0  0  0  0  0  0  # atno 17342 bound_to 10162
  139.6717  144.7660  151.1771 LP  0  0  0  0  0  0  0  0  0  0  0  0  # atno 17343 bound_to 10162
  156.6318  130.4434  149.5784 LP  0  0  0  0  0  0  0  0  0  0  0  0  # atno 17370 bound_to 10713
  156.2276  130.6775  151.1431 LP  0  0  0  0  0  0  0  0  0  0  0  0  # atno 17371 bound_to 10713
  140.7819  133.8653  155.8574 LP  0  0  0  0  0  0  0  0  0  0  0  0  # atno 17394 bound_to 11000
  140.9753  134.1477  157.4541 LP  0  0  0  0  0  0  0  0  0  0  0  0  # atno 17395 bound_to 11000

$$$$
