AV-unprocessed.smi:1521|AV-procd|sdf|6130|dock2
  -GOLD-   22720 6273D 1   1.00000     0.00000
 Structure written by MMmdl.
 36 37  0  0  0  0  0  0  0  0  1 V2000
  146.1046  137.3801  154.6335 O   0  0  0  0  0  0  0  0  0  0  0  0
  145.5347  138.2727  154.0058 C   0  0  0  0  0  0  0  0  0  0  0  0
  144.3324  138.1178  153.4347 N   0  0  0  0  0  0  0  0  0  0  0  0
  143.5315  136.8990  153.4793 C   0  0  0  0  0  0  0  0  0  0  0  0
  143.7816  136.0110  152.2486 C   0  0  2  0  0  0  0  0  0  0  0  0
  143.3712  134.5465  152.5010 C   0  0  0  0  0  0  0  0  0  0  0  0
  143.6697  133.7690  151.3487 O   0  0  0  0  0  0  0  0  0  0  0  0
  145.0575  133.8063  151.0452 C   0  0  0  0  0  0  0  0  0  0  0  0
  145.4764  135.2641  150.7937 C   0  0  0  0  0  0  0  0  0  0  0  0
  145.1734  136.0370  151.9475 O   0  0  0  0  0  0  0  0  0  0  0  0
  146.0007  139.5203  153.8129 N   0  0  0  0  0  0  0  0  0  0  0  0
  147.2267  140.0788  154.2110 C   0  0  0  0  0  0  0  0  0  0  0  0
  148.3380  139.3625  154.5238 C   0  0  0  0  0  0  0  0  0  0  0  0
  149.5842  140.0022  154.9116 C   0  0  0  0  0  0  0  0  0  0  0  0
  150.7982  139.1906  155.3365 C   0  0  0  0  0  0  0  0  0  0  0  0
  151.8183  139.9832  155.6675 F   0  0  0  0  0  0  0  0  0  0  0  0
  150.5135  138.4157  156.3834 F   0  0  0  0  0  0  0  0  0  0  0  0
  151.1909  138.4057  154.3341 F   0  0  0  0  0  0  0  0  0  0  0  0
  149.5799  141.3473  154.9548 C   0  0  0  0  0  0  0  0  0  0  0  0
  148.4484  142.0915  154.6132 N   0  0  0  0  0  0  0  0  0  0  0  0
  147.2674  141.5503  154.2391 C   0  0  0  0  0  0  0  0  0  0  0  0
  146.3157  142.2752  153.9511 O   0  0  0  0  0  0  0  0  0  0  0  0
  148.5305  143.0971  154.6546 H   0  0  0  0  0  0  0  0  0  0  0  0
  143.9324  138.9051  152.9454 H   0  0  0  0  0  0  0  0  0  0  0  0
  143.7839  136.3559  154.3902 H   0  0  0  0  0  0  0  0  0  0  0  0
  142.4729  137.1529  153.5556 H   0  0  0  0  0  0  0  0  0  0  0  0
  143.2174  136.4012  151.3995 H   0  0  0  0  0  0  0  0  0  0  0  0
  143.8864  134.1384  153.3722 H   0  0  0  0  0  0  0  0  0  0  0  0
  142.3016  134.4803  152.7017 H   0  0  0  0  0  0  0  0  0  0  0  0
  145.6339  133.3718  151.8631 H   0  0  0  0  0  0  0  0  0  0  0  0
  145.2462  133.1985  150.1601 H   0  0  0  0  0  0  0  0  0  0  0  0
  146.5467  135.3227  150.5962 H   0  0  0  0  0  0  0  0  0  0  0  0
  144.9651  135.6717  149.9203 H   0  0  0  0  0  0  0  0  0  0  0  0
  145.3767  140.1652  153.3497 H   0  0  0  0  0  0  0  0  0  0  0  0
  148.3355  138.2859  154.4692 H   0  0  0  0  0  0  0  0  0  0  0  0
  150.4259  141.9490  155.2533 H   0  0  0  0  0  0  0  0  0  0  0  0
  1  2  2  0  0  0  0
  2  3  1  0  0  0  0
  2 11  1  0  0  0  0
  3  4  1  0  0  0  0
  3 24  1  0  0  0  0
  4  5  1  0  0  0  0
  4 25  1  0  0  0  0
  4 26  1  0  0  0  0
  5 10  1  0  0  0  0
  5  6  1  0  0  0  0
  5 27  1  0  0  0  0
  6  7  1  0  0  0  0
  6 28  1  0  0  0  0
  6 29  1  0  0  0  0
  7  8  1  0  0  0  0
  8  9  1  0  0  0  0
  8 30  1  0  0  0  0
  8 31  1  0  0  0  0
  9 10  1  0  0  0  0
  9 32  1  0  0  0  0
  9 33  1  0  0  0  0
 11 12  1  0  0  0  0
 11 34  1  0  0  0  0
 12 21  1  0  0  0  0
 12 13  2  0  0  0  0
 13 14  1  0  0  0  0
 13 35  1  0  0  0  0
 14 15  1  0  0  0  0
 14 19  2  0  0  0  0
 15 16  1  0  0  0  0
 15 17  1  0  0  0  0
 15 18  1  0  0  0  0
 19 20  1  0  0  0  0
 19 36  1  0  0  0  0
 20 23  1  0  0  0  0
 20 21  1  0  0  0  0
 21 22  2  0  0  0  0
M  END
> <s_m_source_file>
AV-unprocessed.smi

> <i_m_source_file_index>
1521

> <i_lp_mmshare_version>
43012

> <i_f3d_flags>
0

> <s_epik_input>
Tz1jMVtuSF1bY0hdYyhDKEYpKEYpRilbY0hdYzFbTkhdQyg9TylbTkhdW0NIMl1bQ0BASF0yW0NIMl1PW0NIMl1bQ0gyXU8y

> <s_epik_cmdline>
J2VwaWtfcHl0aG9uJywgJy1waCcsICc3LjAnLCAnLXRuJywgJzgnLCAnLW1hJywgJzIwMCcsICctbWV0YWxfYmluZGluZycsICctaW1hZScsICc8aW5maWxlLm1hZT4nLCAnLW9tYWUnLCAnPG91dGZpbGUubWFlPic=

> <r_lp_tautomer_probability>
1

> <r_epik_Ionization_Penalty>
0.00396636

> <r_epik_Ionization_Penalty_Charging>
0.00394789

> <r_epik_Ionization_Penalty_Neutral>
1.84676e-05

> <r_epik_State_Penalty>
-0

> <r_epik_Charging_Adjusted_Penalty>
0.00394789

> <i_epik_Tot_Q>
0

> <i_epik_Tot_abs_Q>
0

> <r_epik_Metal_State_Penalty>
0.372669

> <b_epik_Metal_Only>
0

> <s_lp_Force_Field>
OPLS_2005

> <r_lp_Energy>
18.8562

> <b_lp_Chiralities_Consistent>
1

> <s_lp_Variant>
AV-unprocessed.smi:1521-1

> <Gold.Version>
5.8.1

> <Gold.Id.Protein>
6NUR|6NUR_protein|mol2

> <Gold.PLP.Fitness>
41.1253

> <Gold.PLP.PLP>
-34.2741

> <Gold.PLP.part.hbond>
-3.0000

> <Gold.PLP.part.metal>
0.0000

> <Gold.PLP.part.buried>
-5.9378

> <Gold.PLP.part.nonpolar>
-26.7806

> <Gold.PLP.part.repulsive>
0.8454

> <Gold.PLP.ligand.clash>
1.2131

> <Gold.PLP.ligand.torsion>
0.4744

> <Gold.PLP.Chemscore.Hbond>
2.9840

> <Gold.PLP.Chemscore.CHOScore>
0.0000

> <Gold.PLP.Chemscore.Metal>
0.0000

> <Gold.Chemscore.Hbonds>
donor molecule, donor type, donor heavy atom, donor atom, acceptor molecule, acceptor atom, score
      L1  H     3    24       P1 10175  1.00
      L1  H    11    34       P1 10175  0.98
      L1  H    20    23       P1  8028  1.00

> <Gold.PLP.Chemscore.Internal.Correction>
0.0611

> <Gold.Rescore>
     Score         DG    S(hbond)    S(metal)    S(lipo)     H(rot)  DE(clash)    DE(int)     intcor
     16.52     -18.16       2.93        0.00      54.79       1.37       0.06       1.58       ----

> <Gold.Chemscore.Fitness>
16.5183

> <Gold.Chemscore.DG>
-18.1614

> <Gold.Chemscore.ZeroCoef>
-5.4800

> <Gold.Chemscore.Hbond>
2.9304

> <Gold.Chemscore.Metal>
0.0000

> <Gold.Chemscore.Lipo>
54.7875

> <Gold.Chemscore.Internal_Hbond>
0.0000

> <Gold.Chemscore.DEClash>
0.0639

> <Gold.Chemscore.DEInternal>
1.5793

> <Gold.Chemscore.Rot>
1.3735

> <Gold.Chemscore.Internal.Correction>
   9.000000E+99

> <Gold.Chemscore.Hbonds>
donor molecule, donor type, donor heavy atom, donor atom, acceptor molecule, acceptor atom, score
      L1  H     3    24       P1 10175  0.99
      L1  H    11    34       P1 10175  0.93
      L1  H    20    23       P1  8028  0.96

> <Gold.Chemscore.Hbond.Weighted>
-9.7875

> <Gold.Chemscore.Metal.Weighted>
-0.0000

> <Gold.Chemscore.Lipo.Weighted>
-6.4101

> <Gold.Chemscore.Internal_Hbond.Weighted>
0.0000

> <Gold.Chemscore.DEClash.Weighted>
0.0639

> <Gold.Chemscore.DEInternal.Weighted>
1.5793

> <Gold.Chemscore.Rot.Weighted>
3.5162

> <Gold.Chemscore.Internal.Correction.Weighted>
   9.000000E+99

> <Gold.Protein.RotatedTorsions>
[ 6907 6896 6895 6894 ] final  -44.26 input  -60.11 | X-H torsion
[ 7974 7965 7964 7962 ] final  127.83 input  175.53 | X-H torsion
[ 8008 7997 7996 7995 ] final  154.51 input   59.86 | X-H torsion
[ 10167 10162 10161 10158 ] final  -56.49 input  -65.29 | X-H torsion
[ 10718 10713 10712 10709 ] final   41.96 input   66.30 | X-H torsion
[ 10763 10752 10751 10750 ] final -177.67 input  -60.55 | X-H torsion
[ 11005 11000 10999 10996 ] final -141.61 input  -57.11 | X-H torsion

> <Gold.Protein.ActiveResidues>
 VAL166  LYS551  ARG553  GLY616  TRP617  ASP618  TYR619  PRO620  LYS621  CYS622 
 ASP623  PHE694  ASN695  SER759  ASP760  ASP761  ALA762  ILE779  LEU786  VAL792 
 PHE793  MET794  SER795  GLU796  ALA797  LYS798  CYS799  TRP800  GLU811  SER814 

> <Gold.Protein.RotatedAtoms>
  150.9348  134.8761  159.7573 H   0  0  0  0  0  0  0  0  0  0  0  0  # atno 6907 bound_to 6896
  152.5054  134.4027  159.9432 H   0  0  0  0  0  0  0  0  0  0  0  0  # atno 6908 bound_to 6896
  151.4052  133.3705  159.2772 H   0  0  0  0  0  0  0  0  0  0  0  0  # atno 6909 bound_to 6896
  145.0462  139.3921  143.5077 H   0  0  0  0  0  0  0  0  0  0  0  0  # atno 7974 bound_to 7965
  156.2527  140.1964  156.6657 H   0  0  0  0  0  0  0  0  0  0  0  0  # atno 8008 bound_to 7997
  154.6431  140.0581  156.9894 H   0  0  0  0  0  0  0  0  0  0  0  0  # atno 8009 bound_to 7997
  155.1533  140.3253  155.4429 H   0  0  0  0  0  0  0  0  0  0  0  0  # atno 8010 bound_to 7997
  140.6314  143.2461  151.5231 H   0  0  0  0  0  0  0  0  0  0  0  0  # atno 10167 bound_to 10162
  157.3995  130.7852  149.7336 H   0  0  0  0  0  0  0  0  0  0  0  0  # atno 10718 bound_to 10713
  154.5572  135.2817  155.0953 H   0  0  0  0  0  0  0  0  0  0  0  0  # atno 10763 bound_to 10752
  154.2376  135.6363  153.5200 H   0  0  0  0  0  0  0  0  0  0  0  0  # atno 10764 bound_to 10752
  153.0019  135.5552  154.6155 H   0  0  0  0  0  0  0  0  0  0  0  0  # atno 10765 bound_to 10752
  140.8307  134.2520  157.4858 H   0  0  0  0  0  0  0  0  0  0  0  0  # atno 11005 bound_to 11000
  146.3514  140.0089  142.8669 LP  0  0  0  0  0  0  0  0  0  0  0  0  # atno 17320 bound_to 7965
  145.1584  140.9660  143.4391 LP  0  0  0  0  0  0  0  0  0  0  0  0  # atno 17321 bound_to 7965
  139.5528  144.2353  152.1560 LP  0  0  0  0  0  0  0  0  0  0  0  0  # atno 17342 bound_to 10162
  140.1597  144.5037  150.6639 LP  0  0  0  0  0  0  0  0  0  0  0  0  # atno 17343 bound_to 10162
  155.9819  130.4014  150.3444 LP  0  0  0  0  0  0  0  0  0  0  0  0  # atno 17370 bound_to 10713
  157.1570  131.0335  151.2858 LP  0  0  0  0  0  0  0  0  0  0  0  0  # atno 17371 bound_to 10713
  139.8705  134.9584  156.4300 LP  0  0  0  0  0  0  0  0  0  0  0  0  # atno 17394 bound_to 11000
  140.9001  133.7785  155.9670 LP  0  0  0  0  0  0  0  0  0  0  0  0  # atno 17395 bound_to 11000

$$$$
