AV-unprocessed.smi:2067|AV-procd|sdf|8426|dock3
  -GOLD-   2272011123D 1   1.00000     0.00000
 Structure written by MMmdl.
 47 48  0  0  0  0  0  0  0  0  1 V2000
  150.5758  140.9381  156.0417 C   0  0  0  0  0  0  0  0  0  0  0  0
  149.1415  140.7780  155.5144 C   0  0  1  0  0  0  0  0  0  0  0  0
  148.8606  141.7946  154.3900 C   0  0  0  0  0  0  0  0  0  0  0  0
  147.4260  141.6698  153.8570 C   0  0  0  0  0  0  0  0  0  0  0  0
  147.1409  140.2408  153.3758 C   0  0  0  0  0  0  0  0  0  0  0  0
  147.4130  139.2172  154.4884 C   0  0  0  0  0  0  0  0  0  0  0  0
  148.8550  139.3364  155.0322 C   0  0  2  0  0  0  0  0  0  0  0  0
  149.0606  138.4625  156.1370 O   0  0  0  0  0  0  0  0  0  0  0  0
  148.7394  137.0986  155.9008 C   0  0  0  0  0  0  0  0  0  0  0  0
  149.8775  136.4689  155.0909 C   0  0  0  0  0  0  0  0  0  0  0  0
  149.4782  135.1834  154.5381 N   0  0  0  0  0  0  0  0  0  0  0  0
  149.8793  133.9411  155.0170 C   0  0  0  0  0  0  0  0  0  0  0  0
  150.7067  133.8270  156.0931 C   0  0  0  0  0  0  0  0  0  0  0  0
  151.1813  134.9501  156.8384 C   0  0  0  0  0  0  0  0  0  0  0  0
  151.5889  135.8492  157.4443 N   0  0  0  0  0  0  0  0  0  0  0  0
  151.1455  132.5287  156.6028 C   0  0  0  0  0  0  0  0  0  0  0  0
  151.8994  132.3996  157.5697 O   0  0  0  0  0  0  0  0  0  0  0  0
  150.6339  131.4179  155.8965 N   0  0  0  0  0  0  0  0  0  0  0  0
  151.0104  130.0804  156.3083 C   0  0  0  0  0  0  0  0  0  0  0  0
  149.7647  131.5098  154.7927 C   0  0  0  0  0  0  0  0  0  0  0  0
  149.3502  130.4958  154.2216 O   0  0  0  0  0  0  0  0  0  0  0  0
  149.3959  132.8060  154.3604 N   0  0  0  0  0  0  0  0  0  0  0  0
  148.5301  132.8281  153.1995 C   0  0  0  0  0  0  0  0  0  0  0  0
  151.3113  140.6925  155.2753 H   0  0  0  0  0  0  0  0  0  0  0  0
  150.7546  140.2895  156.8988 H   0  0  0  0  0  0  0  0  0  0  0  0
  150.7637  141.9611  156.3679 H   0  0  0  0  0  0  0  0  0  0  0  0
  148.4632  140.9987  156.3401 H   0  0  0  0  0  0  0  0  0  0  0  0
  149.0246  142.8095  154.7543 H   0  0  0  0  0  0  0  0  0  0  0  0
  149.5661  141.6434  153.5717 H   0  0  0  0  0  0  0  0  0  0  0  0
  146.7182  141.9413  154.6412 H   0  0  0  0  0  0  0  0  0  0  0  0
  147.2696  142.3755  153.0407 H   0  0  0  0  0  0  0  0  0  0  0  0
  146.1062  140.1604  153.0413 H   0  0  0  0  0  0  0  0  0  0  0  0
  147.7646  140.0144  152.5101 H   0  0  0  0  0  0  0  0  0  0  0  0
  146.7019  139.3663  155.3020 H   0  0  0  0  0  0  0  0  0  0  0  0
  147.2297  138.2171  154.0957 H   0  0  0  0  0  0  0  0  0  0  0  0
  149.5647  139.0851  154.2415 H   0  0  0  0  0  0  0  0  0  0  0  0
  148.6438  136.5827  156.8563 H   0  0  0  0  0  0  0  0  0  0  0  0
  147.7910  136.9903  155.3713 H   0  0  0  0  0  0  0  0  0  0  0  0
  150.2180  137.1620  154.3244 H   0  0  0  0  0  0  0  0  0  0  0  0
  150.7290  136.2873  155.7469 H   0  0  0  0  0  0  0  0  0  0  0  0
  149.3934  135.2220  153.5325 H   0  0  0  0  0  0  0  0  0  0  0  0
  151.4776  129.5957  155.4491 H   0  0  0  0  0  0  0  0  0  0  0  0
  150.0953  129.5659  156.6068 H   0  0  0  0  0  0  0  0  0  0  0  0
  151.7131  130.0995  157.1404 H   0  0  0  0  0  0  0  0  0  0  0  0
  149.0727  132.3557  152.3784 H   0  0  0  0  0  0  0  0  0  0  0  0
  148.2736  133.8497  152.9292 H   0  0  0  0  0  0  0  0  0  0  0  0
  147.6226  132.2782  153.4551 H   0  0  0  0  0  0  0  0  0  0  0  0
  1  2  1  0  0  0  0
  1 24  1  0  0  0  0
  1 25  1  0  0  0  0
  1 26  1  0  0  0  0
  2  7  1  0  0  0  0
  2  3  1  0  0  0  0
  2 27  1  0  0  0  0
  3  4  1  0  0  0  0
  3 28  1  0  0  0  0
  3 29  1  0  0  0  0
  4  5  1  0  0  0  0
  4 30  1  0  0  0  0
  4 31  1  0  0  0  0
  5  6  1  0  0  0  0
  5 32  1  0  0  0  0
  5 33  1  0  0  0  0
  6  7  1  0  0  0  0
  6 34  1  0  0  0  0
  6 35  1  0  0  0  0
  7  8  1  0  0  0  0
  7 36  1  0  0  0  0
  8  9  1  0  0  0  0
  9 10  1  0  0  0  0
  9 37  1  0  0  0  0
  9 38  1  0  0  0  0
 10 11  1  0  0  0  0
 10 39  1  0  0  0  0
 10 40  1  0  0  0  0
 11 12  1  0  0  0  0
 11 41  1  0  0  0  0
 12 22  1  0  0  0  0
 12 13  2  0  0  0  0
 13 14  1  0  0  0  0
 13 16  1  0  0  0  0
 14 15  3  0  0  0  0
 16 17  2  0  0  0  0
 16 18  1  0  0  0  0
 18 19  1  0  0  0  0
 18 20  1  0  0  0  0
 19 42  1  0  0  0  0
 19 43  1  0  0  0  0
 19 44  1  0  0  0  0
 20 21  2  0  0  0  0
 20 22  1  0  0  0  0
 22 23  1  0  0  0  0
 23 45  1  0  0  0  0
 23 46  1  0  0  0  0
 23 47  1  0  0  0  0
M  END
> <s_m_source_file>
AV-unprocessed.smi

> <i_m_source_file_index>
2067

> <i_lp_mmshare_version>
43012

> <i_f3d_flags>
0

> <s_epik_input>
W0NIM11bQ0BASF0xW0NIMl1bQ0gyXVtDSDJdW0NIMl1bQ0BIXTFPW0NIMl1bQ0gyXVtOSF1jMmMoQyNOKWMoPU8pbihbQ0gzXSljKD1PKW4yW0NIM10=

> <s_epik_cmdline>
J2VwaWtfcHl0aG9uJywgJy1waCcsICc3LjAnLCAnLXRuJywgJzgnLCAnLW1hJywgJzIwMCcsICctbWV0YWxfYmluZGluZycsICctaW1hZScsICc8aW5maWxlLm1hZT4nLCAnLW9tYWUnLCAnPG91dGZpbGUubWFlPic=

> <r_epik_Ionization_Penalty>
0.00056529

> <r_epik_Ionization_Penalty_Charging>
3.94678e-10

> <r_epik_Ionization_Penalty_Neutral>
0.000565289

> <r_epik_State_Penalty>
0.000354611

> <r_epik_Charging_Adjusted_Penalty>
0.000354611

> <i_epik_Tot_Q>
0

> <i_epik_Tot_abs_Q>
0

> <r_epik_Metal_State_Penalty>
-0

> <b_epik_Metal_Only>
0

> <s_lp_Force_Field>
OPLS_2005

> <r_lp_Energy>
31.2775

> <b_lp_Chiralities_Consistent>
1

> <s_lp_Variant>
AV-unprocessed.smi:2067-4

> <Gold.Version>
5.8.1

> <Gold.Id.Protein>
6NUR|6NUR_protein|mol2

> <Gold.PLP.Fitness>
40.9274

> <Gold.PLP.PLP>
-36.0065

> <Gold.PLP.part.hbond>
-2.6813

> <Gold.PLP.part.metal>
0.0000

> <Gold.PLP.part.buried>
-2.7557

> <Gold.PLP.part.nonpolar>
-31.9887

> <Gold.PLP.part.repulsive>
0.1211

> <Gold.PLP.ligand.clash>
10.7747

> <Gold.PLP.ligand.torsion>
0.2340

> <Gold.PLP.Chemscore.Hbond>
1.7913

> <Gold.PLP.Chemscore.CHOScore>
0.0000

> <Gold.PLP.Chemscore.Metal>
0.0000

> <Gold.Chemscore.Hbonds>
donor molecule, donor type, donor heavy atom, donor atom, acceptor molecule, acceptor atom, score
      L1  H    11    41       P1  7948  0.80
      P1  H  6896  6909       L1    17  1.00

> <Gold.PLP.Chemscore.Internal.Correction>
10.7898

> <Gold.Rescore>
     Score         DG    S(hbond)    S(metal)    S(lipo)     H(rot)  DE(clash)    DE(int)     intcor
      8.82     -11.90       1.01        0.00      64.46       1.76       0.11       2.97       ----

> <Gold.Chemscore.Fitness>
8.8209

> <Gold.Chemscore.DG>
-11.9019

> <Gold.Chemscore.ZeroCoef>
-5.4800

> <Gold.Chemscore.Hbond>
1.0123

> <Gold.Chemscore.Metal>
0.0000

> <Gold.Chemscore.Lipo>
64.4625

> <Gold.Chemscore.Internal_Hbond>
0.0000

> <Gold.Chemscore.DEClash>
0.1079

> <Gold.Chemscore.DEInternal>
2.9732

> <Gold.Chemscore.Rot>
1.7583

> <Gold.Chemscore.Internal.Correction>
   9.000000E+99

> <Gold.Chemscore.Hbonds>
donor molecule, donor type, donor heavy atom, donor atom, acceptor molecule, acceptor atom, score
      L1  H    11    41       P1  7948  0.11
      P1  H  6896  6909       L1    17  0.97

> <Gold.Chemscore.Hbond.Weighted>
-3.3811

> <Gold.Chemscore.Metal.Weighted>
-0.0000

> <Gold.Chemscore.Lipo.Weighted>
-7.5421

> <Gold.Chemscore.Internal_Hbond.Weighted>
0.0000

> <Gold.Chemscore.DEClash.Weighted>
0.1079

> <Gold.Chemscore.DEInternal.Weighted>
2.9732

> <Gold.Chemscore.Rot.Weighted>
4.5012

> <Gold.Chemscore.Internal.Correction.Weighted>
   9.000000E+99

> <Gold.Protein.RotatedTorsions>
[ 6907 6896 6895 6894 ] final  -66.12 input  -60.11 | X-H torsion
[ 7974 7965 7964 7962 ] final   80.02 input  175.53 | X-H torsion
[ 8008 7997 7996 7995 ] final  -67.96 input   59.86 | X-H torsion
[ 10167 10162 10161 10158 ] final -107.04 input  -65.29 | X-H torsion
[ 10718 10713 10712 10709 ] final  170.84 input   66.30 | X-H torsion
[ 10763 10752 10751 10750 ] final -136.58 input  -60.55 | X-H torsion
[ 11005 11000 10999 10996 ] final   29.54 input  -57.11 | X-H torsion

> <Gold.Protein.ActiveResidues>
 VAL166  LYS551  ARG553  GLY616  TRP617  ASP618  TYR619  PRO620  LYS621  CYS622 
 ASP623  PHE694  ASN695  SER759  ASP760  ASP761  ALA762  ILE779  LEU786  VAL792 
 PHE793  MET794  SER795  GLU796  ALA797  LYS798  CYS799  TRP800  GLU811  SER814 

> <Gold.Protein.RotatedAtoms>
  150.7484  134.6065  159.6063 H   0  0  0  0  0  0  0  0  0  0  0  0  # atno 6907 bound_to 6896
  152.3412  134.7129  160.0272 H   0  0  0  0  0  0  0  0  0  0  0  0  # atno 6908 bound_to 6896
  151.7581  133.3296  159.3446 H   0  0  0  0  0  0  0  0  0  0  0  0  # atno 6909 bound_to 6896
  145.6566  139.2461  143.1946 H   0  0  0  0  0  0  0  0  0  0  0  0  # atno 7974 bound_to 7965
  154.4835  140.0882  156.7432 H   0  0  0  0  0  0  0  0  0  0  0  0  # atno 8008 bound_to 7997
  155.4410  140.3453  155.4272 H   0  0  0  0  0  0  0  0  0  0  0  0  # atno 8009 bound_to 7997
  156.1226  140.1478  156.9170 H   0  0  0  0  0  0  0  0  0  0  0  0  # atno 8010 bound_to 7997
  140.1813  143.3965  152.1279 H   0  0  0  0  0  0  0  0  0  0  0  0  # atno 10167 bound_to 10162
  157.0023  131.0179  151.2827 H   0  0  0  0  0  0  0  0  0  0  0  0  # atno 10718 bound_to 10713
  154.8681  135.3668  154.5084 H   0  0  0  0  0  0  0  0  0  0  0  0  # atno 10763 bound_to 10752
  153.5721  135.7020  153.5505 H   0  0  0  0  0  0  0  0  0  0  0  0  # atno 10764 bound_to 10752
  153.3533  135.4066  155.1625 H   0  0  0  0  0  0  0  0  0  0  0  0  # atno 10765 bound_to 10752
  140.3038  134.2726  155.7748 H   0  0  0  0  0  0  0  0  0  0  0  0  # atno 11005 bound_to 11000
  146.1160  140.7369  142.9480 LP  0  0  0  0  0  0  0  0  0  0  0  0  # atno 17320 bound_to 7965
  144.7103  140.4015  143.7085 LP  0  0  0  0  0  0  0  0  0  0  0  0  # atno 17321 bound_to 7965
  139.5295  144.7142  151.5107 LP  0  0  0  0  0  0  0  0  0  0  0  0  # atno 17342 bound_to 10162
  140.6518  143.8681  150.6793 LP  0  0  0  0  0  0  0  0  0  0  0  0  # atno 17343 bound_to 10162
  157.5381  130.8102  149.7996 LP  0  0  0  0  0  0  0  0  0  0  0  0  # atno 17370 bound_to 10713
  156.0166  130.3811  150.2090 LP  0  0  0  0  0  0  0  0  0  0  0  0  # atno 17371 bound_to 10713
  141.2122  133.7664  156.9807 LP  0  0  0  0  0  0  0  0  0  0  0  0  # atno 17394 bound_to 11000
  140.1085  134.9491  157.2030 LP  0  0  0  0  0  0  0  0  0  0  0  0  # atno 17395 bound_to 11000

$$$$
