AV-unprocessed.smi:1535|AV-procd|sdf|6181|dock10
  -GOLD-   22720 6343D 1   1.00000     0.00000
 Structure written by MMmdl.
 47 48  0  0  0  0  0  0  0  0  2 V2000
  153.0142  141.2911  159.4268 C   0  0  0  0  0  0  0  0  0  0  0  0
  152.0204  141.2992  158.2786 C   0  0  0  0  0  0  0  0  0  0  0  0
  152.1574  140.3457  157.2445 C   0  0  0  0  0  0  0  0  0  0  0  0
  151.2551  140.3200  156.1586 C   0  0  0  0  0  0  0  0  0  0  0  0
  151.2000  139.4878  155.0536 N   0  0  0  0  0  0  0  0  0  0  0  0
  150.1393  139.9663  154.4097 C   0  0  0  0  0  0  0  0  0  0  0  0
  149.5020  141.0151  154.9657 N   0  0  0  0  0  0  0  0  0  0  0  0
  148.3330  141.7073  154.4536 C   0  0  0  0  0  0  0  0  0  0  0  0
  147.1370  140.7592  154.2421 C   0  0  1  0  0  0  0  0  0  0  0  0
  145.9959  141.5152  153.8826 O   0  0  0  0  0  0  0  0  0  0  0  0
  147.4103  139.7189  153.1379 C   0  0  0  0  0  0  0  0  0  0  0  0
  146.1946  138.9347  152.8035 N   0  3  1  0  0  0  0  0  0  0  0  0
  146.3533  138.1629  151.5496 C   0  0  0  0  0  0  0  0  0  0  0  0
  145.7073  138.0953  153.9292 C   0  0  0  0  0  0  0  0  0  0  0  0
  144.6021  137.1187  153.4881 C   0  0  2  0  0  0  0  0  0  0  0  0
  143.1970  137.7099  153.6787 C   0  0  0  0  0  0  0  0  0  0  0  0
  144.7252  135.8413  154.2079 C   0  0  0  0  0  0  0  0  0  0  0  0
  144.8221  134.8366  154.7725 N   0  0  0  0  0  0  0  0  0  0  0  0
  150.2046  141.2835  156.1350 C   0  0  0  0  0  0  0  0  0  0  0  0
  150.0563  142.2358  157.1587 C   0  0  0  0  0  0  0  0  0  0  0  0
  150.9650  142.2457  158.2375 C   0  0  0  0  0  0  0  0  0  0  0  0
  150.7943  143.2762  159.3399 C   0  0  0  0  0  0  0  0  0  0  0  0
  153.7961  140.5471  159.2714 H   0  0  0  0  0  0  0  0  0  0  0  0
  152.5103  141.0568  160.3648 H   0  0  0  0  0  0  0  0  0  0  0  0
  153.4953  142.2643  159.5252 H   0  0  0  0  0  0  0  0  0  0  0  0
  152.9597  139.6232  157.2769 H   0  0  0  0  0  0  0  0  0  0  0  0
  149.8089  139.5314  153.4775 H   0  0  0  0  0  0  0  0  0  0  0  0
  148.0695  142.5115  155.1425 H   0  0  0  0  0  0  0  0  0  0  0  0
  148.6091  142.1817  153.5111 H   0  0  0  0  0  0  0  0  0  0  0  0
  146.9192  140.2578  155.1850 H   0  0  0  0  0  0  0  0  0  0  0  0
  145.3934  140.9543  153.4176 H   0  0  0  0  0  0  0  0  0  0  0  0
  147.7783  140.2401  152.2523 H   0  0  0  0  0  0  0  0  0  0  0  0
  148.2059  139.0344  153.4374 H   0  0  0  0  0  0  0  0  0  0  0  0
  147.1525  137.4262  151.6424 H   0  0  0  0  0  0  0  0  0  0  0  0
  146.5954  138.8256  150.7181 H   0  0  0  0  0  0  0  0  0  0  0  0
  145.4340  137.6383  151.2904 H   0  0  0  0  0  0  0  0  0  0  0  0
  146.5477  137.5504  154.3628 H   0  0  0  0  0  0  0  0  0  0  0  0
  145.3150  138.7166  154.7346 H   0  0  0  0  0  0  0  0  0  0  0  0
  144.7354  136.8688  152.4357 H   0  0  0  0  0  0  0  0  0  0  0  0
  142.4306  136.9974  153.3734 H   0  0  0  0  0  0  0  0  0  0  0  0
  143.0587  138.6139  153.0849 H   0  0  0  0  0  0  0  0  0  0  0  0
  143.0144  137.9650  154.7231 H   0  0  0  0  0  0  0  0  0  0  0  0
  149.2494  142.9521  157.1145 H   0  0  0  0  0  0  0  0  0  0  0  0
  149.8842  143.8603  159.2004 H   0  0  0  0  0  0  0  0  0  0  0  0
  151.6387  143.9657  159.3501 H   0  0  0  0  0  0  0  0  0  0  0  0
  150.7311  142.7902  160.3138 H   0  0  0  0  0  0  0  0  0  0  0  0
  145.4759  139.6220  152.6240 H   0  0  0  0  0  0  0  0  0  0  0  0
  1  2  1  0  0  0  0
  1 23  1  0  0  0  0
  1 24  1  0  0  0  0
  1 25  1  0  0  0  0
  2 21  1  0  0  0  0
  2  3  2  0  0  0  0
  3  4  1  0  0  0  0
  3 26  1  0  0  0  0
  4 19  2  0  0  0  0
  4  5  1  0  0  0  0
  5  6  2  0  0  0  0
  6  7  1  0  0  0  0
  6 27  1  0  0  0  0
  7  8  1  0  0  0  0
  7 19  1  0  0  0  0
  8  9  1  0  0  0  0
  8 28  1  0  0  0  0
  8 29  1  0  0  0  0
  9 10  1  0  0  0  0
  9 11  1  0  0  0  0
  9 30  1  0  0  0  0
 10 31  1  0  0  0  0
 11 12  1  0  0  0  0
 11 32  1  0  0  0  0
 11 33  1  0  0  0  0
 12 13  1  0  0  0  0
 12 14  1  0  0  0  0
 12 47  1  0  0  0  0
 13 34  1  0  0  0  0
 13 35  1  0  0  0  0
 13 36  1  0  0  0  0
 14 15  1  0  0  0  0
 14 37  1  0  0  0  0
 14 38  1  0  0  0  0
 15 16  1  0  0  0  0
 15 17  1  0  0  0  0
 15 39  1  0  0  0  0
 16 40  1  0  0  0  0
 16 41  1  0  0  0  0
 16 42  1  0  0  0  0
 17 18  3  0  0  0  0
 19 20  1  0  0  0  0
 20 21  2  0  0  0  0
 20 43  1  0  0  0  0
 21 22  1  0  0  0  0
 22 44  1  0  0  0  0
 22 45  1  0  0  0  0
 22 46  1  0  0  0  0
M  CHG  1  12   1
M  END
> <s_m_source_file>
AV-unprocessed.smi

> <i_m_source_file_index>
1535

> <i_lp_mmshare_version>
43012

> <i_f3d_flags>
0

> <s_epik_input>
W0NIM11jKFtjSF0xKWMoW0NIM10pW2NIXWMoYzEyKW4oW2NIXW4yKVtDSDJdW0NASF0oW09IXSlbQ0gyXU4oW0NIM10pW0NIMl1bQ0BIXShbQ0gzXSlDI04=

> <s_epik_cmdline>
J2VwaWtfcHl0aG9uJywgJy1waCcsICc3LjAnLCAnLXRuJywgJzgnLCAnLW1hJywgJzIwMCcsICctbWV0YWxfYmluZGluZycsICctaW1hZScsICc8aW5maWxlLm1hZT4nLCAnLW9tYWUnLCAnPG91dGZpbGUubWFlPic=

> <r_epik_Ionization_Penalty>
2.21058

> <r_epik_Ionization_Penalty_Charging>
2.12381

> <r_epik_Ionization_Penalty_Neutral>
0.0867699

> <r_epik_State_Penalty>
2.36208

> <r_epik_Charging_Adjusted_Penalty>
4.48589

> <i_epik_Tot_Q>
1

> <i_epik_Tot_abs_Q>
1

> <r_epik_Metal_State_Penalty>
2.2818

> <b_epik_Metal_Only>
0

> <s_lp_Force_Field>
OPLS_2005

> <r_lp_Energy>
17.3963

> <b_lp_Chiralities_Consistent>
1

> <s_lp_Variant>
AV-unprocessed.smi:1535-12

> <Gold.Version>
5.8.1

> <Gold.Id.Protein>
6NUR|6NUR_protein|mol2

> <Gold.PLP.Fitness>
45.2188

> <Gold.PLP.PLP>
-34.3805

> <Gold.PLP.part.hbond>
-2.3745

> <Gold.PLP.part.metal>
0.0000

> <Gold.PLP.part.buried>
1.5440

> <Gold.PLP.part.nonpolar>
-32.5136

> <Gold.PLP.part.repulsive>
0.1003

> <Gold.PLP.ligand.clash>
0.0000

> <Gold.PLP.ligand.torsion>
0.6714

> <Gold.PLP.Chemscore.Hbond>
3.0000

> <Gold.PLP.Chemscore.CHOScore>
1.0000

> <Gold.PLP.Chemscore.Metal>
0.0000

> <Gold.Chemscore.Hbonds>
donor molecule, donor type, donor heavy atom, donor atom, acceptor molecule, acceptor atom, score
      L1  H    10    31       P1 10175  1.00
      L1  H    12    47       P1 10175  2.00
      L1  C     6    27       P1  7957  1.00

> <Gold.PLP.Chemscore.Internal.Correction>
0.1811

> <Gold.Rescore>
     Score         DG    S(hbond)    S(metal)    S(lipo)     H(rot)  DE(clash)    DE(int)     intcor
     13.61     -15.66       1.80        0.00      92.51       2.60       1.39       0.65       ----

> <Gold.Chemscore.Fitness>
13.6123

> <Gold.Chemscore.DG>
-15.6578

> <Gold.Chemscore.ZeroCoef>
-5.4800

> <Gold.Chemscore.Hbond>
1.8019

> <Gold.Chemscore.Metal>
0.0000

> <Gold.Chemscore.Lipo>
92.5072

> <Gold.Chemscore.Internal_Hbond>
0.0000

> <Gold.Chemscore.DEClash>
1.3921

> <Gold.Chemscore.DEInternal>
0.6534

> <Gold.Chemscore.Rot>
2.6031

> <Gold.Chemscore.Internal.Correction>
   9.000000E+99

> <Gold.Chemscore.Hbonds>
donor molecule, donor type, donor heavy atom, donor atom, acceptor molecule, acceptor atom, score
      L1  H    10    31       P1 10175  0.62
      L1  H    12    47       P1 10175  0.97

> <Gold.Chemscore.Hbond.Weighted>
-6.0184

> <Gold.Chemscore.Metal.Weighted>
-0.0000

> <Gold.Chemscore.Lipo.Weighted>
-10.8233

> <Gold.Chemscore.Internal_Hbond.Weighted>
0.0000

> <Gold.Chemscore.DEClash.Weighted>
1.3921

> <Gold.Chemscore.DEInternal.Weighted>
0.6534

> <Gold.Chemscore.Rot.Weighted>
6.6640

> <Gold.Chemscore.Internal.Correction.Weighted>
   9.000000E+99

> <Gold.Protein.RotatedTorsions>
[ 6907 6896 6895 6894 ] final  139.10 input  -60.11 | X-H torsion
[ 7974 7965 7964 7962 ] final  -97.64 input  175.53 | X-H torsion
[ 8008 7997 7996 7995 ] final  145.37 input   59.86 | X-H torsion
[ 10167 10162 10161 10158 ] final  -41.82 input  -65.29 | X-H torsion
[ 10718 10713 10712 10709 ] final   88.71 input   66.30 | X-H torsion
[ 10763 10752 10751 10750 ] final  110.60 input  -60.55 | X-H torsion
[ 11005 11000 10999 10996 ] final  162.97 input  -57.11 | X-H torsion

> <Gold.Protein.ActiveResidues>
 VAL166  LYS551  ARG553  GLY616  TRP617  ASP618  TYR619  PRO620  LYS621  CYS622 
 ASP623  PHE694  ASN695  SER759  ASP760  ASP761  ALA762  ILE779  LEU786  VAL792 
 PHE793  MET794  SER795  GLU796  ALA797  LYS798  CYS799  TRP800  GLU811  SER814 

> <Gold.Protein.RotatedAtoms>
  152.2589  133.5280  159.5369 H   0  0  0  0  0  0  0  0  0  0  0  0  # atno 6907 bound_to 6896
  150.7118  134.0857  159.3923 H   0  0  0  0  0  0  0  0  0  0  0  0  # atno 6908 bound_to 6896
  151.8775  135.0466  160.0536 H   0  0  0  0  0  0  0  0  0  0  0  0  # atno 6909 bound_to 6896
  145.3311  140.9441  143.2661 H   0  0  0  0  0  0  0  0  0  0  0  0  # atno 7974 bound_to 7965
  156.2885  140.2211  156.5203 H   0  0  0  0  0  0  0  0  0  0  0  0  # atno 8008 bound_to 7997
  154.7534  140.0478  157.0934 H   0  0  0  0  0  0  0  0  0  0  0  0  # atno 8009 bound_to 7997
  155.0081  140.3109  155.4843 H   0  0  0  0  0  0  0  0  0  0  0  0  # atno 8010 bound_to 7997
  140.6990  143.3073  151.3121 H   0  0  0  0  0  0  0  0  0  0  0  0  # atno 10167 bound_to 10162
  157.6951  131.0305  150.3316 H   0  0  0  0  0  0  0  0  0  0  0  0  # atno 10718 bound_to 10713
  153.4512  135.3743  155.2285 H   0  0  0  0  0  0  0  0  0  0  0  0  # atno 10763 bound_to 10752
  154.8756  135.3886  154.4036 H   0  0  0  0  0  0  0  0  0  0  0  0  # atno 10764 bound_to 10752
  153.4595  135.7086  153.6123 H   0  0  0  0  0  0  0  0  0  0  0  0  # atno 10765 bound_to 10752
  140.2311  134.8123  157.3318 H   0  0  0  0  0  0  0  0  0  0  0  0  # atno 11005 bound_to 11000
  144.8863  139.4834  143.6699 LP  0  0  0  0  0  0  0  0  0  0  0  0  # atno 17320 bound_to 7965
  146.3045  139.7534  142.9066 LP  0  0  0  0  0  0  0  0  0  0  0  0  # atno 17321 bound_to 7965
  139.6483  144.0410  152.2607 LP  0  0  0  0  0  0  0  0  0  0  0  0  # atno 17342 bound_to 10162
  139.9938  144.6342  150.7790 LP  0  0  0  0  0  0  0  0  0  0  0  0  # atno 17343 bound_to 10162
  156.3789  130.3877  149.7117 LP  0  0  0  0  0  0  0  0  0  0  0  0  # atno 17370 bound_to 10713
  156.4506  130.7905  151.2926 LP  0  0  0  0  0  0  0  0  0  0  0  0  # atno 17371 bound_to 10713
  140.1749  134.4562  155.7808 LP  0  0  0  0  0  0  0  0  0  0  0  0  # atno 17394 bound_to 11000
  141.2217  133.6958  156.7771 LP  0  0  0  0  0  0  0  0  0  0  0  0  # atno 17395 bound_to 11000

$$$$
