AV-unprocessed.smi:114|AV-procd|sdf|1116|dock2
  -GOLD-   2262018233D 1   1.00000     0.00000
 Structure written by MMmdl.
 32 34  0  0  0  0  0  0  0  0  1 V2000
  154.2528  137.8253  156.4120 N   0  0  0  0  0  0  0  0  0  0  0  0
  152.9345  137.6432  156.2519 C   0  0  0  0  0  0  0  0  0  0  0  0
  152.4423  136.3845  156.3321 N   0  0  0  0  0  0  0  0  0  0  0  0
  151.1315  136.1590  156.1758 C   0  0  0  0  0  0  0  0  0  0  0  0
  150.7281  134.8704  156.2705 F   0  0  0  0  0  0  0  0  0  0  0  0
  150.1752  137.0632  155.9351 N   0  0  0  0  0  0  0  0  0  0  0  0
  150.6703  138.3320  155.8562 C   0  0  0  0  0  0  0  0  0  0  0  0
  152.0321  138.7053  156.0009 C   0  0  0  0  0  0  0  0  0  0  0  0
  152.1631  140.0798  155.8549 N   0  0  0  0  0  0  0  0  0  0  0  0
  150.9421  140.4908  155.6344 C   0  0  0  0  0  0  0  0  0  0  0  0
  149.9817  139.5000  155.6155 N   0  0  0  0  0  0  0  0  0  0  0  0
  148.5032  139.6083  155.3941 C   0  0  1  0  0  0  0  0  0  0  0  0
  148.1697  140.9615  155.3011 O   0  0  0  0  0  0  0  0  0  0  0  0
  147.9427  141.3110  153.9397 C   0  0  2  0  0  0  0  0  0  0  0  0
  147.0811  142.5802  153.8648 C   0  0  0  0  0  0  0  0  0  0  0  0
  145.9674  142.4560  154.7232 O   0  0  0  0  0  0  0  0  0  0  0  0
  147.2402  140.0548  153.4253 C   0  0  1  0  0  0  0  0  0  0  0  0
  147.2028  139.9787  152.0121 O   0  0  0  0  0  0  0  0  0  0  0  0
  148.0478  138.9350  154.0768 C   0  0  1  0  0  0  0  0  0  0  0  0
  149.1195  138.4956  153.2543 O   0  0  0  0  0  0  0  0  0  0  0  0
  148.0564  139.1731  156.2889 H   0  0  0  0  0  0  0  0  0  0  0  0
  148.8931  141.4440  153.4188 H   0  0  0  0  0  0  0  0  0  0  0  0
  146.2184  140.0268  153.8072 H   0  0  0  0  0  0  0  0  0  0  0  0
  147.4171  138.0760  154.3076 H   0  0  0  0  0  0  0  0  0  0  0  0
  154.6407  138.7562  156.3546 H   0  0  0  0  0  0  0  0  0  0  0  0
  154.8547  137.0340  156.5885 H   0  0  0  0  0  0  0  0  0  0  0  0
  150.7136  141.5351  155.4791 H   0  0  0  0  0  0  0  0  0  0  0  0
  147.6557  143.4449  154.1979 H   0  0  0  0  0  0  0  0  0  0  0  0
  146.7549  142.7809  152.8439 H   0  0  0  0  0  0  0  0  0  0  0  0
  145.2793  143.0208  154.4065 H   0  0  0  0  0  0  0  0  0  0  0  0
  148.0503  140.2277  151.6764 H   0  0  0  0  0  0  0  0  0  0  0  0
  148.8148  137.7715  152.7287 H   0  0  0  0  0  0  0  0  0  0  0  0
  1  2  1  0  0  0  0
  1 25  1  0  0  0  0
  1 26  1  0  0  0  0
  2  8  1  0  0  0  0
  2  3  2  0  0  0  0
  3  4  1  0  0  0  0
  4  5  1  0  0  0  0
  4  6  2  0  0  0  0
  6  7  1  0  0  0  0
  7 11  1  0  0  0  0
  7  8  2  0  0  0  0
  8  9  1  0  0  0  0
  9 10  2  0  0  0  0
 10 11  1  0  0  0  0
 10 27  1  0  0  0  0
 11 12  1  0  0  0  0
 12 21  1  0  0  0  0
 12 19  1  0  0  0  0
 12 13  1  0  0  0  0
 13 14  1  0  0  0  0
 14 22  1  0  0  0  0
 14 15  1  0  0  0  0
 14 17  1  0  0  0  0
 15 16  1  0  0  0  0
 15 28  1  0  0  0  0
 15 29  1  0  0  0  0
 16 30  1  0  0  0  0
 17 23  1  0  0  0  0
 17 18  1  0  0  0  0
 17 19  1  0  0  0  0
 18 31  1  0  0  0  0
 19 24  1  0  0  0  0
 19 20  1  0  0  0  0
 20 32  1  0  0  0  0
M  END
> <s_m_source_file>
AV-unprocessed.smi

> <i_m_source_file_index>
114

> <i_lp_mmshare_version>
43012

> <i_f3d_flags>
0

> <s_epik_input>
RmMobjEpbmMoW05IMl0pYyhjMTIpbltjSF1uMltDQEBIXTNPW0NASF0oW0NIMl1bT0hdKVtDQEBIXShbT0hdKVtDQEBIXTNbT0hd

> <s_epik_cmdline>
J2VwaWtfcHl0aG9uJywgJy1waCcsICc3LjAnLCAnLXRuJywgJzgnLCAnLW1hJywgJzIwMCcsICctbWV0YWxfYmluZGluZycsICctaW1hZScsICc8aW5maWxlLm1hZT4nLCAnLW9tYWUnLCAnPG91dGZpbGUubWFlPic=

> <r_lp_tautomer_probability>
1

> <r_epik_Ionization_Penalty>
1.13199e-05

> <r_epik_Ionization_Penalty_Charging>
0

> <r_epik_Ionization_Penalty_Neutral>
1.13199e-05

> <r_epik_State_Penalty>
-0

> <r_epik_Charging_Adjusted_Penalty>
0

> <i_epik_Tot_Q>
0

> <i_epik_Tot_abs_Q>
0

> <r_epik_Metal_State_Penalty>
-0

> <b_epik_Metal_Only>
0

> <s_epik_Chemistry_Notes>
This compound contains an acetal/aminal-like group ( X-CH(R)-Y where X, Y are N, S, or O) that may be acid/base labile, releasing an aldehyde.

> <s_lp_Force_Field>
OPLS_2005

> <r_lp_Energy>
42.7446

> <b_lp_Chiralities_Consistent>
1

> <s_lp_Variant>
AV-unprocessed.smi:114-10

> <Gold.Version>
5.8.1

> <Gold.Id.Protein>
6NUR|6NUR_protein|mol2

> <Gold.PLP.Fitness>
34.8904

> <Gold.PLP.PLP>
-24.7039

> <Gold.PLP.part.hbond>
-4.5767

> <Gold.PLP.part.metal>
0.0000

> <Gold.PLP.part.buried>
-4.3073

> <Gold.PLP.part.nonpolar>
-17.7975

> <Gold.PLP.part.repulsive>
1.9880

> <Gold.PLP.ligand.clash>
0.0000

> <Gold.PLP.ligand.torsion>
0.1081

> <Gold.PLP.Chemscore.Hbond>
3.4420

> <Gold.PLP.Chemscore.CHOScore>
0.0000

> <Gold.PLP.Chemscore.Metal>
0.0000

> <Gold.Chemscore.Hbonds>
donor molecule, donor type, donor heavy atom, donor atom, acceptor molecule, acceptor atom, score
      L1  H    18    31       P1  7957  1.00
      L1  H    20    32       P1  7948  1.00
      P1  H  7997  8010       L1     9  0.47
      P1  H 10752 10764       L1     3  1.00

> <Gold.PLP.Chemscore.Internal.Correction>
0.0767

> <Gold.Rescore>
     Score         DG    S(hbond)    S(metal)    S(lipo)     H(rot)  DE(clash)    DE(int)     intcor
      5.79      -7.38       2.50        0.00      32.99       4.03       0.41       1.18       ----

> <Gold.Chemscore.Fitness>
5.7914

> <Gold.Chemscore.DG>
-7.3787

> <Gold.Chemscore.ZeroCoef>
-5.4800

> <Gold.Chemscore.Hbond>
2.4999

> <Gold.Chemscore.Metal>
0.0000

> <Gold.Chemscore.Lipo>
32.9909

> <Gold.Chemscore.Internal_Hbond>
0.0000

> <Gold.Chemscore.DEClash>
0.4051

> <Gold.Chemscore.DEInternal>
1.1823

> <Gold.Chemscore.Rot>
4.0277

> <Gold.Chemscore.Internal.Correction>
   9.000000E+99

> <Gold.Chemscore.Hbonds>
donor molecule, donor type, donor heavy atom, donor atom, acceptor molecule, acceptor atom, score
      L1  H    18    31       P1  7957  0.98
      L1  H    20    32       P1  7948  0.98
      P1  H  7997  8010       L1     9  0.08
      P1  H 10752 10764       L1     3  0.18

> <Gold.Chemscore.Hbond.Weighted>
-8.3498

> <Gold.Chemscore.Metal.Weighted>
-0.0000

> <Gold.Chemscore.Lipo.Weighted>
-3.8599

> <Gold.Chemscore.Internal_Hbond.Weighted>
0.0000

> <Gold.Chemscore.DEClash.Weighted>
0.4051

> <Gold.Chemscore.DEInternal.Weighted>
1.1823

> <Gold.Chemscore.Rot.Weighted>
10.3110

> <Gold.Chemscore.Internal.Correction.Weighted>
   9.000000E+99

> <Gold.Protein.RotatedTorsions>
[ 6907 6896 6895 6894 ] final -133.22 input  -60.11 | X-H torsion
[ 7974 7965 7964 7962 ] final  -42.45 input  175.53 | X-H torsion
[ 8008 7997 7996 7995 ] final   86.14 input   59.86 | X-H torsion
[ 10167 10162 10161 10158 ] final  -23.94 input  -65.29 | X-H torsion
[ 10718 10713 10712 10709 ] final  -29.55 input   66.30 | X-H torsion
[ 10763 10752 10751 10750 ] final  -35.47 input  -60.55 | X-H torsion
[ 11005 11000 10999 10996 ] final  -43.32 input  -57.11 | X-H torsion

> <Gold.Protein.ActiveResidues>
 VAL166  LYS551  ARG553  GLY616  TRP617  ASP618  TYR619  PRO620  LYS621  CYS622 
 ASP623  PHE694  ASN695  SER759  ASP760  ASP761  ALA762  ILE779  LEU786  VAL792 
 PHE793  MET794  SER795  GLU796  ALA797  LYS798  CYS799  TRP800  GLU811  SER814 

> <Gold.Protein.RotatedAtoms>
  150.9714  133.6339  159.2737 H   0  0  0  0  0  0  0  0  0  0  0  0  # atno 6907 bound_to 6896
  151.3627  135.0906  159.9449 H   0  0  0  0  0  0  0  0  0  0  0  0  # atno 6908 bound_to 6896
  152.5184  133.9285  159.7623 H   0  0  0  0  0  0  0  0  0  0  0  0  # atno 6909 bound_to 6896
  146.0114  140.6959  142.9222 H   0  0  0  0  0  0  0  0  0  0  0  0  # atno 7974 bound_to 7965
  155.9589  140.3395  155.6473 H   0  0  0  0  0  0  0  0  0  0  0  0  # atno 8008 bound_to 7997
  155.6823  140.0739  157.2498 H   0  0  0  0  0  0  0  0  0  0  0  0  # atno 8009 bound_to 7997
  154.4138  140.1672  156.1984 H   0  0  0  0  0  0  0  0  0  0  0  0  # atno 8010 bound_to 7997
  140.7288  143.4398  151.0675 H   0  0  0  0  0  0  0  0  0  0  0  0  # atno 10167 bound_to 10162
  156.4110  130.4408  149.7252 H   0  0  0  0  0  0  0  0  0  0  0  0  # atno 10718 bound_to 10713
  153.8637  135.6837  153.4780 H   0  0  0  0  0  0  0  0  0  0  0  0  # atno 10763 bound_to 10752
  153.1327  135.4691  154.9372 H   0  0  0  0  0  0  0  0  0  0  0  0  # atno 10764 bound_to 10752
  154.7747  135.3249  154.8067 H   0  0  0  0  0  0  0  0  0  0  0  0  # atno 10765 bound_to 10752
  141.0376  133.6793  156.2717 H   0  0  0  0  0  0  0  0  0  0  0  0  # atno 11005 bound_to 11000
  144.6954  140.3406  143.7200 LP  0  0  0  0  0  0  0  0  0  0  0  0  # atno 17320 bound_to 7965
  145.7335  139.1743  143.2416 LP  0  0  0  0  0  0  0  0  0  0  0  0  # atno 17321 bound_to 7965
  139.8063  143.8012  152.3167 LP  0  0  0  0  0  0  0  0  0  0  0  0  # atno 17342 bound_to 10162
  139.8047  144.7360  150.9778 LP  0  0  0  0  0  0  0  0  0  0  0  0  # atno 17343 bound_to 10162
  156.4230  130.7778  151.2796 LP  0  0  0  0  0  0  0  0  0  0  0  0  # atno 17370 bound_to 10713
  157.7507  131.0177  150.3596 LP  0  0  0  0  0  0  0  0  0  0  0  0  # atno 17371 bound_to 10713
  140.6294  134.5279  157.5557 LP  0  0  0  0  0  0  0  0  0  0  0  0  # atno 17394 bound_to 11000
  139.9252  134.8071  156.1091 LP  0  0  0  0  0  0  0  0  0  0  0  0  # atno 17395 bound_to 11000

$$$$
