#       Name:                AV-unprocessed.smi:2940
#       Creating user name   scv26
#       Creation time:       Fri Mar 27 16:15:33 2020


#       File generated by GOLD software.
#

@<TRIPOS>MOLECULE
AV-unprocessed.smi:2940
    30    31     1
SMALL
NO_CHARGES


@<TRIPOS>ATOM
      1 ****        -4.5249   0.7609  -0.0045 N.pl3          1 S1                 0.0000
      2 ****        -3.1356   0.6543  -0.0054 C.ar           1 S1                 0.0000
      3 ****        -2.2982   1.7890  -0.0072 C.ar           1 S1                 0.0000
      4 ****        -0.8991   1.6108  -0.0077 C.ar           1 S1                 0.0000
      5 ****        -0.3622   0.3049  -0.0068 C.ar           1 S1                 0.0000
      6 ****         1.0284   0.1308  -0.0057 N.3            1 S1                 0.0000
      7 ****         1.5324  -0.4837   1.2165 C.3            1 S1                 0.0000
      8 ****         3.0702  -0.5328   1.1871 C.3            1 S1                 0.0000
      9 ****         3.5030  -1.2196   0.0162 O.3            1 S1                 0.0000
     10 ****         3.0714  -0.5686  -1.1754 C.3            1 S1                 0.0000
     11 ****         1.5336  -0.5215  -1.2078 C.3            1 S1                 0.0000
     12 ****        -1.2539  -0.7934  -0.0049 C.ar           1 S1                 0.0000
     13 ****        -2.5883  -0.5808  -0.0042 N.pl3          1 S1                 1.0000
     14 ****        -5.1169  -0.0575  -0.0030 H              1 S1                 0.0000
     15 ****        -4.9878   1.6586  -0.0038 H              1 S1                 0.0000
     16 ****        -2.7174   2.7848  -0.0080 H              1 S1                 0.0000
     17 ****        -0.2449   2.4706  -0.0088 H              1 S1                 0.0000
     18 ****         1.1934   0.0836   2.0843 H              1 S1                 0.0000
     19 ****         1.1341  -1.4945   1.3150 H              1 S1                 0.0000
     20 ****         3.4927   0.4732   1.2088 H              1 S1                 0.0000
     21 ****         3.4472  -1.0558   2.0660 H              1 S1                 0.0000
     22 ****         3.4933   0.4364  -1.2269 H              1 S1                 0.0000
     23 ****         3.4497  -1.1177  -2.0376 H              1 S1                 0.0000
     24 ****         1.1365  -1.5353  -1.2754 H              1 S1                 0.0000
     25 ****         1.1950   0.0184  -2.0930 H              1 S1                 0.0000
     26 ****        -0.9437  -1.8284  -0.0031 H              1 S1                 0.0000
     27 ****        -3.2077  -1.3914  -0.0026 H              1 S1                 0.0000
     28 ****         1.4021   1.0583  -0.0219 LP             1 S1                 0.0000
     29 ****         3.1305  -2.1475   0.0301 LP             1 S1                 0.0000
     30 ****         4.5021  -1.2614   0.0174 LP             1 S1                 0.0000
@<TRIPOS>BOND
    1    1    2 1     
    2    1   14 1     
    3    1   15 1     
    4    2   13 ar    
    5    2    3 ar    
    6    3    4 ar    
    7    3   16 1     
    8    4    5 ar    
    9    4   17 1     
   10    5    6 1     
   11    5   12 ar    
   12    6   11 1     
   13    6    7 1     
   14    7    8 1     
   15    7   18 1     
   16    7   19 1     
   17    8    9 1     
   18    8   20 1     
   19    8   21 1     
   20    9   10 1     
   21   10   11 1     
   22   10   22 1     
   23   10   23 1     
   24   11   24 1     
   25   11   25 1     
   26   12   13 ar    
   27   12   26 1     
   28   13   27 1     
   29    6   28 1     
   30    9   29 1     
   31    9   30 1     
@<TRIPOS>SUBSTRUCTURE
      1 S1             1
@<TRIPOS>SET
LONE_PAIRS      STATIC     ATOMS    <user>   **** ""
3 28 29 30
DONOR_HYDROGENS      STATIC     ATOMS    <user>   **** ""
3 14 15 27
ATOM$BLUE        STATIC     ATOMS    COLORGROUP SYSTEM
3 28 29 30
ATOM$RED        STATIC     ATOMS    COLORGROUP SYSTEM
3 14 15 27
