AV-unprocessed.smi:1483|AV-procd|sdf|5992|dock3
  -GOLD-   22720 6 83D 1   1.00000     0.00000
 Structure written by MMmdl.
 50 51  0  0  0  0  0  0  0  0  3 V2000
  151.0952  145.2168  159.5191 C   0  0  0  0  0  0  0  0  0  0  0  0
  151.1830  143.8110  158.9640 C   0  0  0  0  0  0  0  0  0  0  0  0
  151.9383  142.7984  159.5936 C   0  0  0  0  0  0  0  0  0  0  0  0
  151.9732  141.5093  159.0225 C   0  0  0  0  0  0  0  0  0  0  0  0
  151.2524  141.2573  157.8339 C   0  0  0  0  0  0  0  0  0  0  0  0
  151.2704  139.8807  157.1935 C   0  0  0  0  0  0  0  0  0  0  0  0
  150.5018  139.9022  155.8722 C   0  0  0  0  0  0  0  0  0  0  0  0
  151.0467  140.3300  154.8555 O   0  0  0  0  0  0  0  0  0  0  0  0
  149.2464  139.4276  155.9039 N   0  0  0  0  0  0  0  0  0  0  0  0
  148.3386  139.3231  154.7612 C   0  0  2  0  0  0  0  0  0  0  0  0
  148.2894  140.6457  153.9769 C   0  0  0  0  0  0  0  0  0  0  0  0
  147.5546  141.7535  154.7530 C   0  0  0  0  0  0  0  0  0  0  0  0
  146.1871  141.3202  155.1451 N   0  3  2  0  0  0  0  0  0  0  0  0
  145.3890  142.3999  155.7824 C   0  0  0  0  0  0  0  0  0  0  0  0
  144.5163  143.1814  154.7765 C   0  0  0  0  0  0  0  0  0  0  0  0
  145.3844  143.7752  153.6568 C   0  0  0  0  0  0  0  0  0  0  0  0
  143.6988  144.2877  155.4648 C   0  0  0  0  0  0  0  0  0  0  0  0
  146.2217  140.0848  155.9697 C   0  0  0  0  0  0  0  0  0  0  0  0
  146.9246  138.9347  155.2258 C   0  0  0  0  0  0  0  0  0  0  0  0
  150.5126  142.3093  157.2504 C   0  0  0  0  0  0  0  0  0  0  0  0
  150.5055  143.5305  157.8280 N   0  3  0  0  0  0  0  0  0  0  0  0
  151.8828  145.3981  160.2511 H   0  0  0  0  0  0  0  0  0  0  0  0
  150.1323  145.3704  160.0070 H   0  0  0  0  0  0  0  0  0  0  0  0
  151.1991  145.9533  158.7215 H   0  0  0  0  0  0  0  0  0  0  0  0
  152.4837  143.0048  160.5032 H   0  0  0  0  0  0  0  0  0  0  0  0
  152.5482  140.7251  159.4929 H   0  0  0  0  0  0  0  0  0  0  0  0
  152.2977  139.5535  157.0265 H   0  0  0  0  0  0  0  0  0  0  0  0
  150.8157  139.1560  157.8703 H   0  0  0  0  0  0  0  0  0  0  0  0
  148.8937  139.1035  156.7926 H   0  0  0  0  0  0  0  0  0  0  0  0
  148.6920  138.5444  154.0832 H   0  0  0  0  0  0  0  0  0  0  0  0
  149.2984  140.9716  153.7210 H   0  0  0  0  0  0  0  0  0  0  0  0
  147.7767  140.4785  153.0287 H   0  0  0  0  0  0  0  0  0  0  0  0
  148.1205  142.0295  155.6441 H   0  0  0  0  0  0  0  0  0  0  0  0
  147.5058  142.6438  154.1276 H   0  0  0  0  0  0  0  0  0  0  0  0
  144.7306  141.9706  156.5393 H   0  0  0  0  0  0  0  0  0  0  0  0
  146.0607  143.0746  156.3158 H   0  0  0  0  0  0  0  0  0  0  0  0
  143.8165  142.4961  154.2993 H   0  0  0  0  0  0  0  0  0  0  0  0
  146.1083  144.4891  154.0509 H   0  0  0  0  0  0  0  0  0  0  0  0
  144.7727  144.2955  152.9191 H   0  0  0  0  0  0  0  0  0  0  0  0
  145.9383  142.9969  153.1311 H   0  0  0  0  0  0  0  0  0  0  0  0
  144.3470  145.0034  155.9718 H   0  0  0  0  0  0  0  0  0  0  0  0
  143.0126  143.8767  156.2055 H   0  0  0  0  0  0  0  0  0  0  0  0
  143.0984  144.8392  154.7406 H   0  0  0  0  0  0  0  0  0  0  0  0
  146.7238  140.2905  156.9165 H   0  0  0  0  0  0  0  0  0  0  0  0
  145.2040  139.7767  156.2130 H   0  0  0  0  0  0  0  0  0  0  0  0
  146.3275  138.6584  154.3556 H   0  0  0  0  0  0  0  0  0  0  0  0
  146.9643  138.0469  155.8587 H   0  0  0  0  0  0  0  0  0  0  0  0
  149.9340  142.2125  156.3430 H   0  0  0  0  0  0  0  0  0  0  0  0
  145.7001  141.0746  154.2947 H   0  0  0  0  0  0  0  0  0  0  0  0
  149.9646  144.2748  157.3869 H   0  0  0  0  0  0  0  0  0  0  0  0
  1  2  1  0  0  0  0
  1 22  1  0  0  0  0
  1 23  1  0  0  0  0
  1 24  1  0  0  0  0
  2 21  1  0  0  0  0
  2  3  2  0  0  0  0
  3  4  1  0  0  0  0
  3 25  1  0  0  0  0
  4  5  2  0  0  0  0
  4 26  1  0  0  0  0
  5  6  1  0  0  0  0
  5 20  1  0  0  0  0
  6  7  1  0  0  0  0
  6 27  1  0  0  0  0
  6 28  1  0  0  0  0
  7  8  2  0  0  0  0
  7  9  1  0  0  0  0
  9 10  1  0  0  0  0
  9 29  1  0  0  0  0
 10 19  1  0  0  0  0
 10 11  1  0  0  0  0
 10 30  1  0  0  0  0
 11 12  1  0  0  0  0
 11 31  1  0  0  0  0
 11 32  1  0  0  0  0
 12 13  1  0  0  0  0
 12 33  1  0  0  0  0
 12 34  1  0  0  0  0
 13 14  1  0  0  0  0
 13 18  1  0  0  0  0
 13 49  1  0  0  0  0
 14 15  1  0  0  0  0
 14 35  1  0  0  0  0
 14 36  1  0  0  0  0
 15 16  1  0  0  0  0
 15 17  1  0  0  0  0
 15 37  1  0  0  0  0
 16 38  1  0  0  0  0
 16 39  1  0  0  0  0
 16 40  1  0  0  0  0
 17 41  1  0  0  0  0
 17 42  1  0  0  0  0
 17 43  1  0  0  0  0
 18 19  1  0  0  0  0
 18 44  1  0  0  0  0
 18 45  1  0  0  0  0
 19 46  1  0  0  0  0
 19 47  1  0  0  0  0
 20 21  2  0  0  0  0
 20 48  1  0  0  0  0
 21 50  1  0  0  0  0
M  CHG  1  13   1
M  CHG  1  21   1
M  END
> <s_m_source_file>
AV-unprocessed.smi

> <i_m_source_file_index>
1483

> <i_lp_mmshare_version>
43012

> <i_f3d_flags>
0

> <s_epik_input>
W0NIM11jMVtjSF1bY0hdYyhbY0hdbjEpW0NIMl1DKD1PKVtOSF1bQ0hdMltDSDJdW0NIMl1OKFtDSDJdW0NIMl0yKVtDSDJdW0NIXShbQ0gzXSlbQ0gzXQ==

> <s_epik_cmdline>
J2VwaWtfcHl0aG9uJywgJy1waCcsICc3LjAnLCAnLXRuJywgJzgnLCAnLW1hJywgJzIwMCcsICctbWV0YWxfYmluZGluZycsICctaW1hZScsICc8aW5maWxlLm1hZT4nLCAnLW9tYWUnLCAnPG91dGZpbGUubWFlPic=

> <r_epik_Ionization_Penalty>
2.20554

> <r_epik_Ionization_Penalty_Charging>
2.20554

> <r_epik_Ionization_Penalty_Neutral>
2.83835e-07

> <r_epik_State_Penalty>
2.34446

> <r_epik_Charging_Adjusted_Penalty>
4.55

> <i_epik_Tot_Q>
2

> <i_epik_Tot_abs_Q>
2

> <r_epik_Metal_State_Penalty>
2.35906

> <b_epik_Metal_Only>
0

> <s_lp_Force_Field>
OPLS_2005

> <r_lp_Energy>
28.5447

> <b_lp_Chiralities_Consistent>
1

> <s_lp_Variant>
AV-unprocessed.smi:1483-4

> <Gold.Version>
5.8.1

> <Gold.Id.Protein>
6NUR|6NUR_protein|mol2

> <Gold.PLP.Fitness>
46.6133

> <Gold.PLP.PLP>
-39.5920

> <Gold.PLP.part.hbond>
-2.0000

> <Gold.PLP.part.metal>
0.0000

> <Gold.PLP.part.buried>
-6.4977

> <Gold.PLP.part.nonpolar>
-32.6782

> <Gold.PLP.part.repulsive>
0.0952

> <Gold.PLP.ligand.clash>
0.0000

> <Gold.PLP.ligand.torsion>
0.9019

> <Gold.PLP.Chemscore.Hbond>
2.9200

> <Gold.PLP.Chemscore.CHOScore>
0.0000

> <Gold.PLP.Chemscore.Metal>
0.0000

> <Gold.Chemscore.Hbonds>
donor molecule, donor type, donor heavy atom, donor atom, acceptor molecule, acceptor atom, score
      L1  H    21    50       P1  8028  1.63
      P1  H  7989  7998       L1     8  1.00

> <Gold.PLP.Chemscore.Internal.Correction>
0.0651

> <Gold.Rescore>
     Score         DG    S(hbond)    S(metal)    S(lipo)     H(rot)  DE(clash)    DE(int)     intcor
     17.57     -20.05       1.94        0.00     103.13       1.55       0.03       2.45       ----

> <Gold.Chemscore.Fitness>
17.5680

> <Gold.Chemscore.DG>
-20.0527

> <Gold.Chemscore.ZeroCoef>
-5.4800

> <Gold.Chemscore.Hbond>
1.9399

> <Gold.Chemscore.Metal>
0.0000

> <Gold.Chemscore.Lipo>
103.1313

> <Gold.Chemscore.Internal_Hbond>
0.0000

> <Gold.Chemscore.DEClash>
0.0310

> <Gold.Chemscore.DEInternal>
2.4537

> <Gold.Chemscore.Rot>
1.5520

> <Gold.Chemscore.Internal.Correction>
   9.000000E+99

> <Gold.Chemscore.Hbonds>
donor molecule, donor type, donor heavy atom, donor atom, acceptor molecule, acceptor atom, score
      L1  H    21    50       P1  8028  0.35
      P1  H  7989  7998       L1     8  0.96

> <Gold.Chemscore.Hbond.Weighted>
-6.4794

> <Gold.Chemscore.Metal.Weighted>
-0.0000

> <Gold.Chemscore.Lipo.Weighted>
-12.0664

> <Gold.Chemscore.Internal_Hbond.Weighted>
0.0000

> <Gold.Chemscore.DEClash.Weighted>
0.0310

> <Gold.Chemscore.DEInternal.Weighted>
2.4537

> <Gold.Chemscore.Rot.Weighted>
3.9730

> <Gold.Chemscore.Internal.Correction.Weighted>
   9.000000E+99

> <Gold.Protein.RotatedTorsions>
[ 6907 6896 6895 6894 ] final   10.97 input  -60.11 | X-H torsion
[ 7974 7965 7964 7962 ] final   76.74 input  175.53 | X-H torsion
[ 8008 7997 7996 7995 ] final  140.83 input   59.86 | X-H torsion
[ 10167 10162 10161 10158 ] final  -40.11 input  -65.29 | X-H torsion
[ 10718 10713 10712 10709 ] final  169.90 input   66.30 | X-H torsion
[ 10763 10752 10751 10750 ] final  -64.64 input  -60.55 | X-H torsion
[ 11005 11000 10999 10996 ] final -154.19 input  -57.11 | X-H torsion

> <Gold.Protein.ActiveResidues>
 VAL166  LYS551  ARG553  GLY616  TRP617  ASP618  TYR619  PRO620  LYS621  CYS622 
 ASP623  PHE694  ASN695  SER759  ASP760  ASP761  ALA762  ILE779  LEU786  VAL792 
 PHE793  MET794  SER795  GLU796  ALA797  LYS798  CYS799  TRP800  GLU811  SER814 

> <Gold.Protein.RotatedAtoms>
  151.7468  135.0842  160.0324 H   0  0  0  0  0  0  0  0  0  0  0  0  # atno 6907 bound_to 6896
  152.3443  133.6099  159.5907 H   0  0  0  0  0  0  0  0  0  0  0  0  # atno 6908 bound_to 6896
  150.7499  133.9590  159.3551 H   0  0  0  0  0  0  0  0  0  0  0  0  # atno 6909 bound_to 6896
  145.6990  139.2576  143.1716 H   0  0  0  0  0  0  0  0  0  0  0  0  # atno 7974 bound_to 7965
  156.2974  140.2331  156.4465 H   0  0  0  0  0  0  0  0  0  0  0  0  # atno 8008 bound_to 7997
  154.8140  140.0441  157.1383 H   0  0  0  0  0  0  0  0  0  0  0  0  # atno 8009 bound_to 7997
  154.9391  140.3027  155.5133 H   0  0  0  0  0  0  0  0  0  0  0  0  # atno 8010 bound_to 7997
  140.7044  143.3173  151.2877 H   0  0  0  0  0  0  0  0  0  0  0  0  # atno 10167 bound_to 10162
  157.0159  131.0218  151.2789 H   0  0  0  0  0  0  0  0  0  0  0  0  # atno 10718 bound_to 10713
  154.3331  135.6172  153.5560 H   0  0  0  0  0  0  0  0  0  0  0  0  # atno 10763 bound_to 10752
  152.9810  135.5751  154.4939 H   0  0  0  0  0  0  0  0  0  0  0  0  # atno 10764 bound_to 10752
  154.4629  135.2856  155.1676 H   0  0  0  0  0  0  0  0  0  0  0  0  # atno 10765 bound_to 10752
  140.7000  134.3947  157.5210 H   0  0  0  0  0  0  0  0  0  0  0  0  # atno 11005 bound_to 11000
  146.0815  140.7759  142.9639 LP  0  0  0  0  0  0  0  0  0  0  0  0  # atno 17320 bound_to 7965
  144.6974  140.3496  143.7184 LP  0  0  0  0  0  0  0  0  0  0  0  0  # atno 17321 bound_to 7965
  139.6616  144.0179  152.2696 LP  0  0  0  0  0  0  0  0  0  0  0  0  # atno 17342 bound_to 10162
  139.9748  144.6469  150.7955 LP  0  0  0  0  0  0  0  0  0  0  0  0  # atno 17343 bound_to 10162
  157.5286  130.8044  149.7890 LP  0  0  0  0  0  0  0  0  0  0  0  0  # atno 17370 bound_to 10713
  156.0119  130.3829  150.2236 LP  0  0  0  0  0  0  0  0  0  0  0  0  # atno 17371 bound_to 10713
  139.8899  134.8818  156.2396 LP  0  0  0  0  0  0  0  0  0  0  0  0  # atno 17394 bound_to 11000
  141.0171  133.7062  156.1207 LP  0  0  0  0  0  0  0  0  0  0  0  0  # atno 17395 bound_to 11000

$$$$
