AV-unprocessed.smi:451|AV-procd|sdf|2609|dock2
  -GOLD-   2262023 03D 1   1.00000     0.00000
 Structure written by MMmdl.
 38 38  0  0  0  0  0  0  0  0  1 V2000
  146.9419  141.3682  153.5021 C   0  0  0  0  0  0  0  0  0  0  0  0
  147.9547  140.7903  154.4992 C   0  0  0  0  0  0  0  0  0  0  0  0
  149.1752  141.6941  154.7675 C   0  0  0  0  0  0  0  0  0  0  0  0
  150.2060  141.0695  155.5778 N   0  0  0  0  0  0  0  0  0  0  0  0
  150.7027  141.6404  156.7534 C   0  0  0  0  0  0  0  0  0  0  0  0
  150.1927  142.8690  157.1446 N   0  0  0  0  0  0  0  0  0  0  0  0
  151.6690  141.0322  157.5029 C   0  0  0  0  0  0  0  0  0  0  0  0
  152.1748  141.5696  158.6856 N   0  0  0  0  0  0  0  0  0  0  0  0
  153.2075  140.8841  159.4537 C   0  0  0  0  0  0  0  0  0  0  0  0
  151.6271  142.7871  159.2790 C   0  0  0  0  0  0  0  0  0  0  0  0
  152.5980  143.4349  160.2835 C   0  0  0  0  0  0  0  0  0  0  0  0
  152.0484  144.6029  160.8774 O   0  0  0  0  0  0  0  0  0  0  0  0
  151.7010  145.6199  159.9505 C   0  0  0  0  0  0  0  0  0  0  0  0
  152.2165  139.7334  157.0905 C   0  0  0  0  0  0  0  0  0  0  0  0
  153.0780  139.0921  157.6917 O   0  0  0  0  0  0  0  0  0  0  0  0
  151.6795  139.2139  155.9157 N   0  0  0  0  0  0  0  0  0  0  0  0
  150.6964  139.8154  155.1389 C   0  0  0  0  0  0  0  0  0  0  0  0
  150.2959  139.2396  154.1268 O   0  0  0  0  0  0  0  0  0  0  0  0
  152.0302  138.3196  155.6054 H   0  0  0  0  0  0  0  0  0  0  0  0
  146.0738  140.7152  153.4109 H   0  0  0  0  0  0  0  0  0  0  0  0
  147.3767  141.4754  152.5082 H   0  0  0  0  0  0  0  0  0  0  0  0
  146.5885  142.3485  153.8234 H   0  0  0  0  0  0  0  0  0  0  0  0
  147.4454  140.6081  155.4459 H   0  0  0  0  0  0  0  0  0  0  0  0
  148.2866  139.8136  154.1464 H   0  0  0  0  0  0  0  0  0  0  0  0
  149.6187  142.0591  153.8404 H   0  0  0  0  0  0  0  0  0  0  0  0
  148.8790  142.5952  155.3049 H   0  0  0  0  0  0  0  0  0  0  0  0
  149.4845  143.3436  156.6034 H   0  0  0  0  0  0  0  0  0  0  0  0
  150.4928  143.3264  157.9934 H   0  0  0  0  0  0  0  0  0  0  0  0
  153.7636  140.1909  158.8212 H   0  0  0  0  0  0  0  0  0  0  0  0
  152.7689  140.3148  160.2731 H   0  0  0  0  0  0  0  0  0  0  0  0
  153.9207  141.5945  159.8730 H   0  0  0  0  0  0  0  0  0  0  0  0
  151.3850  143.4949  158.4853 H   0  0  0  0  0  0  0  0  0  0  0  0
  150.6840  142.5531  159.7722 H   0  0  0  0  0  0  0  0  0  0  0  0
  152.9059  142.7203  161.0486 H   0  0  0  0  0  0  0  0  0  0  0  0
  153.5062  143.7427  159.7657 H   0  0  0  0  0  0  0  0  0  0  0  0
  151.2201  146.4421  160.4803 H   0  0  0  0  0  0  0  0  0  0  0  0
  150.9997  145.2512  159.2009 H   0  0  0  0  0  0  0  0  0  0  0  0
  152.5762  146.0244  159.4429 H   0  0  0  0  0  0  0  0  0  0  0  0
  1  2  1  0  0  0  0
  1 20  1  0  0  0  0
  1 21  1  0  0  0  0
  1 22  1  0  0  0  0
  2  3  1  0  0  0  0
  2 23  1  0  0  0  0
  2 24  1  0  0  0  0
  3  4  1  0  0  0  0
  3 25  1  0  0  0  0
  3 26  1  0  0  0  0
  4 17  1  0  0  0  0
  4  5  1  0  0  0  0
  5  6  1  0  0  0  0
  5  7  2  0  0  0  0
  6 27  1  0  0  0  0
  6 28  1  0  0  0  0
  7  8  1  0  0  0  0
  7 14  1  0  0  0  0
  8  9  1  0  0  0  0
  8 10  1  0  0  0  0
  9 29  1  0  0  0  0
  9 30  1  0  0  0  0
  9 31  1  0  0  0  0
 10 11  1  0  0  0  0
 10 32  1  0  0  0  0
 10 33  1  0  0  0  0
 11 12  1  0  0  0  0
 11 34  1  0  0  0  0
 11 35  1  0  0  0  0
 12 13  1  0  0  0  0
 13 36  1  0  0  0  0
 13 37  1  0  0  0  0
 13 38  1  0  0  0  0
 14 15  2  0  0  0  0
 14 16  1  0  0  0  0
 16 19  1  0  0  0  0
 16 17  1  0  0  0  0
 17 18  2  0  0  0  0
M  END
> <s_m_source_file>
AV-unprocessed.smi

> <i_m_source_file_index>
451

> <i_lp_mmshare_version>
43012

> <i_f3d_flags>
0

> <s_epik_input>
W0NIM11bQ0gyXVtDSDJdbjFjKFtOSDJdKWMoYyg9TylbbkhdYzE9TylOKFtDSDNdKVtDSDJdW0NIMl1PW0NIM10=

> <s_epik_cmdline>
J2VwaWtfcHl0aG9uJywgJy1waCcsICc3LjAnLCAnLXRuJywgJzgnLCAnLW1hJywgJzIwMCcsICctbWV0YWxfYmluZGluZycsICctaW1hZScsICc8aW5maWxlLm1hZT4nLCAnLW9tYWUnLCAnPG91dGZpbGUubWFlPic=

> <r_lp_tautomer_probability>
1

> <r_epik_Ionization_Penalty>
2.19941e-05

> <r_epik_Ionization_Penalty_Charging>
2.62604e-06

> <r_epik_Ionization_Penalty_Neutral>
1.93681e-05

> <r_epik_State_Penalty>
-0

> <r_epik_Charging_Adjusted_Penalty>
2.62604e-06

> <i_epik_Tot_Q>
0

> <i_epik_Tot_abs_Q>
0

> <r_epik_Metal_State_Penalty>
-0

> <b_epik_Metal_Only>
0

> <s_epik_Chemistry_Notes>
This compound has an imine and may undergo hydrolysis.

> <s_lp_Force_Field>
OPLS_2005

> <r_lp_Energy>
22.0879

> <b_lp_Chiralities_Consistent>
1

> <s_lp_Variant>
AV-unprocessed.smi:451-1

> <Gold.Version>
5.8.1

> <Gold.Id.Protein>
6NUR|6NUR_protein|mol2

> <Gold.PLP.Fitness>
42.5902

> <Gold.PLP.PLP>
-37.3262

> <Gold.PLP.part.hbond>
-2.8393

> <Gold.PLP.part.metal>
0.0000

> <Gold.PLP.part.buried>
-3.6110

> <Gold.PLP.part.nonpolar>
-31.1473

> <Gold.PLP.part.repulsive>
0.5760

> <Gold.PLP.ligand.clash>
21.3575

> <Gold.PLP.ligand.torsion>
0.3516

> <Gold.PLP.Chemscore.Hbond>
2.0000

> <Gold.PLP.Chemscore.CHOScore>
0.0000

> <Gold.PLP.Chemscore.Metal>
0.0000

> <Gold.Chemscore.Hbonds>
donor molecule, donor type, donor heavy atom, donor atom, acceptor molecule, acceptor atom, score
      L1  H     6    27       P1  8028  1.00
      P1  H  7997  8008       L1    15  0.95

> <Gold.PLP.Chemscore.Internal.Correction>
21.3246

> <Gold.Rescore>
     Score         DG    S(hbond)    S(metal)    S(lipo)     H(rot)  DE(clash)    DE(int)     intcor
      8.34     -13.48       1.51        0.00      69.06       2.00       0.01       5.13       ----

> <Gold.Chemscore.Fitness>
8.3432

> <Gold.Chemscore.DG>
-13.4846

> <Gold.Chemscore.ZeroCoef>
-5.4800

> <Gold.Chemscore.Hbond>
1.5127

> <Gold.Chemscore.Metal>
0.0000

> <Gold.Chemscore.Lipo>
69.0607

> <Gold.Chemscore.Internal_Hbond>
0.0000

> <Gold.Chemscore.DEClash>
0.0112

> <Gold.Chemscore.DEInternal>
5.1303

> <Gold.Chemscore.Rot>
2.0031

> <Gold.Chemscore.Internal.Correction>
   9.000000E+99

> <Gold.Chemscore.Hbonds>
donor molecule, donor type, donor heavy atom, donor atom, acceptor molecule, acceptor atom, score
      L1  H     6    27       P1  8028  0.96
      P1  H  7997  8008       L1    15  0.21

> <Gold.Chemscore.Hbond.Weighted>
-5.0524

> <Gold.Chemscore.Metal.Weighted>
-0.0000

> <Gold.Chemscore.Lipo.Weighted>
-8.0801

> <Gold.Chemscore.Internal_Hbond.Weighted>
0.0000

> <Gold.Chemscore.DEClash.Weighted>
0.0112

> <Gold.Chemscore.DEInternal.Weighted>
5.1303

> <Gold.Chemscore.Rot.Weighted>
5.1278

> <Gold.Chemscore.Internal.Correction.Weighted>
   9.000000E+99

> <Gold.Protein.RotatedTorsions>
[ 6907 6896 6895 6894 ] final  -33.92 input  -60.11 | X-H torsion
[ 7974 7965 7964 7962 ] final  -70.65 input  175.53 | X-H torsion
[ 8008 7997 7996 7995 ] final  -89.14 input   59.86 | X-H torsion
[ 10167 10162 10161 10158 ] final   16.28 input  -65.29 | X-H torsion
[ 10718 10713 10712 10709 ] final  135.62 input   66.30 | X-H torsion
[ 10763 10752 10751 10750 ] final   39.51 input  -60.55 | X-H torsion
[ 11005 11000 10999 10996 ] final -133.99 input  -57.11 | X-H torsion

> <Gold.Protein.ActiveResidues>
 VAL166  LYS551  ARG553  GLY616  TRP617  ASP618  TYR619  PRO620  LYS621  CYS622 
 ASP623  PHE694  ASN695  SER759  ASP760  ASP761  ALA762  ILE779  LEU786  VAL792 
 PHE793  MET794  SER795  GLU796  ALA797  LYS798  CYS799  TRP800  GLU811  SER814 

> <Gold.Protein.RotatedAtoms>
  151.0594  134.9726  159.8252 H   0  0  0  0  0  0  0  0  0  0  0  0  # atno 6907 bound_to 6896
  152.5393  134.2437  159.8882 H   0  0  0  0  0  0  0  0  0  0  0  0  # atno 6908 bound_to 6896
  151.2456  133.4333  159.2643 H   0  0  0  0  0  0  0  0  0  0  0  0  # atno 6909 bound_to 6896
  145.6883  140.9163  143.0795 H   0  0  0  0  0  0  0  0  0  0  0  0  # atno 7974 bound_to 7965
  154.6831  140.0545  157.0286 H   0  0  0  0  0  0  0  0  0  0  0  0  # atno 8008 bound_to 7997
  155.0924  140.3220  155.4551 H   0  0  0  0  0  0  0  0  0  0  0  0  # atno 8009 bound_to 7997
  156.2701  140.2045  156.6051 H   0  0  0  0  0  0  0  0  0  0  0  0  # atno 8010 bound_to 7997
  140.5808  143.8984  150.6788 H   0  0  0  0  0  0  0  0  0  0  0  0  # atno 10167 bound_to 10162
  157.4552  131.1069  150.9986 H   0  0  0  0  0  0  0  0  0  0  0  0  # atno 10718 bound_to 10713
  152.9965  135.6218  154.2477 H   0  0  0  0  0  0  0  0  0  0  0  0  # atno 10763 bound_to 10752
  154.2217  135.2795  155.2924 H   0  0  0  0  0  0  0  0  0  0  0  0  # atno 10764 bound_to 10752
  154.5523  135.5729  153.6992 H   0  0  0  0  0  0  0  0  0  0  0  0  # atno 10765 bound_to 10752
  140.9031  134.1665  157.4446 H   0  0  0  0  0  0  0  0  0  0  0  0  # atno 11005 bound_to 11000
  144.7004  139.8787  143.7445 LP  0  0  0  0  0  0  0  0  0  0  0  0  # atno 17320 bound_to 7965
  146.0904  139.3894  143.0409 LP  0  0  0  0  0  0  0  0  0  0  0  0  # atno 17321 bound_to 7965
  140.2483  143.3612  152.1428 LP  0  0  0  0  0  0  0  0  0  0  0  0  # atno 17342 bound_to 10162
  139.5169  144.6984  151.5565 LP  0  0  0  0  0  0  0  0  0  0  0  0  # atno 17343 bound_to 10162
  157.0802  130.5900  149.5419 LP  0  0  0  0  0  0  0  0  0  0  0  0  # atno 17370 bound_to 10713
  156.0004  130.5082  150.7641 LP  0  0  0  0  0  0  0  0  0  0  0  0  # atno 17371 bound_to 10713
  139.8745  134.9906  156.5510 LP  0  0  0  0  0  0  0  0  0  0  0  0  # atno 17394 bound_to 11000
  140.8205  133.8357  155.8891 LP  0  0  0  0  0  0  0  0  0  0  0  0  # atno 17395 bound_to 11000

$$$$
