AV-unprocessed.smi:747|AV-procd|sdf|3580|dock2
  -GOLD-   22720 0573D 1   1.00000     0.00000
 Structure written by MMmdl.
 48 49  0  0  0  0  0  0  0  0  1 V2000
  145.7842  135.8982  156.7653 C   0  0  0  0  0  0  0  0  0  0  0  0
  146.0028  136.8389  155.6864 N   0  0  0  0  0  0  0  0  0  0  0  0
  145.7215  136.4442  154.3556 C   0  0  0  0  0  0  0  0  0  0  0  0
  145.2979  135.3242  154.0687 O   0  0  0  0  0  0  0  0  0  0  0  0
  145.9753  137.4746  153.3556 C   0  0  0  0  0  0  0  0  0  0  0  0
  146.4423  138.6903  153.7142 C   0  0  0  0  0  0  0  0  0  0  0  0
  146.7105  139.0492  155.0224 N   0  0  0  0  0  0  0  0  0  0  0  0
  147.2006  140.4019  155.3160 C   0  0  0  0  0  0  0  0  0  0  0  0
  148.7294  140.5238  155.2578 C   0  0  0  0  0  0  0  0  0  0  0  0
  149.3696  140.0824  154.3022 O   0  0  0  0  0  0  0  0  0  0  0  0
  149.3023  141.1234  156.3118 N   0  0  0  0  0  0  0  0  0  0  0  0
  150.7396  141.3315  156.5033 C   0  0  2  0  0  0  0  0  0  0  0  0
  151.4873  139.9675  156.5295 C   0  0  0  0  0  0  0  0  0  0  0  0
  151.8908  139.3973  155.1602 C   0  0  0  0  0  0  0  0  0  0  0  0
  151.3452  138.2301  154.8102 N   0  0  0  0  0  0  0  0  0  0  0  0
  152.6847  139.9878  154.4303 O   0  0  0  0  0  0  0  0  0  0  0  0
  150.9903  142.2419  157.7407 C   0  0  0  0  0  0  0  0  0  0  0  0
  150.7102  143.7335  157.4279 C   0  0  0  0  0  0  0  0  0  0  0  0
  150.9591  144.6401  158.6440 C   0  0  0  0  0  0  0  0  0  0  0  0
  152.3873  144.4741  159.1787 C   0  0  0  0  0  0  0  0  0  0  0  0
  152.6750  143.0047  159.5125 C   0  0  0  0  0  0  0  0  0  0  0  0
  152.4266  142.0958  158.2980 C   0  0  0  0  0  0  0  0  0  0  0  0
  146.4887  138.1128  156.0545 C   0  0  0  0  0  0  0  0  0  0  0  0
  146.7122  138.4062  157.2318 O   0  0  0  0  0  0  0  0  0  0  0  0
  145.4147  134.9435  156.3928 H   0  0  0  0  0  0  0  0  0  0  0  0
  145.0478  136.3430  157.4370 H   0  0  0  0  0  0  0  0  0  0  0  0
  146.7429  135.7525  157.2664 H   0  0  0  0  0  0  0  0  0  0  0  0
  145.7857  137.2620  152.3137 H   0  0  0  0  0  0  0  0  0  0  0  0
  146.6104  139.4210  152.9361 H   0  0  0  0  0  0  0  0  0  0  0  0
  146.7580  141.1287  154.6328 H   0  0  0  0  0  0  0  0  0  0  0  0
  146.8701  140.6990  156.3124 H   0  0  0  0  0  0  0  0  0  0  0  0
  148.6982  141.4482  157.0529 H   0  0  0  0  0  0  0  0  0  0  0  0
  151.1110  141.8792  155.6349 H   0  0  0  0  0  0  0  0  0  0  0  0
  152.3969  140.0628  157.1235 H   0  0  0  0  0  0  0  0  0  0  0  0
  150.8834  139.2320  157.0616 H   0  0  0  0  0  0  0  0  0  0  0  0
  151.5737  137.8122  153.9199 H   0  0  0  0  0  0  0  0  0  0  0  0
  150.7019  137.7701  155.4381 H   0  0  0  0  0  0  0  0  0  0  0  0
  150.2982  141.9437  158.5296 H   0  0  0  0  0  0  0  0  0  0  0  0
  151.3410  144.0583  156.5994 H   0  0  0  0  0  0  0  0  0  0  0  0
  149.6802  143.8742  157.1000 H   0  0  0  0  0  0  0  0  0  0  0  0
  150.7839  145.6815  158.3718 H   0  0  0  0  0  0  0  0  0  0  0  0
  150.2426  144.4015  159.4311 H   0  0  0  0  0  0  0  0  0  0  0  0
  153.1016  144.8285  158.4344 H   0  0  0  0  0  0  0  0  0  0  0  0
  152.5286  145.0930  160.0652 H   0  0  0  0  0  0  0  0  0  0  0  0
  153.7057  142.8965  159.8521 H   0  0  0  0  0  0  0  0  0  0  0  0
  152.0417  142.6871  160.3418 H   0  0  0  0  0  0  0  0  0  0  0  0
  152.6182  141.0672  158.6013 H   0  0  0  0  0  0  0  0  0  0  0  0
  153.1507  142.3276  157.5157 H   0  0  0  0  0  0  0  0  0  0  0  0
  1  2  1  0  0  0  0
  1 25  1  0  0  0  0
  1 26  1  0  0  0  0
  1 27  1  0  0  0  0
  2 23  1  0  0  0  0
  2  3  1  0  0  0  0
  3  4  2  0  0  0  0
  3  5  1  0  0  0  0
  5  6  2  0  0  0  0
  5 28  1  0  0  0  0
  6  7  1  0  0  0  0
  6 29  1  0  0  0  0
  7  8  1  0  0  0  0
  7 23  1  0  0  0  0
  8  9  1  0  0  0  0
  8 30  1  0  0  0  0
  8 31  1  0  0  0  0
  9 10  2  0  0  0  0
  9 11  1  0  0  0  0
 11 12  1  0  0  0  0
 11 32  1  0  0  0  0
 12 13  1  0  0  0  0
 12 17  1  0  0  0  0
 12 33  1  0  0  0  0
 13 14  1  0  0  0  0
 13 34  1  0  0  0  0
 13 35  1  0  0  0  0
 14 15  1  0  0  0  0
 14 16  2  0  0  0  0
 15 36  1  0  0  0  0
 15 37  1  0  0  0  0
 17 22  1  0  0  0  0
 17 18  1  0  0  0  0
 17 38  1  0  0  0  0
 18 19  1  0  0  0  0
 18 39  1  0  0  0  0
 18 40  1  0  0  0  0
 19 20  1  0  0  0  0
 19 41  1  0  0  0  0
 19 42  1  0  0  0  0
 20 21  1  0  0  0  0
 20 43  1  0  0  0  0
 20 44  1  0  0  0  0
 21 22  1  0  0  0  0
 21 45  1  0  0  0  0
 21 46  1  0  0  0  0
 22 47  1  0  0  0  0
 22 48  1  0  0  0  0
 23 24  2  0  0  0  0
M  END
> <s_m_source_file>
AV-unprocessed.smi

> <i_m_source_file_index>
747

> <i_lp_mmshare_version>
43012

> <i_f3d_flags>
0

> <s_epik_input>
W0NIM11uMWMoPU8pW2NIXVtjSF1uKGMxPU8pW0NIMl1DKD1PKVtOSF1bQ0BIXShbQ0gyXUMoPU8pW05IMl0pW0NIXTJbQ0gyXVtDSDJdW0NIMl1bQ0gyXVtDSDJdMg==

> <s_epik_cmdline>
J2VwaWtfcHl0aG9uJywgJy1waCcsICc3LjAnLCAnLXRuJywgJzgnLCAnLW1hJywgJzIwMCcsICctbWV0YWxfYmluZGluZycsICctaW1hZScsICc8aW5maWxlLm1hZT4nLCAnLW9tYWUnLCAnPG91dGZpbGUubWFlPic=

> <r_lp_tautomer_probability>
1

> <r_epik_Ionization_Penalty>
6.11221e-08

> <r_epik_Ionization_Penalty_Charging>
1.14855e-08

> <r_epik_Ionization_Penalty_Neutral>
4.96365e-08

> <r_epik_State_Penalty>
-0

> <r_epik_Charging_Adjusted_Penalty>
1.14855e-08

> <i_epik_Tot_Q>
0

> <i_epik_Tot_abs_Q>
0

> <r_epik_Metal_State_Penalty>
-0

> <b_epik_Metal_Only>
0

> <s_lp_Force_Field>
OPLS_2005

> <r_lp_Energy>
14.8557

> <b_lp_Chiralities_Consistent>
1

> <s_lp_Variant>
AV-unprocessed.smi:747-1

> <Gold.Version>
5.8.1

> <Gold.Id.Protein>
6NUR|6NUR_protein|mol2

> <Gold.PLP.Fitness>
50.3143

> <Gold.PLP.PLP>
-44.8777

> <Gold.PLP.part.hbond>
-3.0465

> <Gold.PLP.part.metal>
0.0000

> <Gold.PLP.part.buried>
-3.4788

> <Gold.PLP.part.nonpolar>
-41.7617

> <Gold.PLP.part.repulsive>
2.6981

> <Gold.PLP.ligand.clash>
0.0028

> <Gold.PLP.ligand.torsion>
1.2990

> <Gold.PLP.Chemscore.Hbond>
1.7040

> <Gold.PLP.Chemscore.CHOScore>
0.8900

> <Gold.PLP.Chemscore.Metal>
0.0000

> <Gold.Chemscore.Hbonds>
donor molecule, donor type, donor heavy atom, donor atom, acceptor molecule, acceptor atom, score
      P1  H  7989  7998       L1    16  0.37
      P1  H  7997  8010       L1    16  0.36

> <Gold.PLP.Chemscore.Internal.Correction>
0.2553

> <Gold.Rescore>
     Score         DG    S(hbond)    S(metal)    S(lipo)     H(rot)  DE(clash)    DE(int)     intcor
     13.70     -16.01       1.89        0.00      99.71       2.91       0.09       2.22       ----

> <Gold.Chemscore.Fitness>
13.7047

> <Gold.Chemscore.DG>
-16.0062

> <Gold.Chemscore.ZeroCoef>
-5.4800

> <Gold.Chemscore.Hbond>
1.8908

> <Gold.Chemscore.Metal>
0.0000

> <Gold.Chemscore.Lipo>
99.7103

> <Gold.Chemscore.Internal_Hbond>
0.0000

> <Gold.Chemscore.DEClash>
0.0860

> <Gold.Chemscore.DEInternal>
2.2156

> <Gold.Chemscore.Rot>
2.9122

> <Gold.Chemscore.Internal.Correction>
   9.000000E+99

> <Gold.Chemscore.Hbonds>
donor molecule, donor type, donor heavy atom, donor atom, acceptor molecule, acceptor atom, score
      P1  H  7989  7998       L1    16  0.13
      P1  H  7997  8010       L1    16  0.11

> <Gold.Chemscore.Hbond.Weighted>
-6.3154

> <Gold.Chemscore.Metal.Weighted>
-0.0000

> <Gold.Chemscore.Lipo.Weighted>
-11.6661

> <Gold.Chemscore.Internal_Hbond.Weighted>
0.0000

> <Gold.Chemscore.DEClash.Weighted>
0.0860

> <Gold.Chemscore.DEInternal.Weighted>
2.2156

> <Gold.Chemscore.Rot.Weighted>
7.4553

> <Gold.Chemscore.Internal.Correction.Weighted>
   9.000000E+99

> <Gold.Protein.RotatedTorsions>
[ 6907 6896 6895 6894 ] final  173.75 input  -60.11 | X-H torsion
[ 7974 7965 7964 7962 ] final   63.20 input  175.53 | X-H torsion
[ 8008 7997 7996 7995 ] final  108.10 input   59.86 | X-H torsion
[ 10167 10162 10161 10158 ] final  129.94 input  -65.29 | X-H torsion
[ 10718 10713 10712 10709 ] final  156.29 input   66.30 | X-H torsion
[ 10763 10752 10751 10750 ] final  149.35 input  -60.55 | X-H torsion
[ 11005 11000 10999 10996 ] final -154.33 input  -57.11 | X-H torsion

> <Gold.Protein.ActiveResidues>
 VAL166  LYS551  ARG553  GLY616  TRP617  ASP618  TYR619  PRO620  LYS621  CYS622 
 ASP623  PHE694  ASN695  SER759  ASP760  ASP761  ALA762  ILE779  LEU786  VAL792 
 PHE793  MET794  SER795  GLU796  ALA797  LYS798  CYS799  TRP800  GLU811  SER814 

> <Gold.Protein.RotatedAtoms>
  151.7633  133.3335  159.3423 H   0  0  0  0  0  0  0  0  0  0  0  0  # atno 6907 bound_to 6896
  150.7489  134.6085  159.6083 H   0  0  0  0  0  0  0  0  0  0  0  0  # atno 6908 bound_to 6896
  152.3390  134.7161  160.0320 H   0  0  0  0  0  0  0  0  0  0  0  0  # atno 6909 bound_to 6896
  145.8646  139.3337  143.0799 H   0  0  0  0  0  0  0  0  0  0  0  0  # atno 7974 bound_to 7965
  156.1877  140.3082  155.9270 H   0  0  0  0  0  0  0  0  0  0  0  0  # atno 8008 bound_to 7997
  155.3244  140.0457  157.3057 H   0  0  0  0  0  0  0  0  0  0  0  0  # atno 8009 bound_to 7997
  154.5415  140.2263  155.8643 H   0  0  0  0  0  0  0  0  0  0  0  0  # atno 8010 bound_to 7997
  139.5453  144.6768  151.4492 H   0  0  0  0  0  0  0  0  0  0  0  0  # atno 10167 bound_to 10162
  157.2070  131.0689  151.1992 H   0  0  0  0  0  0  0  0  0  0  0  0  # atno 10718 bound_to 10713
  154.0697  135.2867  155.3310 H   0  0  0  0  0  0  0  0  0  0  0  0  # atno 10763 bound_to 10752
  154.6754  135.5283  153.8196 H   0  0  0  0  0  0  0  0  0  0  0  0  # atno 10764 bound_to 10752
  153.0490  135.6568  154.0880 H   0  0  0  0  0  0  0  0  0  0  0  0  # atno 10765 bound_to 10752
  140.6985  134.3964  157.5212 H   0  0  0  0  0  0  0  0  0  0  0  0  # atno 11005 bound_to 11000
  145.9208  140.9116  143.0406 LP  0  0  0  0  0  0  0  0  0  0  0  0  # atno 17320 bound_to 7965
  144.6726  140.1287  143.7445 LP  0  0  0  0  0  0  0  0  0  0  0  0  # atno 17321 bound_to 7965
  140.6699  143.8316  150.6987 LP  0  0  0  0  0  0  0  0  0  0  0  0  # atno 17342 bound_to 10162
  140.1737  143.4173  152.1982 LP  0  0  0  0  0  0  0  0  0  0  0  0  # atno 17343 bound_to 10162
  157.3710  130.7181  149.6565 LP  0  0  0  0  0  0  0  0  0  0  0  0  # atno 17370 bound_to 10713
  155.9694  130.4199  150.4395 LP  0  0  0  0  0  0  0  0  0  0  0  0  # atno 17371 bound_to 10713
  139.8903  134.8807  156.2375 LP  0  0  0  0  0  0  0  0  0  0  0  0  # atno 17394 bound_to 11000
  141.0183  133.7055  156.1226 LP  0  0  0  0  0  0  0  0  0  0  0  0  # atno 17395 bound_to 11000

$$$$
