AV-unprocessed.smi:1606|AV-procd|sdf|6462|dock7
  -GOLD-   22720 7113D 1   1.00000     0.00000
 Structure written by MMmdl.
 36 37  0  0  0  0  0  0  0  0  2 V2000
  151.5359  140.0613  154.8642 O   0  0  0  0  0  0  0  0  0  0  0  0
  150.6452  140.1908  155.7042 C   0  0  0  0  0  0  0  0  0  0  0  0
  150.8876  140.2978  157.0197 N   0  0  0  0  0  0  0  0  0  0  0  0
  152.2097  140.2710  157.6397 C   0  0  0  0  0  0  0  0  0  0  0  0
  152.2267  140.7873  159.0947 C   0  0  0  0  0  0  0  0  0  0  0  0
  152.1347  142.2989  159.2174 C   0  0  0  0  0  0  0  0  0  0  0  0
  152.2707  142.9603  160.4572 C   0  0  0  0  0  0  0  0  0  0  0  0
  152.1622  144.3661  160.5036 C   0  0  0  0  0  0  0  0  0  0  0  0
  151.9186  145.0800  159.3117 C   0  0  0  0  0  0  0  0  0  0  0  0
  151.7902  144.3691  158.1011 C   0  0  0  0  0  0  0  0  0  0  0  0
  151.9019  143.0229  158.0978 N   0  3  0  0  0  0  0  0  0  0  0  0
  149.1748  140.2607  155.2728 C   0  0  0  0  0  0  0  0  0  0  0  0
  148.7917  139.0690  154.3765 C   0  0  0  0  0  0  0  0  0  0  0  0
  147.3453  139.2143  153.8757 C   0  0  0  0  0  0  0  0  0  0  0  0
  147.1920  140.4492  153.1835 O   0  0  0  0  0  0  0  0  0  0  0  0
  147.4301  141.5841  154.0091 C   0  0  0  0  0  0  0  0  0  0  0  0
  148.8811  141.5688  154.5167 C   0  0  0  0  0  0  0  0  0  0  0  0
  150.0963  140.3968  157.6393 H   0  0  0  0  0  0  0  0  0  0  0  0
  152.5490  139.2349  157.6242 H   0  0  0  0  0  0  0  0  0  0  0  0
  152.9180  140.8342  157.0300 H   0  0  0  0  0  0  0  0  0  0  0  0
  151.4031  140.3366  159.6496 H   0  0  0  0  0  0  0  0  0  0  0  0
  153.1370  140.4528  159.5941 H   0  0  0  0  0  0  0  0  0  0  0  0
  152.4533  142.3992  161.3622 H   0  0  0  0  0  0  0  0  0  0  0  0
  152.2632  144.8905  161.4426 H   0  0  0  0  0  0  0  0  0  0  0  0
  151.8314  146.1567  159.3266 H   0  0  0  0  0  0  0  0  0  0  0  0
  151.6028  144.8318  157.1430 H   0  0  0  0  0  0  0  0  0  0  0  0
  148.5468  140.2324  156.1655 H   0  0  0  0  0  0  0  0  0  0  0  0
  149.4602  139.0075  153.5161 H   0  0  0  0  0  0  0  0  0  0  0  0
  148.9008  138.1317  154.9238 H   0  0  0  0  0  0  0  0  0  0  0  0
  147.1014  138.3979  153.1958 H   0  0  0  0  0  0  0  0  0  0  0  0
  146.6384  139.1598  154.7051 H   0  0  0  0  0  0  0  0  0  0  0  0
  147.2466  142.4873  153.4270 H   0  0  0  0  0  0  0  0  0  0  0  0
  146.7258  141.5950  154.8425 H   0  0  0  0  0  0  0  0  0  0  0  0
  149.0532  142.4285  155.1656 H   0  0  0  0  0  0  0  0  0  0  0  0
  149.5573  141.6780  153.6671 H   0  0  0  0  0  0  0  0  0  0  0  0
  151.8039  142.5277  157.2108 H   0  0  0  0  0  0  0  0  0  0  0  0
  1  2  2  0  0  0  0
  2  3  1  0  0  0  0
  2 12  1  0  0  0  0
  3  4  1  0  0  0  0
  3 18  1  0  0  0  0
  4  5  1  0  0  0  0
  4 19  1  0  0  0  0
  4 20  1  0  0  0  0
  5  6  1  0  0  0  0
  5 21  1  0  0  0  0
  5 22  1  0  0  0  0
  6 11  1  0  0  0  0
  6  7  2  0  0  0  0
  7  8  1  0  0  0  0
  7 23  1  0  0  0  0
  8  9  2  0  0  0  0
  8 24  1  0  0  0  0
  9 10  1  0  0  0  0
  9 25  1  0  0  0  0
 10 11  2  0  0  0  0
 10 26  1  0  0  0  0
 11 36  1  0  0  0  0
 12 17  1  0  0  0  0
 12 13  1  0  0  0  0
 12 27  1  0  0  0  0
 13 14  1  0  0  0  0
 13 28  1  0  0  0  0
 13 29  1  0  0  0  0
 14 15  1  0  0  0  0
 14 30  1  0  0  0  0
 14 31  1  0  0  0  0
 15 16  1  0  0  0  0
 16 17  1  0  0  0  0
 16 32  1  0  0  0  0
 16 33  1  0  0  0  0
 17 34  1  0  0  0  0
 17 35  1  0  0  0  0
M  CHG  1  11   1
M  END
> <s_m_source_file>
AV-unprocessed.smi

> <i_m_source_file_index>
1606

> <i_lp_mmshare_version>
43012

> <i_f3d_flags>
0

> <s_epik_input>
W0NIMl0xW0NIMl1PW0NIMl1bQ0gyXVtDSF0xQyg9TylbTkhdW0NIMl1bQ0gyXWMyW2NIXVtjSF1bY0hdW2NIXW4y

> <s_epik_cmdline>
J2VwaWtfcHl0aG9uJywgJy1waCcsICc3LjAnLCAnLXRuJywgJzgnLCAnLW1hJywgJzIwMCcsICctbWV0YWxfYmluZGluZycsICctaW1hZScsICc8aW5maWxlLm1hZT4nLCAnLW9tYWUnLCAnPG91dGZpbGUubWFlPic=

> <r_epik_Ionization_Penalty>
1.82741

> <r_epik_Ionization_Penalty_Charging>
1.82741

> <r_epik_Ionization_Penalty_Neutral>
1.59153e-08

> <r_epik_State_Penalty>
1.94311

> <r_epik_Charging_Adjusted_Penalty>
3.77052

> <i_epik_Tot_Q>
1

> <i_epik_Tot_abs_Q>
1

> <r_epik_Metal_State_Penalty>
1.96982

> <b_epik_Metal_Only>
0

> <s_lp_Force_Field>
OPLS_2005

> <r_lp_Energy>
14.6238

> <b_lp_Chiralities_Consistent>
1

> <s_lp_Variant>
AV-unprocessed.smi:1606-2

> <Gold.Version>
5.8.1

> <Gold.Id.Protein>
6NUR|6NUR_protein|mol2

> <Gold.PLP.Fitness>
41.1081

> <Gold.PLP.PLP>
-38.8016

> <Gold.PLP.part.hbond>
-0.9130

> <Gold.PLP.part.metal>
0.0000

> <Gold.PLP.part.buried>
-4.3905

> <Gold.PLP.part.nonpolar>
-33.9657

> <Gold.PLP.part.repulsive>
0.9015

> <Gold.PLP.ligand.clash>
0.0000

> <Gold.PLP.ligand.torsion>
0.3495

> <Gold.PLP.Chemscore.Hbond>
1.0000

> <Gold.PLP.Chemscore.CHOScore>
0.0000

> <Gold.PLP.Chemscore.Metal>
0.0000

> <Gold.Chemscore.Hbonds>
donor molecule, donor type, donor heavy atom, donor atom, acceptor molecule, acceptor atom, score
      P1  H  7989  7998       L1     1  1.00

> <Gold.PLP.Chemscore.Internal.Correction>
0.0055

> <Gold.Rescore>
     Score         DG    S(hbond)    S(metal)    S(lipo)     H(rot)  DE(clash)    DE(int)     intcor
     16.70     -17.03       0.97        0.00     104.96       1.56       0.14       0.19       ----

> <Gold.Chemscore.Fitness>
16.6962

> <Gold.Chemscore.DG>
-17.0274

> <Gold.Chemscore.ZeroCoef>
-5.4800

> <Gold.Chemscore.Hbond>
0.9738

> <Gold.Chemscore.Metal>
0.0000

> <Gold.Chemscore.Lipo>
104.9613

> <Gold.Chemscore.Internal_Hbond>
0.0000

> <Gold.Chemscore.DEClash>
0.1446

> <Gold.Chemscore.DEInternal>
0.1867

> <Gold.Chemscore.Rot>
1.5569

> <Gold.Chemscore.Internal.Correction>
   9.000000E+99

> <Gold.Chemscore.Hbonds>
donor molecule, donor type, donor heavy atom, donor atom, acceptor molecule, acceptor atom, score
      P1  H  7989  7998       L1     1  0.96

> <Gold.Chemscore.Hbond.Weighted>
-3.2527

> <Gold.Chemscore.Metal.Weighted>
-0.0000

> <Gold.Chemscore.Lipo.Weighted>
-12.2805

> <Gold.Chemscore.Internal_Hbond.Weighted>
0.0000

> <Gold.Chemscore.DEClash.Weighted>
0.1446

> <Gold.Chemscore.DEInternal.Weighted>
0.1867

> <Gold.Chemscore.Rot.Weighted>
3.9857

> <Gold.Chemscore.Internal.Correction.Weighted>
   9.000000E+99

> <Gold.Protein.RotatedTorsions>
[ 6907 6896 6895 6894 ] final   79.22 input  -60.11 | X-H torsion
[ 7974 7965 7964 7962 ] final   82.53 input  175.53 | X-H torsion
[ 8008 7997 7996 7995 ] final   20.05 input   59.86 | X-H torsion
[ 10167 10162 10161 10158 ] final -114.73 input  -65.29 | X-H torsion
[ 10718 10713 10712 10709 ] final -145.05 input   66.30 | X-H torsion
[ 10763 10752 10751 10750 ] final   69.75 input  -60.55 | X-H torsion
[ 11005 11000 10999 10996 ] final  -13.50 input  -57.11 | X-H torsion

> <Gold.Protein.ActiveResidues>
 VAL166  LYS551  ARG553  GLY616  TRP617  ASP618  TYR619  PRO620  LYS621  CYS622 
 ASP623  PHE694  ASN695  SER759  ASP760  ASP761  ALA762  ILE779  LEU786  VAL792 
 PHE793  MET794  SER795  GLU796  ALA797  LYS798  CYS799  TRP800  GLU811  SER814 

> <Gold.Protein.RotatedAtoms>
  152.5190  134.3544  159.9262 H   0  0  0  0  0  0  0  0  0  0  0  0  # atno 6907 bound_to 6896
  151.3495  133.3924  159.2686 H   0  0  0  0  0  0  0  0  0  0  0  0  # atno 6908 bound_to 6896
  150.9738  134.9125  159.7862 H   0  0  0  0  0  0  0  0  0  0  0  0  # atno 6909 bound_to 6896
  145.6238  139.2391  143.2123 H   0  0  0  0  0  0  0  0  0  0  0  0  # atno 7974 bound_to 7965
  154.9299  140.3039  155.5173 H   0  0  0  0  0  0  0  0  0  0  0  0  # atno 8008 bound_to 7997
  156.3004  140.2356  156.4294 H   0  0  0  0  0  0  0  0  0  0  0  0  # atno 8009 bound_to 7997
  154.8248  140.0421  157.1424 H   0  0  0  0  0  0  0  0  0  0  0  0  # atno 8010 bound_to 7997
  140.0978  143.4640  152.1830 H   0  0  0  0  0  0  0  0  0  0  0  0  # atno 10167 bound_to 10162
  156.3777  130.7821  151.2009 H   0  0  0  0  0  0  0  0  0  0  0  0  # atno 10718 bound_to 10713
  153.0304  135.5199  154.7336 H   0  0  0  0  0  0  0  0  0  0  0  0  # atno 10763 bound_to 10752
  154.6356  135.2906  155.0167 H   0  0  0  0  0  0  0  0  0  0  0  0  # atno 10764 bound_to 10752
  154.1103  135.6623  153.4936 H   0  0  0  0  0  0  0  0  0  0  0  0  # atno 10765 bound_to 10752
  140.7768  133.8394  155.9256 H   0  0  0  0  0  0  0  0  0  0  0  0  # atno 11005 bound_to 11000
  146.1410  140.7058  142.9367 LP  0  0  0  0  0  0  0  0  0  0  0  0  # atno 17320 bound_to 7965
  144.7220  140.4405  143.7001 LP  0  0  0  0  0  0  0  0  0  0  0  0  # atno 17321 bound_to 7965
  139.5688  144.7451  151.3948 LP  0  0  0  0  0  0  0  0  0  0  0  0  # atno 17342 bound_to 10162
  140.6994  143.7669  150.7378 LP  0  0  0  0  0  0  0  0  0  0  0  0  # atno 17343 bound_to 10162
  157.7490  131.0353  150.4358 LP  0  0  0  0  0  0  0  0  0  0  0  0  # atno 17370 bound_to 10713
  156.4596  130.4029  149.6584 LP  0  0  0  0  0  0  0  0  0  0  0  0  # atno 17371 bound_to 10713
  140.9521  134.1765  157.4720 LP  0  0  0  0  0  0  0  0  0  0  0  0  # atno 17394 bound_to 11000
  139.8748  134.9913  156.5543 LP  0  0  0  0  0  0  0  0  0  0  0  0  # atno 17395 bound_to 11000

$$$$
