AV-unprocessed.smi:1679|AV-procd|sdf|6730|dock1
  -GOLD-   22720 7473D 1   1.00000     0.00000
 Structure written by MMmdl.
 45 46  0  0  0  0  0  0  0  0  1 V2000
  151.8454  144.5666  157.7682 C   0  0  0  0  0  0  0  0  0  0  0  0
  152.4537  144.0331  159.0746 C   0  0  1  0  0  0  0  0  0  0  0  0
  151.6993  144.5626  160.3130 C   0  0  0  0  0  0  0  0  0  0  0  0
  152.3354  144.0612  161.6198 C   0  0  0  0  0  0  0  0  0  0  0  0
  152.4443  142.5288  161.6421 C   0  0  0  0  0  0  0  0  0  0  0  0
  153.1918  142.0066  160.4057 C   0  0  0  0  0  0  0  0  0  0  0  0
  152.5286  142.4892  159.0967 C   0  0  1  0  0  0  0  0  0  0  0  0
  151.1980  142.0054  158.9547 O   0  0  0  0  0  0  0  0  0  0  0  0
  151.0340  140.7771  158.2628 C   0  0  0  0  0  0  0  0  0  0  0  0
  151.4368  140.9804  156.7934 C   0  0  0  0  0  0  0  0  0  0  0  0
  151.2206  139.7716  156.0027 N   0  0  0  0  0  0  0  0  0  0  0  0
  152.1930  139.0562  155.4143 C   0  0  0  0  0  0  0  0  0  0  0  0
  153.3899  139.3242  155.5284 O   0  0  0  0  0  0  0  0  0  0  0  0
  151.7561  137.8427  154.5844 C   0  0  0  0  0  0  0  0  0  0  0  0
  151.0937  136.8322  155.4210 N   0  0  0  0  0  0  0  0  0  0  0  0
  149.7801  136.4630  155.1675 C   0  0  0  0  0  0  0  0  0  0  0  0
  149.0934  135.5795  155.9301 C   0  0  0  0  0  0  0  0  0  0  0  0
  149.7245  134.9581  157.0894 C   0  0  0  0  0  0  0  0  0  0  0  0
  149.1851  134.1517  157.8439 O   0  0  0  0  0  0  0  0  0  0  0  0
  151.0474  135.3510  157.3080 N   0  0  0  0  0  0  0  0  0  0  0  0
  151.7611  136.2592  156.5250 C   0  0  0  0  0  0  0  0  0  0  0  0
  152.9249  136.5380  156.8097 O   0  0  0  0  0  0  0  0  0  0  0  0
  151.5253  134.9465  158.1001 H   0  0  0  0  0  0  0  0  0  0  0  0
  150.8060  144.2563  157.6548 H   0  0  0  0  0  0  0  0  0  0  0  0
  152.3979  144.2047  156.9009 H   0  0  0  0  0  0  0  0  0  0  0  0
  151.8683  145.6562  157.7423 H   0  0  0  0  0  0  0  0  0  0  0  0
  153.4753  144.4121  159.1256 H   0  0  0  0  0  0  0  0  0  0  0  0
  151.6901  145.6527  160.3087 H   0  0  0  0  0  0  0  0  0  0  0  0
  150.6552  144.2496  160.2727 H   0  0  0  0  0  0  0  0  0  0  0  0
  153.3286  144.4975  161.7308 H   0  0  0  0  0  0  0  0  0  0  0  0
  151.7511  144.4044  162.4736 H   0  0  0  0  0  0  0  0  0  0  0  0
  152.9539  142.2057  162.5501 H   0  0  0  0  0  0  0  0  0  0  0  0
  151.4481  142.0881  161.6740 H   0  0  0  0  0  0  0  0  0  0  0  0
  154.2216  142.3649  160.4356 H   0  0  0  0  0  0  0  0  0  0  0  0
  153.2605  140.9198  160.4364 H   0  0  0  0  0  0  0  0  0  0  0  0
  153.1194  142.1480  158.2451 H   0  0  0  0  0  0  0  0  0  0  0  0
  151.6608  140.0061  158.7125 H   0  0  0  0  0  0  0  0  0  0  0  0
  149.9996  140.4379  158.3184 H   0  0  0  0  0  0  0  0  0  0  0  0
  150.8945  141.8245  156.3640 H   0  0  0  0  0  0  0  0  0  0  0  0
  152.4952  141.2356  156.7372 H   0  0  0  0  0  0  0  0  0  0  0  0
  150.2641  139.4792  155.8646 H   0  0  0  0  0  0  0  0  0  0  0  0
  151.0735  138.1894  153.8071 H   0  0  0  0  0  0  0  0  0  0  0  0
  152.6062  137.4147  154.0489 H   0  0  0  0  0  0  0  0  0  0  0  0
  149.2703  136.9071  154.3243 H   0  0  0  0  0  0  0  0  0  0  0  0
  148.0701  135.3356  155.6836 H   0  0  0  0  0  0  0  0  0  0  0  0
  1  2  1  0  0  0  0
  1 24  1  0  0  0  0
  1 25  1  0  0  0  0
  1 26  1  0  0  0  0
  2  7  1  0  0  0  0
  2  3  1  0  0  0  0
  2 27  1  0  0  0  0
  3  4  1  0  0  0  0
  3 28  1  0  0  0  0
  3 29  1  0  0  0  0
  4  5  1  0  0  0  0
  4 30  1  0  0  0  0
  4 31  1  0  0  0  0
  5  6  1  0  0  0  0
  5 32  1  0  0  0  0
  5 33  1  0  0  0  0
  6  7  1  0  0  0  0
  6 34  1  0  0  0  0
  6 35  1  0  0  0  0
  7  8  1  0  0  0  0
  7 36  1  0  0  0  0
  8  9  1  0  0  0  0
  9 10  1  0  0  0  0
  9 37  1  0  0  0  0
  9 38  1  0  0  0  0
 10 11  1  0  0  0  0
 10 39  1  0  0  0  0
 10 40  1  0  0  0  0
 11 12  1  0  0  0  0
 11 41  1  0  0  0  0
 12 13  2  0  0  0  0
 12 14  1  0  0  0  0
 14 15  1  0  0  0  0
 14 42  1  0  0  0  0
 14 43  1  0  0  0  0
 15 21  1  0  0  0  0
 15 16  1  0  0  0  0
 16 17  2  0  0  0  0
 16 44  1  0  0  0  0
 17 18  1  0  0  0  0
 17 45  1  0  0  0  0
 18 19  2  0  0  0  0
 18 20  1  0  0  0  0
 20 23  1  0  0  0  0
 20 21  1  0  0  0  0
 21 22  2  0  0  0  0
M  END
> <s_m_source_file>
AV-unprocessed.smi

> <i_m_source_file_index>
1679

> <i_lp_mmshare_version>
43012

> <i_f3d_flags>
0

> <s_epik_input>
W0NIM11bQ0BASF0xW0NIMl1bQ0gyXVtDSDJdW0NIMl1bQ0BIXTFPW0NIMl1bQ0gyXVtOSF1DKD1PKVtDSDJdbjJbY0hdW2NIXWMoPU8pW25IXWMyPU8=

> <s_epik_cmdline>
J2VwaWtfcHl0aG9uJywgJy1waCcsICc3LjAnLCAnLXRuJywgJzgnLCAnLW1hJywgJzIwMCcsICctbWV0YWxfYmluZGluZycsICctaW1hZScsICc8aW5maWxlLm1hZT4nLCAnLW9tYWUnLCAnPG91dGZpbGUubWFlPic=

> <r_lp_tautomer_probability>
0.999537

> <r_epik_Ionization_Penalty>
0.0033132

> <r_epik_Ionization_Penalty_Charging>
0.00331317

> <r_epik_Ionization_Penalty_Neutral>
2.78599e-08

> <r_epik_State_Penalty>
0.002342

> <r_epik_Charging_Adjusted_Penalty>
0.00565517

> <i_epik_Tot_Q>
0

> <i_epik_Tot_abs_Q>
0

> <r_epik_Metal_State_Penalty>
0.365595

> <b_epik_Metal_Only>
0

> <s_lp_Force_Field>
OPLS_2005

> <r_lp_Energy>
9.24545

> <b_lp_Chiralities_Consistent>
1

> <s_lp_Variant>
AV-unprocessed.smi:1679-2

> <Gold.Version>
5.8.1

> <Gold.Id.Protein>
6NUR|6NUR_protein|mol2

> <Gold.PLP.Fitness>
53.0248

> <Gold.PLP.PLP>
-45.2647

> <Gold.PLP.part.hbond>
-1.8243

> <Gold.PLP.part.metal>
0.0000

> <Gold.PLP.part.buried>
-6.2453

> <Gold.PLP.part.nonpolar>
-37.7323

> <Gold.PLP.part.repulsive>
0.2577

> <Gold.PLP.ligand.clash>
0.0000

> <Gold.PLP.ligand.torsion>
0.4517

> <Gold.PLP.Chemscore.Hbond>
1.9913

> <Gold.PLP.Chemscore.CHOScore>
0.8622

> <Gold.PLP.Chemscore.Metal>
0.0000

> <Gold.Chemscore.Hbonds>
donor molecule, donor type, donor heavy atom, donor atom, acceptor molecule, acceptor atom, score
      P1  H  6896  6909       L1    19  0.77
      P1  H  7997  8009       L1    13  0.75
      P1  H 10752 10763       L1    22  0.50
      L1  C    16    44       P1  7948  0.94

> <Gold.PLP.Chemscore.Internal.Correction>
0.1032

> <Gold.Rescore>
     Score         DG    S(hbond)    S(metal)    S(lipo)     H(rot)  DE(clash)    DE(int)     intcor
     17.76     -18.40       1.94        0.00     110.22       2.52       0.02       0.62       ----

> <Gold.Chemscore.Fitness>
17.7600

> <Gold.Chemscore.DG>
-18.4040

> <Gold.Chemscore.ZeroCoef>
-5.4800

> <Gold.Chemscore.Hbond>
1.9386

> <Gold.Chemscore.Metal>
0.0000

> <Gold.Chemscore.Lipo>
110.2244

> <Gold.Chemscore.Internal_Hbond>
0.0000

> <Gold.Chemscore.DEClash>
0.0224

> <Gold.Chemscore.DEInternal>
0.6216

> <Gold.Chemscore.Rot>
2.5185

> <Gold.Chemscore.Internal.Correction>
   9.000000E+99

> <Gold.Chemscore.Hbonds>
donor molecule, donor type, donor heavy atom, donor atom, acceptor molecule, acceptor atom, score
      P1  H  6896  6909       L1    19  0.17
      P1  H  7997  8009       L1    13  0.73
      P1  H 10752 10763       L1    22  0.02

> <Gold.Chemscore.Hbond.Weighted>
-6.4750

> <Gold.Chemscore.Metal.Weighted>
-0.0000

> <Gold.Chemscore.Lipo.Weighted>
-12.8963

> <Gold.Chemscore.Internal_Hbond.Weighted>
0.0000

> <Gold.Chemscore.DEClash.Weighted>
0.0224

> <Gold.Chemscore.DEInternal.Weighted>
0.6216

> <Gold.Chemscore.Rot.Weighted>
6.4472

> <Gold.Chemscore.Internal.Correction.Weighted>
   9.000000E+99

> <Gold.Protein.RotatedTorsions>
[ 6907 6896 6895 6894 ] final   17.54 input  -60.11 | X-H torsion
[ 7974 7965 7964 7962 ] final   95.17 input  175.53 | X-H torsion
[ 8008 7997 7996 7995 ] final -156.57 input   59.86 | X-H torsion
[ 10167 10162 10161 10158 ] final   34.54 input  -65.29 | X-H torsion
[ 10718 10713 10712 10709 ] final   45.10 input   66.30 | X-H torsion
[ 10763 10752 10751 10750 ] final  119.79 input  -60.55 | X-H torsion
[ 11005 11000 10999 10996 ] final    2.59 input  -57.11 | X-H torsion

> <Gold.Protein.ActiveResidues>
 VAL166  LYS551  ARG553  GLY616  TRP617  ASP618  TYR619  PRO620  LYS621  CYS622 
 ASP623  PHE694  ASN695  SER759  ASP760  ASP761  ALA762  ILE779  LEU786  VAL792 
 PHE793  MET794  SER795  GLU796  ALA797  LYS798  CYS799  TRP800  GLU811  SER814 

> <Gold.Protein.RotatedAtoms>
  151.8512  135.0557  160.0458 H   0  0  0  0  0  0  0  0  0  0  0  0  # atno 6907 bound_to 6896
  152.2735  133.5400  159.5462 H   0  0  0  0  0  0  0  0  0  0  0  0  # atno 6908 bound_to 6896
  150.7161  134.0580  159.3864 H   0  0  0  0  0  0  0  0  0  0  0  0  # atno 6909 bound_to 6896
  145.4558  139.2290  143.3014 H   0  0  0  0  0  0  0  0  0  0  0  0  # atno 7974 bound_to 7965
  155.7192  140.0788  157.2338 H   0  0  0  0  0  0  0  0  0  0  0  0  # atno 8008 bound_to 7997
  154.4047  140.1616  156.2437 H   0  0  0  0  0  0  0  0  0  0  0  0  # atno 8009 bound_to 7997
  155.9212  140.3397  155.6177 H   0  0  0  0  0  0  0  0  0  0  0  0  # atno 8010 bound_to 7997
  140.4305  144.1331  150.6159 H   0  0  0  0  0  0  0  0  0  0  0  0  # atno 10167 bound_to 10162
  157.4339  130.8041  149.7629 H   0  0  0  0  0  0  0  0  0  0  0  0  # atno 10718 bound_to 10713
  153.5884  135.3470  155.2901 H   0  0  0  0  0  0  0  0  0  0  0  0  # atno 10763 bound_to 10752
  154.8656  135.4199  154.2543 H   0  0  0  0  0  0  0  0  0  0  0  0  # atno 10764 bound_to 10752
  153.3345  135.7046  153.6990 H   0  0  0  0  0  0  0  0  0  0  0  0  # atno 10765 bound_to 10752
  140.6026  133.9822  155.8139 H   0  0  0  0  0  0  0  0  0  0  0  0  # atno 11005 bound_to 11000
  146.2479  140.5322  142.8906 LP  0  0  0  0  0  0  0  0  0  0  0  0  # atno 17320 bound_to 7965
  144.8033  140.6253  143.6463 LP  0  0  0  0  0  0  0  0  0  0  0  0  # atno 17321 bound_to 7965
  140.4432  143.2517  151.9445 LP  0  0  0  0  0  0  0  0  0  0  0  0  # atno 17342 bound_to 10162
  139.4785  144.5634  151.8204 LP  0  0  0  0  0  0  0  0  0  0  0  0  # atno 17343 bound_to 10162
  155.9923  130.3932  150.2947 LP  0  0  0  0  0  0  0  0  0  0  0  0  # atno 17370 bound_to 10713
  157.1106  131.0220  151.3049 LP  0  0  0  0  0  0  0  0  0  0  0  0  # atno 17371 bound_to 10713
  141.0862  133.9987  157.3310 LP  0  0  0  0  0  0  0  0  0  0  0  0  # atno 17394 bound_to 11000
  139.9226  135.0201  156.8119 LP  0  0  0  0  0  0  0  0  0  0  0  0  # atno 17395 bound_to 11000

$$$$
