#       Name:                AV-unprocessed.smi:2001
#       Creating user name   scv26
#       Creation time:       Fri Mar 27 10:34:11 2020


#       File generated by GOLD software.
#

@<TRIPOS>MOLECULE
AV-unprocessed.smi:2001
    60    61     1
SMALL
NO_CHARGES


@<TRIPOS>ATOM
      1 ****        -6.4858   4.2078   3.0366 C.3            1 S1                 0.0000
      2 ****        -6.2720   3.7937   1.6992 O.3            1 S1                 0.0000
      3 ****        -5.1720   4.4536   1.0945 C.3            1 S1                 0.0000
      4 ****        -4.9663   3.9234  -0.3337 C.3            1 S1                 0.0000
      5 ****        -4.4572   2.5477  -0.3337 N.am           1 S1                 0.0000
      6 ****        -3.0805   2.4624  -0.2177 N.2            1 S1                 0.0000
      7 ****        -2.4932   1.3100  -0.1921 C.2            1 S1                 0.0000
      8 ****        -1.0031   1.2213  -0.0660 C.2            1 S1                 0.0000
      9 ****        -0.4202   2.3078   0.0556 O.2            1 S1                 0.0000
     10 ****        -0.4038  -0.0075  -0.0934 N.pl3          1 S1                -1.0000
     11 ****         1.0333  -0.2444   0.0231 C.3            1 S1                 0.0000
     12 ****         1.3905  -1.5995  -0.6169 C.3            1 S1                 0.0000
     13 ****         2.8467  -1.8868  -0.5278 N.4            1 S1                 1.0000
     14 ****         3.1432  -3.3096  -0.2394 C.3            1 S1                 0.0000
     15 ****         4.6546  -3.5088  -0.0242 C.3            1 S1                 0.0000
     16 ****         5.0160  -4.9831   0.1865 C.3            1 S1                 0.0000
     17 ****         5.3665  -3.0428  -1.1681 O.3            1 S1                 0.0000
     18 ****         5.1310  -1.6756  -1.5063 C.3            1 S1                 0.0000
     19 ****         5.7754  -0.7046  -0.5008 C.3            1 S1                 0.0000
     20 ****         3.6237  -1.4341  -1.7114 C.3            1 S1                 0.0000
     21 ****        -3.2741   0.0824  -0.2847 C.2            1 S1                 0.0000
     22 ****        -4.6171   0.1812  -0.3928 C.2            1 S1                 0.0000
     23 ****        -5.2999   1.4751  -0.4212 C.2            1 S1                 0.0000
     24 ****        -6.5222   1.5873  -0.5136 O.2            1 S1                 0.0000
     25 ****        -7.3503   3.6857   3.4468 H              1 S1                 0.0000
     26 ****        -6.6815   5.2795   3.0921 H              1 S1                 0.0000
     27 ****        -5.6239   3.9756   3.6636 H              1 S1                 0.0000
     28 ****        -5.3715   5.5254   1.0583 H              1 S1                 0.0000
     29 ****        -4.2659   4.3136   1.6866 H              1 S1                 0.0000
     30 ****        -5.8902   4.0135  -0.9074 H              1 S1                 0.0000
     31 ****        -4.2475   4.5632  -0.8490 H              1 S1                 0.0000
     32 ****         1.6190   0.5368  -0.4631 H              1 S1                 0.0000
     33 ****         1.3535  -0.2498   1.0656 H              1 S1                 0.0000
     34 ****         0.8298  -2.3769  -0.0951 H              1 S1                 0.0000
     35 ****         1.0644  -1.6403  -1.6576 H              1 S1                 0.0000
     36 ****         2.6056  -3.6234   0.6565 H              1 S1                 0.0000
     37 ****         2.7869  -3.9300  -1.0635 H              1 S1                 0.0000
     38 ****         4.9745  -2.9543   0.8582 H              1 S1                 0.0000
     39 ****         4.5079  -5.3914   1.0604 H              1 S1                 0.0000
     40 ****         6.0888  -5.1027   0.3408 H              1 S1                 0.0000
     41 ****         4.7346  -5.5862  -0.6772 H              1 S1                 0.0000
     42 ****         5.6266  -1.5122  -2.4637 H              1 S1                 0.0000
     43 ****         5.7008   0.3233  -0.8562 H              1 S1                 0.0000
     44 ****         6.8335  -0.9303  -0.3657 H              1 S1                 0.0000
     45 ****         5.2968  -0.7426   0.4775 H              1 S1                 0.0000
     46 ****         3.2823  -1.9814  -2.5916 H              1 S1                 0.0000
     47 ****         3.4424  -0.3776  -1.9122 H              1 S1                 0.0000
     48 ****        -2.8077  -0.8913  -0.2652 H              1 S1                 0.0000
     49 ****        -5.2066  -0.7215  -0.4596 H              1 S1                 0.0000
     50 ****         3.1827  -1.3627   0.2678 H              1 S1                 0.0000
     51 ****        -7.0956   3.9904   1.1673 LP             1 S1                 0.0000
     52 ****        -6.0981   2.8090   1.6925 LP             1 S1                 0.0000
     53 ****        -2.5355   3.2984  -0.1531 LP             1 S1                 0.0000
     54 ****        -0.9453   3.1588   0.0640 LP             1 S1                 0.0000
     55 ****         0.5755   2.3338   0.1454 LP             1 S1                 0.0000
     56 ****        -0.9953  -0.8065  -0.2016 LP             1 S1                 0.0000
     57 ****         5.1011  -3.6065  -1.9502 LP             1 S1                 0.0000
     58 ****         6.3445  -3.1555  -0.9926 LP             1 S1                 0.0000
     59 ****        -6.9413   2.4951  -0.5273 LP             1 S1                 0.0000
     60 ****        -7.0960   0.7707  -0.5749 LP             1 S1                 0.0000
@<TRIPOS>BOND
    1    1    2 1     
    2    1   25 1     
    3    1   26 1     
    4    1   27 1     
    5    2    3 1     
    6    3    4 1     
    7    3   28 1     
    8    3   29 1     
    9    4    5 1     
   10    4   30 1     
   11    4   31 1     
   12    5   23 am    
   13    5    6 1     
   14    6    7 2     
   15    7    8 1     
   16    7   21 1     
   17    8    9 2     
   18    8   10 1     
   19   10   11 1     
   20   11   12 1     
   21   11   32 1     
   22   11   33 1     
   23   12   13 1     
   24   12   34 1     
   25   12   35 1     
   26   13   20 1     
   27   13   14 1     
   28   13   50 1     
   29   14   15 1     
   30   14   36 1     
   31   14   37 1     
   32   15   16 1     
   33   15   17 1     
   34   15   38 1     
   35   16   39 1     
   36   16   40 1     
   37   16   41 1     
   38   17   18 1     
   39   18   19 1     
   40   18   20 1     
   41   18   42 1     
   42   19   43 1     
   43   19   44 1     
   44   19   45 1     
   45   20   46 1     
   46   20   47 1     
   47   21   22 2     
   48   21   48 1     
   49   22   23 1     
   50   22   49 1     
   51   23   24 2     
   52    2   51 1     
   53    2   52 1     
   54    6   53 1     
   55    9   54 1     
   56    9   55 1     
   57   10   56 1     
   58   17   57 1     
   59   17   58 1     
   60   24   59 1     
   61   24   60 1     
@<TRIPOS>SUBSTRUCTURE
      1 S1             1
@<TRIPOS>SET
LONE_PAIRS      STATIC     ATOMS    <user>   **** ""
10 51 52 53 54 55 56 57 58 59 60
DONOR_HYDROGENS      STATIC     ATOMS    <user>   **** ""
1 50
ATOM$BLUE        STATIC     ATOMS    COLORGROUP SYSTEM
10 51 52 53 54 55 56 57 58 59 60
ATOM$RED        STATIC     ATOMS    COLORGROUP SYSTEM
1 50
