AV-unprocessed.smi:900|AV-procd|sdf|4089|dock9
  -GOLD-   22720 1573D 1   1.00000     0.00000
 Structure written by MMmdl.
 33 34  0  0  0  0  0  0  0  0  1 V2000
  147.2692  141.3082  153.7823 C   0  0  0  0  0  0  0  0  0  0  0  0
  148.5687  140.6598  153.7007 N   0  0  0  0  0  0  0  0  0  0  0  0
  149.0829  139.8751  154.6594 C   0  0  0  0  0  0  0  0  0  0  0  0
  148.4912  139.6099  155.7057 O   0  0  0  0  0  0  0  0  0  0  0  0
  150.4770  139.3002  154.4010 C   0  0  0  0  0  0  0  0  0  0  0  0
  151.3896  139.6045  155.5456 C   0  0  0  0  0  0  0  0  0  0  0  0
  152.6280  139.1264  155.5878 N   0  0  0  0  0  0  0  0  0  0  0  0
  153.1222  139.6139  156.8060 O   0  0  0  0  0  0  0  0  0  0  0  0
  152.1211  140.3519  157.3424 C   0  0  0  0  0  0  0  0  0  0  0  0
  152.3186  140.9617  158.6906 C   0  0  0  0  0  0  0  0  0  0  0  0
  152.5001  142.4889  158.6372 C   0  0  0  0  0  0  0  0  0  0  0  0
  152.5348  143.1761  160.0061 C   0  0  0  0  0  0  0  0  0  0  0  0
  152.2139  144.6471  159.7206 C   0  0  0  0  0  0  0  0  0  0  0  0
  151.4637  144.6727  158.3796 C   0  0  0  0  0  0  0  0  0  0  0  0
  151.3666  143.2166  157.9114 C   0  0  0  0  0  0  0  0  0  0  0  0
  151.0144  140.3760  156.6039 N   0  0  0  0  0  0  0  0  0  0  0  0
  147.0430  141.8067  152.8397 H   0  0  0  0  0  0  0  0  0  0  0  0
  147.2625  142.0573  154.5749 H   0  0  0  0  0  0  0  0  0  0  0  0
  146.4797  140.5822  153.9819 H   0  0  0  0  0  0  0  0  0  0  0  0
  149.1194  140.8299  152.8711 H   0  0  0  0  0  0  0  0  0  0  0  0
  150.4108  138.2206  154.2571 H   0  0  0  0  0  0  0  0  0  0  0  0
  150.8882  139.7174  153.4807 H   0  0  0  0  0  0  0  0  0  0  0  0
  151.4550  140.7136  159.3087 H   0  0  0  0  0  0  0  0  0  0  0  0
  153.1823  140.4926  159.1632 H   0  0  0  0  0  0  0  0  0  0  0  0
  153.4326  142.7161  158.1172 H   0  0  0  0  0  0  0  0  0  0  0  0
  151.7626  142.7555  160.6519 H   0  0  0  0  0  0  0  0  0  0  0  0
  153.4920  143.0518  160.5139 H   0  0  0  0  0  0  0  0  0  0  0  0
  151.6266  145.0894  160.5260 H   0  0  0  0  0  0  0  0  0  0  0  0
  153.1367  145.2224  159.6364 H   0  0  0  0  0  0  0  0  0  0  0  0
  150.4763  145.1262  158.4731 H   0  0  0  0  0  0  0  0  0  0  0  0
  152.0256  145.2636  157.6551 H   0  0  0  0  0  0  0  0  0  0  0  0
  151.4369  143.1229  156.8274 H   0  0  0  0  0  0  0  0  0  0  0  0
  150.4044  142.8024  158.2163 H   0  0  0  0  0  0  0  0  0  0  0  0
  1  2  1  0  0  0  0
  1 17  1  0  0  0  0
  1 18  1  0  0  0  0
  1 19  1  0  0  0  0
  2  3  1  0  0  0  0
  2 20  1  0  0  0  0
  3  4  2  0  0  0  0
  3  5  1  0  0  0  0
  5  6  1  0  0  0  0
  5 21  1  0  0  0  0
  5 22  1  0  0  0  0
  6 16  1  0  0  0  0
  6  7  2  0  0  0  0
  7  8  1  0  0  0  0
  8  9  1  0  0  0  0
  9 10  1  0  0  0  0
  9 16  2  0  0  0  0
 10 11  1  0  0  0  0
 10 23  1  0  0  0  0
 10 24  1  0  0  0  0
 11 15  1  0  0  0  0
 11 12  1  0  0  0  0
 11 25  1  0  0  0  0
 12 13  1  0  0  0  0
 12 26  1  0  0  0  0
 12 27  1  0  0  0  0
 13 14  1  0  0  0  0
 13 28  1  0  0  0  0
 13 29  1  0  0  0  0
 14 15  1  0  0  0  0
 14 30  1  0  0  0  0
 14 31  1  0  0  0  0
 15 32  1  0  0  0  0
 15 33  1  0  0  0  0
M  END
> <s_m_source_file>
AV-unprocessed.smi

> <i_m_source_file_index>
900

> <i_lp_mmshare_version>
43012

> <i_f3d_flags>
0

> <s_epik_input>
W0NIM11bTkhdQyg9TylbQ0gyXWMxbm9jKG4xKVtDSDJdW0NIXTJbQ0gyXVtDSDJdW0NIMl1bQ0gyXTI=

> <s_epik_cmdline>
J2VwaWtfcHl0aG9uJywgJy1waCcsICc3LjAnLCAnLXRuJywgJzgnLCAnLW1hJywgJzIwMCcsICctbWV0YWxfYmluZGluZycsICctaW1hZScsICc8aW5maWxlLm1hZT4nLCAnLW9tYWUnLCAnPG91dGZpbGUubWFlPic=

> <r_lp_tautomer_probability>
1

> <r_epik_Ionization_Penalty>
1.02915e-07

> <r_epik_Ionization_Penalty_Charging>
0

> <r_epik_Ionization_Penalty_Neutral>
1.02915e-07

> <r_epik_State_Penalty>
-0

> <r_epik_Charging_Adjusted_Penalty>
0

> <i_epik_Tot_Q>
0

> <i_epik_Tot_abs_Q>
0

> <r_epik_Metal_State_Penalty>
-0

> <b_epik_Metal_Only>
0

> <s_lp_Force_Field>
OPLS_2005

> <r_lp_Energy>
19.3932

> <b_lp_Chiralities_Consistent>
1

> <s_lp_Variant>
AV-unprocessed.smi:900-1

> <Gold.Version>
5.8.1

> <Gold.Id.Protein>
6NUR|6NUR_protein|mol2

> <Gold.PLP.Fitness>
41.0937

> <Gold.PLP.PLP>
-35.9592

> <Gold.PLP.part.hbond>
-2.4023

> <Gold.PLP.part.metal>
0.0000

> <Gold.PLP.part.buried>
-4.9392

> <Gold.PLP.part.nonpolar>
-28.5055

> <Gold.PLP.part.repulsive>
0.1771

> <Gold.PLP.ligand.clash>
0.0000

> <Gold.PLP.ligand.torsion>
0.2615

> <Gold.PLP.Chemscore.Hbond>
1.8800

> <Gold.PLP.Chemscore.CHOScore>
0.0000

> <Gold.PLP.Chemscore.Metal>
0.0000

> <Gold.Chemscore.Hbonds>
donor molecule, donor type, donor heavy atom, donor atom, acceptor molecule, acceptor atom, score
      L1  H     2    20       P1  7957  0.86
      P1  H  7997  8010       L1     8  0.71

> <Gold.PLP.Chemscore.Internal.Correction>
0.0175

> <Gold.Rescore>
     Score         DG    S(hbond)    S(metal)    S(lipo)     H(rot)  DE(clash)    DE(int)     intcor
     14.85     -16.52       1.89        0.00      81.55       1.87       0.06       1.62       ----

> <Gold.Chemscore.Fitness>
14.8489

> <Gold.Chemscore.DG>
-16.5249

> <Gold.Chemscore.ZeroCoef>
-5.4800

> <Gold.Chemscore.Hbond>
1.8856

> <Gold.Chemscore.Metal>
0.0000

> <Gold.Chemscore.Lipo>
81.5475

> <Gold.Chemscore.Internal_Hbond>
0.0000

> <Gold.Chemscore.DEClash>
0.0580

> <Gold.Chemscore.DEInternal>
1.6180

> <Gold.Chemscore.Rot>
1.8727

> <Gold.Chemscore.Internal.Correction>
   9.000000E+99

> <Gold.Chemscore.Hbonds>
donor molecule, donor type, donor heavy atom, donor atom, acceptor molecule, acceptor atom, score
      L1  H     2    20       P1  7957  0.84
      P1  H  7997  8010       L1     8  0.64

> <Gold.Chemscore.Hbond.Weighted>
-6.2978

> <Gold.Chemscore.Metal.Weighted>
-0.0000

> <Gold.Chemscore.Lipo.Weighted>
-9.5411

> <Gold.Chemscore.Internal_Hbond.Weighted>
0.0000

> <Gold.Chemscore.DEClash.Weighted>
0.0580

> <Gold.Chemscore.DEInternal.Weighted>
1.6180

> <Gold.Chemscore.Rot.Weighted>
4.7940

> <Gold.Chemscore.Internal.Correction.Weighted>
   9.000000E+99

> <Gold.Protein.RotatedTorsions>
[ 6907 6896 6895 6894 ] final  -17.86 input  -60.11 | X-H torsion
[ 7974 7965 7964 7962 ] final   96.16 input  175.53 | X-H torsion
[ 8008 7997 7996 7995 ] final   46.00 input   59.86 | X-H torsion
[ 10167 10162 10161 10158 ] final  174.47 input  -65.29 | X-H torsion
[ 10718 10713 10712 10709 ] final  -49.03 input   66.30 | X-H torsion
[ 10763 10752 10751 10750 ] final -159.79 input  -60.55 | X-H torsion
[ 11005 11000 10999 10996 ] final  154.61 input  -57.11 | X-H torsion

> <Gold.Protein.ActiveResidues>
 VAL166  LYS551  ARG553  GLY616  TRP617  ASP618  TYR619  PRO620  LYS621  CYS622 
 ASP623  PHE694  ASN695  SER759  ASP760  ASP761  ALA762  ILE779  LEU786  VAL792 
 PHE793  MET794  SER795  GLU796  ALA797  LYS798  CYS799  TRP800  GLU811  SER814 

> <Gold.Protein.RotatedAtoms>
  151.2869  135.0730  159.9189 H   0  0  0  0  0  0  0  0  0  0  0  0  # atno 6907 bound_to 6896
  152.5324  133.9973  159.7888 H   0  0  0  0  0  0  0  0  0  0  0  0  # atno 6908 bound_to 6896
  151.0236  133.5803  159.2699 H   0  0  0  0  0  0  0  0  0  0  0  0  # atno 6909 bound_to 6896
  145.4425  139.2300  143.3084 H   0  0  0  0  0  0  0  0  0  0  0  0  # atno 7974 bound_to 7965
  155.3451  140.3410  155.4239 H   0  0  0  0  0  0  0  0  0  0  0  0  # atno 8008 bound_to 7997
  156.1793  140.1658  156.8340 H   0  0  0  0  0  0  0  0  0  0  0  0  # atno 8009 bound_to 7997
  154.5316  140.0744  156.8337 H   0  0  0  0  0  0  0  0  0  0  0  0  # atno 8010 bound_to 7997
  139.5143  144.3143  152.0262 H   0  0  0  0  0  0  0  0  0  0  0  0  # atno 10167 bound_to 10162
  156.1931  130.4153  149.9343 H   0  0  0  0  0  0  0  0  0  0  0  0  # atno 10718 bound_to 10713
  154.7445  135.3077  154.8669 H   0  0  0  0  0  0  0  0  0  0  0  0  # atno 10763 bound_to 10752
  153.9473  135.6768  153.4748 H   0  0  0  0  0  0  0  0  0  0  0  0  # atno 10764 bound_to 10752
  153.1042  135.4897  154.8848 H   0  0  0  0  0  0  0  0  0  0  0  0  # atno 10765 bound_to 10752
  140.1505  134.8678  157.2448 H   0  0  0  0  0  0  0  0  0  0  0  0  # atno 11005 bound_to 11000
  146.2548  140.5175  142.8878 LP  0  0  0  0  0  0  0  0  0  0  0  0  # atno 17320 bound_to 7965
  144.8112  140.6389  143.6414 LP  0  0  0  0  0  0  0  0  0  0  0  0  # atno 17321 bound_to 7965
  140.2587  144.4091  150.6194 LP  0  0  0  0  0  0  0  0  0  0  0  0  # atno 17342 bound_to 10162
  140.6173  143.2173  151.6766 LP  0  0  0  0  0  0  0  0  0  0  0  0  # atno 17343 bound_to 10162
  156.7077  130.8958  151.3606 LP  0  0  0  0  0  0  0  0  0  0  0  0  # atno 17370 bound_to 10713
  157.6941  130.9264  150.0596 LP  0  0  0  0  0  0  0  0  0  0  0  0  # atno 17371 bound_to 10713
  140.2611  134.3570  155.7406 LP  0  0  0  0  0  0  0  0  0  0  0  0  # atno 17394 bound_to 11000
  141.2198  133.7370  156.9081 LP  0  0  0  0  0  0  0  0  0  0  0  0  # atno 17395 bound_to 11000

$$$$
