AV-unprocessed.smi:1849|AV-procd|sdf|7520|dock1
  -GOLD-   22720 9223D 1   1.00000     0.00000
 Structure written by MMmdl.
 41 42  0  0  0  0  0  0  0  0  2 V2000
  148.3734  141.4610  154.8263 C   0  0  0  0  0  0  0  0  0  0  0  0
  148.0490  140.3112  153.9790 N   0  0  0  0  0  0  0  0  0  0  0  0
  146.8443  140.0544  153.3760 C   0  0  0  0  0  0  0  0  0  0  0  0
  146.9922  138.8786  152.6873 C   0  0  0  0  0  0  0  0  0  0  0  0
  148.2803  138.4668  152.8977 N   0  3  0  0  0  0  0  0  0  0  0  0
  148.9266  139.3391  153.6801 C   0  0  0  0  0  0  0  0  0  0  0  0
  150.3468  139.2138  154.1342 C   0  0  0  0  0  0  0  0  0  0  0  0
  150.4644  138.8453  155.6224 C   0  0  0  0  0  0  0  0  0  0  0  0
  150.5316  140.0329  156.4649 N   0  0  0  0  0  0  0  0  0  0  0  0
  151.5693  140.3530  157.2507 C   0  0  0  0  0  0  0  0  0  0  0  0
  152.5910  139.6731  157.3511 O   0  0  0  0  0  0  0  0  0  0  0  0
  151.3553  141.4958  157.9175 N   0  0  0  0  0  0  0  0  0  0  0  0
  152.2847  142.1054  158.8638 C   0  0  0  0  0  0  0  0  0  0  0  0
  152.7999  141.0559  159.8713 C   0  0  0  0  0  0  0  0  0  0  0  0
  153.7142  141.6927  160.9302 C   0  0  0  0  0  0  0  0  0  0  0  0
  153.0092  142.8509  161.6533 C   0  0  0  0  0  0  0  0  0  0  0  0
  152.5049  143.9022  160.6527 C   0  0  0  0  0  0  0  0  0  0  0  0
  151.5872  143.2689  159.5943 C   0  0  0  0  0  0  0  0  0  0  0  0
  147.4785  142.0645  154.9811 H   0  0  0  0  0  0  0  0  0  0  0  0
  149.1366  142.0661  154.3360 H   0  0  0  0  0  0  0  0  0  0  0  0
  148.7419  141.1114  155.7911 H   0  0  0  0  0  0  0  0  0  0  0  0
  145.9918  140.7100  153.4796 H   0  0  0  0  0  0  0  0  0  0  0  0
  146.2957  138.3187  152.0802 H   0  0  0  0  0  0  0  0  0  0  0  0
  150.8159  138.4530  153.5090 H   0  0  0  0  0  0  0  0  0  0  0  0
  150.8421  140.1600  153.9147 H   0  0  0  0  0  0  0  0  0  0  0  0
  149.6249  138.2217  155.9339 H   0  0  0  0  0  0  0  0  0  0  0  0
  151.3666  138.2564  155.7900 H   0  0  0  0  0  0  0  0  0  0  0  0
  149.7359  140.6544  156.4473 H   0  0  0  0  0  0  0  0  0  0  0  0
  150.4823  141.9797  157.7652 H   0  0  0  0  0  0  0  0  0  0  0  0
  153.1354  142.5131  158.3138 H   0  0  0  0  0  0  0  0  0  0  0  0
  151.9557  140.5738  160.3665 H   0  0  0  0  0  0  0  0  0  0  0  0
  153.3428  140.2666  159.3499 H   0  0  0  0  0  0  0  0  0  0  0  0
  154.0270  140.9386  161.6530 H   0  0  0  0  0  0  0  0  0  0  0  0
  154.6237  142.0598  160.4532 H   0  0  0  0  0  0  0  0  0  0  0  0
  152.1694  142.4642  162.2322 H   0  0  0  0  0  0  0  0  0  0  0  0
  153.6909  143.3134  162.3675 H   0  0  0  0  0  0  0  0  0  0  0  0
  151.9715  144.6928  161.1815 H   0  0  0  0  0  0  0  0  0  0  0  0
  153.3555  144.3774  160.1624 H   0  0  0  0  0  0  0  0  0  0  0  0
  151.2775  144.0296  158.8766 H   0  0  0  0  0  0  0  0  0  0  0  0
  150.6766  142.9106  160.0770 H   0  0  0  0  0  0  0  0  0  0  0  0
  148.6894  137.6233  152.5157 H   0  0  0  0  0  0  0  0  0  0  0  0
  1  2  1  0  0  0  0
  1 19  1  0  0  0  0
  1 20  1  0  0  0  0
  1 21  1  0  0  0  0
  2  6  1  0  0  0  0
  2  3  1  0  0  0  0
  3  4  2  0  0  0  0
  3 22  1  0  0  0  0
  4  5  1  0  0  0  0
  4 23  1  0  0  0  0
  5  6  2  0  0  0  0
  5 41  1  0  0  0  0
  6  7  1  0  0  0  0
  7  8  1  0  0  0  0
  7 24  1  0  0  0  0
  7 25  1  0  0  0  0
  8  9  1  0  0  0  0
  8 26  1  0  0  0  0
  8 27  1  0  0  0  0
  9 10  1  0  0  0  0
  9 28  1  0  0  0  0
 10 11  2  0  0  0  0
 10 12  1  0  0  0  0
 12 13  1  0  0  0  0
 12 29  1  0  0  0  0
 13 18  1  0  0  0  0
 13 14  1  0  0  0  0
 13 30  1  0  0  0  0
 14 15  1  0  0  0  0
 14 31  1  0  0  0  0
 14 32  1  0  0  0  0
 15 16  1  0  0  0  0
 15 33  1  0  0  0  0
 15 34  1  0  0  0  0
 16 17  1  0  0  0  0
 16 35  1  0  0  0  0
 16 36  1  0  0  0  0
 17 18  1  0  0  0  0
 17 37  1  0  0  0  0
 17 38  1  0  0  0  0
 18 39  1  0  0  0  0
 18 40  1  0  0  0  0
M  CHG  1   5   1
M  END
> <s_m_source_file>
AV-unprocessed.smi

> <i_m_source_file_index>
1849

> <i_lp_mmshare_version>
43012

> <i_f3d_flags>
0

> <s_epik_input>
W0NIM11uMVtjSF1bY0hdbmMxW0NIMl1bQ0gyXVtOSF1DKD1PKVtOSF1bQ0hdMltDSDJdW0NIMl1bQ0gyXVtDSDJdW0NIMl0y

> <s_epik_cmdline>
J2VwaWtfcHl0aG9uJywgJy1waCcsICc3LjAnLCAnLXRuJywgJzgnLCAnLW1hJywgJzIwMCcsICctbWV0YWxfYmluZGluZycsICctaW1hZScsICc8aW5maWxlLm1hZT4nLCAnLW9tYWUnLCAnPG91dGZpbGUubWFlPic=

> <r_lp_tautomer_probability>
1

> <r_epik_Ionization_Penalty>
0.0507041

> <r_epik_Ionization_Penalty_Charging>
0

> <r_epik_Ionization_Penalty_Neutral>
0.0507041

> <r_epik_State_Penalty>
0.0433397

> <r_epik_Charging_Adjusted_Penalty>
0.0433397

> <i_epik_Tot_Q>
1

> <i_epik_Tot_abs_Q>
1

> <r_epik_Metal_State_Penalty>
0.385258

> <b_epik_Metal_Only>
0

> <s_lp_Force_Field>
OPLS_2005

> <r_lp_Energy>
7.33452

> <b_lp_Chiralities_Consistent>
1

> <s_lp_Variant>
AV-unprocessed.smi:1849-1

> <Gold.Version>
5.8.1

> <Gold.Id.Protein>
6NUR|6NUR_protein|mol2

> <Gold.PLP.Fitness>
46.9006

> <Gold.PLP.PLP>
-35.8064

> <Gold.PLP.part.hbond>
-3.0000

> <Gold.PLP.part.metal>
0.0000

> <Gold.PLP.part.buried>
0.2769

> <Gold.PLP.part.nonpolar>
-33.5780

> <Gold.PLP.part.repulsive>
0.1780

> <Gold.PLP.ligand.clash>
0.0000

> <Gold.PLP.ligand.torsion>
0.4363

> <Gold.PLP.Chemscore.Hbond>
3.0000

> <Gold.PLP.Chemscore.CHOScore>
0.9816

> <Gold.PLP.Chemscore.Metal>
0.0000

> <Gold.Chemscore.Hbonds>
donor molecule, donor type, donor heavy atom, donor atom, acceptor molecule, acceptor atom, score
      L1  H     5    41       P1  7948  2.00
      P1  H  7997  8010       L1    11  1.00
      L1  C     3    22       P1 10175  0.99

> <Gold.PLP.Chemscore.Internal.Correction>
0.0220

> <Gold.Rescore>
     Score         DG    S(hbond)    S(metal)    S(lipo)     H(rot)  DE(clash)    DE(int)     intcor
     16.66     -18.73       1.94        0.00      95.65       1.73       0.17       1.90       ----

> <Gold.Chemscore.Fitness>
16.6610

> <Gold.Chemscore.DG>
-18.7273

> <Gold.Chemscore.ZeroCoef>
-5.4800

> <Gold.Chemscore.Hbond>
1.9389

> <Gold.Chemscore.Metal>
0.0000

> <Gold.Chemscore.Lipo>
95.6529

> <Gold.Chemscore.Internal_Hbond>
0.0000

> <Gold.Chemscore.DEClash>
0.1709

> <Gold.Chemscore.DEInternal>
1.8954

> <Gold.Chemscore.Rot>
1.7265

> <Gold.Chemscore.Internal.Correction>
   9.000000E+99

> <Gold.Chemscore.Hbonds>
donor molecule, donor type, donor heavy atom, donor atom, acceptor molecule, acceptor atom, score
      L1  H     5    41       P1  7948  0.93
      P1  H  7997  8010       L1    11  0.98

> <Gold.Chemscore.Hbond.Weighted>
-6.4758

> <Gold.Chemscore.Metal.Weighted>
-0.0000

> <Gold.Chemscore.Lipo.Weighted>
-11.1914

> <Gold.Chemscore.Internal_Hbond.Weighted>
0.0000

> <Gold.Chemscore.DEClash.Weighted>
0.1709

> <Gold.Chemscore.DEInternal.Weighted>
1.8954

> <Gold.Chemscore.Rot.Weighted>
4.4199

> <Gold.Chemscore.Internal.Correction.Weighted>
   9.000000E+99

> <Gold.Protein.RotatedTorsions>
[ 6907 6896 6895 6894 ] final -119.93 input  -60.11 | X-H torsion
[ 7974 7965 7964 7962 ] final  106.74 input  175.53 | X-H torsion
[ 8008 7997 7996 7995 ] final   62.22 input   59.86 | X-H torsion
[ 10167 10162 10161 10158 ] final   25.70 input  -65.29 | X-H torsion
[ 10718 10713 10712 10709 ] final   72.17 input   66.30 | X-H torsion
[ 10763 10752 10751 10750 ] final  -97.82 input  -60.55 | X-H torsion
[ 11005 11000 10999 10996 ] final  -89.69 input  -57.11 | X-H torsion

> <Gold.Protein.ActiveResidues>
 VAL166  LYS551  ARG553  GLY616  TRP617  ASP618  TYR619  PRO620  LYS621  CYS622 
 ASP623  PHE694  ASN695  SER759  ASP760  ASP761  ALA762  ILE779  LEU786  VAL792 
 PHE793  MET794  SER795  GLU796  ALA797  LYS798  CYS799  TRP800  GLU811  SER814 

> <Gold.Protein.RotatedAtoms>
  150.8348  133.8031  159.3083 H   0  0  0  0  0  0  0  0  0  0  0  0  # atno 6907 bound_to 6896
  151.5750  135.1059  160.0013 H   0  0  0  0  0  0  0  0  0  0  0  0  # atno 6908 bound_to 6896
  152.4422  133.7428  159.6707 H   0  0  0  0  0  0  0  0  0  0  0  0  # atno 6909 bound_to 6896
  145.3027  139.2564  143.3805 H   0  0  0  0  0  0  0  0  0  0  0  0  # atno 7974 bound_to 7965
  155.6108  140.3495  155.4622 H   0  0  0  0  0  0  0  0  0  0  0  0  # atno 8008 bound_to 7997
  156.0156  140.1242  157.0434 H   0  0  0  0  0  0  0  0  0  0  0  0  # atno 8009 bound_to 7997
  154.4296  140.1073  156.5877 H   0  0  0  0  0  0  0  0  0  0  0  0  # atno 8010 bound_to 7997
  140.5084  144.0200  150.6362 H   0  0  0  0  0  0  0  0  0  0  0  0  # atno 10167 bound_to 10162
  157.6488  130.9565  150.0891 H   0  0  0  0  0  0  0  0  0  0  0  0  # atno 10718 bound_to 10713
  154.7361  135.5032  153.9044 H   0  0  0  0  0  0  0  0  0  0  0  0  # atno 10763 bound_to 10752
  153.0997  135.6682  153.9705 H   0  0  0  0  0  0  0  0  0  0  0  0  # atno 10764 bound_to 10752
  153.9494  135.3059  155.3418 H   0  0  0  0  0  0  0  0  0  0  0  0  # atno 10765 bound_to 10752
  141.1580  133.7645  156.9631 H   0  0  0  0  0  0  0  0  0  0  0  0  # atno 11005 bound_to 11000
  146.3146  140.3545  142.8659 LP  0  0  0  0  0  0  0  0  0  0  0  0  # atno 17320 bound_to 7965
  144.9080  140.7723  143.5825 LP  0  0  0  0  0  0  0  0  0  0  0  0  # atno 17321 bound_to 7965
  140.3516  143.2960  152.0481 LP  0  0  0  0  0  0  0  0  0  0  0  0  # atno 17342 bound_to 10162
  139.4889  144.6369  151.6956 LP  0  0  0  0  0  0  0  0  0  0  0  0  # atno 17343 bound_to 10162
  156.1845  130.3651  149.8991 LP  0  0  0  0  0  0  0  0  0  0  0  0  # atno 17370 bound_to 10713
  156.6934  130.8905  151.3591 LP  0  0  0  0  0  0  0  0  0  0  0  0  # atno 17371 bound_to 10713
  140.1180  134.9435  157.2162 LP  0  0  0  0  0  0  0  0  0  0  0  0  # atno 17394 bound_to 11000
  140.3109  134.3025  155.7267 LP  0  0  0  0  0  0  0  0  0  0  0  0  # atno 17395 bound_to 11000

$$$$
