AV-unprocessed.smi:2107|AV-procd|sdf|8603|dock9
  -GOLD-   2272011343D 1   1.00000     0.00000
 Structure written by MMmdl.
 46 47  0  0  0  0  0  0  0  0  3 V2000
  145.9546  133.2154  161.8836 C   0  0  0  0  0  0  0  0  0  0  0  0
  147.2538  133.7839  161.2977 C   0  0  0  0  0  0  0  0  0  0  0  0
  147.1618  135.2433  161.1295 N   0  0  0  0  0  0  0  0  0  0  0  0
  146.7436  136.0201  162.3091 C   0  0  0  0  0  0  0  0  0  0  0  0
  145.3182  136.5632  162.1425 C   0  0  0  0  0  0  0  0  0  0  0  0
  147.0548  135.9446  159.5379 S   0  0  0  0  0  0  0  0  0  0  0  0
  145.9121  135.3079  158.8599 O   0  0  0  0  0  0  0  0  0  0  0  0
  146.9862  137.3972  159.7575 O   0  0  0  0  0  0  0  0  0  0  0  0
  148.5113  135.4777  158.9755 N   0  5  0  0  0  0  0  0  0  0  0  0
  148.6585  134.8332  157.6766 C   0  0  0  0  0  0  0  0  0  0  0  0
  148.9617  135.8512  156.5700 C   0  0  0  0  0  0  0  0  0  0  0  0
  149.1730  137.2034  156.9405 C   0  0  0  0  0  0  0  0  0  0  0  0
  149.4701  138.1690  155.9588 C   0  0  0  0  0  0  0  0  0  0  0  0
  149.5526  137.7717  154.6134 C   0  0  0  0  0  0  0  0  0  0  0  0
  149.3446  136.4808  154.2837 N   0  3  0  0  0  0  0  0  0  0  0  0
  149.0539  135.5064  155.1828 C   0  0  0  0  0  0  0  0  0  0  0  0
  148.8410  134.2108  154.6669 N   0  0  0  0  0  0  0  0  0  0  0  0
  147.6501  134.1104  153.8323 C   0  0  0  0  0  0  0  0  0  0  0  0
  147.3963  132.6434  153.4447 C   0  0  0  0  0  0  0  0  0  0  0  0
  148.5612  132.1006  152.8287 O   0  0  0  0  0  0  0  0  0  0  0  0
  149.6887  132.1279  153.6994 C   0  0  0  0  0  0  0  0  0  0  0  0
  150.0124  133.5852  154.0682 C   0  0  0  0  0  0  0  0  0  0  0  0
  146.0189  132.1323  161.9859 H   0  0  0  0  0  0  0  0  0  0  0  0
  145.1021  133.4384  161.2415 H   0  0  0  0  0  0  0  0  0  0  0  0
  145.7437  133.6270  162.8704 H   0  0  0  0  0  0  0  0  0  0  0  0
  148.0984  133.5496  161.9463 H   0  0  0  0  0  0  0  0  0  0  0  0
  147.4619  133.3068  160.3393 H   0  0  0  0  0  0  0  0  0  0  0  0
  146.7837  135.3863  163.1958 H   0  0  0  0  0  0  0  0  0  0  0  0
  147.4504  136.8326  162.4805 H   0  0  0  0  0  0  0  0  0  0  0  0
  145.0040  137.1012  163.0368 H   0  0  0  0  0  0  0  0  0  0  0  0
  144.6070  135.7535  161.9763 H   0  0  0  0  0  0  0  0  0  0  0  0
  145.2455  137.2521  161.3011 H   0  0  0  0  0  0  0  0  0  0  0  0
  149.4467  134.0801  157.6990 H   0  0  0  0  0  0  0  0  0  0  0  0
  147.7613  134.2931  157.3741 H   0  0  0  0  0  0  0  0  0  0  0  0
  149.1128  137.5231  157.9724 H   0  0  0  0  0  0  0  0  0  0  0  0
  149.6313  139.2001  156.2369 H   0  0  0  0  0  0  0  0  0  0  0  0
  149.7731  138.4418  153.7956 H   0  0  0  0  0  0  0  0  0  0  0  0
  146.7875  134.5083  154.3683 H   0  0  0  0  0  0  0  0  0  0  0  0
  147.7799  134.7154  152.9339 H   0  0  0  0  0  0  0  0  0  0  0  0
  147.1246  132.0491  154.3179 H   0  0  0  0  0  0  0  0  0  0  0  0
  146.5613  132.5792  152.7469 H   0  0  0  0  0  0  0  0  0  0  0  0
  149.4871  131.5350  154.5935 H   0  0  0  0  0  0  0  0  0  0  0  0
  150.5394  131.6687  153.1959 H   0  0  0  0  0  0  0  0  0  0  0  0
  150.3128  134.1340  153.1749 H   0  0  0  0  0  0  0  0  0  0  0  0
  150.8474  133.6201  154.7687 H   0  0  0  0  0  0  0  0  0  0  0  0
  149.4027  136.2219  153.2988 H   0  0  0  0  0  0  0  0  0  0  0  0
  1  2  1  0  0  0  0
  1 23  1  0  0  0  0
  1 24  1  0  0  0  0
  1 25  1  0  0  0  0
  2  3  1  0  0  0  0
  2 26  1  0  0  0  0
  2 27  1  0  0  0  0
  3  4  1  0  0  0  0
  3  6  1  0  0  0  0
  4  5  1  0  0  0  0
  4 28  1  0  0  0  0
  4 29  1  0  0  0  0
  5 30  1  0  0  0  0
  5 31  1  0  0  0  0
  5 32  1  0  0  0  0
  6  7  2  0  0  0  0
  6  8  2  0  0  0  0
  6  9  1  0  0  0  0
  9 10  1  0  0  0  0
 10 11  1  0  0  0  0
 10 33  1  0  0  0  0
 10 34  1  0  0  0  0
 11 16  1  0  0  0  0
 11 12  2  0  0  0  0
 12 13  1  0  0  0  0
 12 35  1  0  0  0  0
 13 14  2  0  0  0  0
 13 36  1  0  0  0  0
 14 15  1  0  0  0  0
 14 37  1  0  0  0  0
 15 16  2  0  0  0  0
 15 46  1  0  0  0  0
 16 17  1  0  0  0  0
 17 22  1  0  0  0  0
 17 18  1  0  0  0  0
 18 19  1  0  0  0  0
 18 38  1  0  0  0  0
 18 39  1  0  0  0  0
 19 20  1  0  0  0  0
 19 40  1  0  0  0  0
 19 41  1  0  0  0  0
 20 21  1  0  0  0  0
 21 22  1  0  0  0  0
 21 42  1  0  0  0  0
 21 43  1  0  0  0  0
 22 44  1  0  0  0  0
 22 45  1  0  0  0  0
M  CHG  1   9  -1
M  CHG  1  15   1
M  END
> <s_m_source_file>
AV-unprocessed.smi

> <i_m_source_file_index>
2107

> <i_lp_mmshare_version>
43012

> <i_f3d_flags>
0

> <s_epik_input>
W0NIM11bQ0gyXU4oW0NIMl1bQ0gzXSlTKD1PKSg9TylbTkhdW0NIMl1jMVtjSF1bY0hdW2NIXW5jMU4yW0NIMl1bQ0gyXU9bQ0gyXVtDSDJdMg==

> <s_epik_cmdline>
J2VwaWtfcHl0aG9uJywgJy1waCcsICc3LjAnLCAnLXRuJywgJzgnLCAnLW1hJywgJzIwMCcsICctbWV0YWxfYmluZGluZycsICctaW1hZScsICc8aW5maWxlLm1hZT4nLCAnLW9tYWUnLCAnPG91dGZpbGUubWFlPic=

> <r_lp_tautomer_probability>
0.999994

> <r_epik_Ionization_Penalty>
2.67026

> <r_epik_Ionization_Penalty_Charging>
2.67026

> <r_epik_Ionization_Penalty_Neutral>
4.07977e-08

> <r_epik_State_Penalty>
4.05768

> <r_epik_Charging_Adjusted_Penalty>
6.72795

> <i_epik_Tot_Q>
0

> <i_epik_Tot_abs_Q>
2

> <r_epik_Metal_State_Penalty>
2.91237

> <b_epik_Metal_Only>
1

> <s_lp_Force_Field>
OPLS_2005

> <r_lp_Energy>
19.7011

> <b_lp_Chiralities_Consistent>
1

> <s_lp_Variant>
AV-unprocessed.smi:2107-4

> <Gold.Version>
5.8.1

> <Gold.Id.Protein>
6NUR|6NUR_protein|mol2

> <Gold.PLP.Fitness>
47.5515

> <Gold.PLP.PLP>
-32.8740

> <Gold.PLP.part.hbond>
-4.0163

> <Gold.PLP.part.metal>
0.0000

> <Gold.PLP.part.buried>
-4.2352

> <Gold.PLP.part.nonpolar>
-25.6210

> <Gold.PLP.part.repulsive>
0.2660

> <Gold.PLP.ligand.clash>
0.0360

> <Gold.PLP.ligand.torsion>
2.1204

> <Gold.PLP.Chemscore.Hbond>
5.1047

> <Gold.PLP.Chemscore.CHOScore>
0.0000

> <Gold.PLP.Chemscore.Metal>
0.0000

> <Gold.Chemscore.Hbonds>
donor molecule, donor type, donor heavy atom, donor atom, acceptor molecule, acceptor atom, score
      L1  H    15    46       P1  7948  1.72
      P1  H  6934  6947       L1     8  1.00

> <Gold.PLP.Chemscore.Internal.Correction>
3.6402

> <Gold.Rescore>
     Score         DG    S(hbond)    S(metal)    S(lipo)     H(rot)  DE(clash)    DE(int)     intcor
     16.22     -18.48       2.99        0.00      63.26       1.72       0.04       2.23       ----

> <Gold.Chemscore.Fitness>
16.2158

> <Gold.Chemscore.DG>
-18.4767

> <Gold.Chemscore.ZeroCoef>
-5.4800

> <Gold.Chemscore.Hbond>
2.9903

> <Gold.Chemscore.Metal>
0.0000

> <Gold.Chemscore.Lipo>
63.2625

> <Gold.Chemscore.Internal_Hbond>
0.0000

> <Gold.Chemscore.DEClash>
0.0359

> <Gold.Chemscore.DEInternal>
2.2250

> <Gold.Chemscore.Rot>
1.7159

> <Gold.Chemscore.Internal.Correction>
   9.000000E+99

> <Gold.Chemscore.Hbonds>
donor molecule, donor type, donor heavy atom, donor atom, acceptor molecule, acceptor atom, score
      L1  H    15    46       P1  7948  0.50
      P1  H  6934  6947       L1     8  0.92

> <Gold.Chemscore.Hbond.Weighted>
-9.9875

> <Gold.Chemscore.Metal.Weighted>
-0.0000

> <Gold.Chemscore.Lipo.Weighted>
-7.4017

> <Gold.Chemscore.Internal_Hbond.Weighted>
0.0000

> <Gold.Chemscore.DEClash.Weighted>
0.0359

> <Gold.Chemscore.DEInternal.Weighted>
2.2250

> <Gold.Chemscore.Rot.Weighted>
4.3926

> <Gold.Chemscore.Internal.Correction.Weighted>
   9.000000E+99

> <Gold.Protein.RotatedTorsions>
[ 6907 6896 6895 6894 ] final -177.11 input  -60.11 | X-H torsion
[ 7974 7965 7964 7962 ] final   30.29 input  175.53 | X-H torsion
[ 8008 7997 7996 7995 ] final  -73.61 input   59.86 | X-H torsion
[ 10167 10162 10161 10158 ] final  -87.93 input  -65.29 | X-H torsion
[ 10718 10713 10712 10709 ] final   56.59 input   66.30 | X-H torsion
[ 10763 10752 10751 10750 ] final -124.45 input  -60.55 | X-H torsion
[ 11005 11000 10999 10996 ] final   79.52 input  -57.11 | X-H torsion

> <Gold.Protein.ActiveResidues>
 VAL166  LYS551  ARG553  GLY616  TRP617  ASP618  TYR619  PRO620  LYS621  CYS622 
 ASP623  PHE694  ASN695  SER759  ASP760  ASP761  ALA762  ILE779  LEU786  VAL792 
 PHE793  MET794  SER795  GLU796  ALA797  LYS798  CYS799  TRP800  GLU811  SER814 

> <Gold.Protein.RotatedAtoms>
  151.6156  133.3343  159.3076 H   0  0  0  0  0  0  0  0  0  0  0  0  # atno 6907 bound_to 6896
  150.8133  134.7304  159.6719 H   0  0  0  0  0  0  0  0  0  0  0  0  # atno 6908 bound_to 6896
  152.4229  134.5926  160.0030 H   0  0  0  0  0  0  0  0  0  0  0  0  # atno 6909 bound_to 6896
  146.1620  139.6808  142.9027 H   0  0  0  0  0  0  0  0  0  0  0  0  # atno 7974 bound_to 7965
  154.5262  140.0776  156.8262 H   0  0  0  0  0  0  0  0  0  0  0  0  # atno 8008 bound_to 7997
  155.3471  140.3410  155.4221 H   0  0  0  0  0  0  0  0  0  0  0  0  # atno 8009 bound_to 7997
  156.1733  140.1627  156.8394 H   0  0  0  0  0  0  0  0  0  0  0  0  # atno 8010 bound_to 7997
  140.3797  143.2754  151.9399 H   0  0  0  0  0  0  0  0  0  0  0  0  # atno 10167 bound_to 10162
  157.5444  130.8720  149.8869 H   0  0  0  0  0  0  0  0  0  0  0  0  # atno 10718 bound_to 10713
  154.8723  135.4063  154.3107 H   0  0  0  0  0  0  0  0  0  0  0  0  # atno 10763 bound_to 10752
  153.3951  135.7016  153.6472 H   0  0  0  0  0  0  0  0  0  0  0  0  # atno 10764 bound_to 10752
  153.5238  135.3682  155.2615 H   0  0  0  0  0  0  0  0  0  0  0  0  # atno 10765 bound_to 10752
  139.9169  134.7849  156.1790 H   0  0  0  0  0  0  0  0  0  0  0  0  # atno 11005 bound_to 11000
  145.4563  141.0431  143.2776 LP  0  0  0  0  0  0  0  0  0  0  0  0  # atno 17320 bound_to 7965
  144.8040  139.6086  143.7059 LP  0  0  0  0  0  0  0  0  0  0  0  0  # atno 17321 bound_to 7965
  139.4796  144.5830  151.7900 LP  0  0  0  0  0  0  0  0  0  0  0  0  # atno 17342 bound_to 10162
  140.4950  144.1254  150.5958 LP  0  0  0  0  0  0  0  0  0  0  0  0  # atno 17343 bound_to 10162
  156.0523  130.3715  150.1172 LP  0  0  0  0  0  0  0  0  0  0  0  0  # atno 17370 bound_to 10713
  156.9350  130.9726  151.3526 LP  0  0  0  0  0  0  0  0  0  0  0  0  # atno 17371 bound_to 10713
  141.0654  133.6822  156.2034 LP  0  0  0  0  0  0  0  0  0  0  0  0  # atno 17394 bound_to 11000
  140.6594  134.4984  157.5582 LP  0  0  0  0  0  0  0  0  0  0  0  0  # atno 17395 bound_to 11000

$$$$
