AV-unprocessed.smi:781|AV-procd|sdf|3709|dock3
  -GOLD-   22720 1133D 1   1.00000     0.00000
 Structure written by MMmdl.
 38 40  0  0  0  0  0  0  0  0  1 V2000
  146.8193  133.9807  162.7280 C   0  0  0  0  0  0  0  0  0  0  0  0
  147.2059  135.1288  161.8598 C   0  0  0  0  0  0  0  0  0  0  0  0
  147.5741  135.2201  160.5468 C   0  0  0  0  0  0  0  0  0  0  0  0
  147.8040  136.6112  160.3750 C   0  0  0  0  0  0  0  0  0  0  0  0
  148.2149  137.1305  159.1210 N   0  0  0  0  0  0  0  0  0  0  0  0
  149.4703  137.3585  158.6991 C   0  0  0  0  0  0  0  0  0  0  0  0
  150.4896  137.1614  159.3613 O   0  0  0  0  0  0  0  0  0  0  0  0
  149.4811  137.8412  157.4491 N   0  0  0  0  0  0  0  0  0  0  0  0
  150.6841  138.1964  156.6996 C   0  0  2  0  0  0  0  0  0  0  0  0
  151.5916  139.2149  157.4355 C   0  0  2  0  0  0  0  0  0  0  0  0
  150.7905  140.4457  157.9115 C   0  0  0  0  0  0  0  0  0  0  0  0
  150.4478  141.1560  156.5886 C   0  0  0  0  0  0  0  0  0  0  0  0
  151.1276  140.2603  155.5343 C   0  0  1  0  0  0  0  0  0  0  0  0
  152.3810  139.8132  156.2782 C   0  0  0  0  0  0  0  0  0  0  0  0
  150.3293  138.9440  155.3868 C   0  0  1  0  0  0  0  0  0  0  0  0
  150.7004  138.1590  154.1139 C   0  0  0  0  0  0  0  0  0  0  0  0
  150.1977  136.8417  154.1908 O   0  0  0  0  0  0  0  0  0  0  0  0
  147.5955  137.3064  161.4827 N   0  0  0  0  0  0  0  0  0  0  0  0
  147.2111  136.3598  162.4398 O   0  0  0  0  0  0  0  0  0  0  0  0
  146.7568  133.0583  162.1504 H   0  0  0  0  0  0  0  0  0  0  0  0
  145.8477  134.1553  163.1905 H   0  0  0  0  0  0  0  0  0  0  0  0
  147.5514  133.8334  163.5221 H   0  0  0  0  0  0  0  0  0  0  0  0
  147.6637  134.4192  159.8280 H   0  0  0  0  0  0  0  0  0  0  0  0
  147.4726  137.3473  158.4726 H   0  0  0  0  0  0  0  0  0  0  0  0
  148.5977  137.9722  156.9788 H   0  0  0  0  0  0  0  0  0  0  0  0
  151.2555  137.2930  156.4773 H   0  0  0  0  0  0  0  0  0  0  0  0
  152.2031  138.7659  158.2191 H   0  0  0  0  0  0  0  0  0  0  0  0
  149.9058  140.1921  158.4952 H   0  0  0  0  0  0  0  0  0  0  0  0
  151.4151  141.0879  158.5339 H   0  0  0  0  0  0  0  0  0  0  0  0
  149.3725  141.2428  156.4293 H   0  0  0  0  0  0  0  0  0  0  0  0
  150.8687  142.1621  156.5748 H   0  0  0  0  0  0  0  0  0  0  0  0
  151.3113  140.7736  154.5899 H   0  0  0  0  0  0  0  0  0  0  0  0
  153.0265  140.6415  156.5759 H   0  0  0  0  0  0  0  0  0  0  0  0
  152.9769  139.0786  155.7348 H   0  0  0  0  0  0  0  0  0  0  0  0
  149.2641  139.1780  155.3376 H   0  0  0  0  0  0  0  0  0  0  0  0
  150.2688  138.6384  153.2349 H   0  0  0  0  0  0  0  0  0  0  0  0
  151.7796  138.1240  153.9644 H   0  0  0  0  0  0  0  0  0  0  0  0
  149.7441  136.6453  153.3851 H   0  0  0  0  0  0  0  0  0  0  0  0
  1  2  1  0  0  0  0
  1 20  1  0  0  0  0
  1 21  1  0  0  0  0
  1 22  1  0  0  0  0
  2 19  1  0  0  0  0
  2  3  2  0  0  0  0
  3  4  1  0  0  0  0
  3 23  1  0  0  0  0
  4  5  1  0  0  0  0
  4 18  2  0  0  0  0
  5  6  1  0  0  0  0
  5 24  1  0  0  0  0
  6  7  2  0  0  0  0
  6  8  1  0  0  0  0
  8  9  1  0  0  0  0
  8 25  1  0  0  0  0
  9 15  1  0  0  0  0
  9 10  1  0  0  0  0
  9 26  1  0  0  0  0
 10 14  1  0  0  0  0
 10 11  1  0  0  0  0
 10 27  1  0  0  0  0
 11 12  1  0  0  0  0
 11 28  1  0  0  0  0
 11 29  1  0  0  0  0
 12 13  1  0  0  0  0
 12 30  1  0  0  0  0
 12 31  1  0  0  0  0
 13 14  1  0  0  0  0
 13 15  1  0  0  0  0
 13 32  1  0  0  0  0
 14 33  1  0  0  0  0
 14 34  1  0  0  0  0
 15 16  1  0  0  0  0
 15 35  1  0  0  0  0
 16 17  1  0  0  0  0
 16 36  1  0  0  0  0
 16 37  1  0  0  0  0
 17 38  1  0  0  0  0
 18 19  1  0  0  0  0
M  END
> <s_m_source_file>
AV-unprocessed.smi

> <i_m_source_file_index>
781

> <i_lp_mmshare_version>
43012

> <i_f3d_flags>
0

> <s_epik_input>
W0NIM11jMVtjSF1jKG5vMSlbTkhdQyg9TylbTkhdW0NASF0oW0NAQEhdMjMpW0NASF0oW0NIMl1bT0hdKVtDQEBIXShbQ0gyXTMpW0NIMl1bQ0gyXTI=

> <s_epik_cmdline>
J2VwaWtfcHl0aG9uJywgJy1waCcsICc3LjAnLCAnLXRuJywgJzgnLCAnLW1hJywgJzIwMCcsICctbWV0YWxfYmluZGluZycsICctaW1hZScsICc8aW5maWxlLm1hZT4nLCAnLW9tYWUnLCAnPG91dGZpbGUubWFlPic=

> <r_lp_tautomer_probability>
1

> <r_epik_Ionization_Penalty>
2.32222e-05

> <r_epik_Ionization_Penalty_Charging>
0

> <r_epik_Ionization_Penalty_Neutral>
2.32222e-05

> <r_epik_State_Penalty>
-0

> <r_epik_Charging_Adjusted_Penalty>
0

> <i_epik_Tot_Q>
0

> <i_epik_Tot_abs_Q>
0

> <r_epik_Metal_State_Penalty>
-0

> <b_epik_Metal_Only>
0

> <s_lp_Force_Field>
OPLS_2005

> <r_lp_Energy>
46.3862

> <b_lp_Chiralities_Consistent>
1

> <s_lp_Variant>
AV-unprocessed.smi:781-3

> <Gold.Version>
5.8.1

> <Gold.Id.Protein>
6NUR|6NUR_protein|mol2

> <Gold.PLP.Fitness>
39.6372

> <Gold.PLP.PLP>
-29.8786

> <Gold.PLP.part.hbond>
-5.0000

> <Gold.PLP.part.metal>
0.0000

> <Gold.PLP.part.buried>
-0.7860

> <Gold.PLP.part.nonpolar>
-23.5957

> <Gold.PLP.part.repulsive>
0.1920

> <Gold.PLP.ligand.clash>
0.0000

> <Gold.PLP.ligand.torsion>
0.8775

> <Gold.PLP.Chemscore.Hbond>
3.8320

> <Gold.PLP.Chemscore.CHOScore>
0.0000

> <Gold.PLP.Chemscore.Metal>
0.0000

> <Gold.Chemscore.Hbonds>
donor molecule, donor type, donor heavy atom, donor atom, acceptor molecule, acceptor atom, score
      L1  H    17    38       P1  7948  1.00
      P1  H  6896  6908       L1     7  0.50
      P1  H  6931  6943       L1    18  0.91
      P1  H  6934  6947       L1    18  0.80

> <Gold.PLP.Chemscore.Internal.Correction>
0.0176

> <Gold.Rescore>
     Score         DG    S(hbond)    S(metal)    S(lipo)     H(rot)  DE(clash)    DE(int)     intcor
     16.98     -18.14       2.90        0.00      65.98       1.86       0.19       0.96       ----

> <Gold.Chemscore.Fitness>
16.9833

> <Gold.Chemscore.DG>
-18.1403

> <Gold.Chemscore.ZeroCoef>
-5.4800

> <Gold.Chemscore.Hbond>
2.9040

> <Gold.Chemscore.Metal>
0.0000

> <Gold.Chemscore.Lipo>
65.9768

> <Gold.Chemscore.Internal_Hbond>
0.0000

> <Gold.Chemscore.DEClash>
0.1936

> <Gold.Chemscore.DEInternal>
0.9635

> <Gold.Chemscore.Rot>
1.8587

> <Gold.Chemscore.Internal.Correction>
   9.000000E+99

> <Gold.Chemscore.Hbonds>
donor molecule, donor type, donor heavy atom, donor atom, acceptor molecule, acceptor atom, score
      L1  H    17    38       P1  7948  0.40
      P1  H  6896  6908       L1     7  0.51
      P1  H  6931  6943       L1    18  0.64
      P1  H  6934  6947       L1    18  0.44

> <Gold.Chemscore.Hbond.Weighted>
-9.6993

> <Gold.Chemscore.Metal.Weighted>
-0.0000

> <Gold.Chemscore.Lipo.Weighted>
-7.7193

> <Gold.Chemscore.Internal_Hbond.Weighted>
0.0000

> <Gold.Chemscore.DEClash.Weighted>
0.1936

> <Gold.Chemscore.DEInternal.Weighted>
0.9635

> <Gold.Chemscore.Rot.Weighted>
4.7583

> <Gold.Chemscore.Internal.Correction.Weighted>
   9.000000E+99

> <Gold.Protein.RotatedTorsions>
[ 6907 6896 6895 6894 ] final -147.96 input  -60.11 | X-H torsion
[ 7974 7965 7964 7962 ] final   -5.91 input  175.53 | X-H torsion
[ 8008 7997 7996 7995 ] final   79.35 input   59.86 | X-H torsion
[ 10167 10162 10161 10158 ] final -149.29 input  -65.29 | X-H torsion
[ 10718 10713 10712 10709 ] final  -72.97 input   66.30 | X-H torsion
[ 10763 10752 10751 10750 ] final  -18.92 input  -60.55 | X-H torsion
[ 11005 11000 10999 10996 ] final   25.92 input  -57.11 | X-H torsion

> <Gold.Protein.ActiveResidues>
 VAL166  LYS551  ARG553  GLY616  TRP617  ASP618  TYR619  PRO620  LYS621  CYS622 
 ASP623  PHE694  ASN695  SER759  ASP760  ASP761  ALA762  ILE779  LEU786  VAL792 
 PHE793  MET794  SER795  GLU796  ALA797  LYS798  CYS799  TRP800  GLU811  SER814 

> <Gold.Protein.RotatedAtoms>
  151.1630  133.4833  159.2593 H   0  0  0  0  0  0  0  0  0  0  0  0  # atno 6907 bound_to 6896
  151.1434  135.0191  159.8646 H   0  0  0  0  0  0  0  0  0  0  0  0  # atno 6908 bound_to 6896
  152.5463  134.1522  159.8576 H   0  0  0  0  0  0  0  0  0  0  0  0  # atno 6909 bound_to 6896
  146.2343  140.2091  142.8335 H   0  0  0  0  0  0  0  0  0  0  0  0  # atno 7974 bound_to 7965
  155.8685  140.3450  155.5805 H   0  0  0  0  0  0  0  0  0  0  0  0  # atno 8008 bound_to 7997
  155.7854  140.0864  157.2056 H   0  0  0  0  0  0  0  0  0  0  0  0  # atno 8009 bound_to 7997
  154.4016  140.1493  156.3088 H   0  0  0  0  0  0  0  0  0  0  0  0  # atno 8010 bound_to 7997
  139.7456  143.8596  152.2574 H   0  0  0  0  0  0  0  0  0  0  0  0  # atno 10167 bound_to 10162
  156.0298  130.4384  150.2673 H   0  0  0  0  0  0  0  0  0  0  0  0  # atno 10718 bound_to 10713
  153.5967  135.7000  153.5401 H   0  0  0  0  0  0  0  0  0  0  0  0  # atno 10763 bound_to 10752
  153.3132  135.4095  155.1353 H   0  0  0  0  0  0  0  0  0  0  0  0  # atno 10764 bound_to 10752
  154.8590  135.3677  154.5501 H   0  0  0  0  0  0  0  0  0  0  0  0  # atno 10765 bound_to 10752
  140.3427  134.2316  155.7688 H   0  0  0  0  0  0  0  0  0  0  0  0  # atno 11005 bound_to 11000
  144.9721  140.8378  143.5449 LP  0  0  0  0  0  0  0  0  0  0  0  0  # atno 17320 bound_to 7965
  145.2074  139.2221  143.5161 LP  0  0  0  0  0  0  0  0  0  0  0  0  # atno 17321 bound_to 7965
  139.8559  144.7141  150.9158 LP  0  0  0  0  0  0  0  0  0  0  0  0  # atno 17342 bound_to 10162
  140.7791  143.3859  151.1395 LP  0  0  0  0  0  0  0  0  0  0  0  0  # atno 17343 bound_to 10162
  157.0775  131.0134  151.3168 LP  0  0  0  0  0  0  0  0  0  0  0  0  # atno 17370 bound_to 10713
  157.4952  130.7846  149.7548 LP  0  0  0  0  0  0  0  0  0  0  0  0  # atno 17371 bound_to 10713
  141.2034  133.7913  157.0341 LP  0  0  0  0  0  0  0  0  0  0  0  0  # atno 17394 bound_to 11000
  140.0768  134.9671  157.1559 LP  0  0  0  0  0  0  0  0  0  0  0  0  # atno 17395 bound_to 11000

$$$$
