AV-unprocessed.smi:2001|AV-procd|sdf|8104|dock7
  -GOLD-   2272010333D 1   1.00000     0.00000
 Structure written by MMmdl.
 50 51  0  0  0  0  0  0  0  0  1 V2000
  146.7961  142.2163  154.8117 C   0  0  0  0  0  0  0  0  0  0  0  0
  147.2371  140.8704  154.8492 O   0  0  0  0  0  0  0  0  0  0  0  0
  148.6209  140.7610  155.1362 C   0  0  0  0  0  0  0  0  0  0  0  0
  149.2872  139.9063  154.0479 C   0  0  0  0  0  0  0  0  0  0  0  0
  150.1137  138.8429  154.6282 N   0  0  0  0  0  0  0  0  0  0  0  0
  149.4883  137.6084  154.6852 N   0  0  0  0  0  0  0  0  0  0  0  0
  150.1124  136.5855  155.1738 C   0  0  0  0  0  0  0  0  0  0  0  0
  149.4797  135.2392  155.2452 C   0  0  0  0  0  0  0  0  0  0  0  0
  149.5847  134.5242  156.2432 O   0  0  0  0  0  0  0  0  0  0  0  0
  148.7955  134.8636  154.1492 N   0  0  0  0  0  0  0  0  0  0  0  0
  148.1213  133.5822  153.9790 C   0  0  0  0  0  0  0  0  0  0  0  0
  146.7429  133.7503  153.3120 C   0  0  0  0  0  0  0  0  0  0  0  0
  146.4330  132.7528  152.2897 N   0  0  0  0  0  0  0  0  0  0  0  0
  145.1327  132.9749  151.6609 C   0  0  0  0  0  0  0  0  0  0  0  0
  144.7947  131.9082  150.5992 C   0  0  1  0  0  0  0  0  0  0  0  0
  145.5921  132.0746  149.2944 C   0  0  0  0  0  0  0  0  0  0  0  0
  144.9421  130.5969  151.1468 O   0  0  0  0  0  0  0  0  0  0  0  0
  146.1981  130.3361  151.7707 C   0  0  2  0  0  0  0  0  0  0  0  0
  146.1533  128.9235  152.3626 C   0  0  0  0  0  0  0  0  0  0  0  0
  146.4661  131.4058  152.8445 C   0  0  0  0  0  0  0  0  0  0  0  0
  151.4711  136.7120  155.6737 C   0  0  0  0  0  0  0  0  0  0  0  0
  152.0654  137.9239  155.6173 C   0  0  0  0  0  0  0  0  0  0  0  0
  151.3822  139.0969  155.0701 C   0  0  0  0  0  0  0  0  0  0  0  0
  151.8999  140.2119  155.0143 O   0  0  0  0  0  0  0  0  0  0  0  0
  145.7297  142.2466  154.5882 H   0  0  0  0  0  0  0  0  0  0  0  0
  147.3176  142.7808  154.0377 H   0  0  0  0  0  0  0  0  0  0  0  0
  146.9530  142.7097  155.7717 H   0  0  0  0  0  0  0  0  0  0  0  0
  149.0722  141.7539  155.1706 H   0  0  0  0  0  0  0  0  0  0  0  0
  148.7628  140.2997  156.1149 H   0  0  0  0  0  0  0  0  0  0  0  0
  148.5177  139.4713  153.4076 H   0  0  0  0  0  0  0  0  0  0  0  0
  149.8871  140.5387  153.3906 H   0  0  0  0  0  0  0  0  0  0  0  0
  148.7551  135.5084  153.3729 H   0  0  0  0  0  0  0  0  0  0  0  0
  148.7707  132.9533  153.3711 H   0  0  0  0  0  0  0  0  0  0  0  0
  148.0198  133.0856  154.9454 H   0  0  0  0  0  0  0  0  0  0  0  0
  145.9836  133.6912  154.0929 H   0  0  0  0  0  0  0  0  0  0  0  0
  146.6583  134.7527  152.8896 H   0  0  0  0  0  0  0  0  0  0  0  0
  144.3557  132.9673  152.4268 H   0  0  0  0  0  0  0  0  0  0  0  0
  145.0948  133.9588  151.1950 H   0  0  0  0  0  0  0  0  0  0  0  0
  143.7404  132.0147  150.3419 H   0  0  0  0  0  0  0  0  0  0  0  0
  145.3805  133.0387  148.8315 H   0  0  0  0  0  0  0  0  0  0  0  0
  145.3284  131.2986  148.5757 H   0  0  0  0  0  0  0  0  0  0  0  0
  146.6679  132.0238  149.4613 H   0  0  0  0  0  0  0  0  0  0  0  0
  146.9888  130.3673  151.0205 H   0  0  0  0  0  0  0  0  0  0  0  0
  147.0982  128.6702  152.8437 H   0  0  0  0  0  0  0  0  0  0  0  0
  145.9668  128.1814  151.5860 H   0  0  0  0  0  0  0  0  0  0  0  0
  145.3625  128.8327  153.1075 H   0  0  0  0  0  0  0  0  0  0  0  0
  147.4395  131.2186  153.2995 H   0  0  0  0  0  0  0  0  0  0  0  0
  145.7270  131.3173  153.6425 H   0  0  0  0  0  0  0  0  0  0  0  0
  151.9995  135.8633  156.0832 H   0  0  0  0  0  0  0  0  0  0  0  0
  153.0748  138.0328  155.9864 H   0  0  0  0  0  0  0  0  0  0  0  0
  1  2  1  0  0  0  0
  1 25  1  0  0  0  0
  1 26  1  0  0  0  0
  1 27  1  0  0  0  0
  2  3  1  0  0  0  0
  3  4  1  0  0  0  0
  3 28  1  0  0  0  0
  3 29  1  0  0  0  0
  4  5  1  0  0  0  0
  4 30  1  0  0  0  0
  4 31  1  0  0  0  0
  5 23  1  0  0  0  0
  5  6  1  0  0  0  0
  6  7  2  0  0  0  0
  7  8  1  0  0  0  0
  7 21  1  0  0  0  0
  8  9  2  0  0  0  0
  8 10  1  0  0  0  0
 10 11  1  0  0  0  0
 10 32  1  0  0  0  0
 11 12  1  0  0  0  0
 11 33  1  0  0  0  0
 11 34  1  0  0  0  0
 12 13  1  0  0  0  0
 12 35  1  0  0  0  0
 12 36  1  0  0  0  0
 13 20  1  0  0  0  0
 13 14  1  0  0  0  0
 14 15  1  0  0  0  0
 14 37  1  0  0  0  0
 14 38  1  0  0  0  0
 15 16  1  0  0  0  0
 15 17  1  0  0  0  0
 15 39  1  0  0  0  0
 16 40  1  0  0  0  0
 16 41  1  0  0  0  0
 16 42  1  0  0  0  0
 17 18  1  0  0  0  0
 18 19  1  0  0  0  0
 18 20  1  0  0  0  0
 18 43  1  0  0  0  0
 19 44  1  0  0  0  0
 19 45  1  0  0  0  0
 19 46  1  0  0  0  0
 20 47  1  0  0  0  0
 20 48  1  0  0  0  0
 21 22  2  0  0  0  0
 21 49  1  0  0  0  0
 22 23  1  0  0  0  0
 22 50  1  0  0  0  0
 23 24  2  0  0  0  0
M  END
> <s_m_source_file>
AV-unprocessed.smi

> <i_m_source_file_index>
2001

> <i_lp_mmshare_version>
43012

> <i_f3d_flags>
0

> <s_epik_input>
W0NIM11PW0NIMl1bQ0gyXW4xbmMoW2NIXVtjSF1jMT1PKUMoPU8pW05IXVtDSDJdW0NIMl1OMltDSDJdW0NAQEhdKFtDSDNdKU9bQ0BASF0oW0NIM10pW0NIMl0y

> <s_epik_cmdline>
J2VwaWtfcHl0aG9uJywgJy1waCcsICc3LjAnLCAnLXRuJywgJzgnLCAnLW1hJywgJzIwMCcsICctbWV0YWxfYmluZGluZycsICctaW1hZScsICc8aW5maWxlLm1hZT4nLCAnLW9tYWUnLCAnPG91dGZpbGUubWFlPic=

> <r_lp_tautomer_probability>
1

> <r_epik_Ionization_Penalty>
0.206669

> <r_epik_Ionization_Penalty_Charging>
5.55992e-09

> <r_epik_Ionization_Penalty_Neutral>
0.206669

> <r_epik_State_Penalty>
0.196651

> <r_epik_Charging_Adjusted_Penalty>
0.196651

> <i_epik_Tot_Q>
0

> <i_epik_Tot_abs_Q>
0

> <r_epik_Metal_State_Penalty>
0.198372

> <b_epik_Metal_Only>
0

> <s_lp_Force_Field>
OPLS_2005

> <r_lp_Energy>
41.2012

> <b_lp_Chiralities_Consistent>
1

> <s_lp_Variant>
AV-unprocessed.smi:2001-3

> <Gold.Version>
5.8.1

> <Gold.Id.Protein>
6NUR|6NUR_protein|mol2

> <Gold.PLP.Fitness>
39.3589

> <Gold.PLP.PLP>
-38.0483

> <Gold.PLP.part.hbond>
-1.9969

> <Gold.PLP.part.metal>
0.0000

> <Gold.PLP.part.buried>
-2.5825

> <Gold.PLP.part.nonpolar>
-34.9156

> <Gold.PLP.part.repulsive>
0.7856

> <Gold.PLP.ligand.clash>
0.0000

> <Gold.PLP.ligand.torsion>
2.1478

> <Gold.PLP.Chemscore.Hbond>
1.8320

> <Gold.PLP.Chemscore.CHOScore>
0.0000

> <Gold.PLP.Chemscore.Metal>
0.0000

> <Gold.Chemscore.Hbonds>
donor molecule, donor type, donor heavy atom, donor atom, acceptor molecule, acceptor atom, score
      L1  H    10    32       P1  7948  1.00
      P1  H  7989  7998       L1    24  0.83

> <Gold.PLP.Chemscore.Internal.Correction>
0.1103

> <Gold.Rescore>
     Score         DG    S(hbond)    S(metal)    S(lipo)     H(rot)  DE(clash)    DE(int)     intcor
     14.81     -17.12       1.77        0.00      92.73       2.00       0.15       2.16       ----

> <Gold.Chemscore.Fitness>
14.8113

> <Gold.Chemscore.DG>
-17.1246

> <Gold.Chemscore.ZeroCoef>
-5.4800

> <Gold.Chemscore.Hbond>
1.7727

> <Gold.Chemscore.Metal>
0.0000

> <Gold.Chemscore.Lipo>
92.7275

> <Gold.Chemscore.Internal_Hbond>
0.0000

> <Gold.Chemscore.DEClash>
0.1528

> <Gold.Chemscore.DEInternal>
2.1605

> <Gold.Chemscore.Rot>
2.0020

> <Gold.Chemscore.Internal.Correction>
   9.000000E+99

> <Gold.Chemscore.Hbonds>
donor molecule, donor type, donor heavy atom, donor atom, acceptor molecule, acceptor atom, score
      L1  H    10    32       P1  7948  0.90
      P1  H  7989  7998       L1    24  0.60

> <Gold.Chemscore.Hbond.Weighted>
-5.9207

> <Gold.Chemscore.Metal.Weighted>
-0.0000

> <Gold.Chemscore.Lipo.Weighted>
-10.8491

> <Gold.Chemscore.Internal_Hbond.Weighted>
0.0000

> <Gold.Chemscore.DEClash.Weighted>
0.1528

> <Gold.Chemscore.DEInternal.Weighted>
2.1605

> <Gold.Chemscore.Rot.Weighted>
5.1252

> <Gold.Chemscore.Internal.Correction.Weighted>
   9.000000E+99

> <Gold.Protein.RotatedTorsions>
[ 6907 6896 6895 6894 ] final -115.24 input  -60.11 | X-H torsion
[ 7974 7965 7964 7962 ] final  103.88 input  175.53 | X-H torsion
[ 8008 7997 7996 7995 ] final  100.11 input   59.86 | X-H torsion
[ 10167 10162 10161 10158 ] final  151.99 input  -65.29 | X-H torsion
[ 10718 10713 10712 10709 ] final  125.33 input   66.30 | X-H torsion
[ 10763 10752 10751 10750 ] final -148.05 input  -60.55 | X-H torsion
[ 11005 11000 10999 10996 ] final -177.21 input  -57.11 | X-H torsion

> <Gold.Protein.ActiveResidues>
 VAL166  LYS551  ARG553  GLY616  TRP617  ASP618  TYR619  PRO620  LYS621  CYS622 
 ASP623  PHE694  ASN695  SER759  ASP760  ASP761  ALA762  ILE779  LEU786  VAL792 
 PHE793  MET794  SER795  GLU796  ALA797  LYS798  CYS799  TRP800  GLU811  SER814 

> <Gold.Protein.RotatedAtoms>
  150.7962  133.8687  159.3252 H   0  0  0  0  0  0  0  0  0  0  0  0  # atno 6907 bound_to 6896
  151.6512  135.0999  160.0170 H   0  0  0  0  0  0  0  0  0  0  0  0  # atno 6908 bound_to 6896
  152.4044  133.6828  159.6379 H   0  0  0  0  0  0  0  0  0  0  0  0  # atno 6909 bound_to 6896
  145.3401  139.2464  143.3614 H   0  0  0  0  0  0  0  0  0  0  0  0  # atno 7974 bound_to 7965
  156.1172  140.3218  155.8156 H   0  0  0  0  0  0  0  0  0  0  0  0  # atno 8008 bound_to 7997
  155.4570  140.0536  157.3012 H   0  0  0  0  0  0  0  0  0  0  0  0  # atno 8009 bound_to 7997
  154.4801  140.2049  155.9798 H   0  0  0  0  0  0  0  0  0  0  0  0  # atno 8010 bound_to 7997
  139.4836  144.5395  151.7588 H   0  0  0  0  0  0  0  0  0  0  0  0  # atno 10167 bound_to 10162
  157.5512  131.1094  150.8698 H   0  0  0  0  0  0  0  0  0  0  0  0  # atno 10718 bound_to 10713
  154.8254  135.3344  154.6913 H   0  0  0  0  0  0  0  0  0  0  0  0  # atno 10763 bound_to 10752
  153.7540  135.6937  153.4944 H   0  0  0  0  0  0  0  0  0  0  0  0  # atno 10764 bound_to 10752
  153.2156  135.4466  155.0381 H   0  0  0  0  0  0  0  0  0  0  0  0  # atno 10765 bound_to 10752
  140.4434  134.6410  157.4768 H   0  0  0  0  0  0  0  0  0  0  0  0  # atno 11005 bound_to 11000
  146.3011  140.3997  142.8704 LP  0  0  0  0  0  0  0  0  0  0  0  0  # atno 17320 bound_to 7965
  144.8797  140.7383  143.5995 LP  0  0  0  0  0  0  0  0  0  0  0  0  # atno 17321 bound_to 7965
  140.4933  144.1279  150.5955 LP  0  0  0  0  0  0  0  0  0  0  0  0  # atno 17342 bound_to 10162
  140.4147  143.2640  151.9790 LP  0  0  0  0  0  0  0  0  0  0  0  0  # atno 17343 bound_to 10162
  156.9223  130.5319  149.5279 LP  0  0  0  0  0  0  0  0  0  0  0  0  # atno 17370 bound_to 10713
  156.0578  130.5637  150.9129 LP  0  0  0  0  0  0  0  0  0  0  0  0  # atno 17371 bound_to 10713
  140.0054  134.6772  155.9463 LP  0  0  0  0  0  0  0  0  0  0  0  0  # atno 17394 bound_to 11000
  141.1695  133.6537  156.4601 LP  0  0  0  0  0  0  0  0  0  0  0  0  # atno 17395 bound_to 11000

$$$$
