AV-unprocessed.smi:2416|AV-procd|sdf|9546|dock2
  -GOLD-   2272013173D 1   1.00000     0.00000
 Structure written by MMmdl.
 40 41  0  0  0  0  0  0  0  0  1 V2000
  139.2640  141.2952  156.7307 C   0  0  0  0  0  0  0  0  0  0  0  0
  139.2719  140.0377  156.0651 O   0  0  0  0  0  0  0  0  0  0  0  0
  139.4148  140.0479  154.6376 C   0  0  1  0  0  0  0  0  0  0  0  0
  138.2663  140.8310  153.9895 C   0  0  0  0  0  0  0  0  0  0  0  0
  140.8679  140.3806  154.2490 C   0  0  0  0  0  0  0  0  0  0  0  0
  141.1876  138.9027  154.4637 C   0  0  2  0  0  0  0  0  0  0  0  0
  142.1468  138.3926  153.4896 N   0  0  0  0  0  0  0  0  0  0  0  0
  142.3277  137.0946  153.2098 C   0  0  0  0  0  0  0  0  0  0  0  0
  141.6911  136.1895  153.7499 O   0  0  0  0  0  0  0  0  0  0  0  0
  143.2814  136.9274  152.2769 N   0  0  0  0  0  0  0  0  0  0  0  0
  143.7409  135.7148  151.6974 C   0  0  0  0  0  0  0  0  0  0  0  0
  143.0048  134.5635  152.0587 C   0  0  0  0  0  0  0  0  0  0  0  0
  143.3805  133.3092  151.5394 C   0  0  0  0  0  0  0  0  0  0  0  0
  144.4854  133.2404  150.6726 C   0  0  0  0  0  0  0  0  0  0  0  0
  144.8840  132.0573  150.1482 F   0  0  0  0  0  0  0  0  0  0  0  0
  145.1661  134.4328  150.3644 C   0  0  0  0  0  0  0  0  0  0  0  0
  144.8063  135.6358  150.8608 N   0  0  0  0  0  0  0  0  0  0  0  0
  139.7003  138.5868  154.1570 C   0  0  0  0  0  0  0  0  0  0  0  0
  139.0697  137.4606  154.9837 C   0  0  0  0  0  0  0  0  0  0  0  0
  139.3462  138.2775  152.6898 C   0  0  0  0  0  0  0  0  0  0  0  0
  139.2932  141.1269  157.8071 H   0  0  0  0  0  0  0  0  0  0  0  0
  138.3551  141.8580  156.5190 H   0  0  0  0  0  0  0  0  0  0  0  0
  140.1249  141.9102  156.4703 H   0  0  0  0  0  0  0  0  0  0  0  0
  138.2906  140.7615  152.9026 H   0  0  0  0  0  0  0  0  0  0  0  0
  138.3147  141.8940  154.2240 H   0  0  0  0  0  0  0  0  0  0  0  0
  137.2968  140.4569  154.3190 H   0  0  0  0  0  0  0  0  0  0  0  0
  140.9638  140.7025  153.2105 H   0  0  0  0  0  0  0  0  0  0  0  0
  141.4041  141.0541  154.9163 H   0  0  0  0  0  0  0  0  0  0  0  0
  141.4601  138.6962  155.5013 H   0  0  0  0  0  0  0  0  0  0  0  0
  142.7112  139.0734  153.0029 H   0  0  0  0  0  0  0  0  0  0  0  0
  143.7289  137.7667  151.9395 H   0  0  0  0  0  0  0  0  0  0  0  0
  142.1585  134.6361  152.7267 H   0  0  0  0  0  0  0  0  0  0  0  0
  142.8301  132.4178  151.8021 H   0  0  0  0  0  0  0  0  0  0  0  0
  146.0203  134.4220  149.7039 H   0  0  0  0  0  0  0  0  0  0  0  0
  139.3680  136.4775  154.6182 H   0  0  0  0  0  0  0  0  0  0  0  0
  137.9807  137.5069  154.9548 H   0  0  0  0  0  0  0  0  0  0  0  0
  139.3687  137.5063  156.0311 H   0  0  0  0  0  0  0  0  0  0  0  0
  139.7342  137.3073  152.3776 H   0  0  0  0  0  0  0  0  0  0  0  0
  139.7537  139.0185  152.0021 H   0  0  0  0  0  0  0  0  0  0  0  0
  138.2669  138.2557  152.5359 H   0  0  0  0  0  0  0  0  0  0  0  0
  1  2  1  0  0  0  0
  1 21  1  0  0  0  0
  1 22  1  0  0  0  0
  1 23  1  0  0  0  0
  2  3  1  0  0  0  0
  3 18  1  0  0  0  0
  3  4  1  0  0  0  0
  3  5  1  0  0  0  0
  4 24  1  0  0  0  0
  4 25  1  0  0  0  0
  4 26  1  0  0  0  0
  5  6  1  0  0  0  0
  5 27  1  0  0  0  0
  5 28  1  0  0  0  0
  6  7  1  0  0  0  0
  6 18  1  0  0  0  0
  6 29  1  0  0  0  0
  7  8  1  0  0  0  0
  7 30  1  0  0  0  0
  8  9  2  0  0  0  0
  8 10  1  0  0  0  0
 10 11  1  0  0  0  0
 10 31  1  0  0  0  0
 11 17  1  0  0  0  0
 11 12  2  0  0  0  0
 12 13  1  0  0  0  0
 12 32  1  0  0  0  0
 13 14  2  0  0  0  0
 13 33  1  0  0  0  0
 14 15  1  0  0  0  0
 14 16  1  0  0  0  0
 16 17  2  0  0  0  0
 16 34  1  0  0  0  0
 18 19  1  0  0  0  0
 18 20  1  0  0  0  0
 19 35  1  0  0  0  0
 19 36  1  0  0  0  0
 19 37  1  0  0  0  0
 20 38  1  0  0  0  0
 20 39  1  0  0  0  0
 20 40  1  0  0  0  0
M  END
> <s_m_source_file>
AV-unprocessed.smi

> <i_m_source_file_index>
2416

> <i_lp_mmshare_version>
43012

> <i_f3d_flags>
0

> <s_epik_input>
W0NIM11PW0NAQF0xKFtDSDNdKVtDSDJdW0NASF0oQzEoW0NIM10pW0NIM10pW05IXUMoPU8pW05IXWMyW2NIXVtjSF1jKEYpW2NIXW4y

> <s_epik_cmdline>
J2VwaWtfcHl0aG9uJywgJy1waCcsICc3LjAnLCAnLXRuJywgJzgnLCAnLW1hJywgJzIwMCcsICctbWV0YWxfYmluZGluZycsICctaW1hZScsICc8aW5maWxlLm1hZT4nLCAnLW9tYWUnLCAnPG91dGZpbGUubWFlPic=

> <r_lp_tautomer_probability>
1

> <r_epik_Ionization_Penalty>
3.67756e-05

> <r_epik_Ionization_Penalty_Charging>
0

> <r_epik_Ionization_Penalty_Neutral>
3.67756e-05

> <r_epik_State_Penalty>
-0

> <r_epik_Charging_Adjusted_Penalty>
0

> <i_epik_Tot_Q>
0

> <i_epik_Tot_abs_Q>
0

> <r_epik_Metal_State_Penalty>
-0

> <b_epik_Metal_Only>
0

> <s_lp_Force_Field>
OPLS_2005

> <r_lp_Energy>
27.4539

> <b_lp_Chiralities_Consistent>
1

> <s_lp_Variant>
AV-unprocessed.smi:2416-3

> <Gold.Version>
5.8.1

> <Gold.Id.Protein>
6NUR|6NUR_protein|mol2

> <Gold.PLP.Fitness>
34.9902

> <Gold.PLP.PLP>
-30.6114

> <Gold.PLP.part.hbond>
-2.0000

> <Gold.PLP.part.metal>
0.0000

> <Gold.PLP.part.buried>
-3.4775

> <Gold.PLP.part.nonpolar>
-24.9440

> <Gold.PLP.part.repulsive>
0.3929

> <Gold.PLP.ligand.clash>
2.1998

> <Gold.PLP.ligand.torsion>
0.2290

> <Gold.PLP.Chemscore.Hbond>
1.2808

> <Gold.PLP.Chemscore.CHOScore>
0.9404

> <Gold.PLP.Chemscore.Metal>
0.0000

> <Gold.Chemscore.Hbonds>
donor molecule, donor type, donor heavy atom, donor atom, acceptor molecule, acceptor atom, score
      L1  H     7    30       P1 10175  1.00
      L1  H    10    31       P1 10171  0.23
      L1  C    16    34       P1  7921  1.00

> <Gold.PLP.Chemscore.Internal.Correction>
0.3729

> <Gold.Rescore>
     Score         DG    S(hbond)    S(metal)    S(lipo)     H(rot)  DE(clash)    DE(int)     intcor
     13.05     -15.13       1.34        0.00      71.95       1.27       0.31       1.77       ----

> <Gold.Chemscore.Fitness>
13.0469

> <Gold.Chemscore.DG>
-15.1305

> <Gold.Chemscore.ZeroCoef>
-5.4800

> <Gold.Chemscore.Hbond>
1.3389

> <Gold.Chemscore.Metal>
0.0000

> <Gold.Chemscore.Lipo>
71.9484

> <Gold.Chemscore.Internal_Hbond>
0.0000

> <Gold.Chemscore.DEClash>
0.3105

> <Gold.Chemscore.DEInternal>
1.7731

> <Gold.Chemscore.Rot>
1.2653

> <Gold.Chemscore.Internal.Correction>
   9.000000E+99

> <Gold.Chemscore.Hbonds>
donor molecule, donor type, donor heavy atom, donor atom, acceptor molecule, acceptor atom, score
      L1  H     7    30       P1 10175  1.00
      L1  H    10    31       P1 10171  0.23

> <Gold.Chemscore.Hbond.Weighted>
-4.4718

> <Gold.Chemscore.Metal.Weighted>
-0.0000

> <Gold.Chemscore.Lipo.Weighted>
-8.4180

> <Gold.Chemscore.Internal_Hbond.Weighted>
0.0000

> <Gold.Chemscore.DEClash.Weighted>
0.3105

> <Gold.Chemscore.DEInternal.Weighted>
1.7731

> <Gold.Chemscore.Rot.Weighted>
3.2392

> <Gold.Chemscore.Internal.Correction.Weighted>
   9.000000E+99

> <Gold.Protein.RotatedTorsions>
[ 6907 6896 6895 6894 ] final   92.87 input  -60.11 | X-H torsion
[ 7974 7965 7964 7962 ] final  140.49 input  175.53 | X-H torsion
[ 8008 7997 7996 7995 ] final  158.48 input   59.86 | X-H torsion
[ 10167 10162 10161 10158 ] final  -13.42 input  -65.29 | X-H torsion
[ 10718 10713 10712 10709 ] final   12.45 input   66.30 | X-H torsion
[ 10763 10752 10751 10750 ] final  102.44 input  -60.55 | X-H torsion
[ 11005 11000 10999 10996 ] final -164.44 input  -57.11 | X-H torsion

> <Gold.Protein.ActiveResidues>
 VAL166  LYS551  ARG553  GLY616  TRP617  ASP618  TYR619  PRO620  LYS621  CYS622 
 ASP623  PHE694  ASN695  SER759  ASP760  ASP761  ALA762  ILE779  LEU786  VAL792 
 PHE793  MET794  SER795  GLU796  ALA797  LYS798  CYS799  TRP800  GLU811  SER814 

> <Gold.Protein.RotatedAtoms>
  152.5453  134.1435  159.8488 H   0  0  0  0  0  0  0  0  0  0  0  0  # atno 6907 bound_to 6896
  151.1469  133.4926  159.2603 H   0  0  0  0  0  0  0  0  0  0  0  0  # atno 6908 bound_to 6896
  151.1513  135.0239  159.8724 H   0  0  0  0  0  0  0  0  0  0  0  0  # atno 6909 bound_to 6896
  144.9182  139.5203  143.5676 H   0  0  0  0  0  0  0  0  0  0  0  0  # atno 7974 bound_to 7965
  156.2300  140.1857  156.7267 H   0  0  0  0  0  0  0  0  0  0  0  0  # atno 8008 bound_to 7997
  154.6005  140.0636  156.9390 H   0  0  0  0  0  0  0  0  0  0  0  0  # atno 8009 bound_to 7997
  155.2182  140.3305  155.4322 H   0  0  0  0  0  0  0  0  0  0  0  0  # atno 8010 bound_to 7997
  140.7182  143.5428  150.9390 H   0  0  0  0  0  0  0  0  0  0  0  0  # atno 10167 bound_to 10162
  157.0104  130.6115  149.5707 H   0  0  0  0  0  0  0  0  0  0  0  0  # atno 10718 bound_to 10713
  153.3396  135.4010  155.1561 H   0  0  0  0  0  0  0  0  0  0  0  0  # atno 10763 bound_to 10752
  154.8641  135.3630  154.5363 H   0  0  0  0  0  0  0  0  0  0  0  0  # atno 10764 bound_to 10752
  153.5807  135.7076  153.5524 H   0  0  0  0  0  0  0  0  0  0  0  0  # atno 10765 bound_to 10752
  140.5869  134.5084  157.5187 H   0  0  0  0  0  0  0  0  0  0  0  0  # atno 11005 bound_to 11000
  146.3192  139.8040  142.8959 LP  0  0  0  0  0  0  0  0  0  0  0  0  # atno 17320 bound_to 7965
  145.3341  141.0273  143.3430 LP  0  0  0  0  0  0  0  0  0  0  0  0  # atno 17321 bound_to 7965
  139.9151  143.6673  152.3108 LP  0  0  0  0  0  0  0  0  0  0  0  0  # atno 17342 bound_to 10162
  139.7070  144.7626  151.1176 LP  0  0  0  0  0  0  0  0  0  0  0  0  # atno 17343 bound_to 10162
  156.0138  130.5231  150.8072 LP  0  0  0  0  0  0  0  0  0  0  0  0  # atno 17370 bound_to 10713
  157.5325  131.0937  150.9936 LP  0  0  0  0  0  0  0  0  0  0  0  0  # atno 17371 bound_to 10713
  139.9291  134.7997  156.0981 LP  0  0  0  0  0  0  0  0  0  0  0  0  # atno 17394 bound_to 11000
  141.0960  133.6695  156.2646 LP  0  0  0  0  0  0  0  0  0  0  0  0  # atno 17395 bound_to 11000

$$$$
