#       Name:                AV-unprocessed.smi:1541
#       Creating user name   scv26
#       Creation time:       Fri Mar 27 06:37:16 2020


#       File generated by GOLD software.
#

@<TRIPOS>MOLECULE
AV-unprocessed.smi:1541
    43    44     1
SMALL
NO_CHARGES


@<TRIPOS>ATOM
      1 ****        -5.4988   2.0685  -3.4532 C.3            1 S1                 0.0000
      2 ****        -5.1190   0.5857  -3.3653 C.3            1 S1                 0.0000
      3 ****        -3.6836   0.4054  -3.2685 N.pl3          1 S1                 0.0000
      4 ****        -2.9232   0.2101  -2.1327 C.2            1 S1                 0.0000
      5 ****        -1.6320   0.1021  -2.5665 C.2            1 S1                 0.0000
      6 ****        -0.4460  -0.1068  -1.8181 N.am           1 S1                 0.0000
      7 ****        -0.3354  -0.2369  -0.4858 C.2            1 S1                 0.0000
      8 ****        -1.2729  -0.1819   0.3103 O.2            1 S1                 0.0000
      9 ****         0.9396  -0.4353  -0.1203 N.am           1 S1                 0.0000
     10 ****         1.4105  -0.6296   1.2495 C.3            1 S1                 0.0000
     11 ****         1.6245   0.7461   1.9148 C.3            1 S1                 0.0000
     12 ****         2.1630   0.7026   3.3552 C.3            1 S1                 0.0000
     13 ****         3.6548   0.3381   3.4227 C.3            1 S1                 0.0000
     14 ****         3.9660  -1.1688   3.4493 C.3            1 S1                 0.0000
     15 ****         3.0577  -2.0739   2.5989 C.3            1 S1                 0.0000
     16 ****         2.6714  -1.5187   1.2176 C.3            1 S1                 0.0000
     17 ****        -1.6849   0.2423  -3.9778 C.2            1 S1                 0.0000
     18 ****        -2.9285   0.4267  -4.3948 N.2            1 S1                 0.0000
     19 ****        -6.5803   2.1885  -3.5157 H              1 S1                 0.0000
     20 ****        -5.0606   2.5371  -4.3349 H              1 S1                 0.0000
     21 ****        -5.1529   2.6154  -2.5756 H              1 S1                 0.0000
     22 ****        -5.5875   0.1282  -2.4932 H              1 S1                 0.0000
     23 ****        -5.4847   0.0467  -4.2406 H              1 S1                 0.0000
     24 ****        -3.3644   0.1686  -1.1477 H              1 S1                 0.0000
     25 ****         0.4074  -0.1673  -2.3540 H              1 S1                 0.0000
     26 ****         1.6408  -0.4616  -0.8459 H              1 S1                 0.0000
     27 ****         0.6371  -1.1667   1.8022 H              1 S1                 0.0000
     28 ****         2.2848   1.3582   1.2985 H              1 S1                 0.0000
     29 ****         0.6696   1.2731   1.9309 H              1 S1                 0.0000
     30 ****         2.0438   1.6999   3.7800 H              1 S1                 0.0000
     31 ****         1.5648   0.0396   3.9815 H              1 S1                 0.0000
     32 ****         4.1788   0.8037   2.5871 H              1 S1                 0.0000
     33 ****         4.0899   0.7861   4.3169 H              1 S1                 0.0000
     34 ****         5.0019  -1.3070   3.1371 H              1 S1                 0.0000
     35 ****         3.9231  -1.5231   4.4800 H              1 S1                 0.0000
     36 ****         3.5717  -3.0262   2.4642 H              1 S1                 0.0000
     37 ****         2.1540  -2.3164   3.1594 H              1 S1                 0.0000
     38 ****         2.4660  -2.3733   0.5710 H              1 S1                 0.0000
     39 ****         3.5123  -0.9955   0.7601 H              1 S1                 0.0000
     40 ****        -0.8807   0.2180  -4.6984 H              1 S1                 0.0000
     41 ****        -2.2034  -0.0300  -0.0228 LP             1 S1                 0.0000
     42 ****        -1.1038  -0.2892   1.2901 LP             1 S1                 0.0000
     43 ****        -3.2423   0.5539  -5.3356 LP             1 S1                 0.0000
@<TRIPOS>BOND
    1    1    2 1     
    2    1   19 1     
    3    1   20 1     
    4    1   21 1     
    5    2    3 1     
    6    2   22 1     
    7    2   23 1     
    8    3   18 1     
    9    3    4 1     
   10    4    5 2     
   11    4   24 1     
   12    5    6 1     
   13    5   17 1     
   14    6    7 am    
   15    6   25 1     
   16    7    8 2     
   17    7    9 am    
   18    9   10 1     
   19    9   26 1     
   20   10   16 1     
   21   10   11 1     
   22   10   27 1     
   23   11   12 1     
   24   11   28 1     
   25   11   29 1     
   26   12   13 1     
   27   12   30 1     
   28   12   31 1     
   29   13   14 1     
   30   13   32 1     
   31   13   33 1     
   32   14   15 1     
   33   14   34 1     
   34   14   35 1     
   35   15   16 1     
   36   15   36 1     
   37   15   37 1     
   38   16   38 1     
   39   16   39 1     
   40   17   18 2     
   41   17   40 1     
   42    8   41 1     
   43    8   42 1     
   44   18   43 1     
@<TRIPOS>SUBSTRUCTURE
      1 S1             1
@<TRIPOS>SET
LONE_PAIRS      STATIC     ATOMS    <user>   **** ""
3 41 42 43
DONOR_HYDROGENS      STATIC     ATOMS    <user>   **** ""
2 25 26
ATOM$BLUE        STATIC     ATOMS    COLORGROUP SYSTEM
3 41 42 43
ATOM$RED        STATIC     ATOMS    COLORGROUP SYSTEM
2 25 26
