AV-unprocessed.smi:2449|AV-procd|sdf|9664|dock1
  -GOLD-   2272013303D 1   1.00000     0.00000
 Structure written by MMmdl.
 36 36  0  0  0  0  0  0  0  0  2 V2000
  153.0420  142.5419  162.6003 C   0  0  0  0  0  0  0  0  0  0  0  0
  152.4384  143.5071  161.5747 C   0  0  0  0  0  0  0  0  0  0  0  0
  152.2918  142.8637  160.1805 C   0  0  0  0  0  0  0  0  0  0  0  0
  151.6863  143.7717  159.0732 C   0  0  0  0  0  0  0  0  0  0  0  0
  150.3119  144.3075  159.5302 C   0  0  0  0  0  0  0  0  0  0  0  0
  152.6070  144.9801  158.8130 C   0  0  0  0  0  0  0  0  0  0  0  0
  151.5479  143.0552  157.7987 N   0  0  0  0  0  0  0  0  0  0  0  0
  150.6227  142.1440  157.4485 C   0  0  0  0  0  0  0  0  0  0  0  0
  149.6932  141.7935  158.1760 O   0  0  0  0  0  0  0  0  0  0  0  0
  150.7652  141.5513  156.0414 C   0  0  0  0  0  0  0  0  0  0  0  0
  151.1597  140.1342  156.0689 N   0  0  0  0  0  0  0  0  0  0  0  0
  151.8300  139.6614  157.2109 C   0  0  0  0  0  0  0  0  0  0  0  0
  152.2344  138.3814  157.3182 C   0  0  0  0  0  0  0  0  0  0  0  0
  151.9605  137.4755  156.2092 C   0  0  0  0  0  0  0  0  0  0  0  0
  152.3196  136.3026  156.2909 O   0  0  0  0  0  0  0  0  0  0  0  0
  151.3100  137.9825  155.1212 N   0  5  0  0  0  0  0  0  0  0  0  0
  150.9062  139.2875  155.0253 C   0  0  0  0  0  0  0  0  0  0  0  0
  150.3216  139.7250  154.0332 O   0  0  0  0  0  0  0  0  0  0  0  0
  153.1303  143.0189  163.5766 H   0  0  0  0  0  0  0  0  0  0  0  0
  154.0386  142.2201  162.2970 H   0  0  0  0  0  0  0  0  0  0  0  0
  152.4221  141.6528  162.7183 H   0  0  0  0  0  0  0  0  0  0  0  0
  151.4679  143.8430  161.9385 H   0  0  0  0  0  0  0  0  0  0  0  0
  153.0714  144.3927  161.5196 H   0  0  0  0  0  0  0  0  0  0  0  0
  153.2729  142.5096  159.8628 H   0  0  0  0  0  0  0  0  0  0  0  0
  151.6824  141.9638  160.2735 H   0  0  0  0  0  0  0  0  0  0  0  0
  150.4085  144.9216  160.4262 H   0  0  0  0  0  0  0  0  0  0  0  0
  149.6155  143.5039  159.7691 H   0  0  0  0  0  0  0  0  0  0  0  0
  149.8487  144.9247  158.7593 H   0  0  0  0  0  0  0  0  0  0  0  0
  152.7910  145.5437  159.7284 H   0  0  0  0  0  0  0  0  0  0  0  0
  152.1634  145.6671  158.0911 H   0  0  0  0  0  0  0  0  0  0  0  0
  153.5747  144.6780  158.4126 H   0  0  0  0  0  0  0  0  0  0  0  0
  152.2588  143.2552  157.1102 H   0  0  0  0  0  0  0  0  0  0  0  0
  149.8129  141.6750  155.5243 H   0  0  0  0  0  0  0  0  0  0  0  0
  151.4853  142.1289  155.4584 H   0  0  0  0  0  0  0  0  0  0  0  0
  151.9989  140.3971  157.9834 H   0  0  0  0  0  0  0  0  0  0  0  0
  152.7508  138.0346  158.2013 H   0  0  0  0  0  0  0  0  0  0  0  0
  1  2  1  0  0  0  0
  1 19  1  0  0  0  0
  1 20  1  0  0  0  0
  1 21  1  0  0  0  0
  2  3  1  0  0  0  0
  2 22  1  0  0  0  0
  2 23  1  0  0  0  0
  3  4  1  0  0  0  0
  3 24  1  0  0  0  0
  3 25  1  0  0  0  0
  4  5  1  0  0  0  0
  4  6  1  0  0  0  0
  4  7  1  0  0  0  0
  5 26  1  0  0  0  0
  5 27  1  0  0  0  0
  5 28  1  0  0  0  0
  6 29  1  0  0  0  0
  6 30  1  0  0  0  0
  6 31  1  0  0  0  0
  7  8  1  0  0  0  0
  7 32  1  0  0  0  0
  8  9  2  0  0  0  0
  8 10  1  0  0  0  0
 10 11  1  0  0  0  0
 10 33  1  0  0  0  0
 10 34  1  0  0  0  0
 11 17  1  0  0  0  0
 11 12  1  0  0  0  0
 12 13  2  0  0  0  0
 12 35  1  0  0  0  0
 13 14  1  0  0  0  0
 13 36  1  0  0  0  0
 14 15  2  0  0  0  0
 14 16  1  0  0  0  0
 16 17  1  0  0  0  0
 17 18  2  0  0  0  0
M  CHG  1  16  -1
M  END
> <s_m_source_file>
AV-unprocessed.smi

> <i_m_source_file_index>
2449

> <i_lp_mmshare_version>
43012

> <i_f3d_flags>
0

> <s_epik_input>
W0NIM11bQ0gyXVtDSDJdQyhbQ0gzXSkoW0NIM10pW05IXUMoPU8pW0NIMl1uMVtjSF1bY0hdYyg9TylbbkhdYzE9Tw==

> <s_epik_cmdline>
J2VwaWtfcHl0aG9uJywgJy1waCcsICc3LjAnLCAnLXRuJywgJzgnLCAnLW1hJywgJzIwMCcsICctbWV0YWxfYmluZGluZycsICctaW1hZScsICc8aW5maWxlLm1hZT4nLCAnLW9tYWUnLCAnPG91dGZpbGUubWFlPic=

> <r_lp_tautomer_probability>
0.999537

> <r_epik_Ionization_Penalty>
3.14746

> <r_epik_Ionization_Penalty_Charging>
2.94994e-08

> <r_epik_Ionization_Penalty_Neutral>
3.14746

> <r_epik_State_Penalty>
3.14658

> <r_epik_Charging_Adjusted_Penalty>
3.14658

> <i_epik_Tot_Q>
-1

> <i_epik_Tot_abs_Q>
1

> <r_epik_Metal_State_Penalty>
0.466037

> <b_epik_Metal_Only>
1

> <s_lp_Force_Field>
OPLS_2005

> <r_lp_Energy>
14.91

> <b_lp_Chiralities_Consistent>
1

> <s_lp_Variant>
AV-unprocessed.smi:2449-2

> <Gold.Version>
5.8.1

> <Gold.Id.Protein>
6NUR|6NUR_protein|mol2

> <Gold.PLP.Fitness>
44.1564

> <Gold.PLP.PLP>
-39.5816

> <Gold.PLP.part.hbond>
-2.0000

> <Gold.PLP.part.metal>
0.0000

> <Gold.PLP.part.buried>
-6.3160

> <Gold.PLP.part.nonpolar>
-31.6694

> <Gold.PLP.part.repulsive>
0.6233

> <Gold.PLP.ligand.clash>
0.0000

> <Gold.PLP.ligand.torsion>
0.7350

> <Gold.PLP.Chemscore.Hbond>
2.0000

> <Gold.PLP.Chemscore.CHOScore>
0.0000

> <Gold.PLP.Chemscore.Metal>
0.0000

> <Gold.Chemscore.Hbonds>
donor molecule, donor type, donor heavy atom, donor atom, acceptor molecule, acceptor atom, score
      P1  H  7989  7998       L1    18  0.90
      P1  H 10752 10765       L1    15  1.00

> <Gold.PLP.Chemscore.Internal.Correction>
0.0448

> <Gold.Rescore>
     Score         DG    S(hbond)    S(metal)    S(lipo)     H(rot)  DE(clash)    DE(int)     intcor
     14.25     -16.23       1.80        0.00      85.91       2.08       0.18       1.79       ----

> <Gold.Chemscore.Fitness>
14.2549

> <Gold.Chemscore.DG>
-16.2263

> <Gold.Chemscore.ZeroCoef>
-5.4800

> <Gold.Chemscore.Hbond>
1.8044

> <Gold.Chemscore.Metal>
0.0000

> <Gold.Chemscore.Lipo>
85.9097

> <Gold.Chemscore.Internal_Hbond>
0.0000

> <Gold.Chemscore.DEClash>
0.1818

> <Gold.Chemscore.DEInternal>
1.7896

> <Gold.Chemscore.Rot>
2.0828

> <Gold.Chemscore.Internal.Correction>
   9.000000E+99

> <Gold.Chemscore.Hbonds>
donor molecule, donor type, donor heavy atom, donor atom, acceptor molecule, acceptor atom, score
      P1  H  7989  7998       L1    18  0.17
      P1  H 10752 10765       L1    15  1.00

> <Gold.Chemscore.Hbond.Weighted>
-6.0268

> <Gold.Chemscore.Metal.Weighted>
-0.0000

> <Gold.Chemscore.Lipo.Weighted>
-10.0514

> <Gold.Chemscore.Internal_Hbond.Weighted>
0.0000

> <Gold.Chemscore.DEClash.Weighted>
0.1818

> <Gold.Chemscore.DEInternal.Weighted>
1.7896

> <Gold.Chemscore.Rot.Weighted>
5.3319

> <Gold.Chemscore.Internal.Correction.Weighted>
   9.000000E+99

> <Gold.Protein.RotatedTorsions>
[ 6907 6896 6895 6894 ] final   72.07 input  -60.11 | X-H torsion
[ 7974 7965 7964 7962 ] final -139.99 input  175.53 | X-H torsion
[ 8008 7997 7996 7995 ] final -170.07 input   59.86 | X-H torsion
[ 10167 10162 10161 10158 ] final  146.81 input  -65.29 | X-H torsion
[ 10718 10713 10712 10709 ] final  -35.28 input   66.30 | X-H torsion
[ 10763 10752 10751 10750 ] final -144.20 input  -60.55 | X-H torsion
[ 11005 11000 10999 10996 ] final   18.84 input  -57.11 | X-H torsion

> <Gold.Protein.ActiveResidues>
 VAL166  LYS551  ARG553  GLY616  TRP617  ASP618  TYR619  PRO620  LYS621  CYS622 
 ASP623  PHE694  ASN695  SER759  ASP760  ASP761  ALA762  ILE779  LEU786  VAL792 
 PHE793  MET794  SER795  GLU796  ALA797  LYS798  CYS799  TRP800  GLU811  SER814 

> <Gold.Protein.RotatedAtoms>
  152.4846  134.4627  159.9609 H   0  0  0  0  0  0  0  0  0  0  0  0  # atno 6907 bound_to 6896
  151.4625  133.3583  159.2819 H   0  0  0  0  0  0  0  0  0  0  0  0  # atno 6908 bound_to 6896
  150.8947  134.8379  159.7378 H   0  0  0  0  0  0  0  0  0  0  0  0  # atno 6909 bound_to 6896
  144.8632  140.6253  143.5314 H   0  0  0  0  0  0  0  0  0  0  0  0  # atno 7974 bound_to 7965
  155.9135  140.1061  157.1261 H   0  0  0  0  0  0  0  0  0  0  0  0  # atno 8008 bound_to 7997
  154.4043  140.1270  156.4652 H   0  0  0  0  0  0  0  0  0  0  0  0  # atno 8009 bound_to 7997
  155.7282  140.3469  155.5049 H   0  0  0  0  0  0  0  0  0  0  0  0  # atno 8010 bound_to 7997
  139.4900  144.5802  151.6887 H   0  0  0  0  0  0  0  0  0  0  0  0  # atno 10167 bound_to 10162
  156.3405  130.4293  149.7792 H   0  0  0  0  0  0  0  0  0  0  0  0  # atno 10718 bound_to 10713
  154.8438  135.3447  154.6308 H   0  0  0  0  0  0  0  0  0  0  0  0  # atno 10763 bound_to 10752
  153.6918  135.6974  153.5092 H   0  0  0  0  0  0  0  0  0  0  0  0  # atno 10764 bound_to 10752
  153.2589  135.4329  155.0829 H   0  0  0  0  0  0  0  0  0  0  0  0  # atno 10765 bound_to 10752
  140.4203  134.1526  155.7672 H   0  0  0  0  0  0  0  0  0  0  0  0  # atno 11005 bound_to 11000
  145.4271  139.1555  143.4042 LP  0  0  0  0  0  0  0  0  0  0  0  0  # atno 17320 bound_to 7965
  146.2876  140.4385  142.8752 LP  0  0  0  0  0  0  0  0  0  0  0  0  # atno 17321 bound_to 7965
  140.5406  144.0585  150.6087 LP  0  0  0  0  0  0  0  0  0  0  0  0  # atno 17342 bound_to 10162
  140.3606  143.2910  152.0388 LP  0  0  0  0  0  0  0  0  0  0  0  0  # atno 17343 bound_to 10162
  156.5030  130.8137  151.3140 LP  0  0  0  0  0  0  0  0  0  0  0  0  # atno 17370 bound_to 10713
  157.7446  130.9938  150.2686 LP  0  0  0  0  0  0  0  0  0  0  0  0  # atno 17371 bound_to 10713
  141.1787  133.8460  157.1334 LP  0  0  0  0  0  0  0  0  0  0  0  0  # atno 17394 bound_to 11000
  140.0205  134.9948  157.0581 LP  0  0  0  0  0  0  0  0  0  0  0  0  # atno 17395 bound_to 11000

$$$$
