AV-unprocessed.smi:1056|AV-procd|sdf|4636|dock10
  -GOLD-   22720 3143D 1   1.00000     0.00000
 Structure written by MMmdl.
 46 48  0  0  0  0  0  0  0  0  3 V2000
  152.1608  144.4274  160.5583 C   0  0  0  0  0  0  0  0  0  0  0  0
  151.9694  143.3672  159.4870 C   0  0  0  0  0  0  0  0  0  0  0  0
  151.1495  143.6696  158.3766 C   0  0  0  0  0  0  0  0  0  0  0  0
  150.9950  142.6794  157.4137 C   0  0  0  0  0  0  0  0  0  0  0  0
  150.2650  142.6692  156.2237 N   0  3  0  0  0  0  0  0  0  0  0  0
  150.4199  141.4664  155.6052 C   0  0  0  0  0  0  0  0  0  0  0  0
  151.2363  140.7050  156.3839 N   0  0  0  0  0  0  0  0  0  0  0  0
  151.7197  139.3319  156.1732 C   0  0  0  0  0  0  0  0  0  0  0  0
  151.0423  138.3066  157.1046 C   0  0  2  0  0  0  0  0  0  0  0  0
  151.9365  137.2438  157.3745 O   0  0  0  0  0  0  0  0  0  0  0  0
  149.7600  137.7249  156.4776 C   0  0  0  0  0  0  0  0  0  0  0  0
  148.9997  136.8722  157.4266 N   0  3  1  0  0  0  0  0  0  0  0  0
  149.4958  135.4770  157.4992 C   0  0  0  0  0  0  0  0  0  0  0  0
  148.5312  134.6135  158.3309 C   0  0  0  0  0  0  0  0  0  0  0  0
  148.0761  135.2786  159.5496 N   0  0  0  0  0  0  0  0  0  0  0  0
  148.1977  136.5899  159.8129 C   0  0  0  0  0  0  0  0  0  0  0  0
  147.7803  137.0813  160.8583 O   0  0  0  0  0  0  0  0  0  0  0  0
  148.8849  137.4886  158.7731 C   0  0  0  0  0  0  0  0  0  0  0  0
  151.6216  141.4224  157.5241 C   0  0  0  0  0  0  0  0  0  0  0  0
  152.4313  141.1083  158.6139 C   0  0  0  0  0  0  0  0  0  0  0  0
  152.6024  142.1028  159.6035 C   0  0  0  0  0  0  0  0  0  0  0  0
  153.4822  141.7883  160.8015 C   0  0  0  0  0  0  0  0  0  0  0  0
  151.5796  145.3239  160.3413 H   0  0  0  0  0  0  0  0  0  0  0  0
  153.2095  144.7178  160.6254 H   0  0  0  0  0  0  0  0  0  0  0  0
  151.8417  144.0525  161.5311 H   0  0  0  0  0  0  0  0  0  0  0  0
  150.6646  144.6301  158.2809 H   0  0  0  0  0  0  0  0  0  0  0  0
  149.9746  141.1716  154.6659 H   0  0  0  0  0  0  0  0  0  0  0  0
  151.5127  139.0781  155.1329 H   0  0  0  0  0  0  0  0  0  0  0  0
  152.8043  139.3087  156.2792 H   0  0  0  0  0  0  0  0  0  0  0  0
  150.8128  138.7994  158.0492 H   0  0  0  0  0  0  0  0  0  0  0  0
  152.5074  137.4983  158.0835 H   0  0  0  0  0  0  0  0  0  0  0  0
  149.1106  138.5241  156.1166 H   0  0  0  0  0  0  0  0  0  0  0  0
  150.0385  137.1418  155.5979 H   0  0  0  0  0  0  0  0  0  0  0  0
  149.6052  135.0438  156.5056 H   0  0  0  0  0  0  0  0  0  0  0  0
  150.4874  135.4747  157.9550 H   0  0  0  0  0  0  0  0  0  0  0  0
  147.6481  134.3757  157.7368 H   0  0  0  0  0  0  0  0  0  0  0  0
  148.9996  133.6636  158.5901 H   0  0  0  0  0  0  0  0  0  0  0  0
  147.6280  134.6990  160.2455 H   0  0  0  0  0  0  0  0  0  0  0  0
  149.8803  137.7342  159.1460 H   0  0  0  0  0  0  0  0  0  0  0  0
  148.3309  138.4251  158.6954 H   0  0  0  0  0  0  0  0  0  0  0  0
  152.9129  140.1470  158.7094 H   0  0  0  0  0  0  0  0  0  0  0  0
  153.9253  140.7952  160.7226 H   0  0  0  0  0  0  0  0  0  0  0  0
  152.8993  141.8215  161.7221 H   0  0  0  0  0  0  0  0  0  0  0  0
  154.2960  142.5094  160.8801 H   0  0  0  0  0  0  0  0  0  0  0  0
  148.0566  136.8219  157.0677 H   0  0  0  0  0  0  0  0  0  0  0  0
  149.7027  143.4273  155.8578 H   0  0  0  0  0  0  0  0  0  0  0  0
  1  2  1  0  0  0  0
  1 23  1  0  0  0  0
  1 24  1  0  0  0  0
  1 25  1  0  0  0  0
  2 21  1  0  0  0  0
  2  3  2  0  0  0  0
  3  4  1  0  0  0  0
  3 26  1  0  0  0  0
  4 19  2  0  0  0  0
  4  5  1  0  0  0  0
  5  6  2  0  0  0  0
  5 46  1  0  0  0  0
  6  7  1  0  0  0  0
  6 27  1  0  0  0  0
  7  8  1  0  0  0  0
  7 19  1  0  0  0  0
  8  9  1  0  0  0  0
  8 28  1  0  0  0  0
  8 29  1  0  0  0  0
  9 10  1  0  0  0  0
  9 11  1  0  0  0  0
  9 30  1  0  0  0  0
 10 31  1  0  0  0  0
 11 12  1  0  0  0  0
 11 32  1  0  0  0  0
 11 33  1  0  0  0  0
 12 18  1  0  0  0  0
 12 13  1  0  0  0  0
 12 45  1  0  0  0  0
 13 14  1  0  0  0  0
 13 34  1  0  0  0  0
 13 35  1  0  0  0  0
 14 15  1  0  0  0  0
 14 36  1  0  0  0  0
 14 37  1  0  0  0  0
 15 16  1  0  0  0  0
 15 38  1  0  0  0  0
 16 17  2  0  0  0  0
 16 18  1  0  0  0  0
 18 39  1  0  0  0  0
 18 40  1  0  0  0  0
 19 20  1  0  0  0  0
 20 21  2  0  0  0  0
 20 41  1  0  0  0  0
 21 22  1  0  0  0  0
 22 42  1  0  0  0  0
 22 43  1  0  0  0  0
 22 44  1  0  0  0  0
M  CHG  1   5   1
M  CHG  1  12   1
M  END
> <s_m_source_file>
AV-unprocessed.smi

> <i_m_source_file_index>
1056

> <i_lp_mmshare_version>
43012

> <i_f3d_flags>
0

> <s_epik_input>
W0NIM11jKFtjSF0xKWMoW0NIM10pW2NIXWMoYzEyKW4oW2NIXW4yKVtDSDJdW0NASF0oW09IXSlbQ0gyXU4zW0NIMl1bQ0gyXVtOSF1DKD1PKVtDSDJdMw==

> <s_epik_cmdline>
J2VwaWtfcHl0aG9uJywgJy1waCcsICc3LjAnLCAnLXRuJywgJzgnLCAnLW1hJywgJzIwMCcsICctbWV0YWxfYmluZGluZycsICctaW1hZScsICc8aW5maWxlLm1hZT4nLCAnLW9tYWUnLCAnPG91dGZpbGUubWFlPic=

> <r_epik_Ionization_Penalty>
1.262

> <r_epik_Ionization_Penalty_Charging>
1.26188

> <r_epik_Ionization_Penalty_Neutral>
0.000125436

> <r_epik_State_Penalty>
1.3387

> <r_epik_Charging_Adjusted_Penalty>
2.60058

> <i_epik_Tot_Q>
2

> <i_epik_Tot_abs_Q>
2

> <r_epik_Metal_State_Penalty>
1.58938

> <b_epik_Metal_Only>
0

> <s_lp_Force_Field>
OPLS_2005

> <r_lp_Energy>
35.3013

> <b_lp_Chiralities_Consistent>
1

> <s_lp_Variant>
AV-unprocessed.smi:1056-7

> <Gold.Version>
5.8.1

> <Gold.Id.Protein>
6NUR|6NUR_protein|mol2

> <Gold.PLP.Fitness>
49.0897

> <Gold.PLP.PLP>
-39.1458

> <Gold.PLP.part.hbond>
-2.9786

> <Gold.PLP.part.metal>
0.0000

> <Gold.PLP.part.buried>
-5.0551

> <Gold.PLP.part.nonpolar>
-31.0810

> <Gold.PLP.part.repulsive>
0.2193

> <Gold.PLP.ligand.clash>
0.0000

> <Gold.PLP.ligand.torsion>
0.7330

> <Gold.PLP.Chemscore.Hbond>
3.7920

> <Gold.PLP.Chemscore.CHOScore>
0.0000

> <Gold.PLP.Chemscore.Metal>
0.0000

> <Gold.Chemscore.Hbonds>
donor molecule, donor type, donor heavy atom, donor atom, acceptor molecule, acceptor atom, score
      L1  H     5    46       P1  8028  2.00
      P1  H  6931  6943       L1    17  0.91
      P1  H  6934  6947       L1    17  0.88

> <Gold.PLP.Chemscore.Internal.Correction>
0.0340

> <Gold.Rescore>
     Score         DG    S(hbond)    S(metal)    S(lipo)     H(rot)  DE(clash)    DE(int)     intcor
     18.28     -19.85       2.65        0.00     100.46       2.44       0.02       1.55       ----

> <Gold.Chemscore.Fitness>
18.2779

> <Gold.Chemscore.DG>
-19.8464

> <Gold.Chemscore.ZeroCoef>
-5.4800

> <Gold.Chemscore.Hbond>
2.6492

> <Gold.Chemscore.Metal>
0.0000

> <Gold.Chemscore.Lipo>
100.4569

> <Gold.Chemscore.Internal_Hbond>
0.0000

> <Gold.Chemscore.DEClash>
0.0197

> <Gold.Chemscore.DEInternal>
1.5489

> <Gold.Chemscore.Rot>
2.4357

> <Gold.Chemscore.Internal.Correction>
   9.000000E+99

> <Gold.Chemscore.Hbonds>
donor molecule, donor type, donor heavy atom, donor atom, acceptor molecule, acceptor atom, score
      L1  H     5    46       P1  8028  0.94
      P1  H  6931  6943       L1    17  0.81
      P1  H  6934  6947       L1    17  0.80

> <Gold.Chemscore.Hbond.Weighted>
-8.8483

> <Gold.Chemscore.Metal.Weighted>
-0.0000

> <Gold.Chemscore.Lipo.Weighted>
-11.7535

> <Gold.Chemscore.Internal_Hbond.Weighted>
0.0000

> <Gold.Chemscore.DEClash.Weighted>
0.0197

> <Gold.Chemscore.DEInternal.Weighted>
1.5489

> <Gold.Chemscore.Rot.Weighted>
6.2353

> <Gold.Chemscore.Internal.Correction.Weighted>
   9.000000E+99

> <Gold.Protein.RotatedTorsions>
[ 6907 6896 6895 6894 ] final  -23.36 input  -60.11 | X-H torsion
[ 7974 7965 7964 7962 ] final  -59.40 input  175.53 | X-H torsion
[ 8008 7997 7996 7995 ] final  -40.41 input   59.86 | X-H torsion
[ 10167 10162 10161 10158 ] final -113.39 input  -65.29 | X-H torsion
[ 10718 10713 10712 10709 ] final -113.98 input   66.30 | X-H torsion
[ 10763 10752 10751 10750 ] final  -13.67 input  -60.55 | X-H torsion
[ 11005 11000 10999 10996 ] final    0.87 input  -57.11 | X-H torsion

> <Gold.Protein.ActiveResidues>
 VAL166  LYS551  ARG553  GLY616  TRP617  ASP618  TYR619  PRO620  LYS621  CYS622 
 ASP623  PHE694  ASN695  SER759  ASP760  ASP761  ALA762  ILE779  LEU786  VAL792 
 PHE793  MET794  SER795  GLU796  ALA797  LYS798  CYS799  TRP800  GLU811  SER814 

> <Gold.Protein.RotatedAtoms>
  151.2051  135.0458  159.8887 H   0  0  0  0  0  0  0  0  0  0  0  0  # atno 6907 bound_to 6896
  152.5429  134.0807  159.8244 H   0  0  0  0  0  0  0  0  0  0  0  0  # atno 6908 bound_to 6896
  151.0953  133.5237  159.2644 H   0  0  0  0  0  0  0  0  0  0  0  0  # atno 6909 bound_to 6896
  145.8279  140.8499  143.0099 H   0  0  0  0  0  0  0  0  0  0  0  0  # atno 7974 bound_to 7965
  154.4012  140.1526  156.3023 H   0  0  0  0  0  0  0  0  0  0  0  0  # atno 8008 bound_to 7997
  155.8689  140.3450  155.5786 H   0  0  0  0  0  0  0  0  0  0  0  0  # atno 8009 bound_to 7997
  155.7796  140.0841  157.2056 H   0  0  0  0  0  0  0  0  0  0  0  0  # atno 8010 bound_to 7997
  140.1124  143.4516  152.1744 H   0  0  0  0  0  0  0  0  0  0  0  0  # atno 10167 bound_to 10162
  156.0801  130.6002  150.8714 H   0  0  0  0  0  0  0  0  0  0  0  0  # atno 10718 bound_to 10713
  153.5167  135.7016  153.5752 H   0  0  0  0  0  0  0  0  0  0  0  0  # atno 10763 bound_to 10752
  153.3819  135.3918  155.1863 H   0  0  0  0  0  0  0  0  0  0  0  0  # atno 10764 bound_to 10752
  154.8698  135.3837  154.4652 H   0  0  0  0  0  0  0  0  0  0  0  0  # atno 10765 bound_to 10752
  140.6218  133.9655  155.8228 H   0  0  0  0  0  0  0  0  0  0  0  0  # atno 11005 bound_to 11000
  144.6742  140.0629  143.7475 LP  0  0  0  0  0  0  0  0  0  0  0  0  # atno 17320 bound_to 7965
  145.9603  139.2796  143.1159 LP  0  0  0  0  0  0  0  0  0  0  0  0  # atno 17321 bound_to 7965
  139.5612  144.7407  151.4150 LP  0  0  0  0  0  0  0  0  0  0  0  0  # atno 17342 bound_to 10162
  140.6918  143.7843  150.7267 LP  0  0  0  0  0  0  0  0  0  0  0  0  # atno 17343 bound_to 10162
  157.5914  131.0944  150.9113 LP  0  0  0  0  0  0  0  0  0  0  0  0  # atno 17370 bound_to 10713
  156.9288  130.5342  149.5279 LP  0  0  0  0  0  0  0  0  0  0  0  0  # atno 17371 bound_to 10713
  141.0737  134.0167  157.3489 LP  0  0  0  0  0  0  0  0  0  0  0  0  # atno 17394 bound_to 11000
  139.9150  135.0195  156.7847 LP  0  0  0  0  0  0  0  0  0  0  0  0  # atno 17395 bound_to 11000

$$$$
