AV-unprocessed.smi:1159|AV-procd|sdf|4914|dock6
  -GOLD-   22720 3493D 1   1.00000     0.00000
 Structure written by MMmdl.
 41 42  0  0  0  0  0  0  0  0  1 V2000
  145.3026  134.3594  154.8521 O   0  0  0  0  0  0  0  0  0  0  0  0
  146.2333  134.9084  154.2634 C   0  0  0  0  0  0  0  0  0  0  0  0
  147.1016  135.7773  154.8099 N   0  0  0  0  0  0  0  0  0  0  0  0
  147.1466  136.2927  156.1350 C   0  0  0  0  0  0  0  0  0  0  0  0
  148.1070  137.2184  156.6103 C   0  0  0  0  0  0  0  0  0  0  0  0
  148.0441  137.6354  157.9539 C   0  0  0  0  0  0  0  0  0  0  0  0
  147.0327  137.1140  158.7843 C   0  0  0  0  0  0  0  0  0  0  0  0
  146.9814  137.5267  160.0996 O   0  0  0  0  0  0  0  0  0  0  0  0
  146.1508  136.8072  161.0072 C   0  0  0  0  0  0  0  0  0  0  0  0
  147.0250  135.9002  161.8816 C   0  0  0  0  0  0  0  0  0  0  0  0
  146.2544  134.9989  162.4895 F   0  0  0  0  0  0  0  0  0  0  0  0
  147.9201  135.2595  161.1302 F   0  0  0  0  0  0  0  0  0  0  0  0
  147.6538  136.6211  162.8095 F   0  0  0  0  0  0  0  0  0  0  0  0
  146.1148  136.2209  158.3396 N   0  0  0  0  0  0  0  0  0  0  0  0
  146.1803  135.8259  157.0505 C   0  0  0  0  0  0  0  0  0  0  0  0
  146.5152  134.6959  152.9691 N   0  0  0  0  0  0  0  0  0  0  0  0
  145.7532  133.8318  152.0640 C   0  0  2  0  0  0  0  0  0  0  0  0
  146.6072  133.6203  150.7926 C   0  0  0  0  0  0  0  0  0  0  0  0
  146.2312  132.3604  149.9936 C   0  0  0  0  0  0  0  0  0  0  0  0
  144.8245  132.3800  149.3767 C   0  0  0  0  0  0  0  0  0  0  0  0
  143.6946  132.4540  150.4174 C   0  0  0  0  0  0  0  0  0  0  0  0
  143.5258  133.8001  150.9489 N   0  0  0  0  0  0  0  0  0  0  0  0
  144.4138  134.4992  151.6722 C   0  0  0  0  0  0  0  0  0  0  0  0
  144.1641  135.6557  152.0125 O   0  0  0  0  0  0  0  0  0  0  0  0
  147.8430  136.0954  154.2031 H   0  0  0  0  0  0  0  0  0  0  0  0
  148.8942  137.6098  155.9862 H   0  0  0  0  0  0  0  0  0  0  0  0
  148.7643  138.3406  158.3419 H   0  0  0  0  0  0  0  0  0  0  0  0
  145.5933  137.5001  161.6398 H   0  0  0  0  0  0  0  0  0  0  0  0
  145.4286  136.2004  160.4582 H   0  0  0  0  0  0  0  0  0  0  0  0
  145.4320  135.1113  156.7400 H   0  0  0  0  0  0  0  0  0  0  0  0
  147.2982  135.1902  152.5676 H   0  0  0  0  0  0  0  0  0  0  0  0
  145.5666  132.8750  152.5548 H   0  0  0  0  0  0  0  0  0  0  0  0
  146.5741  134.5002  150.1478 H   0  0  0  0  0  0  0  0  0  0  0  0
  147.6537  133.5115  151.0826 H   0  0  0  0  0  0  0  0  0  0  0  0
  146.9578  132.2295  149.1912 H   0  0  0  0  0  0  0  0  0  0  0  0
  146.3351  131.4823  150.6320 H   0  0  0  0  0  0  0  0  0  0  0  0
  144.7360  133.2020  148.6651 H   0  0  0  0  0  0  0  0  0  0  0  0
  144.6975  131.4668  148.7946 H   0  0  0  0  0  0  0  0  0  0  0  0
  142.7527  132.1771  149.9434 H   0  0  0  0  0  0  0  0  0  0  0  0
  143.8527  131.7394  151.2263 H   0  0  0  0  0  0  0  0  0  0  0  0
  142.6574  134.2623  150.7201 H   0  0  0  0  0  0  0  0  0  0  0  0
  1  2  2  0  0  0  0
  2  3  1  0  0  0  0
  2 16  1  0  0  0  0
  3  4  1  0  0  0  0
  3 25  1  0  0  0  0
  4 15  1  0  0  0  0
  4  5  2  0  0  0  0
  5  6  1  0  0  0  0
  5 26  1  0  0  0  0
  6  7  2  0  0  0  0
  6 27  1  0  0  0  0
  7  8  1  0  0  0  0
  7 14  1  0  0  0  0
  8  9  1  0  0  0  0
  9 10  1  0  0  0  0
  9 28  1  0  0  0  0
  9 29  1  0  0  0  0
 10 11  1  0  0  0  0
 10 12  1  0  0  0  0
 10 13  1  0  0  0  0
 14 15  2  0  0  0  0
 15 30  1  0  0  0  0
 16 17  1  0  0  0  0
 16 31  1  0  0  0  0
 17 23  1  0  0  0  0
 17 18  1  0  0  0  0
 17 32  1  0  0  0  0
 18 19  1  0  0  0  0
 18 33  1  0  0  0  0
 18 34  1  0  0  0  0
 19 20  1  0  0  0  0
 19 35  1  0  0  0  0
 19 36  1  0  0  0  0
 20 21  1  0  0  0  0
 20 37  1  0  0  0  0
 20 38  1  0  0  0  0
 21 22  1  0  0  0  0
 21 39  1  0  0  0  0
 21 40  1  0  0  0  0
 22 23  1  0  0  0  0
 22 41  1  0  0  0  0
 23 24  2  0  0  0  0
M  END
> <s_m_source_file>
AV-unprocessed.smi

> <i_m_source_file_index>
1159

> <i_lp_mmshare_version>
43012

> <i_f3d_flags>
0

> <s_epik_input>
Tz1DMVtOSF1bQ0gyXVtDSDJdW0NIMl1bQ0gyXVtDQEhdMVtOSF1DKD1PKVtOSF1jMltjSF1bY0hdYyhuW2NIXTIpT1tDSDJdQyhGKShGKUY=

> <s_epik_cmdline>
J2VwaWtfcHl0aG9uJywgJy1waCcsICc3LjAnLCAnLXRuJywgJzgnLCAnLW1hJywgJzIwMCcsICctbWV0YWxfYmluZGluZycsICctaW1hZScsICc8aW5maWxlLm1hZT4nLCAnLW9tYWUnLCAnPG91dGZpbGUubWFlPic=

> <r_lp_tautomer_probability>
1

> <r_epik_Ionization_Penalty>
3.53205e-05

> <r_epik_Ionization_Penalty_Charging>
0

> <r_epik_Ionization_Penalty_Neutral>
3.53205e-05

> <r_epik_State_Penalty>
-0

> <r_epik_Charging_Adjusted_Penalty>
0

> <i_epik_Tot_Q>
0

> <i_epik_Tot_abs_Q>
0

> <r_epik_Metal_State_Penalty>
-0

> <b_epik_Metal_Only>
0

> <s_lp_Force_Field>
OPLS_2005

> <r_lp_Energy>
13.2476

> <b_lp_Chiralities_Consistent>
1

> <s_lp_Variant>
AV-unprocessed.smi:1159-1

> <Gold.Version>
5.8.1

> <Gold.Id.Protein>
6NUR|6NUR_protein|mol2

> <Gold.PLP.Fitness>
42.0263

> <Gold.PLP.PLP>
-34.7880

> <Gold.PLP.part.hbond>
-2.8644

> <Gold.PLP.part.metal>
0.0000

> <Gold.PLP.part.buried>
-4.6819

> <Gold.PLP.part.nonpolar>
-25.6260

> <Gold.PLP.part.repulsive>
0.1956

> <Gold.PLP.ligand.clash>
0.0000

> <Gold.PLP.ligand.torsion>
0.7745

> <Gold.PLP.Chemscore.Hbond>
2.9183

> <Gold.PLP.Chemscore.CHOScore>
0.0000

> <Gold.PLP.Chemscore.Metal>
0.0000

> <Gold.Chemscore.Hbonds>
donor molecule, donor type, donor heavy atom, donor atom, acceptor molecule, acceptor atom, score
      L1  H    16    31       P1  7948  0.94
      L1  H    22    41       P1 10186  1.00
      P1  H  6934  6947       L1     8  1.00

> <Gold.PLP.Chemscore.Internal.Correction>
0.0324

> <Gold.Rescore>
     Score         DG    S(hbond)    S(metal)    S(lipo)     H(rot)  DE(clash)    DE(int)     intcor
     13.84     -16.65       2.62        0.00      60.23       1.81       0.57       2.24       ----

> <Gold.Chemscore.Fitness>
13.8368

> <Gold.Chemscore.DG>
-16.6482

> <Gold.Chemscore.ZeroCoef>
-5.4800

> <Gold.Chemscore.Hbond>
2.6182

> <Gold.Chemscore.Metal>
0.0000

> <Gold.Chemscore.Lipo>
60.2336

> <Gold.Chemscore.Internal_Hbond>
0.0000

> <Gold.Chemscore.DEClash>
0.5669

> <Gold.Chemscore.DEInternal>
2.2446

> <Gold.Chemscore.Rot>
1.8062

> <Gold.Chemscore.Internal.Correction>
   9.000000E+99

> <Gold.Chemscore.Hbonds>
donor molecule, donor type, donor heavy atom, donor atom, acceptor molecule, acceptor atom, score
      L1  H    16    31       P1  7948  0.90
      L1  H    22    41       P1 10186  0.45
      P1  H  6934  6947       L1     8  0.34

> <Gold.Chemscore.Hbond.Weighted>
-8.7447

> <Gold.Chemscore.Metal.Weighted>
-0.0000

> <Gold.Chemscore.Lipo.Weighted>
-7.0473

> <Gold.Chemscore.Internal_Hbond.Weighted>
0.0000

> <Gold.Chemscore.DEClash.Weighted>
0.5669

> <Gold.Chemscore.DEInternal.Weighted>
2.2446

> <Gold.Chemscore.Rot.Weighted>
4.6238

> <Gold.Chemscore.Internal.Correction.Weighted>
   9.000000E+99

> <Gold.Protein.RotatedTorsions>
[ 6907 6896 6895 6894 ] final  -13.23 input  -60.11 | X-H torsion
[ 7974 7965 7964 7962 ] final -104.18 input  175.53 | X-H torsion
[ 8008 7997 7996 7995 ] final  162.65 input   59.86 | X-H torsion
[ 10167 10162 10161 10158 ] final  127.40 input  -65.29 | X-H torsion
[ 10718 10713 10712 10709 ] final  -27.69 input   66.30 | X-H torsion
[ 10763 10752 10751 10750 ] final -159.40 input  -60.55 | X-H torsion
[ 11005 11000 10999 10996 ] final  178.66 input  -57.11 | X-H torsion

> <Gold.Protein.ActiveResidues>
 VAL166  LYS551  ARG553  GLY616  TRP617  ASP618  TYR619  PRO620  LYS621  CYS622 
 ASP623  PHE694  ASN695  SER759  ASP760  ASP761  ALA762  ILE779  LEU786  VAL792 
 PHE793  MET794  SER795  GLU796  ALA797  LYS798  CYS799  TRP800  GLU811  SER814 

> <Gold.Protein.RotatedAtoms>
  151.3581  135.0898  159.9424 H   0  0  0  0  0  0  0  0  0  0  0  0  # atno 6907 bound_to 6896
  152.5169  133.9286  159.7579 H   0  0  0  0  0  0  0  0  0  0  0  0  # atno 6908 bound_to 6896
  150.9674  133.6326  159.2773 H   0  0  0  0  0  0  0  0  0  0  0  0  # atno 6909 bound_to 6896
  145.2464  140.9223  143.3120 H   0  0  0  0  0  0  0  0  0  0  0  0  # atno 7974 bound_to 7965
  156.2016  140.1745  156.7887 H   0  0  0  0  0  0  0  0  0  0  0  0  # atno 8008 bound_to 7997
  154.5599  140.0701  156.8833 H   0  0  0  0  0  0  0  0  0  0  0  0  # atno 8009 bound_to 7997
  155.2868  140.3352  155.4257 H   0  0  0  0  0  0  0  0  0  0  0  0  # atno 8010 bound_to 7997
  139.5580  144.6862  151.4125 H   0  0  0  0  0  0  0  0  0  0  0  0  # atno 10167 bound_to 10162
  156.4349  130.4452  149.7092 H   0  0  0  0  0  0  0  0  0  0  0  0  # atno 10718 bound_to 10713
  154.7478  135.3084  154.8614 H   0  0  0  0  0  0  0  0  0  0  0  0  # atno 10763 bound_to 10752
  153.9410  135.6775  153.4748 H   0  0  0  0  0  0  0  0  0  0  0  0  # atno 10764 bound_to 10752
  153.1074  135.4883  154.8902 H   0  0  0  0  0  0  0  0  0  0  0  0  # atno 10765 bound_to 10752
  140.3975  134.6807  157.4543 H   0  0  0  0  0  0  0  0  0  0  0  0  # atno 11005 bound_to 11000
  144.9542  139.4049  143.6387 LP  0  0  0  0  0  0  0  0  0  0  0  0  # atno 17320 bound_to 7965
  146.3314  139.8565  142.8864 LP  0  0  0  0  0  0  0  0  0  0  0  0  # atno 17321 bound_to 7965
  140.6856  143.7981  150.7181 LP  0  0  0  0  0  0  0  0  0  0  0  0  # atno 17342 bound_to 10162
  140.1448  143.4409  152.2170 LP  0  0  0  0  0  0  0  0  0  0  0  0  # atno 17343 bound_to 10162
  156.3980  130.7660  151.2666 LP  0  0  0  0  0  0  0  0  0  0  0  0  # atno 17370 bound_to 10713
  157.7507  131.0248  150.3892 LP  0  0  0  0  0  0  0  0  0  0  0  0  # atno 17371 bound_to 10713
  140.0361  134.6336  155.9042 LP  0  0  0  0  0  0  0  0  0  0  0  0  # atno 17394 bound_to 11000
  141.1869  133.6558  156.5257 LP  0  0  0  0  0  0  0  0  0  0  0  0  # atno 17395 bound_to 11000

$$$$
