AV-unprocessed.smi:1641|AV-procd|sdf|6556|dock6
  -GOLD-   22720 7243D 1   1.00000     0.00000
 Structure written by MMmdl.
 41 42  0  0  0  0  0  0  0  0  1 V2000
  153.5282  137.6925  157.2388 C   0  0  0  0  0  0  0  0  0  0  0  0
  152.6006  138.3009  156.2431 C   0  0  0  0  0  0  0  0  0  0  0  0
  152.7002  139.5751  155.8453 N   0  0  0  0  0  0  0  0  0  0  0  0
  151.7288  139.9129  154.9132 N   0  0  0  0  0  0  0  0  0  0  0  0
  150.9226  138.8793  154.6347 C   0  0  0  0  0  0  0  0  0  0  0  0
  149.8420  138.9457  153.7155 N   0  0  0  0  0  0  0  0  0  0  0  0
  148.5511  138.6318  153.9230 C   0  0  0  0  0  0  0  0  0  0  0  0
  148.0800  138.2143  154.9814 O   0  0  0  0  0  0  0  0  0  0  0  0
  147.8203  138.8254  152.8156 N   0  0  0  0  0  0  0  0  0  0  0  0
  146.3898  138.5679  152.7033 C   0  0  0  0  0  0  0  0  0  0  0  0
  146.0908  137.5582  151.5792 C   0  0  0  0  0  0  0  0  0  0  0  0
  145.4727  136.3090  152.0197 N   0  0  0  0  0  0  0  0  0  0  0  0
  145.3273  135.3426  150.9336 C   0  0  0  0  0  0  0  0  0  0  0  0
  144.6505  134.0408  151.4052 C   0  0  2  0  0  0  0  0  0  0  0  0
  144.4145  133.0608  150.2513 C   0  0  0  0  0  0  0  0  0  0  0  0
  143.3896  134.3531  151.9913 O   0  0  0  0  0  0  0  0  0  0  0  0
  143.4859  135.2590  153.0869 C   0  0  2  0  0  0  0  0  0  0  0  0
  142.0754  135.5077  153.6313 C   0  0  0  0  0  0  0  0  0  0  0  0
  144.1608  136.5573  152.6062 C   0  0  0  0  0  0  0  0  0  0  0  0
  151.2925  137.3937  155.4934 S   0  0  0  0  0  0  0  0  0  0  0  0
  154.3553  137.2021  156.7253 H   0  0  0  0  0  0  0  0  0  0  0  0
  153.0007  136.9527  157.8408 H   0  0  0  0  0  0  0  0  0  0  0  0
  153.9309  138.4579  157.9031 H   0  0  0  0  0  0  0  0  0  0  0  0
  150.0818  139.2665  152.7892 H   0  0  0  0  0  0  0  0  0  0  0  0
  148.2858  139.1716  151.9894 H   0  0  0  0  0  0  0  0  0  0  0  0
  146.0097  138.2215  153.6650 H   0  0  0  0  0  0  0  0  0  0  0  0
  145.8916  139.5147  152.4929 H   0  0  0  0  0  0  0  0  0  0  0  0
  145.4227  138.0466  150.8682 H   0  0  0  0  0  0  0  0  0  0  0  0
  147.0058  137.3386  151.0268 H   0  0  0  0  0  0  0  0  0  0  0  0
  144.7435  135.7836  150.1239 H   0  0  0  0  0  0  0  0  0  0  0  0
  146.3026  135.0951  150.5160 H   0  0  0  0  0  0  0  0  0  0  0  0
  145.2780  133.5548  152.1545 H   0  0  0  0  0  0  0  0  0  0  0  0
  145.3543  132.7844  149.7728 H   0  0  0  0  0  0  0  0  0  0  0  0
  143.7661  133.4964  149.4903 H   0  0  0  0  0  0  0  0  0  0  0  0
  143.9413  132.1456  150.6080 H   0  0  0  0  0  0  0  0  0  0  0  0
  144.0896  134.8022  153.8730 H   0  0  0  0  0  0  0  0  0  0  0  0
  142.0973  136.1933  154.4787 H   0  0  0  0  0  0  0  0  0  0  0  0
  141.6183  134.5771  153.9684 H   0  0  0  0  0  0  0  0  0  0  0  0
  141.4284  135.9393  152.8673 H   0  0  0  0  0  0  0  0  0  0  0  0
  144.2583  137.2443  153.4478 H   0  0  0  0  0  0  0  0  0  0  0  0
  143.5184  137.0510  151.8749 H   0  0  0  0  0  0  0  0  0  0  0  0
  1  2  1  0  0  0  0
  1 21  1  0  0  0  0
  1 22  1  0  0  0  0
  1 23  1  0  0  0  0
  2 20  1  0  0  0  0
  2  3  2  0  0  0  0
  3  4  1  0  0  0  0
  4  5  2  0  0  0  0
  5  6  1  0  0  0  0
  5 20  1  0  0  0  0
  6  7  1  0  0  0  0
  6 24  1  0  0  0  0
  7  8  2  0  0  0  0
  7  9  1  0  0  0  0
  9 10  1  0  0  0  0
  9 25  1  0  0  0  0
 10 11  1  0  0  0  0
 10 26  1  0  0  0  0
 10 27  1  0  0  0  0
 11 12  1  0  0  0  0
 11 28  1  0  0  0  0
 11 29  1  0  0  0  0
 12 19  1  0  0  0  0
 12 13  1  0  0  0  0
 13 14  1  0  0  0  0
 13 30  1  0  0  0  0
 13 31  1  0  0  0  0
 14 15  1  0  0  0  0
 14 16  1  0  0  0  0
 14 32  1  0  0  0  0
 15 33  1  0  0  0  0
 15 34  1  0  0  0  0
 15 35  1  0  0  0  0
 16 17  1  0  0  0  0
 17 18  1  0  0  0  0
 17 19  1  0  0  0  0
 17 36  1  0  0  0  0
 18 37  1  0  0  0  0
 18 38  1  0  0  0  0
 18 39  1  0  0  0  0
 19 40  1  0  0  0  0
 19 41  1  0  0  0  0
M  END
> <s_m_source_file>
AV-unprocessed.smi

> <i_m_source_file_index>
1641

> <i_lp_mmshare_version>
43012

> <i_f3d_flags>
0

> <s_epik_input>
W0NIM11jMW5uYyhzMSlbTkhdQyg9TylbTkhdW0NIMl1bQ0gyXU4yW0NIMl1bQ0BASF0oW0NIM10pT1tDQEBIXShbQ0gzXSlbQ0gyXTI=

> <s_epik_cmdline>
J2VwaWtfcHl0aG9uJywgJy1waCcsICc3LjAnLCAnLXRuJywgJzgnLCAnLW1hJywgJzIwMCcsICctbWV0YWxfYmluZGluZycsICctaW1hZScsICc8aW5maWxlLm1hZT4nLCAnLW9tYWUnLCAnPG91dGZpbGUubWFlPic=

> <r_lp_tautomer_probability>
1

> <r_epik_Ionization_Penalty>
0.221104

> <r_epik_Ionization_Penalty_Charging>
0

> <r_epik_Ionization_Penalty_Neutral>
0.221104

> <r_epik_State_Penalty>
0.209349

> <r_epik_Charging_Adjusted_Penalty>
0.209349

> <i_epik_Tot_Q>
0

> <i_epik_Tot_abs_Q>
0

> <r_epik_Metal_State_Penalty>
0.560954

> <b_epik_Metal_Only>
0

> <s_lp_Force_Field>
OPLS_2005

> <r_lp_Energy>
18.567

> <b_lp_Chiralities_Consistent>
1

> <s_lp_Variant>
AV-unprocessed.smi:1641-1

> <Gold.Version>
5.8.1

> <Gold.Id.Protein>
6NUR|6NUR_protein|mol2

> <Gold.PLP.Fitness>
43.7221

> <Gold.PLP.PLP>
-33.4789

> <Gold.PLP.part.hbond>
-4.9787

> <Gold.PLP.part.metal>
0.0000

> <Gold.PLP.part.buried>
-2.7485

> <Gold.PLP.part.nonpolar>
-26.4902

> <Gold.PLP.part.repulsive>
0.7353

> <Gold.PLP.ligand.clash>
0.0000

> <Gold.PLP.ligand.torsion>
0.8810

> <Gold.PLP.Chemscore.Hbond>
4.0000

> <Gold.PLP.Chemscore.CHOScore>
0.0000

> <Gold.PLP.Chemscore.Metal>
0.0000

> <Gold.Chemscore.Hbonds>
donor molecule, donor type, donor heavy atom, donor atom, acceptor molecule, acceptor atom, score
      L1  H     6    24       P1  7957  1.00
      L1  H     9    25       P1  7957  1.00
      P1  H  7989  7998       L1     4  1.00
      P1  H  7997  8008       L1     3  1.00

> <Gold.PLP.Chemscore.Internal.Correction>
0.0051

> <Gold.Rescore>
     Score         DG    S(hbond)    S(metal)    S(lipo)     H(rot)  DE(clash)    DE(int)     intcor
     17.94     -19.28       3.15        0.00      63.08       1.60       0.52       0.83       ----

> <Gold.Chemscore.Fitness>
17.9374

> <Gold.Chemscore.DG>
-19.2812

> <Gold.Chemscore.ZeroCoef>
-5.4800

> <Gold.Chemscore.Hbond>
3.1469

> <Gold.Chemscore.Metal>
0.0000

> <Gold.Chemscore.Lipo>
63.0792

> <Gold.Chemscore.Internal_Hbond>
0.0000

> <Gold.Chemscore.DEClash>
0.5174

> <Gold.Chemscore.DEInternal>
0.8264

> <Gold.Chemscore.Rot>
1.5975

> <Gold.Chemscore.Internal.Correction>
   9.000000E+99

> <Gold.Chemscore.Hbonds>
donor molecule, donor type, donor heavy atom, donor atom, acceptor molecule, acceptor atom, score
      L1  H     6    24       P1  7957  0.85
      L1  H     9    25       P1  7957  0.97
      P1  H  7989  7998       L1     4  0.43
      P1  H  7997  8008       L1     3  0.60

> <Gold.Chemscore.Hbond.Weighted>
-10.5105

> <Gold.Chemscore.Metal.Weighted>
-0.0000

> <Gold.Chemscore.Lipo.Weighted>
-7.3803

> <Gold.Chemscore.Internal_Hbond.Weighted>
0.0000

> <Gold.Chemscore.DEClash.Weighted>
0.5174

> <Gold.Chemscore.DEInternal.Weighted>
0.8264

> <Gold.Chemscore.Rot.Weighted>
4.0896

> <Gold.Chemscore.Internal.Correction.Weighted>
   9.000000E+99

> <Gold.Protein.RotatedTorsions>
[ 6907 6896 6895 6894 ] final   67.33 input  -60.11 | X-H torsion
[ 7974 7965 7964 7962 ] final   82.86 input  175.53 | X-H torsion
[ 8008 7997 7996 7995 ] final  -41.00 input   59.86 | X-H torsion
[ 10167 10162 10161 10158 ] final    9.10 input  -65.29 | X-H torsion
[ 10718 10713 10712 10709 ] final  -47.35 input   66.30 | X-H torsion
[ 10763 10752 10751 10750 ] final -136.00 input  -60.55 | X-H torsion
[ 11005 11000 10999 10996 ] final    8.42 input  -57.11 | X-H torsion

> <Gold.Protein.ActiveResidues>
 VAL166  LYS551  ARG553  GLY616  TRP617  ASP618  TYR619  PRO620  LYS621  CYS622 
 ASP623  PHE694  ASN695  SER759  ASP760  ASP761  ALA762  ILE779  LEU786  VAL792 
 PHE793  MET794  SER795  GLU796  ALA797  LYS798  CYS799  TRP800  GLU811  SER814 

> <Gold.Protein.RotatedAtoms>
  152.4544  134.5324  159.9814 H   0  0  0  0  0  0  0  0  0  0  0  0  # atno 6907 bound_to 6896
  151.5388  133.3430  159.2939 H   0  0  0  0  0  0  0  0  0  0  0  0  # atno 6908 bound_to 6896
  150.8483  134.7830  159.7051 H   0  0  0  0  0  0  0  0  0  0  0  0  # atno 6909 bound_to 6896
  145.6196  139.2383  143.2146 H   0  0  0  0  0  0  0  0  0  0  0  0  # atno 7974 bound_to 7965
  154.4007  140.1511  156.3119 H   0  0  0  0  0  0  0  0  0  0  0  0  # atno 8008 bound_to 7997
  155.8608  140.3453  155.5733 H   0  0  0  0  0  0  0  0  0  0  0  0  # atno 8009 bound_to 7997
  155.7882  140.0853  157.2013 H   0  0  0  0  0  0  0  0  0  0  0  0  # atno 8010 bound_to 7997
  140.6275  143.8068  150.7252 H   0  0  0  0  0  0  0  0  0  0  0  0  # atno 10167 bound_to 10162
  156.2093  130.4160  149.9136 H   0  0  0  0  0  0  0  0  0  0  0  0  # atno 10718 bound_to 10713
  154.8692  135.3686  154.4990 H   0  0  0  0  0  0  0  0  0  0  0  0  # atno 10763 bound_to 10752
  153.5632  135.7022  153.5543 H   0  0  0  0  0  0  0  0  0  0  0  0  # atno 10764 bound_to 10752
  153.3609  135.4047  155.1681 H   0  0  0  0  0  0  0  0  0  0  0  0  # atno 10765 bound_to 10752
  140.5372  134.0410  155.7892 H   0  0  0  0  0  0  0  0  0  0  0  0  # atno 11005 bound_to 11000
  146.1441  140.7016  142.9353 LP  0  0  0  0  0  0  0  0  0  0  0  0  # atno 17320 bound_to 7965
  144.7236  140.4455  143.6989 LP  0  0  0  0  0  0  0  0  0  0  0  0  # atno 17321 bound_to 7965
  140.1672  143.4225  152.2026 LP  0  0  0  0  0  0  0  0  0  0  0  0  # atno 17342 bound_to 10162
  139.5493  144.7325  151.4484 LP  0  0  0  0  0  0  0  0  0  0  0  0  # atno 17343 bound_to 10162
  156.6820  130.8862  151.3577 LP  0  0  0  0  0  0  0  0  0  0  0  0  # atno 17370 bound_to 10713
  157.7029  130.9353  150.0842 LP  0  0  0  0  0  0  0  0  0  0  0  0  # atno 17371 bound_to 10713
  141.1248  133.9401  157.2657 LP  0  0  0  0  0  0  0  0  0  0  0  0  # atno 17394 bound_to 11000
  139.9523  135.0173  156.9029 LP  0  0  0  0  0  0  0  0  0  0  0  0  # atno 17395 bound_to 11000

$$$$
