AV-unprocessed.smi:3093|AV-procd|sdf|11786|dock2
  -GOLD-   2272017163D 1   1.00000     0.00000
 Structure written by MMmdl.
 25 26  0  0  0  0  0  0  0  0  2 V2000
  148.6804  141.2550  154.6890 C   0  0  0  0  0  0  0  0  0  0  0  0
  149.7562  140.3517  154.4635 C   0  0  0  0  0  0  0  0  0  0  0  0
  150.6781  140.4117  155.4109 N   0  0  0  0  0  0  0  0  0  0  0  0
  150.2302  141.3593  156.2635 N   0  0  0  0  0  0  0  0  0  0  0  0
  150.9895  141.6807  157.4604 C   0  0  0  0  0  0  0  0  0  0  0  0
  151.3560  143.1744  157.5643 C   0  0  2  0  0  0  0  0  0  0  0  0
  152.5028  143.4593  158.5366 C   0  0  0  0  0  0  0  0  0  0  0  0
  152.2831  144.9232  158.8994 C   0  0  0  0  0  0  0  0  0  0  0  0
  150.7584  145.0573  158.9282 C   0  0  0  0  0  0  0  0  0  0  0  0
  150.2283  144.0015  158.0417 N   0  3  0  0  0  0  0  0  0  0  0  0
  149.0172  141.8758  155.8577 C   0  0  0  0  0  0  0  0  0  0  0  0
  147.7966  141.4162  154.0897 H   0  0  0  0  0  0  0  0  0  0  0  0
  149.8921  139.6570  153.6477 H   0  0  0  0  0  0  0  0  0  0  0  0
  150.4096  141.3723  158.3314 H   0  0  0  0  0  0  0  0  0  0  0  0
  151.8956  141.0737  157.4570 H   0  0  0  0  0  0  0  0  0  0  0  0
  151.6444  143.5584  156.5843 H   0  0  0  0  0  0  0  0  0  0  0  0
  152.4098  142.8406  159.4307 H   0  0  0  0  0  0  0  0  0  0  0  0
  153.4841  143.2738  158.0988 H   0  0  0  0  0  0  0  0  0  0  0  0
  152.7518  145.2029  159.8434 H   0  0  0  0  0  0  0  0  0  0  0  0
  152.6967  145.5613  158.1173 H   0  0  0  0  0  0  0  0  0  0  0  0
  150.3798  144.8817  159.9355 H   0  0  0  0  0  0  0  0  0  0  0  0
  150.4262  146.0461  158.6109 H   0  0  0  0  0  0  0  0  0  0  0  0
  149.7415  144.4042  157.2535 H   0  0  0  0  0  0  0  0  0  0  0  0
  148.4990  142.6340  156.4266 H   0  0  0  0  0  0  0  0  0  0  0  0
  149.5914  143.4251  158.5727 H   0  0  0  0  0  0  0  0  0  0  0  0
  1 11  2  0  0  0  0
  1  2  1  0  0  0  0
  1 12  1  0  0  0  0
  2  3  2  0  0  0  0
  2 13  1  0  0  0  0
  3  4  1  0  0  0  0
  4  5  1  0  0  0  0
  4 11  1  0  0  0  0
  5  6  1  0  0  0  0
  5 14  1  0  0  0  0
  5 15  1  0  0  0  0
  6 10  1  0  0  0  0
  6  7  1  0  0  0  0
  6 16  1  0  0  0  0
  7  8  1  0  0  0  0
  7 17  1  0  0  0  0
  7 18  1  0  0  0  0
  8  9  1  0  0  0  0
  8 19  1  0  0  0  0
  8 20  1  0  0  0  0
  9 10  1  0  0  0  0
  9 21  1  0  0  0  0
  9 22  1  0  0  0  0
 10 23  1  0  0  0  0
 10 25  1  0  0  0  0
 11 24  1  0  0  0  0
M  CHG  1  10   1
M  END
> <s_m_source_file>
AV-unprocessed.smi

> <i_m_source_file_index>
3093

> <i_lp_mmshare_version>
43012

> <i_f3d_flags>
0

> <s_epik_input>
W2NIXTFbY0hdW2NIXW5uMVtDSDJdW0NAQEhdMltDSDJdW0NIMl1bQ0gyXVtOSF0y

> <s_epik_cmdline>
J2VwaWtfcHl0aG9uJywgJy1waCcsICc3LjAnLCAnLXRuJywgJzgnLCAnLW1hJywgJzIwMCcsICctbWV0YWxfYmluZGluZycsICctaW1hZScsICc8aW5maWxlLm1hZT4nLCAnLW9tYWUnLCAnPG91dGZpbGUubWFlPic=

> <r_lp_tautomer_probability>
1

> <r_epik_Ionization_Penalty>
0.000867737

> <r_epik_Ionization_Penalty_Charging>
0.000863359

> <r_epik_Ionization_Penalty_Neutral>
4.37747e-06

> <r_epik_State_Penalty>
0.000557253

> <r_epik_Charging_Adjusted_Penalty>
0.00142061

> <i_epik_Tot_Q>
1

> <i_epik_Tot_abs_Q>
1

> <r_epik_Metal_State_Penalty>
-0

> <b_epik_Metal_Only>
0

> <s_lp_Force_Field>
OPLS_2005

> <r_lp_Energy>
25.0009

> <b_lp_Chiralities_Consistent>
1

> <s_lp_Variant>
AV-unprocessed.smi:3093-1

> <Gold.Version>
5.8.1

> <Gold.Id.Protein>
6NUR|6NUR_protein|mol2

> <Gold.PLP.Fitness>
37.3028

> <Gold.PLP.PLP>
-26.6669

> <Gold.PLP.part.hbond>
-2.7159

> <Gold.PLP.part.metal>
0.0000

> <Gold.PLP.part.buried>
0.9696

> <Gold.PLP.part.nonpolar>
-25.8869

> <Gold.PLP.part.repulsive>
0.0837

> <Gold.PLP.ligand.clash>
0.0000

> <Gold.PLP.ligand.torsion>
0.1797

> <Gold.PLP.Chemscore.Hbond>
2.0000

> <Gold.PLP.Chemscore.CHOScore>
1.6640

> <Gold.PLP.Chemscore.Metal>
0.0000

> <Gold.Chemscore.Hbonds>
donor molecule, donor type, donor heavy atom, donor atom, acceptor molecule, acceptor atom, score
      L1  H    10    23       P1  8028  2.00
      L1  C     2    13       P1  7957  0.99
      L1  C    11    24       P1  8028  0.67

> <Gold.PLP.Chemscore.Internal.Correction>
0.0034

> <Gold.Rescore>
     Score         DG    S(hbond)    S(metal)    S(lipo)     H(rot)  DE(clash)    DE(int)     intcor
     13.80     -13.96       0.88        0.00      73.69       1.21       0.07       0.10       ----

> <Gold.Chemscore.Fitness>
13.7989

> <Gold.Chemscore.DG>
-13.9611

> <Gold.Chemscore.ZeroCoef>
-5.4800

> <Gold.Chemscore.Hbond>
0.8819

> <Gold.Chemscore.Metal>
0.0000

> <Gold.Chemscore.Lipo>
73.6915

> <Gold.Chemscore.Internal_Hbond>
0.0000

> <Gold.Chemscore.DEClash>
0.0655

> <Gold.Chemscore.DEInternal>
0.0968

> <Gold.Chemscore.Rot>
1.2056

> <Gold.Chemscore.Internal.Correction>
   9.000000E+99

> <Gold.Chemscore.Hbonds>
donor molecule, donor type, donor heavy atom, donor atom, acceptor molecule, acceptor atom, score
      L1  H    10    23       P1  8028  0.26

> <Gold.Chemscore.Hbond.Weighted>
-2.9457

> <Gold.Chemscore.Metal.Weighted>
-0.0000

> <Gold.Chemscore.Lipo.Weighted>
-8.6219

> <Gold.Chemscore.Internal_Hbond.Weighted>
0.0000

> <Gold.Chemscore.DEClash.Weighted>
0.0655

> <Gold.Chemscore.DEInternal.Weighted>
0.0968

> <Gold.Chemscore.Rot.Weighted>
3.0864

> <Gold.Chemscore.Internal.Correction.Weighted>
   9.000000E+99

> <Gold.Protein.RotatedTorsions>
[ 6907 6896 6895 6894 ] final   92.07 input  -60.11 | X-H torsion
[ 7974 7965 7964 7962 ] final   70.98 input  175.53 | X-H torsion
[ 8008 7997 7996 7995 ] final   51.22 input   59.86 | X-H torsion
[ 10167 10162 10161 10158 ] final  128.10 input  -65.29 | X-H torsion
[ 10718 10713 10712 10709 ] final   56.28 input   66.30 | X-H torsion
[ 10763 10752 10751 10750 ] final  -17.48 input  -60.55 | X-H torsion
[ 11005 11000 10999 10996 ] final  127.65 input  -57.11 | X-H torsion

> <Gold.Protein.ActiveResidues>
 VAL166  LYS551  ARG553  GLY616  TRP617  ASP618  TYR619  PRO620  LYS621  CYS622 
 ASP623  PHE694  ASN695  SER759  ASP760  ASP761  ALA762  ILE779  LEU786  VAL792 
 PHE793  MET794  SER795  GLU796  ALA797  LYS798  CYS799  TRP800  GLU811  SER814 

> <Gold.Protein.RotatedAtoms>
  152.5452  134.1559  159.8537 H   0  0  0  0  0  0  0  0  0  0  0  0  # atno 6907 bound_to 6896
  151.1582  133.4855  159.2602 H   0  0  0  0  0  0  0  0  0  0  0  0  # atno 6908 bound_to 6896
  151.1401  135.0186  159.8676 H   0  0  0  0  0  0  0  0  0  0  0  0  # atno 6909 bound_to 6896
  145.7715  139.2845  143.1318 H   0  0  0  0  0  0  0  0  0  0  0  0  # atno 7974 bound_to 7965
  155.4316  140.3451  155.4281 H   0  0  0  0  0  0  0  0  0  0  0  0  # atno 8008 bound_to 7997
  156.1333  140.1520  156.9064 H   0  0  0  0  0  0  0  0  0  0  0  0  # atno 8009 bound_to 7997
  154.4911  140.0841  156.7577 H   0  0  0  0  0  0  0  0  0  0  0  0  # atno 8010 bound_to 7997
  139.5544  144.6838  151.4226 H   0  0  0  0  0  0  0  0  0  0  0  0  # atno 10167 bound_to 10162
  157.5417  130.8702  149.8832 H   0  0  0  0  0  0  0  0  0  0  0  0  # atno 10718 bound_to 10713
  153.5745  135.7006  153.5490 H   0  0  0  0  0  0  0  0  0  0  0  0  # atno 10763 bound_to 10752
  153.3315  135.4046  155.1499 H   0  0  0  0  0  0  0  0  0  0  0  0  # atno 10764 bound_to 10752
  154.8627  135.3720  154.5270 H   0  0  0  0  0  0  0  0  0  0  0  0  # atno 10765 bound_to 10752
  139.9518  134.9620  156.8886 H   0  0  0  0  0  0  0  0  0  0  0  0  # atno 11005 bound_to 11000
  146.0165  140.8387  142.9945 LP  0  0  0  0  0  0  0  0  0  0  0  0  # atno 17320 bound_to 7965
  144.6812  140.2566  143.7324 LP  0  0  0  0  0  0  0  0  0  0  0  0  # atno 17321 bound_to 7965
  140.6814  143.8073  150.7126 LP  0  0  0  0  0  0  0  0  0  0  0  0  # atno 17342 bound_to 10162
  140.1527  143.4343  152.2120 LP  0  0  0  0  0  0  0  0  0  0  0  0  # atno 17343 bound_to 10162
  156.0502  130.3719  150.1219 LP  0  0  0  0  0  0  0  0  0  0  0  0  # atno 17370 bound_to 10713
  156.9398  130.9741  151.3518 LP  0  0  0  0  0  0  0  0  0  0  0  0  # atno 17371 bound_to 10713
  140.5700  134.0452  155.7427 LP  0  0  0  0  0  0  0  0  0  0  0  0  # atno 17394 bound_to 11000
  141.1183  133.9504  157.2780 LP  0  0  0  0  0  0  0  0  0  0  0  0  # atno 17395 bound_to 11000

$$$$
