#       Name:                AV-unprocessed.smi:1392
#       Creating user name   scv26
#       Creation time:       Fri Mar 27 05:28:36 2020


#       File generated by GOLD software.
#

@<TRIPOS>MOLECULE
AV-unprocessed.smi:1392
    44    45     1
SMALL
NO_CHARGES


@<TRIPOS>ATOM
      1 ****        -6.1478   0.0720  -0.2603 C.3            1 S1                 0.0000
      2 ****        -5.3246   0.9916   0.5152 N.pl3          1 S1                 0.0000
      3 ****        -5.9576   1.9872   1.3741 C.3            1 S1                 0.0000
      4 ****        -3.9148   0.9365   0.4218 C.ar           1 S1                 0.0000
      5 ****        -3.2644  -0.0135  -0.4044 C.ar           1 S1                 0.0000
      6 ****        -1.8578  -0.0275  -0.4668 C.ar           1 S1                 0.0000
      7 ****        -1.1277   0.9146   0.2933 C.ar           1 S1                 0.0000
      8 ****         0.2909   0.9908   0.3299 N.am           1 S1                 0.0000
      9 ****         1.1776   0.5283  -0.5680 C.2            1 S1                 0.0000
     10 ****         0.8943  -0.0339  -1.6256 O.2            1 S1                 0.0000
     11 ****         2.4360   0.7724  -0.1761 N.am           1 S1                 0.0000
     12 ****         3.6328   0.4056  -0.9259 C.3            1 S1                 0.0000
     13 ****         3.9838  -1.0858  -0.7648 C.3            1 S1                 0.0000
     14 ****         4.2923  -1.5171   0.6554 C.3            1 S1                 0.0000
     15 ****         5.0442  -2.8249   0.4285 C.3            1 S1                 0.0000
     16 ****         5.7278  -2.6707  -0.8121 O.3            1 S1                 0.0000
     17 ****         5.2660  -1.5025  -1.4843 C.3            1 S1                 0.0000
     18 ****        -1.8599   1.8098   1.0969 C.ar           1 S1                 0.0000
     19 ****        -3.2074   1.8274   1.1589 N.ar           1 S1                 0.0000
     20 ****        -5.9349  -0.9605   0.0178 H              1 S1                 0.0000
     21 ****        -5.9579   0.1939  -1.3271 H              1 S1                 0.0000
     22 ****        -7.2098   0.2490  -0.0901 H              1 S1                 0.0000
     23 ****        -5.6403   1.8578   2.4092 H              1 S1                 0.0000
     24 ****        -7.0439   1.9047   1.3462 H              1 S1                 0.0000
     25 ****        -5.6913   2.9946   1.0530 H              1 S1                 0.0000
     26 ****        -3.8142  -0.7355  -0.9887 H              1 S1                 0.0000
     27 ****        -1.3724  -0.7677  -1.0835 H              1 S1                 0.0000
     28 ****         0.6753   1.5041   1.1095 H              1 S1                 0.0000
     29 ****         2.5779   1.2447   0.7047 H              1 S1                 0.0000
     30 ****         3.4992   0.6493  -1.9812 H              1 S1                 0.0000
     31 ****         4.4561   1.0257  -0.5700 H              1 S1                 0.0000
     32 ****         3.1642  -1.6987  -1.1439 H              1 S1                 0.0000
     33 ****         4.9442  -0.7901   1.1416 H              1 S1                 0.0000
     34 ****         3.4007  -1.6432   1.2704 H              1 S1                 0.0000
     35 ****         5.7355  -3.0540   1.2396 H              1 S1                 0.0000
     36 ****         4.3428  -3.6550   0.3360 H              1 S1                 0.0000
     37 ****         5.1052  -1.6916  -2.5459 H              1 S1                 0.0000
     38 ****         6.0309  -0.7305  -1.3912 H              1 S1                 0.0000
     39 ****        -1.3506   2.5408   1.7077 H              1 S1                 0.0000
     40 ****        -0.0635  -0.1778  -1.8744 LP             1 S1                 0.0000
     41 ****         1.6219  -0.3467  -2.2361 LP             1 S1                 0.0000
     42 ****         5.5566  -3.4717  -1.3857 LP             1 S1                 0.0000
     43 ****         6.7094  -2.5872  -0.6406 LP             1 S1                 0.0000
     44 ****        -3.6786   2.4896   1.7415 LP             1 S1                 0.0000
@<TRIPOS>BOND
    1    1    2 1     
    2    1   20 1     
    3    1   21 1     
    4    1   22 1     
    5    2    3 1     
    6    2    4 1     
    7    3   23 1     
    8    3   24 1     
    9    3   25 1     
   10    4   19 ar    
   11    4    5 ar    
   12    5    6 ar    
   13    5   26 1     
   14    6    7 ar    
   15    6   27 1     
   16    7    8 1     
   17    7   18 ar    
   18    8    9 am    
   19    8   28 1     
   20    9   10 2     
   21    9   11 am    
   22   11   12 1     
   23   11   29 1     
   24   12   13 1     
   25   12   30 1     
   26   12   31 1     
   27   13   17 1     
   28   13   14 1     
   29   13   32 1     
   30   14   15 1     
   31   14   33 1     
   32   14   34 1     
   33   15   16 1     
   34   15   35 1     
   35   15   36 1     
   36   16   17 1     
   37   17   37 1     
   38   17   38 1     
   39   18   19 ar    
   40   18   39 1     
   41   10   40 1     
   42   10   41 1     
   43   16   42 1     
   44   16   43 1     
   45   19   44 1     
@<TRIPOS>SUBSTRUCTURE
      1 S1             1
@<TRIPOS>SET
LONE_PAIRS      STATIC     ATOMS    <user>   **** ""
5 40 41 42 43 44
DONOR_HYDROGENS      STATIC     ATOMS    <user>   **** ""
2 28 29
ATOM$BLUE        STATIC     ATOMS    COLORGROUP SYSTEM
5 40 41 42 43 44
ATOM$RED        STATIC     ATOMS    COLORGROUP SYSTEM
2 28 29
