AV-unprocessed.smi:3183|AV-procd|sdf|12154|dock5
  -GOLD-   2272017593D 1   1.00000     0.00000
 Structure written by MMmdl.
 43 44  0  0  0  0  0  0  0  0  2 V2000
  152.1692  143.0532  161.3606 C   0  0  0  0  0  0  0  0  0  0  0  0
  152.9183  143.5486  160.1070 C   0  0  1  0  0  0  0  0  0  0  0  0
  153.2987  142.3808  159.1726 C   0  0  0  0  0  0  0  0  0  0  0  0
  152.0824  141.8111  158.4226 C   0  0  0  0  0  0  0  0  0  0  0  0
  151.3491  142.9093  157.6336 C   0  0  1  0  0  0  0  0  0  0  0  0
  150.1571  142.3499  156.9605 N   0  3  0  0  0  0  0  0  0  0  0  0
  149.0844  141.9076  157.8740 C   0  0  0  0  0  0  0  0  0  0  0  0
  148.3571  140.6743  157.3193 C   0  0  0  0  0  0  0  0  0  0  0  0
  147.7879  140.8607  155.9450 C   0  0  0  0  0  0  0  0  0  0  0  0
  146.5235  141.1876  155.5355 C   0  0  0  0  0  0  0  0  0  0  0  0
  146.6104  141.2132  154.1166 C   0  0  0  0  0  0  0  0  0  0  0  0
  147.8234  140.9268  153.6792 N   0  0  0  0  0  0  0  0  0  0  0  0
  148.5479  140.7100  154.7968 N   0  0  0  0  0  0  0  0  0  0  0  0
  149.9501  140.3662  154.6533 C   0  0  0  0  0  0  0  0  0  0  0  0
  150.9463  144.0715  158.5597 C   0  0  0  0  0  0  0  0  0  0  0  0
  152.1658  144.6460  159.3101 C   0  0  1  0  0  0  0  0  0  0  0  0
  151.7885  145.8673  160.1646 C   0  0  0  0  0  0  0  0  0  0  0  0
  151.1823  142.6576  161.1225 H   0  0  0  0  0  0  0  0  0  0  0  0
  152.0383  143.8529  162.0896 H   0  0  0  0  0  0  0  0  0  0  0  0
  152.7280  142.2609  161.8589 H   0  0  0  0  0  0  0  0  0  0  0  0
  153.8526  143.9854  160.4630 H   0  0  0  0  0  0  0  0  0  0  0  0
  154.0315  142.7306  158.4439 H   0  0  0  0  0  0  0  0  0  0  0  0
  153.7926  141.5893  159.7374 H   0  0  0  0  0  0  0  0  0  0  0  0
  152.4112  141.0232  157.7441 H   0  0  0  0  0  0  0  0  0  0  0  0
  151.3994  141.3391  159.1299 H   0  0  0  0  0  0  0  0  0  0  0  0
  152.0370  143.3007  156.8818 H   0  0  0  0  0  0  0  0  0  0  0  0
  149.7815  143.0551  156.3426 H   0  0  0  0  0  0  0  0  0  0  0  0
  149.5196  141.6783  158.8479 H   0  0  0  0  0  0  0  0  0  0  0  0
  148.3779  142.7272  158.0149 H   0  0  0  0  0  0  0  0  0  0  0  0
  149.0480  139.8302  157.3044 H   0  0  0  0  0  0  0  0  0  0  0  0
  147.5513  140.3993  158.0013 H   0  0  0  0  0  0  0  0  0  0  0  0
  145.6598  141.3812  156.1540 H   0  0  0  0  0  0  0  0  0  0  0  0
  145.8345  141.4298  153.3971 H   0  0  0  0  0  0  0  0  0  0  0  0
  150.4178  140.2158  155.6256 H   0  0  0  0  0  0  0  0  0  0  0  0
  150.4735  141.1695  154.1340 H   0  0  0  0  0  0  0  0  0  0  0  0
  150.0452  139.4477  154.0736 H   0  0  0  0  0  0  0  0  0  0  0  0
  150.4778  144.8598  157.9686 H   0  0  0  0  0  0  0  0  0  0  0  0
  150.1917  143.7376  159.2730 H   0  0  0  0  0  0  0  0  0  0  0  0
  152.8598  145.0113  158.5512 H   0  0  0  0  0  0  0  0  0  0  0  0
  151.0243  145.6248  160.9031 H   0  0  0  0  0  0  0  0  0  0  0  0
  151.3952  146.6713  159.5421 H   0  0  0  0  0  0  0  0  0  0  0  0
  152.6566  146.2591  160.6954 H   0  0  0  0  0  0  0  0  0  0  0  0
  150.4493  141.5597  156.4033 H   0  0  0  0  0  0  0  0  0  0  0  0
  1  2  1  0  0  0  0
  1 18  1  0  0  0  0
  1 19  1  0  0  0  0
  1 20  1  0  0  0  0
  2 16  1  0  0  0  0
  2  3  1  0  0  0  0
  2 21  1  0  0  0  0
  3  4  1  0  0  0  0
  3 22  1  0  0  0  0
  3 23  1  0  0  0  0
  4  5  1  0  0  0  0
  4 24  1  0  0  0  0
  4 25  1  0  0  0  0
  5  6  1  0  0  0  0
  5 15  1  0  0  0  0
  5 26  1  0  0  0  0
  6  7  1  0  0  0  0
  6 27  1  0  0  0  0
  6 43  1  0  0  0  0
  7  8  1  0  0  0  0
  7 28  1  0  0  0  0
  7 29  1  0  0  0  0
  8  9  1  0  0  0  0
  8 30  1  0  0  0  0
  8 31  1  0  0  0  0
  9 13  1  0  0  0  0
  9 10  2  0  0  0  0
 10 11  1  0  0  0  0
 10 32  1  0  0  0  0
 11 12  2  0  0  0  0
 11 33  1  0  0  0  0
 12 13  1  0  0  0  0
 13 14  1  0  0  0  0
 14 34  1  0  0  0  0
 14 35  1  0  0  0  0
 14 36  1  0  0  0  0
 15 16  1  0  0  0  0
 15 37  1  0  0  0  0
 15 38  1  0  0  0  0
 16 17  1  0  0  0  0
 16 39  1  0  0  0  0
 17 40  1  0  0  0  0
 17 41  1  0  0  0  0
 17 42  1  0  0  0  0
M  CHG  1   6   1
M  END
> <s_m_source_file>
AV-unprocessed.smi

> <i_m_source_file_index>
3183

> <i_lp_mmshare_version>
43012

> <i_f3d_flags>
0

> <s_epik_input>
W0NIM11bQ0BASF0xW0NIMl1bQ0gyXVtDQEhdKFtDSDJdW0NASF0xW0NIM10pW05IXVtDSDJdW0NIMl1jMltjSF1bY0hdbm4yW0NIM10=

> <s_epik_cmdline>
J2VwaWtfcHl0aG9uJywgJy1waCcsICc3LjAnLCAnLXRuJywgJzgnLCAnLW1hJywgJzIwMCcsICctbWV0YWxfYmluZGluZycsICctaW1hZScsICc8aW5maWxlLm1hZT4nLCAnLW9tYWUnLCAnPG91dGZpbGUubWFlPic=

> <r_lp_tautomer_probability>
1

> <r_epik_Ionization_Penalty>
0.000327718

> <r_epik_Ionization_Penalty_Charging>
0.000294043

> <r_epik_Ionization_Penalty_Neutral>
3.36755e-05

> <r_epik_State_Penalty>
-0

> <r_epik_Charging_Adjusted_Penalty>
0.000294043

> <i_epik_Tot_Q>
1

> <i_epik_Tot_abs_Q>
1

> <r_epik_Metal_State_Penalty>
-0

> <b_epik_Metal_Only>
0

> <s_lp_Force_Field>
OPLS_2005

> <r_lp_Energy>
15.8905

> <b_lp_Chiralities_Consistent>
1

> <s_lp_Variant>
AV-unprocessed.smi:3183-2

> <Gold.Version>
5.8.1

> <Gold.Id.Protein>
6NUR|6NUR_protein|mol2

> <Gold.PLP.Fitness>
45.0323

> <Gold.PLP.PLP>
-38.1319

> <Gold.PLP.part.hbond>
-1.0000

> <Gold.PLP.part.metal>
0.0000

> <Gold.PLP.part.buried>
-4.6812

> <Gold.PLP.part.nonpolar>
-33.1846

> <Gold.PLP.part.repulsive>
0.1819

> <Gold.PLP.ligand.clash>
0.0000

> <Gold.PLP.ligand.torsion>
0.5766

> <Gold.PLP.Chemscore.Hbond>
2.0000

> <Gold.PLP.Chemscore.CHOScore>
0.6812

> <Gold.PLP.Chemscore.Metal>
0.0000

> <Gold.Chemscore.Hbonds>
donor molecule, donor type, donor heavy atom, donor atom, acceptor molecule, acceptor atom, score
      L1  H     6    27       P1  8028  2.00
      L1  C    11    33       P1 10175  0.90

> <Gold.PLP.Chemscore.Internal.Correction>
0.0098

> <Gold.Rescore>
     Score         DG    S(hbond)    S(metal)    S(lipo)     H(rot)  DE(clash)    DE(int)     intcor
     18.13     -18.83       1.00        0.00     115.68       1.38       0.06       0.63       ----

> <Gold.Chemscore.Fitness>
18.1306

> <Gold.Chemscore.DG>
-18.8294

> <Gold.Chemscore.ZeroCoef>
-5.4800

> <Gold.Chemscore.Hbond>
0.9997

> <Gold.Chemscore.Metal>
0.0000

> <Gold.Chemscore.Lipo>
115.6849

> <Gold.Chemscore.Internal_Hbond>
0.0000

> <Gold.Chemscore.DEClash>
0.0649

> <Gold.Chemscore.DEInternal>
0.6339

> <Gold.Chemscore.Rot>
1.3768

> <Gold.Chemscore.Internal.Correction>
   9.000000E+99

> <Gold.Chemscore.Hbonds>
donor molecule, donor type, donor heavy atom, donor atom, acceptor molecule, acceptor atom, score
      L1  H     6    27       P1  8028  0.95

> <Gold.Chemscore.Hbond.Weighted>
-3.3390

> <Gold.Chemscore.Metal.Weighted>
-0.0000

> <Gold.Chemscore.Lipo.Weighted>
-13.5351

> <Gold.Chemscore.Internal_Hbond.Weighted>
0.0000

> <Gold.Chemscore.DEClash.Weighted>
0.0649

> <Gold.Chemscore.DEInternal.Weighted>
0.6339

> <Gold.Chemscore.Rot.Weighted>
3.5247

> <Gold.Chemscore.Internal.Correction.Weighted>
   9.000000E+99

> <Gold.Protein.RotatedTorsions>
[ 6907 6896 6895 6894 ] final   57.27 input  -60.11 | X-H torsion
[ 7974 7965 7964 7962 ] final  102.49 input  175.53 | X-H torsion
[ 8008 7997 7996 7995 ] final  -66.41 input   59.86 | X-H torsion
[ 10167 10162 10161 10158 ] final  132.61 input  -65.29 | X-H torsion
[ 10718 10713 10712 10709 ] final -136.17 input   66.30 | X-H torsion
[ 10763 10752 10751 10750 ] final  -68.56 input  -60.55 | X-H torsion
[ 11005 11000 10999 10996 ] final  -51.33 input  -57.11 | X-H torsion

> <Gold.Protein.ActiveResidues>
 VAL166  LYS551  ARG553  GLY616  TRP617  ASP618  TYR619  PRO620  LYS621  CYS622 
 ASP623  PHE694  ASN695  SER759  ASP760  ASP761  ALA762  ILE779  LEU786  VAL792 
 PHE793  MET794  SER795  GLU796  ALA797  LYS798  CYS799  TRP800  GLU811  SER814 

> <Gold.Protein.RotatedAtoms>
  152.3716  134.6726  160.0173 H   0  0  0  0  0  0  0  0  0  0  0  0  # atno 6907 bound_to 6896
  151.7017  133.3306  159.3276 H   0  0  0  0  0  0  0  0  0  0  0  0  # atno 6908 bound_to 6896
  150.7678  134.6545  159.6350 H   0  0  0  0  0  0  0  0  0  0  0  0  # atno 6909 bound_to 6896
  145.3585  139.2423  143.3520 H   0  0  0  0  0  0  0  0  0  0  0  0  # atno 7974 bound_to 7965
  154.4732  140.0913  156.7198 H   0  0  0  0  0  0  0  0  0  0  0  0  # atno 8008 bound_to 7997
  155.4666  140.3463  155.4301 H   0  0  0  0  0  0  0  0  0  0  0  0  # atno 8009 bound_to 7997
  156.1074  140.1438  156.9373 H   0  0  0  0  0  0  0  0  0  0  0  0  # atno 8010 bound_to 7997
  139.5332  144.6654  151.4876 H   0  0  0  0  0  0  0  0  0  0  0  0  # atno 10167 bound_to 10162
  156.2741  130.7282  151.1259 H   0  0  0  0  0  0  0  0  0  0  0  0  # atno 10718 bound_to 10713
  154.3907  135.6053  153.5842 H   0  0  0  0  0  0  0  0  0  0  0  0  # atno 10763 bound_to 10752
  152.9787  135.5883  154.4300 H   0  0  0  0  0  0  0  0  0  0  0  0  # atno 10764 bound_to 10752
  154.4084  135.2844  155.2030 H   0  0  0  0  0  0  0  0  0  0  0  0  # atno 10765 bound_to 10752
  141.0865  133.6641  156.3862 H   0  0  0  0  0  0  0  0  0  0  0  0  # atno 11005 bound_to 11000
  146.2938  140.4214  142.8729 LP  0  0  0  0  0  0  0  0  0  0  0  0  # atno 17320 bound_to 7965
  144.8664  140.7212  143.6074 LP  0  0  0  0  0  0  0  0  0  0  0  0  # atno 17321 bound_to 7965
  140.6523  143.8670  150.6799 LP  0  0  0  0  0  0  0  0  0  0  0  0  # atno 17342 bound_to 10162
  140.2039  143.3937  152.1770 LP  0  0  0  0  0  0  0  0  0  0  0  0  # atno 17343 bound_to 10162
  157.7293  131.0625  150.5778 LP  0  0  0  0  0  0  0  0  0  0  0  0  # atno 17370 bound_to 10713
  156.5878  130.4321  149.5950 LP  0  0  0  0  0  0  0  0  0  0  0  0  # atno 17371 bound_to 10713
  140.5351  134.6175  157.5362 LP  0  0  0  0  0  0  0  0  0  0  0  0  # atno 17394 bound_to 11000
  139.9684  134.7334  156.0091 LP  0  0  0  0  0  0  0  0  0  0  0  0  # atno 17395 bound_to 11000

$$$$
