AV-unprocessed.smi:1014|AV-procd|sdf|4433|dock7
  -GOLD-   22720 2393D 1   1.00000     0.00000
 Structure written by MMmdl.
 33 33  0  0  0  0  0  0  0  0  1 V2000
  146.4594  142.6676  154.1973 C   0  0  0  0  0  0  0  0  0  0  0  0
  147.1337  141.3911  154.7189 C   0  0  0  0  0  0  0  0  0  0  0  0
  148.5896  141.2290  154.2332 C   0  0  1  0  0  0  0  0  0  0  0  0
  149.4891  142.0765  155.0387 N   0  0  0  0  0  0  0  0  0  0  0  0
  149.5784  141.6963  156.4439 C   0  0  0  0  0  0  0  0  0  0  0  0
  151.0545  141.5230  156.8281 C   0  0  0  0  0  0  0  0  0  0  0  0
  151.4345  142.4171  157.9044 N   0  0  0  0  0  0  0  0  0  0  0  0
  151.0945  143.7417  158.0795 C   0  0  0  0  0  0  0  0  0  0  0  0
  151.6875  144.1690  159.2339 C   0  0  0  0  0  0  0  0  0  0  0  0
  151.6324  145.5276  159.8709 C   0  0  0  0  0  0  0  0  0  0  0  0
  152.3803  143.0142  159.6966 C   0  0  0  0  0  0  0  0  0  0  0  0
  152.2278  141.9688  158.9002 N   0  0  0  0  0  0  0  0  0  0  0  0
  148.9970  139.7452  154.2465 C   0  0  0  0  0  0  0  0  0  0  0  0
  149.1903  139.1539  153.0649 N   0  0  0  0  0  0  0  0  0  0  0  0
  149.1532  139.1486  155.3104 O   0  0  0  0  0  0  0  0  0  0  0  0
  145.4280  142.7300  154.5447 H   0  0  0  0  0  0  0  0  0  0  0  0
  146.4442  142.6889  153.1075 H   0  0  0  0  0  0  0  0  0  0  0  0
  146.9789  143.5613  154.5434 H   0  0  0  0  0  0  0  0  0  0  0  0
  147.0968  141.3781  155.8093 H   0  0  0  0  0  0  0  0  0  0  0  0
  146.5373  140.5392  154.3884 H   0  0  0  0  0  0  0  0  0  0  0  0
  148.6360  141.5758  153.1989 H   0  0  0  0  0  0  0  0  0  0  0  0
  149.2451  143.0539  154.9627 H   0  0  0  0  0  0  0  0  0  0  0  0
  149.1228  142.4575  157.0782 H   0  0  0  0  0  0  0  0  0  0  0  0
  149.0389  140.7624  156.6086 H   0  0  0  0  0  0  0  0  0  0  0  0
  151.2483  140.4979  157.1474 H   0  0  0  0  0  0  0  0  0  0  0  0
  151.7010  141.7155  155.9702 H   0  0  0  0  0  0  0  0  0  0  0  0
  150.4656  144.2657  157.3747 H   0  0  0  0  0  0  0  0  0  0  0  0
  152.4082  146.1854  159.4795 H   0  0  0  0  0  0  0  0  0  0  0  0
  151.7707  145.4732  160.9508 H   0  0  0  0  0  0  0  0  0  0  0  0
  150.6748  146.0182  159.6952 H   0  0  0  0  0  0  0  0  0  0  0  0
  152.9865  142.9055  160.5837 H   0  0  0  0  0  0  0  0  0  0  0  0
  149.4573  138.1811  153.0263 H   0  0  0  0  0  0  0  0  0  0  0  0
  149.0671  139.6829  152.2139 H   0  0  0  0  0  0  0  0  0  0  0  0
  1  2  1  0  0  0  0
  1 16  1  0  0  0  0
  1 17  1  0  0  0  0
  1 18  1  0  0  0  0
  2  3  1  0  0  0  0
  2 19  1  0  0  0  0
  2 20  1  0  0  0  0
  3  4  1  0  0  0  0
  3 13  1  0  0  0  0
  3 21  1  0  0  0  0
  4  5  1  0  0  0  0
  4 22  1  0  0  0  0
  5  6  1  0  0  0  0
  5 23  1  0  0  0  0
  5 24  1  0  0  0  0
  6  7  1  0  0  0  0
  6 25  1  0  0  0  0
  6 26  1  0  0  0  0
  7 12  1  0  0  0  0
  7  8  1  0  0  0  0
  8  9  2  0  0  0  0
  8 27  1  0  0  0  0
  9 10  1  0  0  0  0
  9 11  1  0  0  0  0
 10 28  1  0  0  0  0
 10 29  1  0  0  0  0
 10 30  1  0  0  0  0
 11 12  2  0  0  0  0
 11 31  1  0  0  0  0
 13 14  1  0  0  0  0
 13 15  2  0  0  0  0
 14 32  1  0  0  0  0
 14 33  1  0  0  0  0
M  END
> <s_m_source_file>
AV-unprocessed.smi

> <i_m_source_file_index>
1014

> <i_lp_mmshare_version>
43012

> <i_f3d_flags>
0

> <s_epik_input>
W0NIM11bQ0gyXVtDQEBIXShDKD1PKVtOSDJdKVtOSF1bQ0gyXVtDSDJdbjFbY0hdYyhbQ0gzXSlbY0hdbjE=

> <s_epik_cmdline>
J2VwaWtfcHl0aG9uJywgJy1waCcsICc3LjAnLCAnLXRuJywgJzgnLCAnLW1hJywgJzIwMCcsICctbWV0YWxfYmluZGluZycsICctaW1hZScsICc8aW5maWxlLm1hZT4nLCAnLW9tYWUnLCAnPG91dGZpbGUubWFlPic=

> <r_lp_tautomer_probability>
1

> <r_epik_Ionization_Penalty>
0.767127

> <r_epik_Ionization_Penalty_Charging>
0

> <r_epik_Ionization_Penalty_Neutral>
0.767127

> <r_epik_State_Penalty>
0.793761

> <r_epik_Charging_Adjusted_Penalty>
0.793761

> <i_epik_Tot_Q>
0

> <i_epik_Tot_abs_Q>
0

> <r_epik_Metal_State_Penalty>
0.79201

> <b_epik_Metal_Only>
0

> <s_lp_Force_Field>
OPLS_2005

> <r_lp_Energy>
4.41015

> <b_lp_Chiralities_Consistent>
1

> <s_lp_Variant>
AV-unprocessed.smi:1014-4

> <Gold.Version>
5.8.1

> <Gold.Id.Protein>
6NUR|6NUR_protein|mol2

> <Gold.PLP.Fitness>
44.2375

> <Gold.PLP.PLP>
-36.7917

> <Gold.PLP.part.hbond>
-2.9608

> <Gold.PLP.part.metal>
0.0000

> <Gold.PLP.part.buried>
-4.6525

> <Gold.PLP.part.nonpolar>
-30.0507

> <Gold.PLP.part.repulsive>
0.1404

> <Gold.PLP.ligand.clash>
0.0000

> <Gold.PLP.ligand.torsion>
1.3335

> <Gold.PLP.Chemscore.Hbond>
2.3364

> <Gold.PLP.Chemscore.CHOScore>
1.0000

> <Gold.PLP.Chemscore.Metal>
0.0000

> <Gold.Chemscore.Hbonds>
donor molecule, donor type, donor heavy atom, donor atom, acceptor molecule, acceptor atom, score
      L1  H     4    22       P1  8028  1.00
      L1  H    14    32       P1  7948  0.29
      L1  H    14    33       P1  7957  0.23
      L1  C     8    27       P1  8028  1.00

> <Gold.PLP.Chemscore.Internal.Correction>
0.1037

> <Gold.Rescore>
     Score         DG    S(hbond)    S(metal)    S(lipo)     H(rot)  DE(clash)    DE(int)     intcor
     13.24     -15.51       2.16        0.00      79.10       2.51       0.01       2.26       ----

> <Gold.Chemscore.Fitness>
13.2408

> <Gold.Chemscore.DG>
-15.5094

> <Gold.Chemscore.ZeroCoef>
-5.4800

> <Gold.Chemscore.Hbond>
2.1555

> <Gold.Chemscore.Metal>
0.0000

> <Gold.Chemscore.Lipo>
79.1006

> <Gold.Chemscore.Internal_Hbond>
0.0000

> <Gold.Chemscore.DEClash>
0.0125

> <Gold.Chemscore.DEInternal>
2.2561

> <Gold.Chemscore.Rot>
2.5096

> <Gold.Chemscore.Internal.Correction>
   9.000000E+99

> <Gold.Chemscore.Hbonds>
donor molecule, donor type, donor heavy atom, donor atom, acceptor molecule, acceptor atom, score
      L1  H     4    22       P1  8028  0.98
      L1  H    14    32       P1  7948  0.25
      L1  H    14    33       P1  7957  0.24

> <Gold.Chemscore.Hbond.Weighted>
-7.1993

> <Gold.Chemscore.Metal.Weighted>
-0.0000

> <Gold.Chemscore.Lipo.Weighted>
-9.2548

> <Gold.Chemscore.Internal_Hbond.Weighted>
0.0000

> <Gold.Chemscore.DEClash.Weighted>
0.0125

> <Gold.Chemscore.DEInternal.Weighted>
2.2561

> <Gold.Chemscore.Rot.Weighted>
6.4246

> <Gold.Chemscore.Internal.Correction.Weighted>
   9.000000E+99

> <Gold.Protein.RotatedTorsions>
[ 6907 6896 6895 6894 ] final -119.06 input  -60.11 | X-H torsion
[ 7974 7965 7964 7962 ] final  117.04 input  175.53 | X-H torsion
[ 8008 7997 7996 7995 ] final  -12.13 input   59.86 | X-H torsion
[ 10167 10162 10161 10158 ] final  152.20 input  -65.29 | X-H torsion
[ 10718 10713 10712 10709 ] final   15.96 input   66.30 | X-H torsion
[ 10763 10752 10751 10750 ] final   -0.79 input  -60.55 | X-H torsion
[ 11005 11000 10999 10996 ] final  177.49 input  -57.11 | X-H torsion

> <Gold.Protein.ActiveResidues>
 VAL166  LYS551  ARG553  GLY616  TRP617  ASP618  TYR619  PRO620  LYS621  CYS622 
 ASP623  PHE694  ASN695  SER759  ASP760  ASP761  ALA762  ILE779  LEU786  VAL792 
 PHE793  MET794  SER795  GLU796  ALA797  LYS798  CYS799  TRP800  GLU811  SER814 

> <Gold.Protein.RotatedAtoms>
  150.8273  133.8151  159.3113 H   0  0  0  0  0  0  0  0  0  0  0  0  # atno 6907 bound_to 6896
  151.5891  135.1053  160.0044 H   0  0  0  0  0  0  0  0  0  0  0  0  # atno 6908 bound_to 6896
  152.4356  133.7314  159.6646 H   0  0  0  0  0  0  0  0  0  0  0  0  # atno 6909 bound_to 6896
  145.1722  139.3095  143.4461 H   0  0  0  0  0  0  0  0  0  0  0  0  # atno 7974 bound_to 7965
  154.5404  140.2284  155.8651 H   0  0  0  0  0  0  0  0  0  0  0  0  # atno 8008 bound_to 7997
  156.1852  140.3090  155.9187 H   0  0  0  0  0  0  0  0  0  0  0  0  # atno 8009 bound_to 7997
  155.3270  140.0443  157.3032 H   0  0  0  0  0  0  0  0  0  0  0  0  # atno 8010 bound_to 7997
  139.4834  144.5377  151.7617 H   0  0  0  0  0  0  0  0  0  0  0  0  # atno 10167 bound_to 10162
  157.0610  130.6309  149.5786 H   0  0  0  0  0  0  0  0  0  0  0  0  # atno 10718 bound_to 10713
  153.3365  135.6978  153.6903 H   0  0  0  0  0  0  0  0  0  0  0  0  # atno 10763 bound_to 10752
  153.5685  135.3521  155.2829 H   0  0  0  0  0  0  0  0  0  0  0  0  # atno 10764 bound_to 10752
  154.8628  135.4266  154.2567 H   0  0  0  0  0  0  0  0  0  0  0  0  # atno 10765 bound_to 10752
  140.3847  134.6915  157.4472 H   0  0  0  0  0  0  0  0  0  0  0  0  # atno 11005 bound_to 11000
  146.3467  140.1872  142.8589 LP  0  0  0  0  0  0  0  0  0  0  0  0  # atno 17320 bound_to 7965
  145.0221  140.8802  143.5161 LP  0  0  0  0  0  0  0  0  0  0  0  0  # atno 17321 bound_to 7965
  140.4912  144.1307  150.5951 LP  0  0  0  0  0  0  0  0  0  0  0  0  # atno 17342 bound_to 10162
  140.4169  143.2630  151.9764 LP  0  0  0  0  0  0  0  0  0  0  0  0  # atno 17343 bound_to 10162
  155.9978  130.5051  150.7549 LP  0  0  0  0  0  0  0  0  0  0  0  0  # atno 17370 bound_to 10713
  157.4954  131.0914  151.0377 LP  0  0  0  0  0  0  0  0  0  0  0  0  # atno 17371 bound_to 10713
  140.0452  134.6210  155.8930 LP  0  0  0  0  0  0  0  0  0  0  0  0  # atno 17394 bound_to 11000
  141.1911  133.6571  156.5444 LP  0  0  0  0  0  0  0  0  0  0  0  0  # atno 17395 bound_to 11000

$$$$
