#       Name:                AV-unprocessed.smi:2026
#       Creating user name   scv26
#       Creation time:       Fri Mar 27 10:46:49 2020


#       File generated by GOLD software.
#

@<TRIPOS>MOLECULE
AV-unprocessed.smi:2026
    53    55     1
SMALL
NO_CHARGES


@<TRIPOS>ATOM
      1 ****        -1.7247   4.4483   2.0763 C.3            1 S1                 0.0000
      2 ****        -1.4342   3.4496   0.9692 C.ar           1 S1                 0.0000
      3 ****        -1.6513   3.8452  -0.3708 C.ar           1 S1                 0.0000
      4 ****        -1.3771   2.9086  -1.3609 C.ar           1 S1                 0.0000
      5 ****        -1.4825   2.9844  -2.7522 N.pl3          1 S1                 1.0000
      6 ****        -1.0949   1.7999  -3.3032 C.2            1 S1                 0.0000
      7 ****        -0.7445   0.9711  -2.2836 N.pl3          1 S1                 0.0000
      8 ****        -0.2526  -0.4110  -2.3048 C.3            1 S1                 0.0000
      9 ****         1.2768  -0.4898  -2.1175 C.3            1 S1                 0.0000
     10 ****         1.9136   0.1178  -3.2233 O.3            1 S1                 0.0000
     11 ****         1.8122  -1.9281  -1.9674 C.3            1 S1                 0.0000
     12 ****         1.2913  -2.5952  -0.7667 N.am           1 S1                 0.0000
     13 ****         0.3370  -3.5459  -0.7540 C.2            1 S1                 0.0000
     14 ****        -0.1970  -3.9570  -1.7836 O.2            1 S1                 0.0000
     15 ****         0.0658  -3.9455   0.5107 N.pl3          1 S1                -1.0000
     16 ****         0.9056  -3.2019   1.4277 C.3            1 S1                 0.0000
     17 ****         0.0341  -2.3687   2.3866 C.3            1 S1                 0.0000
     18 ****         1.8342  -4.1607   2.1963 C.3            1 S1                 0.0000
     19 ****         1.6920  -2.3160   0.4785 C.2            1 S1                 0.0000
     20 ****         2.5329  -1.4875   0.8298 O.2            1 S1                 0.0000
     21 ****        -0.9037   1.6188  -1.0550 C.ar           1 S1                 0.0000
     22 ****        -0.6817   1.2133   0.2581 C.ar           1 S1                 0.0000
     23 ****        -0.9538   2.1504   1.2794 C.ar           1 S1                 0.0000
     24 ****        -0.7198   1.7351   2.7219 C.3            1 S1                 0.0000
     25 ****        -2.1175   5.3840   1.6772 H              1 S1                 0.0000
     26 ****        -0.8149   4.6781   2.6312 H              1 S1                 0.0000
     27 ****        -2.4630   4.0469   2.7709 H              1 S1                 0.0000
     28 ****        -2.0139   4.8334  -0.6141 H              1 S1                 0.0000
     29 ****        -1.0669   1.5624  -4.3568 H              1 S1                 0.0000
     30 ****        -0.7813  -0.9602  -1.5255 H              1 S1                 0.0000
     31 ****        -0.5485  -0.8615  -3.2532 H              1 S1                 0.0000
     32 ****         1.5636   0.0843  -1.2362 H              1 S1                 0.0000
     33 ****         1.7210  -0.3917  -3.9954 H              1 S1                 0.0000
     34 ****         1.5822  -2.5058  -2.8640 H              1 S1                 0.0000
     35 ****         2.9018  -1.9098  -1.9052 H              1 S1                 0.0000
     36 ****         0.6473  -1.7668   3.0581 H              1 S1                 0.0000
     37 ****        -0.5926  -3.0112   3.0059 H              1 S1                 0.0000
     38 ****        -0.6286  -1.6911   1.8471 H              1 S1                 0.0000
     39 ****         2.4775  -3.6168   2.8890 H              1 S1                 0.0000
     40 ****         2.4804  -4.7264   1.5233 H              1 S1                 0.0000
     41 ****         1.2598  -4.8802   2.7809 H              1 S1                 0.0000
     42 ****        -0.3126   0.2251   0.4901 H              1 S1                 0.0000
     43 ****        -0.3002   0.7307   2.7847 H              1 S1                 0.0000
     44 ****        -1.6573   1.7404   3.2780 H              1 S1                 0.0000
     45 ****        -0.0218   2.4155   3.2102 H              1 S1                 0.0000
     46 ****        -1.7934   3.7839  -3.2888 H              1 S1                 0.0000
     47 ****         2.9019   0.1421  -3.0725 LP             1 S1                 0.0000
     48 ****         1.5713   1.0502  -3.3398 LP             1 S1                 0.0000
     49 ****         0.0742  -3.5838  -2.6708 LP             1 S1                 0.0000
     50 ****        -0.9021  -4.6642  -1.7330 LP             1 S1                 0.0000
     51 ****        -0.6048  -4.6406   0.7698 LP             1 S1                 0.0000
     52 ****         3.0025  -0.9303   0.1449 LP             1 S1                 0.0000
     53 ****         2.7461  -1.3719   1.8000 LP             1 S1                 0.0000
@<TRIPOS>BOND
    1    1    2 1     
    2    1   25 1     
    3    1   26 1     
    4    1   27 1     
    5    2   23 ar    
    6    2    3 ar    
    7    3    4 ar    
    8    3   28 1     
    9    4   21 ar    
   10    4    5 1     
   11    5    6 2     
   12    5   46 1     
   13    6    7 1     
   14    6   29 1     
   15    7    8 1     
   16    7   21 1     
   17    8    9 1     
   18    8   30 1     
   19    8   31 1     
   20    9   10 1     
   21    9   11 1     
   22    9   32 1     
   23   10   33 1     
   24   11   12 1     
   25   11   34 1     
   26   11   35 1     
   27   12   19 am    
   28   12   13 am    
   29   13   14 2     
   30   13   15 1     
   31   15   16 1     
   32   16   17 1     
   33   16   18 1     
   34   16   19 1     
   35   17   36 1     
   36   17   37 1     
   37   17   38 1     
   38   18   39 1     
   39   18   40 1     
   40   18   41 1     
   41   19   20 2     
   42   21   22 ar    
   43   22   23 ar    
   44   22   42 1     
   45   23   24 1     
   46   24   43 1     
   47   24   44 1     
   48   24   45 1     
   49   10   47 1     
   50   10   48 1     
   51   14   49 1     
   52   14   50 1     
   53   15   51 1     
   54   20   52 1     
   55   20   53 1     
@<TRIPOS>SUBSTRUCTURE
      1 S1             1
@<TRIPOS>SET
LONE_PAIRS      STATIC     ATOMS    <user>   **** ""
7 47 48 49 50 51 52 53
DONOR_HYDROGENS      STATIC     ATOMS    <user>   **** ""
2 46 33
ATOM$BLUE        STATIC     ATOMS    COLORGROUP SYSTEM
7 47 48 49 50 51 52 53
ATOM$RED        STATIC     ATOMS    COLORGROUP SYSTEM
2 46 33
