AV-unprocessed.smi:99|AV-procd|sdf|867|dock8
  -GOLD-   2262017323D 1   1.00000     0.00000
 Structure written by MMmdl.
 53 56  0  0  0  0  0  0  0  0  1 V2000
  148.4665  133.5314  152.9760 O   0  0  0  0  0  0  0  0  0  0  0  0
  147.3330  134.0152  152.9834 C   0  0  0  0  0  0  0  0  0  0  0  0
  146.9106  134.9179  153.8895 O   0  0  0  0  0  0  0  0  0  0  0  0
  147.5938  135.0845  155.1219 C   0  0  0  0  0  0  0  0  0  0  0  0
  147.3768  136.5214  155.6130 C   0  0  2  0  0  0  0  0  0  0  0  0
  148.0432  137.4441  154.7556 O   0  0  0  0  0  0  0  0  0  0  0  0
  148.4462  138.5736  155.4797 C   0  0  2  0  0  0  0  0  0  0  0  0
  149.9375  138.7638  155.3108 N   0  0  0  0  0  0  0  0  0  0  0  0
  150.7082  137.8743  154.5724 C   0  0  0  0  0  0  0  0  0  0  0  0
  152.0463  138.0097  154.4168 C   0  0  0  0  0  0  0  0  0  0  0  0
  152.7560  139.1221  155.0401 C   0  0  0  0  0  0  0  0  0  0  0  0
  153.9640  139.3305  154.9523 O   0  0  0  0  0  0  0  0  0  0  0  0
  151.9451  139.9821  155.7860 N   0  0  0  0  0  0  0  0  0  0  0  0
  150.5663  139.8502  155.9580 C   0  0  0  0  0  0  0  0  0  0  0  0
  149.9529  140.6563  156.6562 O   0  0  0  0  0  0  0  0  0  0  0  0
  148.1089  138.3343  156.9606 C   0  0  1  0  0  0  0  0  0  0  0  0
  146.9000  138.9881  157.3013 O   0  0  0  0  0  0  0  0  0  0  0  0
  147.9775  136.8212  156.9852 C   0  0  1  0  0  0  0  0  0  0  0  0
  147.1965  136.3689  158.0878 O   0  0  0  0  0  0  0  0  0  0  0  0
  147.5670  136.6281  159.3615 C   0  0  0  0  0  0  0  0  0  0  0  0
  148.2162  137.6196  159.6997 O   0  0  0  0  0  0  0  0  0  0  0  0
  147.1414  135.5644  160.3149 C   0  0  0  0  0  0  0  0  0  0  0  0
  147.3994  135.7298  161.6958 C   0  0  0  0  0  0  0  0  0  0  0  0
  147.0346  134.7301  162.6181 C   0  0  0  0  0  0  0  0  0  0  0  0
  146.4054  133.5538  162.1709 C   0  0  0  0  0  0  0  0  0  0  0  0
  146.1409  133.3785  160.8001 C   0  0  0  0  0  0  0  0  0  0  0  0
  146.5059  134.3767  159.8759 C   0  0  0  0  0  0  0  0  0  0  0  0
  146.2709  133.6445  152.0038 C   0  0  0  0  0  0  0  0  0  0  0  0
  146.6027  132.8332  150.8941 C   0  0  0  0  0  0  0  0  0  0  0  0
  145.6156  132.4496  149.9653 C   0  0  0  0  0  0  0  0  0  0  0  0
  144.2846  132.8729  150.1349 C   0  0  0  0  0  0  0  0  0  0  0  0
  143.9422  133.6837  151.2325 C   0  0  0  0  0  0  0  0  0  0  0  0
  144.9282  134.0698  152.1608 C   0  0  0  0  0  0  0  0  0  0  0  0
  152.3958  140.7616  156.2430 H   0  0  0  0  0  0  0  0  0  0  0  0
  147.2421  134.3780  155.8752 H   0  0  0  0  0  0  0  0  0  0  0  0
  148.6555  134.8941  154.9623 H   0  0  0  0  0  0  0  0  0  0  0  0
  146.3142  136.7700  155.6032 H   0  0  0  0  0  0  0  0  0  0  0  0
  147.9731  139.4578  155.0476 H   0  0  0  0  0  0  0  0  0  0  0  0
  150.2387  137.0263  154.0960 H   0  0  0  0  0  0  0  0  0  0  0  0
  152.5965  137.2890  153.8290 H   0  0  0  0  0  0  0  0  0  0  0  0
  148.9028  138.6924  157.6174 H   0  0  0  0  0  0  0  0  0  0  0  0
  146.3254  138.3592  157.7104 H   0  0  0  0  0  0  0  0  0  0  0  0
  148.9869  136.4090  157.0184 H   0  0  0  0  0  0  0  0  0  0  0  0
  147.8889  136.6207  162.0621 H   0  0  0  0  0  0  0  0  0  0  0  0
  147.2422  134.8649  163.6693 H   0  0  0  0  0  0  0  0  0  0  0  0
  146.1271  132.7865  162.8782 H   0  0  0  0  0  0  0  0  0  0  0  0
  145.6596  132.4752  160.4557 H   0  0  0  0  0  0  0  0  0  0  0  0
  146.2937  134.2078  158.8302 H   0  0  0  0  0  0  0  0  0  0  0  0
  147.6169  132.4912  150.7461 H   0  0  0  0  0  0  0  0  0  0  0  0
  145.8805  131.8275  149.1230 H   0  0  0  0  0  0  0  0  0  0  0  0
  143.5274  132.5756  149.4243 H   0  0  0  0  0  0  0  0  0  0  0  0
  142.9202  134.0066  151.3666 H   0  0  0  0  0  0  0  0  0  0  0  0
  144.6288  134.6866  152.9955 H   0  0  0  0  0  0  0  0  0  0  0  0
  1  2  2  0  0  0  0
  2  3  1  0  0  0  0
  2 28  1  0  0  0  0
  3  4  1  0  0  0  0
  4  5  1  0  0  0  0
  4 35  1  0  0  0  0
  4 36  1  0  0  0  0
  5 18  1  0  0  0  0
  5  6  1  0  0  0  0
  5 37  1  0  0  0  0
  6  7  1  0  0  0  0
  7  8  1  0  0  0  0
  7 16  1  0  0  0  0
  7 38  1  0  0  0  0
  8 14  1  0  0  0  0
  8  9  1  0  0  0  0
  9 10  2  0  0  0  0
  9 39  1  0  0  0  0
 10 11  1  0  0  0  0
 10 40  1  0  0  0  0
 11 12  2  0  0  0  0
 11 13  1  0  0  0  0
 13 34  1  0  0  0  0
 13 14  1  0  0  0  0
 14 15  2  0  0  0  0
 16 17  1  0  0  0  0
 16 18  1  0  0  0  0
 16 41  1  0  0  0  0
 17 42  1  0  0  0  0
 18 19  1  0  0  0  0
 18 43  1  0  0  0  0
 19 20  1  0  0  0  0
 20 21  2  0  0  0  0
 20 22  1  0  0  0  0
 22 27  1  0  0  0  0
 22 23  2  0  0  0  0
 23 24  1  0  0  0  0
 23 44  1  0  0  0  0
 24 25  2  0  0  0  0
 24 45  1  0  0  0  0
 25 26  1  0  0  0  0
 25 46  1  0  0  0  0
 26 27  2  0  0  0  0
 26 47  1  0  0  0  0
 27 48  1  0  0  0  0
 28 33  1  0  0  0  0
 28 29  2  0  0  0  0
 29 30  1  0  0  0  0
 29 49  1  0  0  0  0
 30 31  2  0  0  0  0
 30 50  1  0  0  0  0
 31 32  1  0  0  0  0
 31 51  1  0  0  0  0
 32 33  2  0  0  0  0
 32 52  1  0  0  0  0
 33 53  1  0  0  0  0
M  END
> <s_m_source_file>
AV-unprocessed.smi

> <i_m_source_file_index>
99

> <i_lp_mmshare_version>
43012

> <i_f3d_flags>
0

> <s_epik_input>
W2NIXTFbY0hdW2NIXVtjSF1bY0hdYzFDKD1PKU9bQ0gyXVtDQEBIXTJPW0NAQEhdKG4zW2NIXVtjSF1jKD1PKVtuSF1jMz1PKVtDQEBIXShbT0hdKVtDQEhdMk9DKD1PKWM0W2NIXVtjSF1bY0hdW2NIXVtjSF00

> <s_epik_cmdline>
J2VwaWtfcHl0aG9uJywgJy1waCcsICc3LjAnLCAnLXRuJywgJzgnLCAnLW1hJywgJzIwMCcsICctbWV0YWxfYmluZGluZycsICctaW1hZScsICc8aW5maWxlLm1hZT4nLCAnLW9tYWUnLCAnPG91dGZpbGUubWFlPic=

> <r_lp_tautomer_probability>
1

> <r_epik_Ionization_Penalty>
0.00454555

> <r_epik_Ionization_Penalty_Charging>
0.0045191

> <r_epik_Ionization_Penalty_Neutral>
2.64449e-05

> <r_epik_State_Penalty>
-0

> <r_epik_Charging_Adjusted_Penalty>
0.0045191

> <i_epik_Tot_Q>
0

> <i_epik_Tot_abs_Q>
0

> <r_epik_Metal_State_Penalty>
1.27877

> <b_epik_Metal_Only>
0

> <s_epik_Chemistry_Notes>
This compound has an ester and may undergo hydrolysis at high or low pH. This compound contains an acetal/aminal-like group ( X-CH(R)-Y where X, Y are N, S, or O) that may be acid/base labile, releasing an aldehyde.

> <s_lp_Force_Field>
OPLS_2005

> <r_lp_Energy>
37.3594

> <b_lp_Chiralities_Consistent>
1

> <s_lp_Variant>
AV-unprocessed.smi:99-3

> <Gold.Version>
5.8.1

> <Gold.Id.Protein>
6NUR|6NUR_protein|mol2

> <Gold.PLP.Fitness>
53.7900

> <Gold.PLP.PLP>
-48.2310

> <Gold.PLP.part.hbond>
-3.0000

> <Gold.PLP.part.metal>
0.0000

> <Gold.PLP.part.buried>
-7.4264

> <Gold.PLP.part.nonpolar>
-39.4042

> <Gold.PLP.part.repulsive>
0.8321

> <Gold.PLP.ligand.clash>
0.0000

> <Gold.PLP.ligand.torsion>
0.8819

> <Gold.PLP.Chemscore.Hbond>
1.3474

> <Gold.PLP.Chemscore.CHOScore>
1.0102

> <Gold.PLP.Chemscore.Metal>
0.0000

> <Gold.Chemscore.Hbonds>
donor molecule, donor type, donor heavy atom, donor atom, acceptor molecule, acceptor atom, score
      P1  H  6931  6943       L1    21  0.02
      P1  H  6934  6947       L1    21  0.38
      P1  H  7997  8010       L1    12  0.50
      L1  C     9    39       P1  7948  0.68

> <Gold.PLP.Chemscore.Internal.Correction>
0.2501

> <Gold.Rescore>
     Score         DG    S(hbond)    S(metal)    S(lipo)     H(rot)  DE(clash)    DE(int)     intcor
     12.87     -15.05       1.77        0.00     101.07       3.19       0.00       2.18       ----

> <Gold.Chemscore.Fitness>
12.8651

> <Gold.Chemscore.DG>
-15.0484

> <Gold.Chemscore.ZeroCoef>
-5.4800

> <Gold.Chemscore.Hbond>
1.7696

> <Gold.Chemscore.Metal>
0.0000

> <Gold.Chemscore.Lipo>
101.0678

> <Gold.Chemscore.Internal_Hbond>
0.0000

> <Gold.Chemscore.DEClash>
0.0048

> <Gold.Chemscore.DEInternal>
2.1784

> <Gold.Chemscore.Rot>
3.1903

> <Gold.Chemscore.Internal.Correction>
   9.000000E+99

> <Gold.Chemscore.Hbonds>
donor molecule, donor type, donor heavy atom, donor atom, acceptor molecule, acceptor atom, score
      P1  H  6931  6943       L1    21  0.04
      P1  H  6934  6947       L1    21  0.36
      P1  H  7997  8010       L1    12  0.46

> <Gold.Chemscore.Hbond.Weighted>
-5.9105

> <Gold.Chemscore.Metal.Weighted>
-0.0000

> <Gold.Chemscore.Lipo.Weighted>
-11.8249

> <Gold.Chemscore.Internal_Hbond.Weighted>
0.0000

> <Gold.Chemscore.DEClash.Weighted>
0.0048

> <Gold.Chemscore.DEInternal.Weighted>
2.1784

> <Gold.Chemscore.Rot.Weighted>
8.1671

> <Gold.Chemscore.Internal.Correction.Weighted>
   9.000000E+99

> <Gold.Protein.RotatedTorsions>
[ 6907 6896 6895 6894 ] final  -86.10 input  -60.11 | X-H torsion
[ 7974 7965 7964 7962 ] final  177.49 input  175.53 | X-H torsion
[ 8008 7997 7996 7995 ] final  109.09 input   59.86 | X-H torsion
[ 10167 10162 10161 10158 ] final  146.20 input  -65.29 | X-H torsion
[ 10718 10713 10712 10709 ] final  -69.24 input   66.30 | X-H torsion
[ 10763 10752 10751 10750 ] final  115.69 input  -60.55 | X-H torsion
[ 11005 11000 10999 10996 ] final -143.09 input  -57.11 | X-H torsion

> <Gold.Protein.ActiveResidues>
 VAL166  LYS551  ARG553  GLY616  TRP617  ASP618  TYR619  PRO620  LYS621  CYS622 
 ASP623  PHE694  ASN695  SER759  ASP760  ASP761  ALA762  ILE779  LEU786  VAL792 
 PHE793  MET794  SER795  GLU796  ALA797  LYS798  CYS799  TRP800  GLU811  SER814 

> <Gold.Protein.RotatedAtoms>
  150.6868  134.3102  159.4742 H   0  0  0  0  0  0  0  0  0  0  0  0  # atno 6907 bound_to 6896
  152.0989  134.9353  160.0579 H   0  0  0  0  0  0  0  0  0  0  0  0  # atno 6908 bound_to 6896
  152.0640  133.4040  159.4467 H   0  0  0  0  0  0  0  0  0  0  0  0  # atno 6909 bound_to 6896
  144.7168  140.0254  143.6439 H   0  0  0  0  0  0  0  0  0  0  0  0  # atno 7974 bound_to 7965
  156.1953  140.3064  155.9415 H   0  0  0  0  0  0  0  0  0  0  0  0  # atno 8008 bound_to 7997
  155.3080  140.0449  157.3050 H   0  0  0  0  0  0  0  0  0  0  0  0  # atno 8009 bound_to 7997
  154.5502  140.2289  155.8506 H   0  0  0  0  0  0  0  0  0  0  0  0  # atno 8010 bound_to 7997
  139.4911  144.5847  151.6802 H   0  0  0  0  0  0  0  0  0  0  0  0  # atno 10167 bound_to 10162
  156.0465  130.4309  150.2118 H   0  0  0  0  0  0  0  0  0  0  0  0  # atno 10718 bound_to 10713
  153.5260  135.3588  155.2654 H   0  0  0  0  0  0  0  0  0  0  0  0  # atno 10763 bound_to 10752
  154.8731  135.4057  154.3205 H   0  0  0  0  0  0  0  0  0  0  0  0  # atno 10764 bound_to 10752
  153.3885  135.7071  153.6580 H   0  0  0  0  0  0  0  0  0  0  0  0  # atno 10765 bound_to 10752
  140.8160  134.2687  157.4921 H   0  0  0  0  0  0  0  0  0  0  0  0  # atno 11005 bound_to 11000
  146.0146  139.3199  143.0849 LP  0  0  0  0  0  0  0  0  0  0  0  0  # atno 17320 bound_to 7965
  145.8641  140.9458  143.0685 LP  0  0  0  0  0  0  0  0  0  0  0  0  # atno 17321 bound_to 7965
  140.5460  144.0502  150.6107 LP  0  0  0  0  0  0  0  0  0  0  0  0  # atno 17342 bound_to 10162
  140.3540  143.2946  152.0456 LP  0  0  0  0  0  0  0  0  0  0  0  0  # atno 17343 bound_to 10162
  157.0207  130.9978  151.3340 LP  0  0  0  0  0  0  0  0  0  0  0  0  # atno 17370 bound_to 10713
  157.5346  130.8080  149.7957 LP  0  0  0  0  0  0  0  0  0  0  0  0  # atno 17371 bound_to 10713
  139.8711  134.9509  156.4070 LP  0  0  0  0  0  0  0  0  0  0  0  0  # atno 17394 bound_to 11000
  140.9148  133.7686  155.9835 LP  0  0  0  0  0  0  0  0  0  0  0  0  # atno 17395 bound_to 11000

$$$$
