AV-unprocessed.smi:670|AV-procd|sdf|3267|dock4
  -GOLD-   22720 0223D 1   1.00000     0.00000
 Structure written by MMmdl.
 44 45  0  0  0  0  0  0  0  0  2 V2000
  147.1893  134.0039  162.1084 C   0  0  0  0  0  0  0  0  0  0  0  0
  145.9541  134.7383  162.6517 C   0  0  2  0  0  0  0  0  0  0  0  0
  144.6669  133.9162  162.4409 C   0  0  0  0  0  0  0  0  0  0  0  0
  143.4390  134.6282  163.0305 C   0  0  0  0  0  0  0  0  0  0  0  0
  143.2852  136.0446  162.4565 C   0  0  0  0  0  0  0  0  0  0  0  0
  144.5663  136.8719  162.6569 C   0  0  0  0  0  0  0  0  0  0  0  0
  145.8043  136.1656  162.0736 C   0  0  2  0  0  0  0  0  0  0  0  0
  145.6429  136.1047  160.6611 O   0  0  0  0  0  0  0  0  0  0  0  0
  146.4018  137.0637  159.9404 C   0  0  0  0  0  0  0  0  0  0  0  0
  147.8280  136.5288  159.7494 C   0  0  0  0  0  0  0  0  0  0  0  0
  148.7397  137.5753  159.3022 N   0  0  0  0  0  0  0  0  0  0  0  0
  149.9551  137.3719  158.7719 C   0  0  0  0  0  0  0  0  0  0  0  0
  150.4441  136.2546  158.6031 O   0  0  0  0  0  0  0  0  0  0  0  0
  150.7293  138.6256  158.3507 C   0  0  0  0  0  0  0  0  0  0  0  0
  150.8676  138.7247  156.8919 N   0  0  0  0  0  0  0  0  0  0  0  0
  149.5957  138.8898  156.1927 N   0  5  0  0  0  0  0  0  0  0  0  0
  149.5951  139.0202  154.8395 C   0  0  0  0  0  0  0  0  0  0  0  0
  148.5664  139.1758  154.1856 O   0  0  0  0  0  0  0  0  0  0  0  0
  150.8718  138.9696  154.1469 C   0  0  0  0  0  0  0  0  0  0  0  0
  152.0291  138.8010  154.8163 C   0  0  0  0  0  0  0  0  0  0  0  0
  152.0783  138.6633  156.2671 C   0  0  0  0  0  0  0  0  0  0  0  0
  153.1324  138.5057  156.8826 O   0  0  0  0  0  0  0  0  0  0  0  0
  147.0993  133.8106  161.0395 H   0  0  0  0  0  0  0  0  0  0  0  0
  147.3223  133.0427  162.6055 H   0  0  0  0  0  0  0  0  0  0  0  0
  148.0969  134.5863  162.2686 H   0  0  0  0  0  0  0  0  0  0  0  0
  146.1004  134.8419  163.7280 H   0  0  0  0  0  0  0  0  0  0  0  0
  144.5105  133.7400  161.3758 H   0  0  0  0  0  0  0  0  0  0  0  0
  144.7728  132.9335  162.9018 H   0  0  0  0  0  0  0  0  0  0  0  0
  142.5399  134.0460  162.8271 H   0  0  0  0  0  0  0  0  0  0  0  0
  143.5337  134.6817  164.1156 H   0  0  0  0  0  0  0  0  0  0  0  0
  143.0512  135.9833  161.3929 H   0  0  0  0  0  0  0  0  0  0  0  0
  142.4408  136.5472  162.9284 H   0  0  0  0  0  0  0  0  0  0  0  0
  144.4492  137.8553  162.2005 H   0  0  0  0  0  0  0  0  0  0  0  0
  144.7186  137.0459  163.7229 H   0  0  0  0  0  0  0  0  0  0  0  0
  146.6838  136.7560  162.3393 H   0  0  0  0  0  0  0  0  0  0  0  0
  145.9365  137.2372  158.9691 H   0  0  0  0  0  0  0  0  0  0  0  0
  146.4212  138.0197  160.4649 H   0  0  0  0  0  0  0  0  0  0  0  0
  148.2024  136.1223  160.6891 H   0  0  0  0  0  0  0  0  0  0  0  0
  147.8287  135.7063  159.0325 H   0  0  0  0  0  0  0  0  0  0  0  0
  148.4286  138.5305  159.4077 H   0  0  0  0  0  0  0  0  0  0  0  0
  150.2235  139.5093  158.7434 H   0  0  0  0  0  0  0  0  0  0  0  0
  151.7098  138.6187  158.8311 H   0  0  0  0  0  0  0  0  0  0  0  0
  150.8923  139.0678  153.0714 H   0  0  0  0  0  0  0  0  0  0  0  0
  152.9542  138.7686  154.2603 H   0  0  0  0  0  0  0  0  0  0  0  0
  1  2  1  0  0  0  0
  1 23  1  0  0  0  0
  1 24  1  0  0  0  0
  1 25  1  0  0  0  0
  2  7  1  0  0  0  0
  2  3  1  0  0  0  0
  2 26  1  0  0  0  0
  3  4  1  0  0  0  0
  3 27  1  0  0  0  0
  3 28  1  0  0  0  0
  4  5  1  0  0  0  0
  4 29  1  0  0  0  0
  4 30  1  0  0  0  0
  5  6  1  0  0  0  0
  5 31  1  0  0  0  0
  5 32  1  0  0  0  0
  6  7  1  0  0  0  0
  6 33  1  0  0  0  0
  6 34  1  0  0  0  0
  7  8  1  0  0  0  0
  7 35  1  0  0  0  0
  8  9  1  0  0  0  0
  9 10  1  0  0  0  0
  9 36  1  0  0  0  0
  9 37  1  0  0  0  0
 10 11  1  0  0  0  0
 10 38  1  0  0  0  0
 10 39  1  0  0  0  0
 11 12  1  0  0  0  0
 11 40  1  0  0  0  0
 12 13  2  0  0  0  0
 12 14  1  0  0  0  0
 14 41  1  0  0  0  0
 14 42  1  0  0  0  0
 14 15  1  0  0  0  0
 15 16  1  0  0  0  0
 15 21  1  0  0  0  0
 16 17  1  0  0  0  0
 17 18  2  0  0  0  0
 17 19  1  0  0  0  0
 19 43  1  0  0  0  0
 19 20  2  0  0  0  0
 20 44  1  0  0  0  0
 20 21  1  0  0  0  0
 21 22  2  0  0  0  0
M  CHG  1  16  -1
M  END
> <s_m_source_file>
AV-unprocessed.smi

> <i_m_source_file_index>
670

> <i_lp_mmshare_version>
43012

> <i_f3d_flags>
0

> <s_epik_input>
W0NIM11bQ0BASF0xW0NIMl1bQ0gyXVtDSDJdW0NIMl1bQ0BIXTFPW0NIMl1bQ0gyXVtOSF1DKD1PKVtDSDJdbjJbbkhdYyg9TylbY0hdW2NIXWMyPU8=

> <s_epik_cmdline>
J2VwaWtfcHl0aG9uJywgJy1waCcsICc3LjAnLCAnLXRuJywgJzgnLCAnLW1hJywgJzIwMCcsICctbWV0YWxfYmluZGluZycsICctaW1hZScsICc8aW5maWxlLm1hZT4nLCAnLW9tYWUnLCAnPG91dGZpbGUubWFlPic=

> <r_lp_tautomer_probability>
1

> <r_epik_Ionization_Penalty>
0.0975638

> <r_epik_Ionization_Penalty_Charging>
0.0975637

> <r_epik_Ionization_Penalty_Neutral>
2.78599e-08

> <r_epik_State_Penalty>
0.0343507

> <r_epik_Charging_Adjusted_Penalty>
0.131914

> <i_epik_Tot_Q>
-1

> <i_epik_Tot_abs_Q>
1

> <r_epik_Metal_State_Penalty>
0.0343507

> <b_epik_Metal_Only>
0

> <s_lp_Force_Field>
OPLS_2005

> <r_lp_Energy>
29.4365

> <b_lp_Chiralities_Consistent>
1

> <s_lp_Variant>
AV-unprocessed.smi:670-3

> <Gold.Version>
5.8.1

> <Gold.Id.Protein>
6NUR|6NUR_protein|mol2

> <Gold.PLP.Fitness>
39.9934

> <Gold.PLP.PLP>
-35.8762

> <Gold.PLP.part.hbond>
-2.0000

> <Gold.PLP.part.metal>
0.0000

> <Gold.PLP.part.buried>
-6.7138

> <Gold.PLP.part.nonpolar>
-28.4394

> <Gold.PLP.part.repulsive>
0.4435

> <Gold.PLP.ligand.clash>
0.0000

> <Gold.PLP.ligand.torsion>
0.9628

> <Gold.PLP.Chemscore.Hbond>
1.9920

> <Gold.PLP.Chemscore.CHOScore>
0.0000

> <Gold.PLP.Chemscore.Metal>
0.0000

> <Gold.Chemscore.Hbonds>
donor molecule, donor type, donor heavy atom, donor atom, acceptor molecule, acceptor atom, score
      P1  H  6896  6909       L1    13  0.96
      P1  H  7997  8008       L1    22  0.92

> <Gold.PLP.Chemscore.Internal.Correction>
0.0669

> <Gold.Rescore>
     Score         DG    S(hbond)    S(metal)    S(lipo)     H(rot)  DE(clash)    DE(int)     intcor
     13.94     -14.80       1.91        0.00      78.83       2.45       0.13       0.74       ----

> <Gold.Chemscore.Fitness>
13.9372

> <Gold.Chemscore.DG>
-14.8028

> <Gold.Chemscore.ZeroCoef>
-5.4800

> <Gold.Chemscore.Hbond>
1.9070

> <Gold.Chemscore.Metal>
0.0000

> <Gold.Chemscore.Lipo>
78.8288

> <Gold.Chemscore.Internal_Hbond>
0.0000

> <Gold.Chemscore.DEClash>
0.1301

> <Gold.Chemscore.DEInternal>
0.7354

> <Gold.Chemscore.Rot>
2.4490

> <Gold.Chemscore.Internal.Correction>
   9.000000E+99

> <Gold.Chemscore.Hbonds>
donor molecule, donor type, donor heavy atom, donor atom, acceptor molecule, acceptor atom, score
      P1  H  6896  6909       L1    13  0.92
      P1  H  7997  8008       L1    22  0.80

> <Gold.Chemscore.Hbond.Weighted>
-6.3692

> <Gold.Chemscore.Metal.Weighted>
-0.0000

> <Gold.Chemscore.Lipo.Weighted>
-9.2230

> <Gold.Chemscore.Internal_Hbond.Weighted>
0.0000

> <Gold.Chemscore.DEClash.Weighted>
0.1301

> <Gold.Chemscore.DEInternal.Weighted>
0.7354

> <Gold.Chemscore.Rot.Weighted>
6.2694

> <Gold.Chemscore.Internal.Correction.Weighted>
   9.000000E+99

> <Gold.Protein.RotatedTorsions>
[ 6907 6896 6895 6894 ] final   73.93 input  -60.11 | X-H torsion
[ 7974 7965 7964 7962 ] final  -68.93 input  175.53 | X-H torsion
[ 8008 7997 7996 7995 ] final  -77.72 input   59.86 | X-H torsion
[ 10167 10162 10161 10158 ] final -141.24 input  -65.29 | X-H torsion
[ 10718 10713 10712 10709 ] final  166.29 input   66.30 | X-H torsion
[ 10763 10752 10751 10750 ] final   73.08 input  -60.55 | X-H torsion
[ 11005 11000 10999 10996 ] final  117.40 input  -57.11 | X-H torsion

> <Gold.Protein.ActiveResidues>
 VAL166  LYS551  ARG553  GLY616  TRP617  ASP618  TYR619  PRO620  LYS621  CYS622 
 ASP623  PHE694  ASN695  SER759  ASP760  ASP761  ALA762  ILE779  LEU786  VAL792 
 PHE793  MET794  SER795  GLU796  ALA797  LYS798  CYS799  TRP800  GLU811  SER814 

> <Gold.Protein.RotatedAtoms>
  152.4949  134.4348  159.9523 H   0  0  0  0  0  0  0  0  0  0  0  0  # atno 6907 bound_to 6896
  151.4328  133.3659  159.2779 H   0  0  0  0  0  0  0  0  0  0  0  0  # atno 6908 bound_to 6896
  150.9142  134.8583  159.7506 H   0  0  0  0  0  0  0  0  0  0  0  0  # atno 6909 bound_to 6896
  145.7102  140.9081  143.0684 H   0  0  0  0  0  0  0  0  0  0  0  0  # atno 7974 bound_to 7965
  154.5622  140.0706  156.8837 H   0  0  0  0  0  0  0  0  0  0  0  0  # atno 8008 bound_to 7997
  155.2789  140.3370  155.4241 H   0  0  0  0  0  0  0  0  0  0  0  0  # atno 8009 bound_to 7997
  156.2052  140.1737  156.7801 H   0  0  0  0  0  0  0  0  0  0  0  0  # atno 8010 bound_to 7997
  139.8204  143.7582  152.2666 H   0  0  0  0  0  0  0  0  0  0  0  0  # atno 10167 bound_to 10162
  157.0679  131.0358  151.2622 H   0  0  0  0  0  0  0  0  0  0  0  0  # atno 10718 bound_to 10713
  153.0499  135.5076  154.7840 H   0  0  0  0  0  0  0  0  0  0  0  0  # atno 10763 bound_to 10752
  154.6711  135.2953  154.9743 H   0  0  0  0  0  0  0  0  0  0  0  0  # atno 10764 bound_to 10752
  154.0561  135.6697  153.4859 H   0  0  0  0  0  0  0  0  0  0  0  0  # atno 10765 bound_to 10752
  139.9073  134.9609  156.7345 H   0  0  0  0  0  0  0  0  0  0  0  0  # atno 11005 bound_to 11000
  144.6944  139.9064  143.7461 LP  0  0  0  0  0  0  0  0  0  0  0  0  # atno 17320 bound_to 7965
  146.0719  139.3708  143.0517 LP  0  0  0  0  0  0  0  0  0  0  0  0  # atno 17321 bound_to 7965
  139.7758  144.7461  151.0158 LP  0  0  0  0  0  0  0  0  0  0  0  0  # atno 17342 bound_to 10162
  140.7813  143.4595  151.0298 LP  0  0  0  0  0  0  0  0  0  0  0  0  # atno 17343 bound_to 10162
  157.4902  130.7817  149.7500 LP  0  0  0  0  0  0  0  0  0  0  0  0  # atno 17370 bound_to 10713
  155.9959  130.3909  150.2801 LP  0  0  0  0  0  0  0  0  0  0  0  0  # atno 17371 bound_to 10713
  140.6899  133.9399  155.7960 LP  0  0  0  0  0  0  0  0  0  0  0  0  # atno 17394 bound_to 11000
  141.0449  134.0568  157.3856 LP  0  0  0  0  0  0  0  0  0  0  0  0  # atno 17395 bound_to 11000

$$$$
