AV-unprocessed.smi:2060|AV-procd|sdf|8355|dock4
  -GOLD-   2272011 23D 1   1.00000     0.00000
 Structure written by MMmdl.
 45 46  0  0  0  0  0  0  0  0  1 V2000
  145.3403  138.9955  155.3672 C   0  0  0  0  0  0  0  0  0  0  0  0
  146.8793  138.9570  155.3396 C   0  0  0  0  0  0  0  0  0  0  0  0
  147.5653  139.9899  154.3896 C   0  0  2  0  0  0  0  0  0  0  0  0
  147.0671  141.3919  154.8339 C   0  0  0  0  0  0  0  0  0  0  0  0
  147.0675  139.7369  152.9298 C   0  0  0  0  0  0  0  0  0  0  0  0
  147.1086  138.3317  152.5235 N   0  0  0  0  0  0  0  0  0  0  0  0
  146.0528  137.5080  152.4468 C   0  0  0  0  0  0  0  0  0  0  0  0
  144.8995  137.8510  152.7088 O   0  0  0  0  0  0  0  0  0  0  0  0
  146.4217  136.2801  152.0441 N   0  0  0  0  0  0  0  0  0  0  0  0
  145.5895  135.1486  151.8483 C   0  0  0  0  0  0  0  0  0  0  0  0
  146.0475  134.0266  151.1079 C   0  0  0  0  0  0  0  0  0  0  0  0
  144.9810  133.1732  151.1502 C   0  0  0  0  0  0  0  0  0  0  0  0
  144.7496  131.8116  150.5903 C   0  0  0  0  0  0  0  0  0  0  0  0
  143.9589  133.7273  151.8576 O   0  0  0  0  0  0  0  0  0  0  0  0
  144.3548  134.9944  152.3017 N   0  0  0  0  0  0  0  0  0  0  0  0
  149.0499  139.9042  154.4951 N   0  0  0  0  0  0  0  0  0  0  0  0
  149.6177  138.5646  154.3008 C   0  0  0  0  0  0  0  0  0  0  0  0
  151.1558  138.5884  154.2804 C   0  0  0  0  0  0  0  0  0  0  0  0
  151.6442  139.1705  155.4830 O   0  0  0  0  0  0  0  0  0  0  0  0
  151.1602  140.4934  155.6819 C   0  0  0  0  0  0  0  0  0  0  0  0
  149.6229  140.4813  155.7176 C   0  0  0  0  0  0  0  0  0  0  0  0
  144.9539  138.2440  156.0558 H   0  0  0  0  0  0  0  0  0  0  0  0
  144.9121  138.7867  154.3875 H   0  0  0  0  0  0  0  0  0  0  0  0
  144.9634  139.9628  155.6995 H   0  0  0  0  0  0  0  0  0  0  0  0
  147.2525  139.0739  156.3570 H   0  0  0  0  0  0  0  0  0  0  0  0
  147.1697  137.9442  155.0600 H   0  0  0  0  0  0  0  0  0  0  0  0
  145.9888  141.4122  154.9950 H   0  0  0  0  0  0  0  0  0  0  0  0
  147.2802  142.1560  154.0861 H   0  0  0  0  0  0  0  0  0  0  0  0
  147.5358  141.7094  155.7655 H   0  0  0  0  0  0  0  0  0  0  0  0
  146.0287  140.0464  152.8229 H   0  0  0  0  0  0  0  0  0  0  0  0
  147.6284  140.3417  152.2169 H   0  0  0  0  0  0  0  0  0  0  0  0
  148.0162  137.9603  152.2839 H   0  0  0  0  0  0  0  0  0  0  0  0
  147.4036  136.1385  151.8584 H   0  0  0  0  0  0  0  0  0  0  0  0
  147.0004  133.8701  150.6245 H   0  0  0  0  0  0  0  0  0  0  0  0
  145.3993  131.6283  149.7343 H   0  0  0  0  0  0  0  0  0  0  0  0
  143.7171  131.6963  150.2597 H   0  0  0  0  0  0  0  0  0  0  0  0
  144.9531  131.0468  151.3400 H   0  0  0  0  0  0  0  0  0  0  0  0
  149.2898  137.8947  155.0954 H   0  0  0  0  0  0  0  0  0  0  0  0
  149.2809  138.1306  153.3610 H   0  0  0  0  0  0  0  0  0  0  0  0
  151.5491  137.5758  154.1906 H   0  0  0  0  0  0  0  0  0  0  0  0
  151.5216  139.1517  153.4205 H   0  0  0  0  0  0  0  0  0  0  0  0
  151.5577  140.8806  156.6201 H   0  0  0  0  0  0  0  0  0  0  0  0
  151.5225  141.1464  154.8862 H   0  0  0  0  0  0  0  0  0  0  0  0
  149.2845  141.5052  155.8639 H   0  0  0  0  0  0  0  0  0  0  0  0
  149.3014  139.9141  156.5909 H   0  0  0  0  0  0  0  0  0  0  0  0
  1  2  1  0  0  0  0
  1 22  1  0  0  0  0
  1 23  1  0  0  0  0
  1 24  1  0  0  0  0
  2  3  1  0  0  0  0
  2 25  1  0  0  0  0
  2 26  1  0  0  0  0
  3  4  1  0  0  0  0
  3  5  1  0  0  0  0
  3 16  1  0  0  0  0
  4 27  1  0  0  0  0
  4 28  1  0  0  0  0
  4 29  1  0  0  0  0
  5  6  1  0  0  0  0
  5 30  1  0  0  0  0
  5 31  1  0  0  0  0
  6  7  1  0  0  0  0
  6 32  1  0  0  0  0
  7  8  2  0  0  0  0
  7  9  1  0  0  0  0
  9 10  1  0  0  0  0
  9 33  1  0  0  0  0
 10 15  2  0  0  0  0
 10 11  1  0  0  0  0
 11 12  2  0  0  0  0
 11 34  1  0  0  0  0
 12 13  1  0  0  0  0
 12 14  1  0  0  0  0
 13 35  1  0  0  0  0
 13 36  1  0  0  0  0
 13 37  1  0  0  0  0
 14 15  1  0  0  0  0
 16 21  1  0  0  0  0
 16 17  1  0  0  0  0
 17 18  1  0  0  0  0
 17 38  1  0  0  0  0
 17 39  1  0  0  0  0
 18 19  1  0  0  0  0
 18 40  1  0  0  0  0
 18 41  1  0  0  0  0
 19 20  1  0  0  0  0
 20 21  1  0  0  0  0
 20 42  1  0  0  0  0
 20 43  1  0  0  0  0
 21 44  1  0  0  0  0
 21 45  1  0  0  0  0
M  END
> <s_m_source_file>
AV-unprocessed.smi

> <i_m_source_file_index>
2060

> <i_lp_mmshare_version>
43012

> <i_f3d_flags>
0

> <s_epik_input>
W0NIMl0xW0NIMl1PW0NIMl1bQ0gyXU4xW0NAQF0oW0NIM10pKFtDSDJdW0NIM10pW0NIMl1bTkhdQyg9TylbTkhdYzJbY0hdYyhbQ0gzXSlvbjI=

> <s_epik_cmdline>
J2VwaWtfcHl0aG9uJywgJy1waCcsICc3LjAnLCAnLXRuJywgJzgnLCAnLW1hJywgJzIwMCcsICctbWV0YWxfYmluZGluZycsICctaW1hZScsICc8aW5maWxlLm1hZT4nLCAnLW9tYWUnLCAnPG91dGZpbGUubWFlPic=

> <r_epik_Ionization_Penalty>
0.289127

> <r_epik_Ionization_Penalty_Charging>
0

> <r_epik_Ionization_Penalty_Neutral>
0.289127

> <r_epik_State_Penalty>
0.282056

> <r_epik_Charging_Adjusted_Penalty>
0.282056

> <i_epik_Tot_Q>
0

> <i_epik_Tot_abs_Q>
0

> <r_epik_Metal_State_Penalty>
0.284526

> <b_epik_Metal_Only>
0

> <s_lp_Force_Field>
OPLS_2005

> <r_lp_Energy>
40.1787

> <b_lp_Chiralities_Consistent>
1

> <s_lp_Variant>
AV-unprocessed.smi:2060-2

> <Gold.Version>
5.8.1

> <Gold.Id.Protein>
6NUR|6NUR_protein|mol2

> <Gold.PLP.Fitness>
33.2378

> <Gold.PLP.PLP>
-28.6932

> <Gold.PLP.part.hbond>
-2.3068

> <Gold.PLP.part.metal>
0.0000

> <Gold.PLP.part.buried>
-5.8377

> <Gold.PLP.part.nonpolar>
-24.2210

> <Gold.PLP.part.repulsive>
3.3086

> <Gold.PLP.ligand.clash>
0.0000

> <Gold.PLP.ligand.torsion>
0.5767

> <Gold.PLP.Chemscore.Hbond>
1.8640

> <Gold.PLP.Chemscore.CHOScore>
0.0000

> <Gold.PLP.Chemscore.Metal>
0.0000

> <Gold.Chemscore.Hbonds>
donor molecule, donor type, donor heavy atom, donor atom, acceptor molecule, acceptor atom, score
      L1  H     6    32       P1  7948  0.85
      L1  H     9    33       P1  7948  0.99

> <Gold.PLP.Chemscore.Internal.Correction>
0.1060

> <Gold.Rescore>
     Score         DG    S(hbond)    S(metal)    S(lipo)     H(rot)  DE(clash)    DE(int)     intcor
     13.55     -15.52       1.94        0.00      67.98       1.71       0.04       1.92       ----

> <Gold.Chemscore.Fitness>
13.5531

> <Gold.Chemscore.DG>
-15.5189

> <Gold.Chemscore.ZeroCoef>
-5.4800

> <Gold.Chemscore.Hbond>
1.9382

> <Gold.Chemscore.Metal>
0.0000

> <Gold.Chemscore.Lipo>
67.9815

> <Gold.Chemscore.Internal_Hbond>
0.0000

> <Gold.Chemscore.DEClash>
0.0423

> <Gold.Chemscore.DEInternal>
1.9235

> <Gold.Chemscore.Rot>
1.7143

> <Gold.Chemscore.Internal.Correction>
   9.000000E+99

> <Gold.Chemscore.Hbonds>
donor molecule, donor type, donor heavy atom, donor atom, acceptor molecule, acceptor atom, score
      L1  H     6    32       P1  7948  0.83
      L1  H     9    33       P1  7948  0.92

> <Gold.Chemscore.Hbond.Weighted>
-6.4737

> <Gold.Chemscore.Metal.Weighted>
-0.0000

> <Gold.Chemscore.Lipo.Weighted>
-7.9538

> <Gold.Chemscore.Internal_Hbond.Weighted>
0.0000

> <Gold.Chemscore.DEClash.Weighted>
0.0423

> <Gold.Chemscore.DEInternal.Weighted>
1.9235

> <Gold.Chemscore.Rot.Weighted>
4.3885

> <Gold.Chemscore.Internal.Correction.Weighted>
   9.000000E+99

> <Gold.Protein.RotatedTorsions>
[ 6907 6896 6895 6894 ] final  113.45 input  -60.11 | X-H torsion
[ 7974 7965 7964 7962 ] final  139.60 input  175.53 | X-H torsion
[ 8008 7997 7996 7995 ] final -148.73 input   59.86 | X-H torsion
[ 10167 10162 10161 10158 ] final   47.86 input  -65.29 | X-H torsion
[ 10718 10713 10712 10709 ] final  -36.28 input   66.30 | X-H torsion
[ 10763 10752 10751 10750 ] final -119.87 input  -60.55 | X-H torsion
[ 11005 11000 10999 10996 ] final  129.88 input  -57.11 | X-H torsion

> <Gold.Protein.ActiveResidues>
 VAL166  LYS551  ARG553  GLY616  TRP617  ASP618  TYR619  PRO620  LYS621  CYS622 
 ASP623  PHE694  ASN695  SER759  ASP760  ASP761  ALA762  ILE779  LEU786  VAL792 
 PHE793  MET794  SER795  GLU796  ALA797  LYS798  CYS799  TRP800  GLU811  SER814 

> <Gold.Protein.RotatedAtoms>
  152.4860  133.8374  159.7134 H   0  0  0  0  0  0  0  0  0  0  0  0  # atno 6907 bound_to 6896
  150.8947  133.7187  159.2901 H   0  0  0  0  0  0  0  0  0  0  0  0  # atno 6908 bound_to 6896
  151.4648  135.1045  159.9787 H   0  0  0  0  0  0  0  0  0  0  0  0  # atno 6909 bound_to 6896
  144.9264  139.5102  143.5639 H   0  0  0  0  0  0  0  0  0  0  0  0  # atno 7974 bound_to 7965
  155.5963  140.0657  157.2745 H   0  0  0  0  0  0  0  0  0  0  0  0  # atno 8008 bound_to 7997
  154.4291  140.1826  156.1174 H   0  0  0  0  0  0  0  0  0  0  0  0  # atno 8009 bound_to 7997
  156.0193  140.3318  155.7026 H   0  0  0  0  0  0  0  0  0  0  0  0  # atno 8010 bound_to 7997
  140.2992  144.2954  150.6223 H   0  0  0  0  0  0  0  0  0  0  0  0  # atno 10167 bound_to 10162
  156.3287  130.4276  149.7892 H   0  0  0  0  0  0  0  0  0  0  0  0  # atno 10718 bound_to 10713
  154.8629  135.4223  154.2367 H   0  0  0  0  0  0  0  0  0  0  0  0  # atno 10763 bound_to 10752
  153.3341  135.6990  153.6928 H   0  0  0  0  0  0  0  0  0  0  0  0  # atno 10764 bound_to 10752
  153.5933  135.3550  155.2892 H   0  0  0  0  0  0  0  0  0  0  0  0  # atno 10765 bound_to 10752
  139.9640  134.9595  156.9213 H   0  0  0  0  0  0  0  0  0  0  0  0  # atno 11005 bound_to 11000
  146.3228  139.8182  142.8932 LP  0  0  0  0  0  0  0  0  0  0  0  0  # atno 17320 bound_to 7965
  145.3212  141.0244  143.3499 LP  0  0  0  0  0  0  0  0  0  0  0  0  # atno 17321 bound_to 7965
  140.5665  143.2185  151.7674 LP  0  0  0  0  0  0  0  0  0  0  0  0  # atno 17342 bound_to 10162
  139.4919  144.4276  151.9908 LP  0  0  0  0  0  0  0  0  0  0  0  0  # atno 17343 bound_to 10162
  156.5173  130.8199  151.3191 LP  0  0  0  0  0  0  0  0  0  0  0  0  # atno 17370 bound_to 10713
  157.7426  130.9894  150.2530 LP  0  0  0  0  0  0  0  0  0  0  0  0  # atno 17371 bound_to 10713
  140.5437  134.0695  155.7349 LP  0  0  0  0  0  0  0  0  0  0  0  0  # atno 17394 bound_to 11000
  141.1319  133.9287  157.2517 LP  0  0  0  0  0  0  0  0  0  0  0  0  # atno 17395 bound_to 11000

$$$$
