AV-unprocessed.smi:1047|AV-procd|sdf|4568|dock6
  -GOLD-   22720 3 23D 1   1.00000     0.00000
 Structure written by MMmdl.
 56 58  0  0  0  0  0  0  0  0  2 V2000
  153.2552  142.4900  162.0791 C   0  0  0  0  0  0  0  0  0  0  0  0
  152.9455  141.7784  160.7542 C   0  0  0  0  0  0  0  0  0  0  0  0
  152.2602  142.6015  159.7591 N   0  0  0  0  0  0  0  0  0  0  0  0
  152.8930  143.9061  159.5799 C   0  0  0  0  0  0  0  0  0  0  0  0
  152.1807  144.7460  158.5058 C   0  0  0  0  0  0  0  0  0  0  0  0
  152.1299  144.0183  157.2829 O   0  0  0  0  0  0  0  0  0  0  0  0
  151.4623  142.7652  157.4087 C   0  0  1  0  0  0  0  0  0  0  0  0
  151.4549  142.0843  156.0337 C   0  0  0  0  0  0  0  0  0  0  0  0
  150.0745  141.8402  155.5703 N   0  3  0  0  0  0  0  0  0  0  0  0
  149.9736  140.8491  154.4809 C   0  0  0  0  0  0  0  0  0  0  0  0
  148.6107  140.1277  154.4908 C   0  0  2  0  0  0  0  0  0  0  0  0
  148.7694  138.8276  153.9587 O   0  0  0  0  0  0  0  0  0  0  0  0
  147.5313  140.8377  153.6495 C   0  0  0  0  0  0  0  0  0  0  0  0
  146.7865  141.8254  154.4093 N   0  0  0  0  0  0  0  0  0  0  0  0
  146.3248  141.6969  155.6678 C   0  0  0  0  0  0  0  0  0  0  0  0
  145.6674  142.7314  156.1833 N   0  0  0  0  0  0  0  0  0  0  0  0
  145.6999  143.6343  155.1348 C   0  0  0  0  0  0  0  0  0  0  0  0
  145.1765  144.9418  155.0338 C   0  0  0  0  0  0  0  0  0  0  0  0
  145.3357  145.6968  153.8500 C   0  0  0  0  0  0  0  0  0  0  0  0
  144.7589  147.1003  153.7862 C   0  0  0  0  0  0  0  0  0  0  0  0
  146.0274  145.1442  152.7421 C   0  0  0  0  0  0  0  0  0  0  0  0
  146.2109  145.9376  151.4605 C   0  0  0  0  0  0  0  0  0  0  0  0
  146.5544  143.8385  152.8251 C   0  0  0  0  0  0  0  0  0  0  0  0
  146.3906  143.0976  154.0091 C   0  0  0  0  0  0  0  0  0  0  0  0
  152.1991  141.9231  158.4692 C   0  0  0  0  0  0  0  0  0  0  0  0
  153.6664  141.7869  162.8035 H   0  0  0  0  0  0  0  0  0  0  0  0
  152.3530  142.9219  162.5134 H   0  0  0  0  0  0  0  0  0  0  0  0
  153.9864  143.2881  161.9532 H   0  0  0  0  0  0  0  0  0  0  0  0
  153.8679  141.3757  160.3331 H   0  0  0  0  0  0  0  0  0  0  0  0
  152.3208  140.9151  160.9870 H   0  0  0  0  0  0  0  0  0  0  0  0
  152.8864  144.4619  160.5171 H   0  0  0  0  0  0  0  0  0  0  0  0
  153.9396  143.7752  159.3008 H   0  0  0  0  0  0  0  0  0  0  0  0
  151.1697  145.0039  158.8250 H   0  0  0  0  0  0  0  0  0  0  0  0
  152.7137  145.6826  158.3418 H   0  0  0  0  0  0  0  0  0  0  0  0
  150.4334  142.9334  157.7332 H   0  0  0  0  0  0  0  0  0  0  0  0
  151.9874  142.6969  155.3048 H   0  0  0  0  0  0  0  0  0  0  0  0
  151.9755  141.1277  156.0929 H   0  0  0  0  0  0  0  0  0  0  0  0
  149.5261  141.5138  156.3531 H   0  0  0  0  0  0  0  0  0  0  0  0
  150.1110  141.3824  153.5403 H   0  0  0  0  0  0  0  0  0  0  0  0
  150.7876  140.1267  154.5592 H   0  0  0  0  0  0  0  0  0  0  0  0
  148.2526  140.0332  155.5171 H   0  0  0  0  0  0  0  0  0  0  0  0
  149.0456  138.8952  153.0578 H   0  0  0  0  0  0  0  0  0  0  0  0
  147.9805  141.3292  152.7854 H   0  0  0  0  0  0  0  0  0  0  0  0
  146.8212  140.1089  153.2558 H   0  0  0  0  0  0  0  0  0  0  0  0
  146.4846  140.7943  156.2397 H   0  0  0  0  0  0  0  0  0  0  0  0
  144.6503  145.3630  155.8779 H   0  0  0  0  0  0  0  0  0  0  0  0
  144.0542  147.1879  152.9588 H   0  0  0  0  0  0  0  0  0  0  0  0
  145.5537  147.8331  153.6446 H   0  0  0  0  0  0  0  0  0  0  0  0
  144.2283  147.3551  154.7043 H   0  0  0  0  0  0  0  0  0  0  0  0
  146.7944  145.3802  150.7272 H   0  0  0  0  0  0  0  0  0  0  0  0
  146.7323  146.8740  151.6604 H   0  0  0  0  0  0  0  0  0  0  0  0
  145.2438  146.1683  151.0133 H   0  0  0  0  0  0  0  0  0  0  0  0
  147.0831  143.4066  151.9886 H   0  0  0  0  0  0  0  0  0  0  0  0
  153.2090  141.7009  158.1209 H   0  0  0  0  0  0  0  0  0  0  0  0
  151.6916  140.9642  158.5832 H   0  0  0  0  0  0  0  0  0  0  0  0
  149.6883  142.7158  155.2467 H   0  0  0  0  0  0  0  0  0  0  0  0
  1  2  1  0  0  0  0
  1 26  1  0  0  0  0
  1 27  1  0  0  0  0
  1 28  1  0  0  0  0
  2  3  1  0  0  0  0
  2 29  1  0  0  0  0
  2 30  1  0  0  0  0
  3 25  1  0  0  0  0
  3  4  1  0  0  0  0
  4  5  1  0  0  0  0
  4 31  1  0  0  0  0
  4 32  1  0  0  0  0
  5  6  1  0  0  0  0
  5 33  1  0  0  0  0
  5 34  1  0  0  0  0
  6  7  1  0  0  0  0
  7  8  1  0  0  0  0
  7 25  1  0  0  0  0
  7 35  1  0  0  0  0
  8  9  1  0  0  0  0
  8 36  1  0  0  0  0
  8 37  1  0  0  0  0
  9 10  1  0  0  0  0
  9 38  1  0  0  0  0
  9 56  1  0  0  0  0
 10 11  1  0  0  0  0
 10 39  1  0  0  0  0
 10 40  1  0  0  0  0
 11 12  1  0  0  0  0
 11 13  1  0  0  0  0
 11 41  1  0  0  0  0
 12 42  1  0  0  0  0
 13 14  1  0  0  0  0
 13 43  1  0  0  0  0
 13 44  1  0  0  0  0
 14 24  1  0  0  0  0
 14 15  1  0  0  0  0
 15 16  2  0  0  0  0
 15 45  1  0  0  0  0
 16 17  1  0  0  0  0
 17 24  2  0  0  0  0
 17 18  1  0  0  0  0
 18 19  2  0  0  0  0
 18 46  1  0  0  0  0
 19 20  1  0  0  0  0
 19 21  1  0  0  0  0
 20 47  1  0  0  0  0
 20 48  1  0  0  0  0
 20 49  1  0  0  0  0
 21 22  1  0  0  0  0
 21 23  2  0  0  0  0
 22 50  1  0  0  0  0
 22 51  1  0  0  0  0
 22 52  1  0  0  0  0
 23 24  1  0  0  0  0
 23 53  1  0  0  0  0
 25 54  1  0  0  0  0
 25 55  1  0  0  0  0
M  CHG  1   9   1
M  END
> <s_m_source_file>
AV-unprocessed.smi

> <i_m_source_file_index>
1047

> <i_lp_mmshare_version>
43012

> <i_f3d_flags>
0

> <s_epik_input>
W0NIM11bQ0gyXU4xW0NIMl1bQ0gyXU9bQ0BIXShbQ0gyXTEpW0NIMl1bTkhdW0NIMl1bQ0BIXShbT0hdKVtDSDJdbihbY0hdbjIpYyhjMjMpW2NIXWMoW0NIM10pYyhbY0hdMylbQ0gzXQ==

> <s_epik_cmdline>
J2VwaWtfcHl0aG9uJywgJy1waCcsICc3LjAnLCAnLXRuJywgJzgnLCAnLW1hJywgJzIwMCcsICctbWV0YWxfYmluZGluZycsICctaW1hZScsICc8aW5maWxlLm1hZT4nLCAnLW9tYWUnLCAnPG91dGZpbGUubWFlPic=

> <r_epik_Ionization_Penalty>
0.692425

> <r_epik_Ionization_Penalty_Charging>
0.0243549

> <r_epik_Ionization_Penalty_Neutral>
0.66807

> <r_epik_State_Penalty>
0.592789

> <r_epik_Charging_Adjusted_Penalty>
0.617144

> <i_epik_Tot_Q>
1

> <i_epik_Tot_abs_Q>
1

> <r_epik_Metal_State_Penalty>
0.508021

> <b_epik_Metal_Only>
0

> <s_lp_Force_Field>
OPLS_2005

> <r_lp_Energy>
31.7658

> <b_lp_Chiralities_Consistent>
1

> <s_lp_Variant>
AV-unprocessed.smi:1047-9

> <Gold.Version>
5.8.1

> <Gold.Id.Protein>
6NUR|6NUR_protein|mol2

> <Gold.PLP.Fitness>
58.7407

> <Gold.PLP.PLP>
-53.6185

> <Gold.PLP.part.hbond>
-2.0000

> <Gold.PLP.part.metal>
0.0000

> <Gold.PLP.part.buried>
-5.1368

> <Gold.PLP.part.nonpolar>
-46.4616

> <Gold.PLP.part.repulsive>
0.3548

> <Gold.PLP.ligand.clash>
0.0000

> <Gold.PLP.ligand.torsion>
2.0063

> <Gold.PLP.Chemscore.Hbond>
2.9840

> <Gold.PLP.Chemscore.CHOScore>
0.0000

> <Gold.PLP.Chemscore.Metal>
0.0000

> <Gold.Chemscore.Hbonds>
donor molecule, donor type, donor heavy atom, donor atom, acceptor molecule, acceptor atom, score
      L1  H     9    56       P1  8028  1.20
      L1  H    12    42       P1  7957  0.37

> <Gold.PLP.Chemscore.Internal.Correction>
0.1827

> <Gold.Rescore>
     Score         DG    S(hbond)    S(metal)    S(lipo)     H(rot)  DE(clash)    DE(int)     intcor
     18.72     -22.60       1.88        0.00     149.74       2.60       1.77       2.11       ----

> <Gold.Chemscore.Fitness>
18.7170

> <Gold.Chemscore.DG>
-22.5958

> <Gold.Chemscore.ZeroCoef>
-5.4800

> <Gold.Chemscore.Hbond>
1.8756

> <Gold.Chemscore.Metal>
0.0000

> <Gold.Chemscore.Lipo>
149.7406

> <Gold.Chemscore.Internal_Hbond>
0.0000

> <Gold.Chemscore.DEClash>
1.7666

> <Gold.Chemscore.DEInternal>
2.1122

> <Gold.Chemscore.Rot>
2.6049

> <Gold.Chemscore.Internal.Correction>
   9.000000E+99

> <Gold.Chemscore.Hbonds>
donor molecule, donor type, donor heavy atom, donor atom, acceptor molecule, acceptor atom, score
      L1  H     9    56       P1  8028  0.58
      L1  H    12    42       P1  7957  0.36

> <Gold.Chemscore.Hbond.Weighted>
-6.2646

> <Gold.Chemscore.Metal.Weighted>
-0.0000

> <Gold.Chemscore.Lipo.Weighted>
-17.5196

> <Gold.Chemscore.Internal_Hbond.Weighted>
0.0000

> <Gold.Chemscore.DEClash.Weighted>
1.7666

> <Gold.Chemscore.DEInternal.Weighted>
2.1122

> <Gold.Chemscore.Rot.Weighted>
6.6685

> <Gold.Chemscore.Internal.Correction.Weighted>
   9.000000E+99

> <Gold.Protein.RotatedTorsions>
[ 6907 6896 6895 6894 ] final  -10.57 input  -60.11 | X-H torsion
[ 7974 7965 7964 7962 ] final   50.09 input  175.53 | X-H torsion
[ 8008 7997 7996 7995 ] final  142.14 input   59.86 | X-H torsion
[ 10167 10162 10161 10158 ] final  -26.40 input  -65.29 | X-H torsion
[ 10718 10713 10712 10709 ] final -158.86 input   66.30 | X-H torsion
[ 10763 10752 10751 10750 ] final  -25.63 input  -60.55 | X-H torsion
[ 11005 11000 10999 10996 ] final   72.35 input  -57.11 | X-H torsion

> <Gold.Protein.ActiveResidues>
 VAL166  LYS551  ARG553  GLY616  TRP617  ASP618  TYR619  PRO620  LYS621  CYS622 
 ASP623  PHE694  ASN695  SER759  ASP760  ASP761  ALA762  ILE779  LEU786  VAL792 
 PHE793  MET794  SER795  GLU796  ALA797  LYS798  CYS799  TRP800  GLU811  SER814 

> <Gold.Protein.RotatedAtoms>
  151.3998  135.0969  159.9552 H   0  0  0  0  0  0  0  0  0  0  0  0  # atno 6907 bound_to 6896
  152.5054  133.8899  159.7399 H   0  0  0  0  0  0  0  0  0  0  0  0  # atno 6908 bound_to 6896
  150.9370  133.6643  159.2827 H   0  0  0  0  0  0  0  0  0  0  0  0  # atno 6909 bound_to 6896
  146.0046  139.4476  142.9994 H   0  0  0  0  0  0  0  0  0  0  0  0  # atno 7974 bound_to 7965
  156.2954  140.2296  156.4679 H   0  0  0  0  0  0  0  0  0  0  0  0  # atno 8008 bound_to 7997
  154.7961  140.0451  157.1258 H   0  0  0  0  0  0  0  0  0  0  0  0  # atno 8009 bound_to 7997
  154.9588  140.3051  155.5044 H   0  0  0  0  0  0  0  0  0  0  0  0  # atno 8010 bound_to 7997
  140.7283  143.4181  151.0995 H   0  0  0  0  0  0  0  0  0  0  0  0  # atno 10167 bound_to 10162
  156.5600  130.8643  151.2806 H   0  0  0  0  0  0  0  0  0  0  0  0  # atno 10718 bound_to 10713
  153.7029  135.6955  153.5058 H   0  0  0  0  0  0  0  0  0  0  0  0  # atno 10763 bound_to 10752
  153.2329  135.4331  155.0613 H   0  0  0  0  0  0  0  0  0  0  0  0  # atno 10764 bound_to 10752
  154.8338  135.3488  154.6568 H   0  0  0  0  0  0  0  0  0  0  0  0  # atno 10765 bound_to 10752
  139.9495  134.7252  156.0896 H   0  0  0  0  0  0  0  0  0  0  0  0  # atno 11005 bound_to 11000
  145.7436  140.9999  143.1288 LP  0  0  0  0  0  0  0  0  0  0  0  0  # atno 17320 bound_to 7965
  144.6931  139.9128  143.7464 LP  0  0  0  0  0  0  0  0  0  0  0  0  # atno 17321 bound_to 7965
  139.7824  143.8336  152.3139 LP  0  0  0  0  0  0  0  0  0  0  0  0  # atno 17342 bound_to 10162
  139.8292  144.7261  150.9472 LP  0  0  0  0  0  0  0  0  0  0  0  0  # atno 17343 bound_to 10162
  157.7370  130.9789  150.2170 LP  0  0  0  0  0  0  0  0  0  0  0  0  # atno 17370 bound_to 10713
  156.2807  130.3733  149.7938 LP  0  0  0  0  0  0  0  0  0  0  0  0  # atno 17371 bound_to 10713
  141.1155  133.6629  156.3082 LP  0  0  0  0  0  0  0  0  0  0  0  0  # atno 17394 bound_to 11000
  140.5753  134.5800  157.5467 LP  0  0  0  0  0  0  0  0  0  0  0  0  # atno 17395 bound_to 11000

$$$$
