AV-unprocessed.smi:72|AV-procd|sdf|733|dock1
  -GOLD-   2262017 63D 1   1.00000     0.00000
 Structure written by MMmdl.
 28 29  0  0  0  0  0  0  0  0  2 V2000
  148.0110  135.3685  160.1425 N   0  0  0  0  0  0  0  0  0  0  0  0
  148.6905  135.9727  159.2689 C   0  0  0  0  0  0  0  0  0  0  0  0
  148.7011  137.4185  159.2329 N   0  0  0  0  0  0  0  0  0  0  0  0
  149.3820  137.9960  158.2913 C   0  0  0  0  0  0  0  0  0  0  0  0
  150.1003  137.2306  157.2774 N   0  0  0  0  0  0  0  0  0  0  0  0
  150.9103  137.8914  156.1707 C   0  0  2  0  0  0  0  0  0  0  0  0
  150.6542  139.2645  156.1292 O   0  0  0  0  0  0  0  0  0  0  0  0
  149.6425  139.5345  155.1667 C   0  0  1  0  0  0  0  0  0  0  0  0
  149.6960  141.0122  154.7514 C   0  0  0  0  0  0  0  0  0  0  0  0
  149.0464  141.1910  153.5108 O   0  0  0  0  0  0  0  0  0  0  0  0
  150.0094  138.5668  154.0408 C   0  0  2  0  0  0  0  0  0  0  0  0
  148.8669  138.2495  153.2714 O   0  0  0  0  0  0  0  0  0  0  0  0
  150.5196  137.3341  154.7833 C   0  0  1  0  0  0  0  0  0  0  0  0
  151.6342  136.7864  154.1093 O   0  0  0  0  0  0  0  0  0  0  0  0
  150.1202  135.8125  157.3781 C   0  0  0  0  0  0  0  0  0  0  0  0
  150.7877  135.1824  156.5572 O   0  0  0  0  0  0  0  0  0  0  0  0
  149.4084  135.2131  158.3726 N   0  5  0  0  0  0  0  0  0  0  0  0
  151.9515  137.7227  156.4514 H   0  0  0  0  0  0  0  0  0  0  0  0
  148.6617  139.2752  155.5706 H   0  0  0  0  0  0  0  0  0  0  0  0
  150.7897  138.9980  153.4110 H   0  0  0  0  0  0  0  0  0  0  0  0
  149.7371  136.5803  154.8874 H   0  0  0  0  0  0  0  0  0  0  0  0
  147.5169  135.9986  160.7573 H   0  0  0  0  0  0  0  0  0  0  0  0
  149.4545  139.0803  158.2094 H   0  0  0  0  0  0  0  0  0  0  0  0
  149.2503  141.6547  155.5114 H   0  0  0  0  0  0  0  0  0  0  0  0
  150.7318  141.3285  154.6262 H   0  0  0  0  0  0  0  0  0  0  0  0
  149.0253  140.3608  153.0603 H   0  0  0  0  0  0  0  0  0  0  0  0
  148.8962  137.3280  153.0638 H   0  0  0  0  0  0  0  0  0  0  0  0
  151.3572  136.5334  153.2411 H   0  0  0  0  0  0  0  0  0  0  0  0
  1  2  2  0  0  0  0
  1 22  1  0  0  0  0
  2 17  1  0  0  0  0
  2  3  1  0  0  0  0
  3  4  2  0  0  0  0
  4  5  1  0  0  0  0
  4 23  1  0  0  0  0
  5  6  1  0  0  0  0
  5 15  1  0  0  0  0
  6 18  1  0  0  0  0
  6 13  1  0  0  0  0
  6  7  1  0  0  0  0
  7  8  1  0  0  0  0
  8 19  1  0  0  0  0
  8  9  1  0  0  0  0
  8 11  1  0  0  0  0
  9 10  1  0  0  0  0
  9 24  1  0  0  0  0
  9 25  1  0  0  0  0
 10 26  1  0  0  0  0
 11 20  1  0  0  0  0
 11 12  1  0  0  0  0
 11 13  1  0  0  0  0
 12 27  1  0  0  0  0
 13 21  1  0  0  0  0
 13 14  1  0  0  0  0
 14 28  1  0  0  0  0
 15 16  2  0  0  0  0
 15 17  1  0  0  0  0
M  CHG  1  17  -1
M  END
> <s_m_source_file>
AV-unprocessed.smi

> <i_m_source_file_index>
72

> <i_lp_mmshare_version>
43012

> <i_f3d_flags>
0

> <s_epik_input>
W05IMl1jMW5bY0hdbihjKD1PKW4xKVtDQEBIXTJPW0NASF0oW0NIMl1bT0hdKVtDQEBIXShbT0hdKVtDQEhdMltPSF0=

> <s_epik_cmdline>
J2VwaWtfcHl0aG9uJywgJy1waCcsICc3LjAnLCAnLXRuJywgJzgnLCAnLW1hJywgJzIwMCcsICctbWV0YWxfYmluZGluZycsICctaW1hZScsICc8aW5maWxlLm1hZT4nLCAnLW9tYWUnLCAnPG91dGZpbGUubWFlPic=

> <r_lp_tautomer_probability>
7.17554e-07

> <r_epik_Ionization_Penalty>
12.8705

> <r_epik_Ionization_Penalty_Charging>
5.64144

> <r_epik_Ionization_Penalty_Neutral>
7.22905

> <r_epik_State_Penalty>
3.30104

> <r_epik_Charging_Adjusted_Penalty>
8.94249

> <i_epik_Tot_Q>
-1

> <i_epik_Tot_abs_Q>
1

> <r_epik_Metal_State_Penalty>
0.529074

> <b_epik_Metal_Only>
1

> <s_epik_Chemistry_Notes>
This compound contains an acetal/aminal-like group ( X-CH(R)-Y where X, Y are N, S, or O) that may be acid/base labile, releasing an aldehyde.

> <s_lp_Force_Field>
OPLS_2005

> <r_lp_Energy>
30.1413

> <b_lp_Chiralities_Consistent>
1

> <s_lp_Variant>
AV-unprocessed.smi:72-71

> <Gold.Version>
5.8.1

> <Gold.Id.Protein>
6NUR|6NUR_protein|mol2

> <Gold.PLP.Fitness>
43.1217

> <Gold.PLP.PLP>
-24.0834

> <Gold.PLP.part.hbond>
-9.0205

> <Gold.PLP.part.metal>
0.0000

> <Gold.PLP.part.buried>
-2.7765

> <Gold.PLP.part.nonpolar>
-11.4701

> <Gold.PLP.part.repulsive>
0.0000

> <Gold.PLP.ligand.clash>
0.0000

> <Gold.PLP.ligand.torsion>
0.2662

> <Gold.PLP.Chemscore.Hbond>
6.5120

> <Gold.PLP.Chemscore.CHOScore>
0.0000

> <Gold.PLP.Chemscore.Metal>
0.0000

> <Gold.Chemscore.Hbonds>
donor molecule, donor type, donor heavy atom, donor atom, acceptor molecule, acceptor atom, score
      L1  H    10    26       P1  7957  0.51
      L1  H    12    27       P1  7948  0.88
      L1  H    14    28       P1  7949  1.00
      P1  H  6896  6909       L1    17  2.00
      P1  H  8011  8017       L1    10  0.98
      P1  H 10752 10765       L1    14  1.00

> <Gold.PLP.Chemscore.Internal.Correction>
0.0347

> <Gold.Rescore>
     Score         DG    S(hbond)    S(metal)    S(lipo)     H(rot)  DE(clash)    DE(int)     intcor
     11.70     -12.47       4.19        0.00      28.50       4.04       0.45       0.32       ----

> <Gold.Chemscore.Fitness>
11.7011

> <Gold.Chemscore.DG>
-12.4665

> <Gold.Chemscore.ZeroCoef>
-5.4800

> <Gold.Chemscore.Hbond>
4.1903

> <Gold.Chemscore.Metal>
0.0000

> <Gold.Chemscore.Lipo>
28.4959

> <Gold.Chemscore.Internal_Hbond>
0.0000

> <Gold.Chemscore.DEClash>
0.4495

> <Gold.Chemscore.DEInternal>
0.3159

> <Gold.Chemscore.Rot>
4.0403

> <Gold.Chemscore.Internal.Correction>
   9.000000E+99

> <Gold.Chemscore.Hbonds>
donor molecule, donor type, donor heavy atom, donor atom, acceptor molecule, acceptor atom, score
      L1  H    10    26       P1  7957  0.48
      L1  H    12    27       P1  7948  0.86
      L1  H    14    28       P1  7949  0.74
      P1  H  6896  6909       L1    17  0.27
      P1  H  8011  8017       L1    10  0.53
      P1  H 10752 10765       L1    14  0.34

> <Gold.Chemscore.Hbond.Weighted>
-13.9956

> <Gold.Chemscore.Metal.Weighted>
-0.0000

> <Gold.Chemscore.Lipo.Weighted>
-3.3340

> <Gold.Chemscore.Internal_Hbond.Weighted>
0.0000

> <Gold.Chemscore.DEClash.Weighted>
0.4495

> <Gold.Chemscore.DEInternal.Weighted>
0.3159

> <Gold.Chemscore.Rot.Weighted>
10.3431

> <Gold.Chemscore.Internal.Correction.Weighted>
   9.000000E+99

> <Gold.Protein.RotatedTorsions>
[ 6907 6896 6895 6894 ] final   30.42 input  -60.11 | X-H torsion
[ 7974 7965 7964 7962 ] final   43.98 input  175.53 | X-H torsion
[ 8008 7997 7996 7995 ] final  -39.90 input   59.86 | X-H torsion
[ 10167 10162 10161 10158 ] final   33.06 input  -65.29 | X-H torsion
[ 10718 10713 10712 10709 ] final    3.43 input   66.30 | X-H torsion
[ 10763 10752 10751 10750 ] final  172.17 input  -60.55 | X-H torsion
[ 11005 11000 10999 10996 ] final  155.61 input  -57.11 | X-H torsion

> <Gold.Protein.ActiveResidues>
 VAL166  LYS551  ARG553  GLY616  TRP617  ASP618  TYR619  PRO620  LYS621  CYS622 
 ASP623  PHE694  ASN695  SER759  ASP760  ASP761  ALA762  ILE779  LEU786  VAL792 
 PHE793  MET794  SER795  GLU796  ALA797  LYS798  CYS799  TRP800  GLU811  SER814 

> <Gold.Protein.RotatedAtoms>
  152.0458  134.9684  160.0574 H   0  0  0  0  0  0  0  0  0  0  0  0  # atno 6907 bound_to 6896
  152.1104  133.4293  159.4637 H   0  0  0  0  0  0  0  0  0  0  0  0  # atno 6908 bound_to 6896
  150.6843  134.2573  159.4578 H   0  0  0  0  0  0  0  0  0  0  0  0  # atno 6909 bound_to 6896
  146.0608  139.5125  142.9659 H   0  0  0  0  0  0  0  0  0  0  0  0  # atno 7974 bound_to 7965
  154.4018  140.1539  156.2939 H   0  0  0  0  0  0  0  0  0  0  0  0  # atno 8008 bound_to 7997
  155.8760  140.3446  155.5833 H   0  0  0  0  0  0  0  0  0  0  0  0  # atno 8009 bound_to 7997
  155.7720  140.0831  157.2093 H   0  0  0  0  0  0  0  0  0  0  0  0  # atno 8010 bound_to 7997
  140.4442  144.1144  150.6179 H   0  0  0  0  0  0  0  0  0  0  0  0  # atno 10167 bound_to 10162
  156.8777  130.5642  149.5654 H   0  0  0  0  0  0  0  0  0  0  0  0  # atno 10718 bound_to 10713
  154.4223  135.2758  155.1967 H   0  0  0  0  0  0  0  0  0  0  0  0  # atno 10763 bound_to 10752
  154.3908  135.6066  153.5845 H   0  0  0  0  0  0  0  0  0  0  0  0  # atno 10764 bound_to 10752
  152.9833  135.5903  154.4521 H   0  0  0  0  0  0  0  0  0  0  0  0  # atno 10765 bound_to 10752
  140.1597  134.8618  157.2559 H   0  0  0  0  0  0  0  0  0  0  0  0  # atno 11005 bound_to 11000
  145.6563  141.0251  143.1733 LP  0  0  0  0  0  0  0  0  0  0  0  0  # atno 17320 bound_to 7965
  144.7174  139.8149  143.7394 LP  0  0  0  0  0  0  0  0  0  0  0  0  # atno 17321 bound_to 7965
  140.4283  143.2579  151.9627 LP  0  0  0  0  0  0  0  0  0  0  0  0  # atno 17342 bound_to 10162
  139.4791  144.5767  151.8000 LP  0  0  0  0  0  0  0  0  0  0  0  0  # atno 17343 bound_to 10162
  156.0693  130.5729  150.9352 LP  0  0  0  0  0  0  0  0  0  0  0  0  # atno 17370 bound_to 10713
  157.6158  131.0933  150.8712 LP  0  0  0  0  0  0  0  0  0  0  0  0  # atno 17371 bound_to 10713
  140.2504  134.3690  155.7444 LP  0  0  0  0  0  0  0  0  0  0  0  0  # atno 17394 bound_to 11000
  141.2208  133.7313  156.8927 LP  0  0  0  0  0  0  0  0  0  0  0  0  # atno 17395 bound_to 11000

$$$$
