AV-unprocessed.smi:1867|AV-procd|sdf|7564|dock1
  -GOLD-   22720 9283D 1   1.00000     0.00000
 Structure written by MMmdl.
 52 55  0  0  0  0  0  0  0  0  2 V2000
  147.3662  136.0641  156.0812 O   0  0  0  0  0  0  0  0  0  0  0  0
  147.8538  136.1005  154.9542 C   0  0  0  0  0  0  0  0  0  0  0  0
  148.7484  137.0150  154.5314 N   0  0  0  0  0  0  0  0  0  0  0  0
  149.3490  138.0771  155.2590 C   0  0  0  0  0  0  0  0  0  0  0  0
  149.3652  138.1733  156.6701 C   0  0  0  0  0  0  0  0  0  0  0  0
  150.0113  139.2707  157.2710 C   0  0  0  0  0  0  0  0  0  0  0  0
  150.6351  140.2401  156.4500 C   0  0  0  0  0  0  0  0  0  0  0  0
  151.2864  141.3558  157.0123 N   0  0  0  0  0  0  0  0  0  0  0  0
  151.7056  141.3777  158.4051 C   0  0  0  0  0  0  0  0  0  0  0  0
  152.2306  142.7949  158.6280 C   0  0  0  0  0  0  0  0  0  0  0  0
  151.3596  143.6374  157.6965 C   0  0  0  0  0  0  0  0  0  0  0  0
  151.0640  142.7064  156.5145 C   0  0  0  0  0  0  0  0  0  0  0  0
  150.6240  140.1411  155.0993 N   0  0  0  0  0  0  0  0  0  0  0  0
  150.0045  139.0878  154.5284 C   0  0  0  0  0  0  0  0  0  0  0  0
  147.4999  135.2028  154.0168 N   0  0  0  0  0  0  0  0  0  0  0  0
  146.5594  134.0866  154.1422 C   0  0  2  0  0  0  0  0  0  0  0  0
  147.2257  132.7253  153.9862 C   0  0  0  0  0  0  0  0  0  0  0  0
  146.0485  131.7960  153.6748 C   0  0  0  0  0  0  0  0  0  0  0  0
  145.0024  132.6291  153.0325 N   0  3  2  0  0  0  0  0  0  0  0  0
  144.5703  132.1334  151.6982 C   0  0  0  0  0  0  0  0  0  0  0  0
  143.8004  133.2190  150.9320 C   0  0  0  0  0  0  0  0  0  0  0  0
  144.6809  134.4549  150.6672 C   0  0  0  0  0  0  0  0  0  0  0  0
  145.8416  134.5788  151.6727 C   0  0  0  0  0  0  0  0  0  0  0  0
  145.4473  134.0517  153.0743 C   0  0  2  0  0  0  0  0  0  0  0  0
  148.9925  136.9738  153.5530 H   0  0  0  0  0  0  0  0  0  0  0  0
  148.9094  137.4284  157.3033 H   0  0  0  0  0  0  0  0  0  0  0  0
  150.0164  139.3540  158.3476 H   0  0  0  0  0  0  0  0  0  0  0  0
  150.8460  141.1806  159.0472 H   0  0  0  0  0  0  0  0  0  0  0  0
  152.4700  140.6274  158.6094 H   0  0  0  0  0  0  0  0  0  0  0  0
  152.1722  143.1102  159.6700 H   0  0  0  0  0  0  0  0  0  0  0  0
  153.2732  142.8569  158.3131 H   0  0  0  0  0  0  0  0  0  0  0  0
  150.4275  143.8913  158.2031 H   0  0  0  0  0  0  0  0  0  0  0  0
  151.8394  144.5677  157.3922 H   0  0  0  0  0  0  0  0  0  0  0  0
  151.7532  142.8961  155.6907 H   0  0  0  0  0  0  0  0  0  0  0  0
  150.0458  142.8504  156.1516 H   0  0  0  0  0  0  0  0  0  0  0  0
  150.0305  139.0548  153.4489 H   0  0  0  0  0  0  0  0  0  0  0  0
  147.9270  135.3162  153.1085 H   0  0  0  0  0  0  0  0  0  0  0  0
  146.1006  134.1104  155.1331 H   0  0  0  0  0  0  0  0  0  0  0  0
  147.9193  132.7369  153.1438 H   0  0  0  0  0  0  0  0  0  0  0  0
  147.7805  132.4191  154.8737 H   0  0  0  0  0  0  0  0  0  0  0  0
  146.3582  130.9466  153.0642 H   0  0  0  0  0  0  0  0  0  0  0  0
  145.6343  131.3949  154.6004 H   0  0  0  0  0  0  0  0  0  0  0  0
  145.4378  131.8277  151.1103 H   0  0  0  0  0  0  0  0  0  0  0  0
  143.9519  131.2455  151.8325 H   0  0  0  0  0  0  0  0  0  0  0  0
  143.4184  132.8248  149.9898 H   0  0  0  0  0  0  0  0  0  0  0  0
  142.9264  133.5116  151.5159 H   0  0  0  0  0  0  0  0  0  0  0  0
  145.0909  134.4133  149.6574 H   0  0  0  0  0  0  0  0  0  0  0  0
  144.0574  135.3489  150.7040 H   0  0  0  0  0  0  0  0  0  0  0  0
  146.7002  134.0154  151.3042 H   0  0  0  0  0  0  0  0  0  0  0  0
  146.1602  135.6204  151.7172 H   0  0  0  0  0  0  0  0  0  0  0  0
  144.6067  134.6532  153.4233 H   0  0  0  0  0  0  0  0  0  0  0  0
  144.1926  132.5773  153.6339 H   0  0  0  0  0  0  0  0  0  0  0  0
  1  2  2  0  0  0  0
  2  3  1  0  0  0  0
  2 15  1  0  0  0  0
  3  4  1  0  0  0  0
  3 25  1  0  0  0  0
  4 14  1  0  0  0  0
  4  5  2  0  0  0  0
  5  6  1  0  0  0  0
  5 26  1  0  0  0  0
  6  7  2  0  0  0  0
  6 27  1  0  0  0  0
  7  8  1  0  0  0  0
  7 13  1  0  0  0  0
  8 12  1  0  0  0  0
  8  9  1  0  0  0  0
  9 10  1  0  0  0  0
  9 28  1  0  0  0  0
  9 29  1  0  0  0  0
 10 11  1  0  0  0  0
 10 30  1  0  0  0  0
 10 31  1  0  0  0  0
 11 12  1  0  0  0  0
 11 32  1  0  0  0  0
 11 33  1  0  0  0  0
 12 34  1  0  0  0  0
 12 35  1  0  0  0  0
 13 14  2  0  0  0  0
 14 36  1  0  0  0  0
 15 16  1  0  0  0  0
 15 37  1  0  0  0  0
 16 24  1  0  0  0  0
 16 17  1  0  0  0  0
 16 38  1  0  0  0  0
 17 18  1  0  0  0  0
 17 39  1  0  0  0  0
 17 40  1  0  0  0  0
 18 19  1  0  0  0  0
 18 41  1  0  0  0  0
 18 42  1  0  0  0  0
 19 24  1  0  0  0  0
 19 20  1  0  0  0  0
 19 52  1  0  0  0  0
 20 21  1  0  0  0  0
 20 43  1  0  0  0  0
 20 44  1  0  0  0  0
 21 22  1  0  0  0  0
 21 45  1  0  0  0  0
 21 46  1  0  0  0  0
 22 23  1  0  0  0  0
 22 47  1  0  0  0  0
 22 48  1  0  0  0  0
 23 24  1  0  0  0  0
 23 49  1  0  0  0  0
 23 50  1  0  0  0  0
 24 51  1  0  0  0  0
M  CHG  1  19   1
M  END
> <s_m_source_file>
AV-unprocessed.smi

> <i_m_source_file_index>
1867

> <i_lp_mmshare_version>
43012

> <i_f3d_flags>
0

> <s_epik_input>
W0NIMl0xW0NIMl1bQ0gyXVtDSDJdW0NASF0oTjEyKVtDQEBIXShbQ0gyXVtDSDJdMilbTkhdQyg9TylbTkhdYzNbY0hdW2NIXWMobltjSF0zKU40W0NIMl1bQ0gyXVtDSDJdW0NIMl00

> <s_epik_cmdline>
J2VwaWtfcHl0aG9uJywgJy1waCcsICc3LjAnLCAnLXRuJywgJzgnLCAnLW1hJywgJzIwMCcsICctbWV0YWxfYmluZGluZycsICctaW1hZScsICc8aW5maWxlLm1hZT4nLCAnLW9tYWUnLCAnPG91dGZpbGUubWFlPic=

> <r_lp_tautomer_probability>
1

> <r_epik_Ionization_Penalty>
0.0751123

> <r_epik_Ionization_Penalty_Charging>
0.000974069

> <r_epik_Ionization_Penalty_Neutral>
0.0741382

> <r_epik_State_Penalty>
0.0647261

> <r_epik_Charging_Adjusted_Penalty>
0.0657002

> <i_epik_Tot_Q>
1

> <i_epik_Tot_abs_Q>
1

> <r_epik_Metal_State_Penalty>
0.0580571

> <b_epik_Metal_Only>
0

> <s_lp_Force_Field>
OPLS_2005

> <r_lp_Energy>
76.8202

> <b_lp_Chiralities_Consistent>
1

> <s_lp_Variant>
AV-unprocessed.smi:1867-5

> <Gold.Version>
5.8.1

> <Gold.Id.Protein>
6NUR|6NUR_protein|mol2

> <Gold.PLP.Fitness>
50.1392

> <Gold.PLP.PLP>
-33.5236

> <Gold.PLP.part.hbond>
-4.0000

> <Gold.PLP.part.metal>
0.0000

> <Gold.PLP.part.buried>
-5.4102

> <Gold.PLP.part.nonpolar>
-26.2502

> <Gold.PLP.part.repulsive>
0.0717

> <Gold.PLP.ligand.clash>
0.0000

> <Gold.PLP.ligand.torsion>
0.5643

> <Gold.PLP.Chemscore.Hbond>
4.8525

> <Gold.PLP.Chemscore.CHOScore>
1.0000

> <Gold.PLP.Chemscore.Metal>
0.0000

> <Gold.Chemscore.Hbonds>
donor molecule, donor type, donor heavy atom, donor atom, acceptor molecule, acceptor atom, score
      L1  H     3    25       P1  7948  1.00
      L1  H    15    37       P1  7948  1.00
      L1  H    19    52       P1 10957  1.82
      P1  H  7989  7998       L1    13  1.00
      L1  C    14    36       P1  7957  1.00

> <Gold.PLP.Chemscore.Internal.Correction>
0.1867

> <Gold.Rescore>
     Score         DG    S(hbond)    S(metal)    S(lipo)     H(rot)  DE(clash)    DE(int)     intcor
     21.69     -23.72       3.12        0.00      88.80       1.00       0.32       1.71       ----

> <Gold.Chemscore.Fitness>
21.6861

> <Gold.Chemscore.DG>
-23.7184

> <Gold.Chemscore.ZeroCoef>
-5.4800

> <Gold.Chemscore.Hbond>
3.1163

> <Gold.Chemscore.Metal>
0.0000

> <Gold.Chemscore.Lipo>
88.8016

> <Gold.Chemscore.Internal_Hbond>
0.0000

> <Gold.Chemscore.DEClash>
0.3214

> <Gold.Chemscore.DEInternal>
1.7109

> <Gold.Chemscore.Rot>
1.0000

> <Gold.Chemscore.Internal.Correction>
   9.000000E+99

> <Gold.Chemscore.Hbonds>
donor molecule, donor type, donor heavy atom, donor atom, acceptor molecule, acceptor atom, score
      L1  H     3    25       P1  7948  0.98
      L1  H    15    37       P1  7948  0.98
      L1  H    19    52       P1 10957  0.39
      P1  H  7989  7998       L1    13  0.24

> <Gold.Chemscore.Hbond.Weighted>
-10.4086

> <Gold.Chemscore.Metal.Weighted>
-0.0000

> <Gold.Chemscore.Lipo.Weighted>
-10.3898

> <Gold.Chemscore.Internal_Hbond.Weighted>
0.0000

> <Gold.Chemscore.DEClash.Weighted>
0.3214

> <Gold.Chemscore.DEInternal.Weighted>
1.7109

> <Gold.Chemscore.Rot.Weighted>
2.5600

> <Gold.Chemscore.Internal.Correction.Weighted>
   9.000000E+99

> <Gold.Protein.RotatedTorsions>
[ 6907 6896 6895 6894 ] final   47.98 input  -60.11 | X-H torsion
[ 7974 7965 7964 7962 ] final  155.61 input  175.53 | X-H torsion
[ 8008 7997 7996 7995 ] final  -74.52 input   59.86 | X-H torsion
[ 10167 10162 10161 10158 ] final  144.61 input  -65.29 | X-H torsion
[ 10718 10713 10712 10709 ] final  102.49 input   66.30 | X-H torsion
[ 10763 10752 10751 10750 ] final  104.60 input  -60.55 | X-H torsion
[ 11005 11000 10999 10996 ] final  -24.98 input  -57.11 | X-H torsion

> <Gold.Protein.ActiveResidues>
 VAL166  LYS551  ARG553  GLY616  TRP617  ASP618  TYR619  PRO620  LYS621  CYS622 
 ASP623  PHE694  ASN695  SER759  ASP760  ASP761  ALA762  ILE779  LEU786  VAL792 
 PHE793  MET794  SER795  GLU796  ALA797  LYS798  CYS799  TRP800  GLU811  SER814 

> <Gold.Protein.RotatedAtoms>
  152.2743  134.7899  160.0408 H   0  0  0  0  0  0  0  0  0  0  0  0  # atno 6907 bound_to 6896
  151.8501  133.3433  159.3678 H   0  0  0  0  0  0  0  0  0  0  0  0  # atno 6908 bound_to 6896
  150.7164  134.5236  159.5710 H   0  0  0  0  0  0  0  0  0  0  0  0  # atno 6909 bound_to 6896
  144.8014  139.7091  143.6180 H   0  0  0  0  0  0  0  0  0  0  0  0  # atno 7974 bound_to 7965
  154.5338  140.0760  156.8391 H   0  0  0  0  0  0  0  0  0  0  0  0  # atno 8008 bound_to 7997
  155.3321  140.3402  155.4221 H   0  0  0  0  0  0  0  0  0  0  0  0  # atno 8009 bound_to 7997
  156.1807  140.1651  156.8265 H   0  0  0  0  0  0  0  0  0  0  0  0  # atno 8010 bound_to 7997
  139.4943  144.5960  151.6583 H   0  0  0  0  0  0  0  0  0  0  0  0  # atno 10167 bound_to 10162
  157.6800  131.0754  150.5412 H   0  0  0  0  0  0  0  0  0  0  0  0  # atno 10718 bound_to 10713
  153.3681  135.3938  155.1768 H   0  0  0  0  0  0  0  0  0  0  0  0  # atno 10763 bound_to 10752
  154.8690  135.3696  154.5013 H   0  0  0  0  0  0  0  0  0  0  0  0  # atno 10764 bound_to 10752
  153.5478  135.7083  153.5666 H   0  0  0  0  0  0  0  0  0  0  0  0  # atno 10765 bound_to 10752
  140.8895  133.7598  156.0403 H   0  0  0  0  0  0  0  0  0  0  0  0  # atno 11005 bound_to 11000
  146.2296  139.5788  142.9564 LP  0  0  0  0  0  0  0  0  0  0  0  0  # atno 17320 bound_to 7965
  145.5544  141.0410  143.2261 LP  0  0  0  0  0  0  0  0  0  0  0  0  # atno 17321 bound_to 7965
  140.5598  144.0288  150.6164 LP  0  0  0  0  0  0  0  0  0  0  0  0  # atno 17342 bound_to 10162
  140.3370  143.3042  152.0628 LP  0  0  0  0  0  0  0  0  0  0  0  0  # atno 17343 bound_to 10162
  156.5719  130.4282  149.6016 LP  0  0  0  0  0  0  0  0  0  0  0  0  # atno 17370 bound_to 10713
  156.2734  130.7029  151.1833 LP  0  0  0  0  0  0  0  0  0  0  0  0  # atno 17371 bound_to 10713
  140.8364  134.3118  157.5330 LP  0  0  0  0  0  0  0  0  0  0  0  0  # atno 17394 bound_to 11000
  139.8728  134.9392  156.3734 LP  0  0  0  0  0  0  0  0  0  0  0  0  # atno 17395 bound_to 11000

$$$$
