AV-unprocessed.smi:2724|AV-procd|sdf|10510|dock6
  -GOLD-   2272014553D 1   1.00000     0.00000
 Structure written by MMmdl.
 25 26  0  0  0  0  0  0  0  0  1 V2000
  153.1341  140.0076  158.1808 O   0  0  0  0  0  0  0  0  0  0  0  0
  153.1726  140.0738  159.5912 C   0  0  1  0  0  0  0  0  0  0  0  0
  153.9165  138.8775  160.1828 C   0  0  0  0  0  0  0  0  0  0  0  0
  154.3295  139.3489  161.5771 C   0  0  0  0  0  0  0  0  0  0  0  0
  154.5400  140.8661  161.4617 C   0  0  0  0  0  0  0  0  0  0  0  0
  153.9686  141.2890  160.0928 C   0  0  2  0  0  0  0  0  0  0  0  0
  153.1591  142.5783  160.1412 C   0  0  0  0  0  0  0  0  0  0  0  0
  152.7337  143.2293  158.9625 C   0  0  0  0  0  0  0  0  0  0  0  0
  151.9913  144.4206  159.0711 C   0  0  0  0  0  0  0  0  0  0  0  0
  151.7030  144.9155  160.3581 C   0  0  0  0  0  0  0  0  0  0  0  0
  152.1038  144.3044  161.4934 N   0  0  0  0  0  0  0  0  0  0  0  0
  152.8150  143.1622  161.3799 C   0  0  0  0  0  0  0  0  0  0  0  0
  152.2305  140.0321  157.9048 H   0  0  0  0  0  0  0  0  0  0  0  0
  152.1553  140.0830  159.9845 H   0  0  0  0  0  0  0  0  0  0  0  0
  153.3087  137.9724  160.2065 H   0  0  0  0  0  0  0  0  0  0  0  0
  154.8107  138.6631  159.5953 H   0  0  0  0  0  0  0  0  0  0  0  0
  153.5222  139.1467  162.2825 H   0  0  0  0  0  0  0  0  0  0  0  0
  155.2183  138.8318  161.9397 H   0  0  0  0  0  0  0  0  0  0  0  0
  154.0367  141.3636  162.2915 H   0  0  0  0  0  0  0  0  0  0  0  0
  155.5961  141.1296  161.5308 H   0  0  0  0  0  0  0  0  0  0  0  0
  154.8192  141.4360  159.4241 H   0  0  0  0  0  0  0  0  0  0  0  0
  152.9702  142.8240  157.9897 H   0  0  0  0  0  0  0  0  0  0  0  0
  151.6504  144.9426  158.1893 H   0  0  0  0  0  0  0  0  0  0  0  0
  151.1359  145.8265  160.4789 H   0  0  0  0  0  0  0  0  0  0  0  0
  153.1193  142.7027  162.3088 H   0  0  0  0  0  0  0  0  0  0  0  0
  1  2  1  0  0  0  0
  1 13  1  0  0  0  0
  2  6  1  0  0  0  0
  2  3  1  0  0  0  0
  2 14  1  0  0  0  0
  3  4  1  0  0  0  0
  3 15  1  0  0  0  0
  3 16  1  0  0  0  0
  4  5  1  0  0  0  0
  4 17  1  0  0  0  0
  4 18  1  0  0  0  0
  5  6  1  0  0  0  0
  5 19  1  0  0  0  0
  5 20  1  0  0  0  0
  6  7  1  0  0  0  0
  6 21  1  0  0  0  0
  7 12  1  0  0  0  0
  7  8  2  0  0  0  0
  8  9  1  0  0  0  0
  8 22  1  0  0  0  0
  9 10  2  0  0  0  0
  9 23  1  0  0  0  0
 10 11  1  0  0  0  0
 10 24  1  0  0  0  0
 11 12  2  0  0  0  0
 12 25  1  0  0  0  0
M  END
> <s_m_source_file>
AV-unprocessed.smi

> <i_m_source_file_index>
2724

> <i_lp_mmshare_version>
43012

> <i_f3d_flags>
0

> <s_epik_input>
W09IXVtDQEBIXTFbQ0gyXVtDSDJdW0NIMl1bQ0BIXTFjMltjSF1bY0hdW2NIXW5bY0hdMg==

> <s_epik_cmdline>
J2VwaWtfcHl0aG9uJywgJy1waCcsICc3LjAnLCAnLXRuJywgJzgnLCAnLW1hJywgJzIwMCcsICctbWV0YWxfYmluZGluZycsICctaW1hZScsICc8aW5maWxlLm1hZT4nLCAnLW9tYWUnLCAnPG91dGZpbGUubWFlPic=

> <r_epik_Ionization_Penalty>
0.0175299

> <r_epik_Ionization_Penalty_Charging>
0

> <r_epik_Ionization_Penalty_Neutral>
0.0175299

> <r_epik_State_Penalty>
0.0138989

> <r_epik_Charging_Adjusted_Penalty>
0.0138989

> <i_epik_Tot_Q>
0

> <i_epik_Tot_abs_Q>
0

> <r_epik_Metal_State_Penalty>
1.40631e-05

> <b_epik_Metal_Only>
0

> <s_lp_Force_Field>
OPLS_2005

> <r_lp_Energy>
19.4991

> <b_lp_Chiralities_Consistent>
1

> <s_lp_Variant>
AV-unprocessed.smi:2724-4

> <Gold.Version>
5.8.1

> <Gold.Id.Protein>
6NUR|6NUR_protein|mol2

> <Gold.PLP.Fitness>
35.7685

> <Gold.PLP.PLP>
-33.1093

> <Gold.PLP.part.hbond>
-1.0000

> <Gold.PLP.part.metal>
0.0000

> <Gold.PLP.part.buried>
-3.0415

> <Gold.PLP.part.nonpolar>
-28.6723

> <Gold.PLP.part.repulsive>
0.1765

> <Gold.PLP.ligand.clash>
0.0000

> <Gold.PLP.ligand.torsion>
0.1706

> <Gold.PLP.Chemscore.Hbond>
1.0000

> <Gold.PLP.Chemscore.CHOScore>
0.0000

> <Gold.PLP.Chemscore.Metal>
0.0000

> <Gold.Chemscore.Hbonds>
donor molecule, donor type, donor heavy atom, donor atom, acceptor molecule, acceptor atom, score
      P1  H  7997  8010       L1     1  1.00

> <Gold.PLP.Chemscore.Internal.Correction>
0.0004

> <Gold.Rescore>
     Score         DG    S(hbond)    S(metal)    S(lipo)     H(rot)  DE(clash)    DE(int)     intcor
     17.16     -17.21       0.98        0.00     101.14       1.32       0.00       0.05       ----

> <Gold.Chemscore.Fitness>
17.1577

> <Gold.Chemscore.DG>
-17.2080

> <Gold.Chemscore.ZeroCoef>
-5.4800

> <Gold.Chemscore.Hbond>
0.9797

> <Gold.Chemscore.Metal>
0.0000

> <Gold.Chemscore.Lipo>
101.1360

> <Gold.Chemscore.Internal_Hbond>
0.0000

> <Gold.Chemscore.DEClash>
0.0000

> <Gold.Chemscore.DEInternal>
0.0503

> <Gold.Chemscore.Rot>
1.3192

> <Gold.Chemscore.Internal.Correction>
   9.000000E+99

> <Gold.Chemscore.Hbonds>
donor molecule, donor type, donor heavy atom, donor atom, acceptor molecule, acceptor atom, score
      P1  H  7997  8010       L1     1  0.96

> <Gold.Chemscore.Hbond.Weighted>
-3.2723

> <Gold.Chemscore.Metal.Weighted>
-0.0000

> <Gold.Chemscore.Lipo.Weighted>
-11.8329

> <Gold.Chemscore.Internal_Hbond.Weighted>
0.0000

> <Gold.Chemscore.DEClash.Weighted>
0.0000

> <Gold.Chemscore.DEInternal.Weighted>
0.0503

> <Gold.Chemscore.Rot.Weighted>
3.3772

> <Gold.Chemscore.Internal.Correction.Weighted>
   9.000000E+99

> <Gold.Protein.RotatedTorsions>
[ 6907 6896 6895 6894 ] final  113.22 input  -60.11 | X-H torsion
[ 7974 7965 7964 7962 ] final  175.80 input  175.53 | X-H torsion
[ 8008 7997 7996 7995 ] final   33.34 input   59.86 | X-H torsion
[ 10167 10162 10161 10158 ] final    7.70 input  -65.29 | X-H torsion
[ 10718 10713 10712 10709 ] final  173.85 input   66.30 | X-H torsion
[ 10763 10752 10751 10750 ] final  133.05 input  -60.55 | X-H torsion
[ 11005 11000 10999 10996 ] final -155.15 input  -57.11 | X-H torsion

> <Gold.Protein.ActiveResidues>
 VAL166  LYS551  ARG553  GLY616  TRP617  ASP618  TYR619  PRO620  LYS621  CYS622 
 ASP623  PHE694  ASN695  SER759  ASP760  ASP761  ALA762  ILE779  LEU786  VAL792 
 PHE793  MET794  SER795  GLU796  ALA797  LYS798  CYS799  TRP800  GLU811  SER814 

> <Gold.Protein.RotatedAtoms>
  152.4873  133.8405  159.7149 H   0  0  0  0  0  0  0  0  0  0  0  0  # atno 6907 bound_to 6896
  150.8970  133.7159  159.2896 H   0  0  0  0  0  0  0  0  0  0  0  0  # atno 6908 bound_to 6896
  151.4613  135.1042  159.9778 H   0  0  0  0  0  0  0  0  0  0  0  0  # atno 6909 bound_to 6896
  144.7195  140.0001  143.6440 H   0  0  0  0  0  0  0  0  0  0  0  0  # atno 7974 bound_to 7965
  155.1371  140.3262  155.4461 H   0  0  0  0  0  0  0  0  0  0  0  0  # atno 8008 bound_to 7997
  156.2616  140.2000  156.6437 H   0  0  0  0  0  0  0  0  0  0  0  0  # atno 8009 bound_to 7997
  154.6570  140.0551  157.0006 H   0  0  0  0  0  0  0  0  0  0  0  0  # atno 8010 bound_to 7997
  140.6357  143.7892  150.7356 H   0  0  0  0  0  0  0  0  0  0  0  0  # atno 10167 bound_to 10162
  156.9582  131.0052  151.2933 H   0  0  0  0  0  0  0  0  0  0  0  0  # atno 10718 bound_to 10713
  153.8008  135.3142  155.3390 H   0  0  0  0  0  0  0  0  0  0  0  0  # atno 10763 bound_to 10752
  154.8090  135.4679  154.0469 H   0  0  0  0  0  0  0  0  0  0  0  0  # atno 10764 bound_to 10752
  153.1816  135.6894  153.8558 H   0  0  0  0  0  0  0  0  0  0  0  0  # atno 10765 bound_to 10752
  140.6896  134.4056  157.5220 H   0  0  0  0  0  0  0  0  0  0  0  0  # atno 11005 bound_to 11000
  146.0342  139.3362  143.0737 LP  0  0  0  0  0  0  0  0  0  0  0  0  # atno 17320 bound_to 7965
  145.8415  140.9578  143.0797 LP  0  0  0  0  0  0  0  0  0  0  0  0  # atno 17321 bound_to 7965
  140.1513  143.4355  152.2129 LP  0  0  0  0  0  0  0  0  0  0  0  0  # atno 17342 bound_to 10162
  139.5567  144.7378  151.4273 LP  0  0  0  0  0  0  0  0  0  0  0  0  # atno 17343 bound_to 10162
  157.5675  130.8288  149.8347 LP  0  0  0  0  0  0  0  0  0  0  0  0  # atno 17370 bound_to 10713
  156.0333  130.3758  150.1628 LP  0  0  0  0  0  0  0  0  0  0  0  0  # atno 17371 bound_to 10713
  139.8927  134.8747  156.2256 LP  0  0  0  0  0  0  0  0  0  0  0  0  # atno 17394 bound_to 11000
  141.0252  133.7019  156.1336 LP  0  0  0  0  0  0  0  0  0  0  0  0  # atno 17395 bound_to 11000

$$$$
