AV-unprocessed.smi:2482|AV-procd|sdf|9776|dock5
  -GOLD-   2272013413D 1   1.00000     0.00000
 Structure written by MMmdl.
 35 36  0  0  0  0  0  0  0  0  2 V2000
  152.2054  143.2850  161.5992 C   0  0  0  0  0  0  0  0  0  0  0  0
  151.8356  142.9779  160.1576 C   0  0  0  0  0  0  0  0  0  0  0  0
  151.2174  143.9921  159.5135 N   0  0  0  0  0  0  0  0  0  0  0  0
  150.8495  143.8065  158.2297 C   0  0  0  0  0  0  0  0  0  0  0  0
  151.0843  142.6121  157.5239 C   0  0  0  0  0  0  0  0  0  0  0  0
  151.7441  141.5525  158.1885 C   0  0  0  0  0  0  0  0  0  0  0  0
  152.0004  140.3006  157.5681 N   0  0  0  0  0  0  0  0  0  0  0  0
  151.7149  139.9269  156.3075 C   0  0  0  0  0  0  0  0  0  0  0  0
  151.1485  140.6465  155.4844 O   0  0  0  0  0  0  0  0  0  0  0  0
  152.1625  138.5039  155.9167 C   0  0  1  0  0  0  0  0  0  0  0  0
  151.4844  137.3712  156.7240 C   0  0  0  0  0  0  0  0  0  0  0  0
  150.0562  137.2317  156.3531 N   0  3  2  0  0  0  0  0  0  0  0  0
  149.3567  136.2038  157.1528 C   0  0  0  0  0  0  0  0  0  0  0  0
  149.9122  137.0193  154.8952 C   0  0  0  0  0  0  0  0  0  0  0  0
  150.5950  138.1570  154.1187 C   0  0  0  0  0  0  0  0  0  0  0  0
  151.9617  138.2656  154.5188 O   0  0  0  0  0  0  0  0  0  0  0  0
  152.1165  141.7319  159.5414 C   0  0  0  0  0  0  0  0  0  0  0  0
  152.9082  140.4518  160.4005 Cl  0  0  0  0  0  0  0  0  0  0  0  0
  152.7257  142.4677  162.0950 H   0  0  0  0  0  0  0  0  0  0  0  0
  151.3070  143.5048  162.1764 H   0  0  0  0  0  0  0  0  0  0  0  0
  152.8544  144.1602  161.6387 H   0  0  0  0  0  0  0  0  0  0  0  0
  150.3460  144.6339  157.7517 H   0  0  0  0  0  0  0  0  0  0  0  0
  150.7464  142.5234  156.5024 H   0  0  0  0  0  0  0  0  0  0  0  0
  152.5589  139.6551  158.1081 H   0  0  0  0  0  0  0  0  0  0  0  0
  153.2364  138.4590  156.1007 H   0  0  0  0  0  0  0  0  0  0  0  0
  151.9988  136.4283  156.5317 H   0  0  0  0  0  0  0  0  0  0  0  0
  151.5738  137.5558  157.7957 H   0  0  0  0  0  0  0  0  0  0  0  0
  149.7866  135.2156  156.9843 H   0  0  0  0  0  0  0  0  0  0  0  0
  148.2987  136.1668  156.8911 H   0  0  0  0  0  0  0  0  0  0  0  0
  149.4282  136.4317  158.2169 H   0  0  0  0  0  0  0  0  0  0  0  0
  150.3548  136.0609  154.6193 H   0  0  0  0  0  0  0  0  0  0  0  0
  148.8554  136.9736  154.6302 H   0  0  0  0  0  0  0  0  0  0  0  0
  150.5618  137.9501  153.0489 H   0  0  0  0  0  0  0  0  0  0  0  0
  150.0661  139.0994  154.2667 H   0  0  0  0  0  0  0  0  0  0  0  0
  149.6130  138.1146  156.5662 H   0  0  0  0  0  0  0  0  0  0  0  0
  1  2  1  0  0  0  0
  1 19  1  0  0  0  0
  1 20  1  0  0  0  0
  1 21  1  0  0  0  0
  2 17  1  0  0  0  0
  2  3  2  0  0  0  0
  3  4  1  0  0  0  0
  4  5  2  0  0  0  0
  4 22  1  0  0  0  0
  5  6  1  0  0  0  0
  5 23  1  0  0  0  0
  6  7  1  0  0  0  0
  6 17  2  0  0  0  0
  7  8  1  0  0  0  0
  7 24  1  0  0  0  0
  8  9  2  0  0  0  0
  8 10  1  0  0  0  0
 10 16  1  0  0  0  0
 10 11  1  0  0  0  0
 10 25  1  0  0  0  0
 11 12  1  0  0  0  0
 11 26  1  0  0  0  0
 11 27  1  0  0  0  0
 12 13  1  0  0  0  0
 12 14  1  0  0  0  0
 12 35  1  0  0  0  0
 13 28  1  0  0  0  0
 13 29  1  0  0  0  0
 13 30  1  0  0  0  0
 14 15  1  0  0  0  0
 14 31  1  0  0  0  0
 14 32  1  0  0  0  0
 15 16  1  0  0  0  0
 15 33  1  0  0  0  0
 15 34  1  0  0  0  0
 17 18  1  0  0  0  0
M  CHG  1  12   1
M  END
> <s_m_source_file>
AV-unprocessed.smi

> <i_m_source_file_index>
2482

> <i_lp_mmshare_version>
43012

> <i_f3d_flags>
0

> <s_epik_input>
W0NIM11jMW5bY0hdW2NIXWMoYzFDbClbTkhdQyg9TylbQ0BASF0yW0NIMl1OKFtDSDNdKVtDSDJdW0NIMl1PMg==

> <s_epik_cmdline>
J2VwaWtfcHl0aG9uJywgJy1waCcsICc3LjAnLCAnLXRuJywgJzgnLCAnLW1hJywgJzIwMCcsICctbWV0YWxfYmluZGluZycsICctaW1hZScsICc8aW5maWxlLm1hZT4nLCAnLW9tYWUnLCAnPG91dGZpbGUubWFlPic=

> <r_epik_Ionization_Penalty>
0.314226

> <r_epik_Ionization_Penalty_Charging>
0.314023

> <r_epik_Ionization_Penalty_Neutral>
0.00020299

> <r_epik_State_Penalty>
0.308208

> <r_epik_Charging_Adjusted_Penalty>
0.62223

> <i_epik_Tot_Q>
1

> <i_epik_Tot_abs_Q>
1

> <r_epik_Metal_State_Penalty>
0.314444

> <b_epik_Metal_Only>
0

> <s_lp_Force_Field>
OPLS_2005

> <r_lp_Energy>
21.5381

> <b_lp_Chiralities_Consistent>
1

> <s_lp_Variant>
AV-unprocessed.smi:2482-2

> <Gold.Version>
5.8.1

> <Gold.Id.Protein>
6NUR|6NUR_protein|mol2

> <Gold.PLP.Fitness>
37.7896

> <Gold.PLP.PLP>
-32.0530

> <Gold.PLP.part.hbond>
-1.0000

> <Gold.PLP.part.metal>
0.0000

> <Gold.PLP.part.buried>
-4.5233

> <Gold.PLP.part.nonpolar>
-26.9986

> <Gold.PLP.part.repulsive>
0.3718

> <Gold.PLP.ligand.clash>
0.0000

> <Gold.PLP.ligand.torsion>
0.0523

> <Gold.PLP.Chemscore.Hbond>
0.8480

> <Gold.PLP.Chemscore.CHOScore>
1.0928

> <Gold.PLP.Chemscore.Metal>
0.0000

> <Gold.Chemscore.Hbonds>
donor molecule, donor type, donor heavy atom, donor atom, acceptor molecule, acceptor atom, score
      P1  H  7989  7998       L1     9  0.81
      L1  C     4    22       P1  8028  0.95
      L1  C     4    22       P1  8029  0.09

> <Gold.PLP.Chemscore.Internal.Correction>
0.0188

> <Gold.Rescore>
     Score         DG    S(hbond)    S(metal)    S(lipo)     H(rot)  DE(clash)    DE(int)     intcor
     13.99     -17.15       0.85        0.00      97.47       1.00       0.07       3.09       ----

> <Gold.Chemscore.Fitness>
13.9864

> <Gold.Chemscore.DG>
-17.1492

> <Gold.Chemscore.ZeroCoef>
-5.4800

> <Gold.Chemscore.Hbond>
0.8460

> <Gold.Chemscore.Metal>
0.0000

> <Gold.Chemscore.Lipo>
97.4675

> <Gold.Chemscore.Internal_Hbond>
0.0000

> <Gold.Chemscore.DEClash>
0.0701

> <Gold.Chemscore.DEInternal>
3.0927

> <Gold.Chemscore.Rot>
1.0000

> <Gold.Chemscore.Internal.Correction>
   9.000000E+99

> <Gold.Chemscore.Hbonds>
donor molecule, donor type, donor heavy atom, donor atom, acceptor molecule, acceptor atom, score
      P1  H  7989  7998       L1     9  0.76

> <Gold.Chemscore.Hbond.Weighted>
-2.8255

> <Gold.Chemscore.Metal.Weighted>
-0.0000

> <Gold.Chemscore.Lipo.Weighted>
-11.4037

> <Gold.Chemscore.Internal_Hbond.Weighted>
0.0000

> <Gold.Chemscore.DEClash.Weighted>
0.0701

> <Gold.Chemscore.DEInternal.Weighted>
3.0927

> <Gold.Chemscore.Rot.Weighted>
2.5600

> <Gold.Chemscore.Internal.Correction.Weighted>
   9.000000E+99

> <Gold.Protein.RotatedTorsions>
[ 6907 6896 6895 6894 ] final  137.77 input  -60.11 | X-H torsion
[ 7974 7965 7964 7962 ] final  -73.72 input  175.53 | X-H torsion
[ 8008 7997 7996 7995 ] final   50.69 input   59.86 | X-H torsion
[ 10167 10162 10161 10158 ] final   39.55 input  -65.29 | X-H torsion
[ 10718 10713 10712 10709 ] final   35.46 input   66.30 | X-H torsion
[ 10763 10752 10751 10750 ] final  -42.02 input  -60.55 | X-H torsion
[ 11005 11000 10999 10996 ] final  130.30 input  -57.11 | X-H torsion

> <Gold.Protein.ActiveResidues>
 VAL166  LYS551  ARG553  GLY616  TRP617  ASP618  TYR619  PRO620  LYS621  CYS622 
 ASP623  PHE694  ASN695  SER759  ASP760  ASP761  ALA762  ILE779  LEU786  VAL792 
 PHE793  MET794  SER795  GLU796  ALA797  LYS798  CYS799  TRP800  GLU811  SER814 

> <Gold.Protein.RotatedAtoms>
  152.2743  133.5411  159.5458 H   0  0  0  0  0  0  0  0  0  0  0  0  # atno 6907 bound_to 6896
  150.7171  134.0654  159.3854 H   0  0  0  0  0  0  0  0  0  0  0  0  # atno 6908 bound_to 6896
  151.8567  135.0539  160.0515 H   0  0  0  0  0  0  0  0  0  0  0  0  # atno 6909 bound_to 6896
  145.6485  140.9290  143.0997 H   0  0  0  0  0  0  0  0  0  0  0  0  # atno 7974 bound_to 7965
  155.4230  140.3447  155.4273 H   0  0  0  0  0  0  0  0  0  0  0  0  # atno 8008 bound_to 7997
  156.1382  140.1534  156.8993 H   0  0  0  0  0  0  0  0  0  0  0  0  # atno 8009 bound_to 7997
  154.4949  140.0831  156.7655 H   0  0  0  0  0  0  0  0  0  0  0  0  # atno 8010 bound_to 7997
  140.3829  144.1956  150.6130 H   0  0  0  0  0  0  0  0  0  0  0  0  # atno 10167 bound_to 10162
  157.3229  130.7457  149.6797 H   0  0  0  0  0  0  0  0  0  0  0  0  # atno 10718 bound_to 10713
  153.9721  135.6727  153.4747 H   0  0  0  0  0  0  0  0  0  0  0  0  # atno 10763 bound_to 10752
  153.0788  135.4934  154.8456 H   0  0  0  0  0  0  0  0  0  0  0  0  # atno 10764 bound_to 10752
  154.7213  135.3118  154.9004 H   0  0  0  0  0  0  0  0  0  0  0  0  # atno 10765 bound_to 10752
  139.9664  134.9589  156.9274 H   0  0  0  0  0  0  0  0  0  0  0  0  # atno 11005 bound_to 11000
  144.7131  139.8296  143.7408 LP  0  0  0  0  0  0  0  0  0  0  0  0  # atno 17320 bound_to 7965
  146.1223  139.4243  143.0220 LP  0  0  0  0  0  0  0  0  0  0  0  0  # atno 17321 bound_to 7965
  140.4919  143.2345  151.8806 LP  0  0  0  0  0  0  0  0  0  0  0  0  # atno 17342 bound_to 10162
  139.4794  144.5156  151.8872 LP  0  0  0  0  0  0  0  0  0  0  0  0  # atno 17343 bound_to 10162
  155.9687  130.4218  150.4485 LP  0  0  0  0  0  0  0  0  0  0  0  0  # atno 17370 bound_to 10713
  157.2504  131.0545  151.2383 LP  0  0  0  0  0  0  0  0  0  0  0  0  # atno 17371 bound_to 10713
  140.5387  134.0741  155.7335 LP  0  0  0  0  0  0  0  0  0  0  0  0  # atno 17394 bound_to 11000
  141.1344  133.9247  157.2466 LP  0  0  0  0  0  0  0  0  0  0  0  0  # atno 17395 bound_to 11000

$$$$
