#       Name:                AV-unprocessed.smi:2677
#       Creating user name   scv26
#       Creation time:       Fri Mar 27 14:39:23 2020


#       File generated by GOLD software.
#

@<TRIPOS>MOLECULE
AV-unprocessed.smi:2677
    43    44     1
SMALL
NO_CHARGES


@<TRIPOS>ATOM
      1 ****        -2.8023   1.4841  -3.0338 C.3            1 S1                 0.0000
      2 ****        -2.6439   0.9271  -1.6150 C.3            1 S1                 0.0000
      3 ****        -1.7345   1.7709  -0.7714 C.2            1 S1                 0.0000
      4 ****        -0.3512   1.6174  -0.8956 N.2            1 S1                 0.0000
      5 ****         0.3344   2.4281  -0.0865 C.2            1 S1                 0.0000
      6 ****         1.8255   2.4124   0.0289 C.3            1 S1                 0.0000
      7 ****         2.3471   1.4617   1.1239 C.3            1 S1                 0.0000
      8 ****         1.7842   0.1210   1.0007 N.am           1 S1                 0.0000
      9 ****         2.2285  -0.8372   0.1707 C.2            1 S1                 0.0000
     10 ****         3.2577  -0.7029  -0.4924 O.2            1 S1                 0.0000
     11 ****         1.4625  -1.9572   0.1400 N.am           1 S1                 0.0000
     12 ****         0.1933  -2.1596   0.8582 C.3            1 S1                 0.0000
     13 ****         0.4522  -3.0251   2.1015 C.3            1 S1                 0.0000
     14 ****         1.0566  -4.6751   1.6276 S.3            1 S1                 0.0000
     15 ****         2.3913  -4.1958   0.4856 C.3            1 S1                 0.0000
     16 ****         1.8944  -3.1764  -0.5538 C.3            1 S1                 0.0000
     17 ****        -0.6988   3.4504   0.9009 S.3            1 S1                 0.0000
     18 ****        -2.0976   2.7270   0.1486 C.2            1 S1                 0.0000
     19 ****        -3.4759   3.1554   0.5296 C.3            1 S1                 0.0000
     20 ****        -3.4672   0.8556  -3.6264 H              1 S1                 0.0000
     21 ****        -1.8422   1.5316  -3.5485 H              1 S1                 0.0000
     22 ****        -3.2230   2.4899  -3.0150 H              1 S1                 0.0000
     23 ****        -3.6262   0.8453  -1.1490 H              1 S1                 0.0000
     24 ****        -2.2583  -0.0917  -1.6717 H              1 S1                 0.0000
     25 ****         2.2436   2.1267  -0.9372 H              1 S1                 0.0000
     26 ****         2.1721   3.4274   0.2241 H              1 S1                 0.0000
     27 ****         3.4376   1.4273   1.1151 H              1 S1                 0.0000
     28 ****         2.0594   1.8460   2.1028 H              1 S1                 0.0000
     29 ****         0.9453  -0.0684   1.5294 H              1 S1                 0.0000
     30 ****        -0.2907  -1.2251   1.1439 H              1 S1                 0.0000
     31 ****        -0.5265  -2.6546   0.2048 H              1 S1                 0.0000
     32 ****         1.1861  -2.5484   2.7521 H              1 S1                 0.0000
     33 ****        -0.4631  -3.1413   2.6818 H              1 S1                 0.0000
     34 ****         3.2186  -3.7785   1.0609 H              1 S1                 0.0000
     35 ****         2.7663  -5.0917  -0.0094 H              1 S1                 0.0000
     36 ****         1.0681  -3.5952  -1.1299 H              1 S1                 0.0000
     37 ****         2.6836  -2.9802  -1.2810 H              1 S1                 0.0000
     38 ****        -3.9551   2.4003   1.1527 H              1 S1                 0.0000
     39 ****        -4.0943   3.3067  -0.3551 H              1 S1                 0.0000
     40 ****        -3.4580   4.0915   1.0879 H              1 S1                 0.0000
     41 ****         0.0793   0.9693  -1.5237 LP             1 S1                 0.0000
     42 ****         3.7912   0.1400  -0.4224 LP             1 S1                 0.0000
     43 ****         3.5598  -1.4367  -1.1008 LP             1 S1                 0.0000
@<TRIPOS>BOND
    1    1    2 1     
    2    1   20 1     
    3    1   21 1     
    4    1   22 1     
    5    2    3 1     
    6    2   23 1     
    7    2   24 1     
    8    3   18 2     
    9    3    4 1     
   10    4    5 2     
   11    5    6 1     
   12    5   17 1     
   13    6    7 1     
   14    6   25 1     
   15    6   26 1     
   16    7    8 1     
   17    7   27 1     
   18    7   28 1     
   19    8    9 am    
   20    8   29 1     
   21    9   10 2     
   22    9   11 am    
   23   11   16 1     
   24   11   12 1     
   25   12   13 1     
   26   12   30 1     
   27   12   31 1     
   28   13   14 1     
   29   13   32 1     
   30   13   33 1     
   31   14   15 1     
   32   15   16 1     
   33   15   34 1     
   34   15   35 1     
   35   16   36 1     
   36   16   37 1     
   37   17   18 1     
   38   18   19 1     
   39   19   38 1     
   40   19   39 1     
   41   19   40 1     
   42    4   41 1     
   43   10   42 1     
   44   10   43 1     
@<TRIPOS>SUBSTRUCTURE
      1 S1             1
@<TRIPOS>SET
LONE_PAIRS      STATIC     ATOMS    <user>   **** ""
3 41 42 43
DONOR_HYDROGENS      STATIC     ATOMS    <user>   **** ""
1 29
ATOM$BLUE        STATIC     ATOMS    COLORGROUP SYSTEM
3 41 42 43
ATOM$RED        STATIC     ATOMS    COLORGROUP SYSTEM
1 29
