AV-unprocessed.smi:500|AV-procd|sdf|2741|dock5
  -GOLD-   2262023203D 1   1.00000     0.00000
 Structure written by MMmdl.
 45 47  0  0  0  0  0  0  0  0  3 V2000
  154.1642  137.7950  161.2773 C   0  0  0  0  0  0  0  0  0  0  0  0
  152.8724  137.4994  160.5031 C   0  0  0  0  0  0  0  0  0  0  0  0
  152.8334  138.1750  159.2539 O   0  0  0  0  0  0  0  0  0  0  0  0
  152.2591  139.4735  159.3078 C   0  0  0  0  0  0  0  0  0  0  0  0
  152.4117  140.1636  157.9446 C   0  0  0  0  0  0  0  0  0  0  0  0
  151.6138  141.4048  157.8538 N   0  0  0  0  0  0  0  0  0  0  0  0
  150.6119  141.7781  156.9934 C   0  0  0  0  0  0  0  0  0  0  0  0
  150.0183  141.0012  155.8453 C   0  0  1  0  0  0  0  0  0  0  0  0
  151.0624  140.0445  155.2535 C   0  0  0  0  0  0  0  0  0  0  0  0
  148.8436  140.2329  156.2610 N   0  5  0  0  0  0  0  0  0  0  0  0
  147.6758  140.7933  156.6883 C   0  0  0  0  0  0  0  0  0  0  0  0
  147.0668  140.6327  157.7515 O   0  0  0  0  0  0  0  0  0  0  0  0
  147.0801  141.6856  155.6675 C   0  0  0  0  0  0  0  0  0  0  0  0
  147.4082  141.9316  154.3580 C   0  0  0  0  0  0  0  0  0  0  0  0
  146.4880  142.9045  153.8790 C   0  0  0  0  0  0  0  0  0  0  0  0
  145.6662  143.1917  154.9301 C   0  0  0  0  0  0  0  0  0  0  0  0
  146.0155  142.4633  156.0248 O   0  0  0  0  0  0  0  0  0  0  0  0
  150.2282  143.0366  157.3534 N   0  3  0  0  0  0  0  0  0  0  0  0
  150.9909  143.4829  158.4300 C   0  0  0  0  0  0  0  0  0  0  0  0
  150.9675  144.6901  159.1210 C   0  0  0  0  0  0  0  0  0  0  0  0
  151.8945  144.8344  160.1734 C   0  0  0  0  0  0  0  0  0  0  0  0
  152.7977  143.8028  160.5010 C   0  0  0  0  0  0  0  0  0  0  0  0
  152.8100  142.5831  159.7929 C   0  0  0  0  0  0  0  0  0  0  0  0
  151.8870  142.4447  158.7550 C   0  0  0  0  0  0  0  0  0  0  0  0
  154.2158  137.1917  162.1838 H   0  0  0  0  0  0  0  0  0  0  0  0
  154.2253  138.8404  161.5788 H   0  0  0  0  0  0  0  0  0  0  0  0
  155.0429  137.5650  160.6740 H   0  0  0  0  0  0  0  0  0  0  0  0
  152.8222  136.4303  160.2966 H   0  0  0  0  0  0  0  0  0  0  0  0
  151.9923  137.7382  161.1021 H   0  0  0  0  0  0  0  0  0  0  0  0
  151.2016  139.4072  159.5656 H   0  0  0  0  0  0  0  0  0  0  0  0
  152.7425  140.0739  160.0780 H   0  0  0  0  0  0  0  0  0  0  0  0
  153.4571  140.4160  157.7655 H   0  0  0  0  0  0  0  0  0  0  0  0
  152.1301  139.4901  157.1360 H   0  0  0  0  0  0  0  0  0  0  0  0
  149.7552  141.7143  155.0633 H   0  0  0  0  0  0  0  0  0  0  0  0
  151.9399  140.5921  154.9080 H   0  0  0  0  0  0  0  0  0  0  0  0
  150.6586  139.5008  154.3986 H   0  0  0  0  0  0  0  0  0  0  0  0
  151.3970  139.3098  155.9871 H   0  0  0  0  0  0  0  0  0  0  0  0
  148.2142  141.4662  153.8099 H   0  0  0  0  0  0  0  0  0  0  0  0
  146.4362  143.3400  152.8922 H   0  0  0  0  0  0  0  0  0  0  0  0
  144.8265  143.8568  155.0671 H   0  0  0  0  0  0  0  0  0  0  0  0
  150.2793  145.4824  158.8656 H   0  0  0  0  0  0  0  0  0  0  0  0
  151.9154  145.7557  160.7374 H   0  0  0  0  0  0  0  0  0  0  0  0
  153.4980  143.9502  161.3101 H   0  0  0  0  0  0  0  0  0  0  0  0
  153.5143  141.8060  160.0493 H   0  0  0  0  0  0  0  0  0  0  0  0
  149.5065  143.5529  156.8674 H   0  0  0  0  0  0  0  0  0  0  0  0
  1  2  1  0  0  0  0
  1 25  1  0  0  0  0
  1 26  1  0  0  0  0
  1 27  1  0  0  0  0
  2  3  1  0  0  0  0
  2 28  1  0  0  0  0
  2 29  1  0  0  0  0
  3  4  1  0  0  0  0
  4  5  1  0  0  0  0
  4 30  1  0  0  0  0
  4 31  1  0  0  0  0
  5  6  1  0  0  0  0
  5 32  1  0  0  0  0
  5 33  1  0  0  0  0
  6 24  1  0  0  0  0
  6  7  1  0  0  0  0
  7  8  1  0  0  0  0
  7 18  2  0  0  0  0
  8  9  1  0  0  0  0
  8 10  1  0  0  0  0
  8 34  1  0  0  0  0
  9 35  1  0  0  0  0
  9 36  1  0  0  0  0
  9 37  1  0  0  0  0
 10 11  1  0  0  0  0
 11 12  2  0  0  0  0
 11 13  1  0  0  0  0
 13 17  1  0  0  0  0
 13 14  2  0  0  0  0
 14 15  1  0  0  0  0
 14 38  1  0  0  0  0
 15 16  2  0  0  0  0
 15 39  1  0  0  0  0
 16 17  1  0  0  0  0
 16 40  1  0  0  0  0
 18 19  1  0  0  0  0
 18 45  1  0  0  0  0
 19 24  2  0  0  0  0
 19 20  1  0  0  0  0
 20 21  2  0  0  0  0
 20 41  1  0  0  0  0
 21 22  1  0  0  0  0
 21 42  1  0  0  0  0
 22 23  2  0  0  0  0
 22 43  1  0  0  0  0
 23 24  1  0  0  0  0
 23 44  1  0  0  0  0
M  CHG  1  10  -1
M  CHG  1  18   1
M  END
> <s_m_source_file>
AV-unprocessed.smi

> <i_m_source_file_index>
500

> <i_lp_mmshare_version>
43012

> <i_f3d_flags>
0

> <s_epik_input>
W0NIM11bQ0gyXU9bQ0gyXVtDSDJdbihjKGMxMilbY0hdW2NIXVtjSF1bY0hdMiljKG4xKVtDQEhdKFtDSDNdKVtOSF1DKD1PKWMzW2NIXVtjSF1bY0hdbzM=

> <s_epik_cmdline>
J2VwaWtfcHl0aG9uJywgJy1waCcsICc3LjAnLCAnLXRuJywgJzgnLCAnLW1hJywgJzIwMCcsICctbWV0YWxfYmluZGluZycsICctaW1hZScsICc8aW5maWxlLm1hZT4nLCAnLW9tYWUnLCAnPG91dGZpbGUubWFlPic=

> <r_epik_Ionization_Penalty>
6.22753

> <r_epik_Ionization_Penalty_Charging>
6.22753

> <r_epik_Ionization_Penalty_Neutral>
2.56065e-12

> <r_epik_State_Penalty>
7.17947

> <r_epik_Charging_Adjusted_Penalty>
13.407

> <i_epik_Tot_Q>
0

> <i_epik_Tot_abs_Q>
2

> <r_epik_Metal_State_Penalty>
3.2092

> <b_epik_Metal_Only>
1

> <s_lp_Force_Field>
OPLS_2005

> <r_lp_Energy>
10.9404

> <b_lp_Chiralities_Consistent>
1

> <s_lp_Variant>
AV-unprocessed.smi:500-8

> <Gold.Version>
5.8.1

> <Gold.Id.Protein>
6NUR|6NUR_protein|mol2

> <Gold.PLP.Fitness>
50.0953

> <Gold.PLP.PLP>
-47.0800

> <Gold.PLP.part.hbond>
-1.0027

> <Gold.PLP.part.metal>
0.0000

> <Gold.PLP.part.buried>
-5.6427

> <Gold.PLP.part.nonpolar>
-39.8279

> <Gold.PLP.part.repulsive>
0.1674

> <Gold.PLP.ligand.clash>
0.0000

> <Gold.PLP.ligand.torsion>
1.5812

> <Gold.PLP.Chemscore.Hbond>
2.0000

> <Gold.PLP.Chemscore.CHOScore>
0.0000

> <Gold.PLP.Chemscore.Metal>
0.0000

> <Gold.Chemscore.Hbonds>
donor molecule, donor type, donor heavy atom, donor atom, acceptor molecule, acceptor atom, score
      L1  H    18    45       P1  8028  2.00

> <Gold.PLP.Chemscore.Internal.Correction>
0.1777

> <Gold.Rescore>
     Score         DG    S(hbond)    S(metal)    S(lipo)     H(rot)  DE(clash)    DE(int)     intcor
     16.54     -18.78       0.98        0.00     127.24       1.90       0.62       1.63       ----

> <Gold.Chemscore.Fitness>
16.5355

> <Gold.Chemscore.DG>
-18.7805

> <Gold.Chemscore.ZeroCoef>
-5.4800

> <Gold.Chemscore.Hbond>
0.9807

> <Gold.Chemscore.Metal>
0.0000

> <Gold.Chemscore.Lipo>
127.2416

> <Gold.Chemscore.Internal_Hbond>
0.0000

> <Gold.Chemscore.DEClash>
0.6189

> <Gold.Chemscore.DEInternal>
1.6261

> <Gold.Chemscore.Rot>
1.8993

> <Gold.Chemscore.Internal.Correction>
   9.000000E+99

> <Gold.Chemscore.Hbonds>
donor molecule, donor type, donor heavy atom, donor atom, acceptor molecule, acceptor atom, score
      L1  H    18    45       P1  8028  0.95

> <Gold.Chemscore.Hbond.Weighted>
-3.2755

> <Gold.Chemscore.Metal.Weighted>
-0.0000

> <Gold.Chemscore.Lipo.Weighted>
-14.8873

> <Gold.Chemscore.Internal_Hbond.Weighted>
0.0000

> <Gold.Chemscore.DEClash.Weighted>
0.6189

> <Gold.Chemscore.DEInternal.Weighted>
1.6261

> <Gold.Chemscore.Rot.Weighted>
4.8622

> <Gold.Chemscore.Internal.Correction.Weighted>
   9.000000E+99

> <Gold.Protein.RotatedTorsions>
[ 6907 6896 6895 6894 ] final  156.29 input  -60.11 | X-H torsion
[ 7974 7965 7964 7962 ] final  -42.58 input  175.53 | X-H torsion
[ 8008 7997 7996 7995 ] final  -46.72 input   59.86 | X-H torsion
[ 10167 10162 10161 10158 ] final  102.47 input  -65.29 | X-H torsion
[ 10718 10713 10712 10709 ] final -119.84 input   66.30 | X-H torsion
[ 10763 10752 10751 10750 ] final  -47.43 input  -60.55 | X-H torsion
[ 11005 11000 10999 10996 ] final   77.07 input  -57.11 | X-H torsion

> <Gold.Protein.ActiveResidues>
 VAL166  LYS551  ARG553  GLY616  TRP617  ASP618  TYR619  PRO620  LYS621  CYS622 
 ASP623  PHE694  ASN695  SER759  ASP760  ASP761  ALA762  ILE779  LEU786  VAL792 
 PHE793  MET794  SER795  GLU796  ALA797  LYS798  CYS799  TRP800  GLU811  SER814 

> <Gold.Protein.RotatedAtoms>
  152.0318  133.3940  159.4300 H   0  0  0  0  0  0  0  0  0  0  0  0  # atno 6907 bound_to 6896
  150.6881  134.3512  159.4919 H   0  0  0  0  0  0  0  0  0  0  0  0  # atno 6908 bound_to 6896
  152.1299  134.9142  160.0610 H   0  0  0  0  0  0  0  0  0  0  0  0  # atno 6909 bound_to 6896
  146.0102  140.6973  142.9228 H   0  0  0  0  0  0  0  0  0  0  0  0  # atno 7974 bound_to 7965
  154.4010  140.1364  156.4057 H   0  0  0  0  0  0  0  0  0  0  0  0  # atno 8008 bound_to 7997
  155.7782  140.3482  155.5263 H   0  0  0  0  0  0  0  0  0  0  0  0  # atno 8009 bound_to 7997
  155.8700  140.0970  157.1547 H   0  0  0  0  0  0  0  0  0  0  0  0  # atno 8010 bound_to 7997
  139.7347  144.7027  151.0667 H   0  0  0  0  0  0  0  0  0  0  0  0  # atno 10167 bound_to 10162
  156.1212  130.6324  150.9467 H   0  0  0  0  0  0  0  0  0  0  0  0  # atno 10718 bound_to 10713
  154.0612  135.6617  153.4812 H   0  0  0  0  0  0  0  0  0  0  0  0  # atno 10763 bound_to 10752
  153.0426  135.5135  154.7657 H   0  0  0  0  0  0  0  0  0  0  0  0  # atno 10764 bound_to 10752
  154.6694  135.3027  154.9729 H   0  0  0  0  0  0  0  0  0  0  0  0  # atno 10765 bound_to 10752
  139.9270  134.7653  156.1475 H   0  0  0  0  0  0  0  0  0  0  0  0  # atno 11005 bound_to 11000
  144.6950  140.3385  143.7203 LP  0  0  0  0  0  0  0  0  0  0  0  0  # atno 17320 bound_to 7965
  145.7354  139.1748  143.2406 LP  0  0  0  0  0  0  0  0  0  0  0  0  # atno 17321 bound_to 7965
  140.7777  143.4999  150.9785 LP  0  0  0  0  0  0  0  0  0  0  0  0  # atno 17342 bound_to 10162
  139.8687  143.7220  152.3168 LP  0  0  0  0  0  0  0  0  0  0  0  0  # atno 17343 bound_to 10162
  157.6395  131.0912  150.8279 LP  0  0  0  0  0  0  0  0  0  0  0  0  # atno 17370 bound_to 10713
  156.8376  130.5037  149.5324 LP  0  0  0  0  0  0  0  0  0  0  0  0  # atno 17371 bound_to 10713
  141.0835  133.6744  156.2386 LP  0  0  0  0  0  0  0  0  0  0  0  0  # atno 17394 bound_to 11000
  140.6307  134.5267  157.5559 LP  0  0  0  0  0  0  0  0  0  0  0  0  # atno 17395 bound_to 11000

$$$$
