#       Name:                AV-unprocessed.smi:1
#       Creating user name   scv26
#       Creation time:       Thu Mar 26 15:08:45 2020


#       File generated by GOLD software.
#

@<TRIPOS>MOLECULE
AV-unprocessed.smi:1
    66    71     1
SMALL
NO_CHARGES


@<TRIPOS>ATOM
      1 ****        -4.9252   2.2050   0.4936 O.2            1 S1                 0.0000
      2 ****        -5.0988   0.9945   0.6382 C.2            1 S1                 0.0000
      3 ****        -4.0001   0.0814   0.8995 N.am           1 S1                 0.0000
      4 ****        -2.6775   0.3609   0.9702 C.ar           1 S1                 0.0000
      5 ****        -2.1866   1.6171   0.8033 N.ar           1 S1                 0.0000
      6 ****        -0.8727   1.8425   0.8911 C.ar           1 S1                 0.0000
      7 ****         0.1077   0.9713   1.1368 N.ar           1 S1                 0.0000
      8 ****        -0.3746  -0.2939   1.3023 C.ar           1 S1                 0.0000
      9 ****        -1.7439  -0.6756   1.2318 C.ar           1 S1                 0.0000
     10 ****        -1.8630  -2.0419   1.4469 N.2            1 S1                 0.0000
     11 ****        -0.6337  -2.4401   1.6346 C.2            1 S1                 0.0000
     12 ****         0.3250  -1.4527   1.5757 N.pl3          1 S1                 0.0000
     13 ****         1.8010  -1.6144   1.7493 C.3            1 S1                 0.0000
     14 ****         2.4544  -1.1386   0.6099 O.3            1 S1                 0.0000
     15 ****         3.2961  -0.0351   0.9349 C.3            1 S1                 0.0000
     16 ****         4.5280   0.0040   0.0234 C.3            1 S1                 0.0000
     17 ****         4.1391   0.4642  -1.2600 O.3            1 S1                 0.0000
     18 ****         5.0457   0.5400  -2.2527 C.2            1 S1                 0.0000
     19 ****         6.2309   0.2275  -2.1197 O.2            1 S1                 0.0000
     20 ****         4.4653   1.0444  -3.5307 C.ar           1 S1                 0.0000
     21 ****         5.3024   1.1909  -4.6615 C.ar           1 S1                 0.0000
     22 ****         4.7834   1.6660  -5.8816 C.ar           1 S1                 0.0000
     23 ****         3.4207   2.0003  -5.9858 C.ar           1 S1                 0.0000
     24 ****         2.5773   1.8589  -4.8684 C.ar           1 S1                 0.0000
     25 ****         3.0943   1.3838  -3.6472 C.ar           1 S1                 0.0000
     26 ****         3.6129  -0.2267   2.4170 C.3            1 S1                 0.0000
     27 ****         4.6572  -1.1680   2.6056 O.3            1 S1                 0.0000
     28 ****         4.2321  -2.1814   3.8637 S.o2           1 S1                 0.0000
     29 ****         4.2501  -3.5650   3.3651 O.2            1 S1                 0.0000
     30 ****         4.9684  -1.7612   5.0653 O.2            1 S1                 0.0000
     31 ****         2.6393  -1.7043   4.0332 O.3            1 S1                 0.0000
     32 ****         2.3180  -0.8309   2.9651 C.3            1 S1                 0.0000
     33 ****        -6.4719   0.3879   0.6356 C.ar           1 S1                 0.0000
     34 ****        -7.5883   1.1644   1.0198 C.ar           1 S1                 0.0000
     35 ****        -8.8821   0.6076   1.0088 C.ar           1 S1                 0.0000
     36 ****        -9.0716  -0.7278   0.6060 C.ar           1 S1                 0.0000
     37 ****        -7.9668  -1.5048   0.2096 C.ar           1 S1                 0.0000
     38 ****        -6.6724  -0.9492   0.2203 C.ar           1 S1                 0.0000
     39 ****        -4.2542  -0.8857   1.0386 H              1 S1                 0.0000
     40 ****        -0.5635   2.8672   0.7466 H              1 S1                 0.0000
     41 ****        -0.3915  -3.4752   1.8282 H              1 S1                 0.0000
     42 ****         1.9570  -2.6910   1.8287 H              1 S1                 0.0000
     43 ****         2.7285   0.8883   0.8213 H              1 S1                 0.0000
     44 ****         5.2704   0.6902   0.4333 H              1 S1                 0.0000
     45 ****         4.9891  -0.9825  -0.0428 H              1 S1                 0.0000
     46 ****         6.3522   0.9405  -4.6052 H              1 S1                 0.0000
     47 ****         5.4324   1.7741  -6.7381 H              1 S1                 0.0000
     48 ****         3.0229   2.3646  -6.9215 H              1 S1                 0.0000
     49 ****         1.5308   2.1148  -4.9470 H              1 S1                 0.0000
     50 ****         2.4191   1.2867  -2.8095 H              1 S1                 0.0000
     51 ****         3.8803   0.7074   2.9119 H              1 S1                 0.0000
     52 ****         1.6128  -0.0566   3.2681 H              1 S1                 0.0000
     53 ****        -7.4598   2.1912   1.3311 H              1 S1                 0.0000
     54 ****        -9.7294   1.2063   1.3092 H              1 S1                 0.0000
     55 ****       -10.0636  -1.1546   0.5976 H              1 S1                 0.0000
     56 ****        -8.1121  -2.5276  -0.1055 H              1 S1                 0.0000
     57 ****        -5.8400  -1.5607  -0.0965 H              1 S1                 0.0000
     58 ****        -4.0039   2.5889   0.5550 LP             1 S1                 0.0000
     59 ****        -5.7056   2.8042   0.3148 LP             1 S1                 0.0000
     60 ****        -2.8108   2.3751   0.6142 LP             1 S1                 0.0000
     61 ****         1.0758   1.2156   1.1927 LP             1 S1                 0.0000
     62 ****        -2.6971  -2.5934   1.4560 LP             1 S1                 0.0000
     63 ****         1.7730  -0.8452  -0.0606 LP             1 S1                 0.0000
     64 ****         3.0110  -1.8723   0.2204 LP             1 S1                 0.0000
     65 ****         6.5646  -0.1036  -1.2371 LP             1 S1                 0.0000
     66 ****         6.8584   0.3052  -2.8944 LP             1 S1                 0.0000
@<TRIPOS>BOND
    1    1    2 2     
    2    2    3 am    
    3    2   33 1     
    4    3    4 1     
    5    3   39 1     
    6    4    9 ar    
    7    4    5 ar    
    8    5    6 ar    
    9    6    7 ar    
   10    6   40 1     
   11    7    8 ar    
   12    8   12 1     
   13    8    9 ar    
   14    9   10 1     
   15   10   11 2     
   16   11   12 1     
   17   11   41 1     
   18   12   13 1     
   19   13   32 1     
   20   13   14 1     
   21   13   42 1     
   22   14   15 1     
   23   15   16 1     
   24   15   26 1     
   25   15   43 1     
   26   16   17 1     
   27   16   44 1     
   28   16   45 1     
   29   17   18 1     
   30   18   19 2     
   31   18   20 1     
   32   20   25 ar    
   33   20   21 ar    
   34   21   22 ar    
   35   21   46 1     
   36   22   23 ar    
   37   22   47 1     
   38   23   24 ar    
   39   23   48 1     
   40   24   25 ar    
   41   24   49 1     
   42   25   50 1     
   43   26   32 1     
   44   26   27 1     
   45   26   51 1     
   46   27   28 1     
   47   28   29 2     
   48   28   30 2     
   49   28   31 1     
   50   31   32 1     
   51   32   52 1     
   52   33   38 ar    
   53   33   34 ar    
   54   34   35 ar    
   55   34   53 1     
   56   35   36 ar    
   57   35   54 1     
   58   36   37 ar    
   59   36   55 1     
   60   37   38 ar    
   61   37   56 1     
   62   38   57 1     
   63    1   58 1     
   64    1   59 1     
   65    5   60 1     
   66    7   61 1     
   67   10   62 1     
   68   14   63 1     
   69   14   64 1     
   70   19   65 1     
   71   19   66 1     
@<TRIPOS>SUBSTRUCTURE
      1 S1             1
@<TRIPOS>SET
LONE_PAIRS      STATIC     ATOMS    <user>   **** ""
11 58 59 60 61 62 63 64 65 66 29 30
DONOR_HYDROGENS      STATIC     ATOMS    <user>   **** ""
1 39
ATOM$BLUE        STATIC     ATOMS    COLORGROUP SYSTEM
11 58 59 60 61 62 63 64 65 66 29 30
ATOM$RED        STATIC     ATOMS    COLORGROUP SYSTEM
1 39
