AV-unprocessed.smi:3057|AV-procd|sdf|11664|dock7
  -GOLD-   2272017 73D 1   1.00000     0.00000
 Structure written by MMmdl.
 40 42  0  0  0  0  0  0  0  0  1 V2000
  155.3747  141.1859  167.7895 C   0  0  0  0  0  0  0  0  0  0  0  0
  156.4006  142.3232  167.6194 C   0  0  2  0  0  0  0  0  0  0  0  0
  156.4655  143.2198  168.8692 C   0  0  0  0  0  0  0  0  0  0  0  0
  155.5290  144.3945  168.5506 C   0  0  0  0  0  0  0  0  0  0  0  0
  155.4976  144.3857  167.0306 C   0  0  0  0  0  0  0  0  0  0  0  0
  155.1149  145.3405  166.3562 O   0  0  0  0  0  0  0  0  0  0  0  0
  156.0003  143.2350  166.5658 N   0  0  0  0  0  0  0  0  0  0  0  0
  156.4611  142.9567  165.2029 C   0  0  2  0  0  0  0  0  0  0  0  0
  155.2937  142.5307  164.2949 C   0  0  0  0  0  0  0  0  0  0  0  0
  155.3286  141.4743  163.6620 O   0  0  0  0  0  0  0  0  0  0  0  0
  154.2644  143.3882  164.2297 N   0  0  0  0  0  0  0  0  0  0  0  0
  153.0665  143.2085  163.4146 C   0  0  0  0  0  0  0  0  0  0  0  0
  153.3630  142.6195  162.0199 C   0  0  0  0  0  0  0  0  0  0  0  0
  152.6503  143.3407  160.8879 C   0  0  0  0  0  0  0  0  0  0  0  0
  152.7697  142.8865  159.5568 C   0  0  0  0  0  0  0  0  0  0  0  0
  152.1064  143.6011  158.5411 C   0  0  0  0  0  0  0  0  0  0  0  0
  151.3484  144.7340  158.8942 C   0  0  0  0  0  0  0  0  0  0  0  0
  151.2865  145.1023  160.2531 C   0  0  0  0  0  0  0  0  0  0  0  0
  151.9215  144.4256  161.2346 N   0  0  0  0  0  0  0  0  0  0  0  0
  157.4828  141.7964  165.3148 C   0  0  0  0  0  0  0  0  0  0  0  0
  157.9905  141.6964  167.0537 S   0  0  0  0  0  0  0  0  0  0  0  0
  154.3835  141.5747  168.0254 H   0  0  0  0  0  0  0  0  0  0  0  0
  155.6673  140.5151  168.5976 H   0  0  0  0  0  0  0  0  0  0  0  0
  155.2843  140.5844  166.8848 H   0  0  0  0  0  0  0  0  0  0  0  0
  156.1755  142.6947  169.7799 H   0  0  0  0  0  0  0  0  0  0  0  0
  157.4787  143.5955  169.0205 H   0  0  0  0  0  0  0  0  0  0  0  0
  154.5232  144.2182  168.9329 H   0  0  0  0  0  0  0  0  0  0  0  0
  155.8993  145.3405  168.9465 H   0  0  0  0  0  0  0  0  0  0  0  0
  156.9485  143.8474  164.8021 H   0  0  0  0  0  0  0  0  0  0  0  0
  154.3173  144.2343  164.7785 H   0  0  0  0  0  0  0  0  0  0  0  0
  152.3398  142.5899  163.9431 H   0  0  0  0  0  0  0  0  0  0  0  0
  152.6073  144.1908  163.2996 H   0  0  0  0  0  0  0  0  0  0  0  0
  154.4371  142.6455  161.8324 H   0  0  0  0  0  0  0  0  0  0  0  0
  153.0840  141.5654  162.0007 H   0  0  0  0  0  0  0  0  0  0  0  0
  153.3630  142.0161  159.3174 H   0  0  0  0  0  0  0  0  0  0  0  0
  152.1801  143.2870  157.5105 H   0  0  0  0  0  0  0  0  0  0  0  0
  150.8266  145.3066  158.1418 H   0  0  0  0  0  0  0  0  0  0  0  0
  150.7132  145.9647  160.5598 H   0  0  0  0  0  0  0  0  0  0  0  0
  157.0411  140.8342  165.0518 H   0  0  0  0  0  0  0  0  0  0  0  0
  158.3476  141.9474  164.6682 H   0  0  0  0  0  0  0  0  0  0  0  0
  1  2  1  0  0  0  0
  1 22  1  0  0  0  0
  1 23  1  0  0  0  0
  1 24  1  0  0  0  0
  2  7  1  0  0  0  0
  2 21  1  0  0  0  0
  2  3  1  0  0  0  0
  3  4  1  0  0  0  0
  3 25  1  0  0  0  0
  3 26  1  0  0  0  0
  4  5  1  0  0  0  0
  4 27  1  0  0  0  0
  4 28  1  0  0  0  0
  5  6  2  0  0  0  0
  5  7  1  0  0  0  0
  7  8  1  0  0  0  0
  8  9  1  0  0  0  0
  8 20  1  0  0  0  0
  8 29  1  0  0  0  0
  9 10  2  0  0  0  0
  9 11  1  0  0  0  0
 11 12  1  0  0  0  0
 11 30  1  0  0  0  0
 12 13  1  0  0  0  0
 12 31  1  0  0  0  0
 12 32  1  0  0  0  0
 13 14  1  0  0  0  0
 13 33  1  0  0  0  0
 13 34  1  0  0  0  0
 14 19  1  0  0  0  0
 14 15  2  0  0  0  0
 15 16  1  0  0  0  0
 15 35  1  0  0  0  0
 16 17  2  0  0  0  0
 16 36  1  0  0  0  0
 17 18  1  0  0  0  0
 17 37  1  0  0  0  0
 18 19  2  0  0  0  0
 18 38  1  0  0  0  0
 20 21  1  0  0  0  0
 20 39  1  0  0  0  0
 20 40  1  0  0  0  0
M  END
> <s_m_source_file>
AV-unprocessed.smi

> <i_m_source_file_index>
3057

> <i_lp_mmshare_version>
43012

> <i_f3d_flags>
0

> <s_epik_input>
W0NIMl0xW0NIMl1DKD1PKU4oW0NAQF0xMltDSDNdKVtDQEhdKFtDSDJdUzIpQyg9TylbTkhdW0NIMl1bQ0gyXWMzW2NIXVtjSF1bY0hdW2NIXW4z

> <s_epik_cmdline>
J2VwaWtfcHl0aG9uJywgJy1waCcsICc3LjAnLCAnLXRuJywgJzgnLCAnLW1hJywgJzIwMCcsICctbWV0YWxfYmluZGluZycsICctaW1hZScsICc8aW5maWxlLm1hZT4nLCAnLW9tYWUnLCAnPG91dGZpbGUubWFlPic=

> <r_epik_Ionization_Penalty>
0.0249631

> <r_epik_Ionization_Penalty_Charging>
0

> <r_epik_Ionization_Penalty_Neutral>
0.0249631

> <r_epik_State_Penalty>
0.0202943

> <r_epik_Charging_Adjusted_Penalty>
0.0202943

> <i_epik_Tot_Q>
0

> <i_epik_Tot_abs_Q>
0

> <r_epik_Metal_State_Penalty>
0.0194661

> <b_epik_Metal_Only>
0

> <s_lp_Force_Field>
OPLS_2005

> <r_lp_Energy>
26.6501

> <b_lp_Chiralities_Consistent>
1

> <s_lp_Variant>
AV-unprocessed.smi:3057-4

> <Gold.Version>
5.8.1

> <Gold.Id.Protein>
6NUR|6NUR_protein|mol2

> <Gold.PLP.Fitness>
43.7639

> <Gold.PLP.PLP>
-44.8610

> <Gold.PLP.part.hbond>
-2.0000

> <Gold.PLP.part.metal>
0.0000

> <Gold.PLP.part.buried>
-0.4892

> <Gold.PLP.part.nonpolar>
-41.1448

> <Gold.PLP.part.repulsive>
0.3614

> <Gold.PLP.ligand.clash>
0.0000

> <Gold.PLP.ligand.torsion>
0.5556

> <Gold.PLP.Chemscore.Hbond>
0.0000

> <Gold.PLP.Chemscore.CHOScore>
0.0000

> <Gold.PLP.Chemscore.Metal>
0.0000

> <Gold.PLP.Chemscore.Internal.Correction>
0.0142

> <Gold.Rescore>
     Score         DG    S(hbond)    S(metal)    S(lipo)     H(rot)  DE(clash)    DE(int)     intcor
     12.85     -15.60       0.00        0.00     120.01       1.53       0.91       1.83       ----

> <Gold.Chemscore.Fitness>
12.8503

> <Gold.Chemscore.DG>
-15.5950

> <Gold.Chemscore.ZeroCoef>
-5.4800

> <Gold.Chemscore.Hbond>
0.0000

> <Gold.Chemscore.Metal>
0.0000

> <Gold.Chemscore.Lipo>
120.0148

> <Gold.Chemscore.Internal_Hbond>
0.0000

> <Gold.Chemscore.DEClash>
0.9149

> <Gold.Chemscore.DEInternal>
1.8298

> <Gold.Chemscore.Rot>
1.5339

> <Gold.Chemscore.Internal.Correction>
   9.000000E+99

> <Gold.Chemscore.Hbond.Weighted>
-0.0000

> <Gold.Chemscore.Metal.Weighted>
-0.0000

> <Gold.Chemscore.Lipo.Weighted>
-14.0417

> <Gold.Chemscore.Internal_Hbond.Weighted>
0.0000

> <Gold.Chemscore.DEClash.Weighted>
0.9149

> <Gold.Chemscore.DEInternal.Weighted>
1.8298

> <Gold.Chemscore.Rot.Weighted>
3.9267

> <Gold.Chemscore.Internal.Correction.Weighted>
   9.000000E+99

> <Gold.Protein.RotatedTorsions>
[ 6907 6896 6895 6894 ] final  164.30 input  -60.11 | X-H torsion
[ 7974 7965 7964 7962 ] final   43.77 input  175.53 | X-H torsion
[ 8008 7997 7996 7995 ] final -111.41 input   59.86 | X-H torsion
[ 10167 10162 10161 10158 ] final -116.02 input  -65.29 | X-H torsion
[ 10718 10713 10712 10709 ] final  121.00 input   66.30 | X-H torsion
[ 10763 10752 10751 10750 ] final   56.77 input  -60.55 | X-H torsion
[ 11005 11000 10999 10996 ] final   78.83 input  -57.11 | X-H torsion

> <Gold.Protein.ActiveResidues>
 VAL166  LYS551  ARG553  GLY616  TRP617  ASP618  TYR619  PRO620  LYS621  CYS622 
 ASP623  PHE694  ASN695  SER759  ASP760  ASP761  ALA762  ILE779  LEU786  VAL792 
 PHE793  MET794  SER795  GLU796  ALA797  LYS798  CYS799  TRP800  GLU811  SER814 

> <Gold.Protein.RotatedAtoms>
  151.9120  133.3563  159.3866 H   0  0  0  0  0  0  0  0  0  0  0  0  # atno 6907 bound_to 6896
  150.7056  134.4722  159.5440 H   0  0  0  0  0  0  0  0  0  0  0  0  # atno 6908 bound_to 6896
  152.2330  134.8303  160.0522 H   0  0  0  0  0  0  0  0  0  0  0  0  # atno 6909 bound_to 6896
  146.0626  139.5149  142.9648 H   0  0  0  0  0  0  0  0  0  0  0  0  # atno 7974 bound_to 7965
  154.9895  140.0395  157.2313 H   0  0  0  0  0  0  0  0  0  0  0  0  # atno 8008 bound_to 7997
  154.7641  140.2790  155.6167 H   0  0  0  0  0  0  0  0  0  0  0  0  # atno 8009 bound_to 7997
  156.2909  140.2622  156.2428 H   0  0  0  0  0  0  0  0  0  0  0  0  # atno 8010 bound_to 7997
  140.0837  143.4764  152.1911 H   0  0  0  0  0  0  0  0  0  0  0  0  # atno 10167 bound_to 10162
  157.5849  131.1071  150.8113 H   0  0  0  0  0  0  0  0  0  0  0  0  # atno 10718 bound_to 10713
  152.9838  135.5665  154.5282 H   0  0  0  0  0  0  0  0  0  0  0  0  # atno 10763 bound_to 10752
  154.4758  135.2786  155.1610 H   0  0  0  0  0  0  0  0  0  0  0  0  # atno 10764 bound_to 10752
  154.3139  135.6283  153.5531 H   0  0  0  0  0  0  0  0  0  0  0  0  # atno 10765 bound_to 10752
  139.9197  134.7795  156.1700 H   0  0  0  0  0  0  0  0  0  0  0  0  # atno 11005 bound_to 11000
  145.6533  141.0258  143.1748 LP  0  0  0  0  0  0  0  0  0  0  0  0  # atno 17320 bound_to 7965
  144.7184  139.8116  143.7391 LP  0  0  0  0  0  0  0  0  0  0  0  0  # atno 17321 bound_to 7965
  139.5765  144.7490  151.3753 LP  0  0  0  0  0  0  0  0  0  0  0  0  # atno 17342 bound_to 10162
  140.7064  143.7502  150.7490 LP  0  0  0  0  0  0  0  0  0  0  0  0  # atno 17343 bound_to 10162
  156.8550  130.5093  149.5308 LP  0  0  0  0  0  0  0  0  0  0  0  0  # atno 17370 bound_to 10713
  156.0898  130.5887  150.9712 LP  0  0  0  0  0  0  0  0  0  0  0  0  # atno 17371 bound_to 10713
  141.0706  133.6798  156.2133 LP  0  0  0  0  0  0  0  0  0  0  0  0  # atno 17394 bound_to 11000
  140.6513  134.5064  157.5577 LP  0  0  0  0  0  0  0  0  0  0  0  0  # atno 17395 bound_to 11000

$$$$
