AV-unprocessed.smi:767|AV-procd|sdf|3672|dock8
  -GOLD-   22720 1 83D 1   1.00000     0.00000
 Structure written by MMmdl.
 48 50  0  0  0  0  0  0  0  0  2 V2000
  151.5028  143.1723  158.1777 C   0  0  0  0  0  0  0  0  0  0  0  0
  151.1289  142.0850  157.1935 C   0  0  0  0  0  0  0  0  0  0  0  0
  151.7003  140.7963  157.2459 C   0  0  0  0  0  0  0  0  0  0  0  0
  151.2885  139.8223  156.3135 C   0  0  0  0  0  0  0  0  0  0  0  0
  150.3182  140.1574  155.3432 C   0  0  0  0  0  0  0  0  0  0  0  0
  149.8178  139.1174  154.3545 C   0  0  0  0  0  0  0  0  0  0  0  0
  148.2805  139.0393  154.2538 C   0  0  0  0  0  0  0  0  0  0  0  0
  147.8300  138.0185  153.3091 N   0  0  0  0  0  0  0  0  0  0  0  0
  146.5561  137.8066  152.9469 C   0  0  0  0  0  0  0  0  0  0  0  0
  145.6016  138.4657  153.3604 O   0  0  0  0  0  0  0  0  0  0  0  0
  146.4388  136.7733  152.1037 N   0  0  0  0  0  0  0  0  0  0  0  0
  145.1620  136.2662  151.6154 C   0  0  1  0  0  0  0  0  0  0  0  0
  145.1444  134.7456  151.4695 C   0  0  2  0  0  0  0  0  0  0  0  0
  145.0449  133.8071  150.3202 C   0  0  0  0  0  0  0  0  0  0  0  0
  143.9679  132.8591  150.9123 C   0  0  0  0  0  0  0  0  0  0  0  0
  143.4639  133.5212  152.0981 O   0  0  0  0  0  0  0  0  0  0  0  0
  143.6784  134.8922  151.8343 C   0  0  1  0  0  0  0  0  0  0  0  0
  144.0927  136.0577  152.7543 C   0  0  0  0  0  0  0  0  0  0  0  0
  144.5529  135.7078  154.1840 C   0  0  0  0  0  0  0  0  0  0  0  0
  143.0720  137.1873  152.8972 C   0  0  0  0  0  0  0  0  0  0  0  0
  149.7987  141.4699  155.3252 C   0  0  0  0  0  0  0  0  0  0  0  0
  150.2126  142.3715  156.2420 N   0  3  0  0  0  0  0  0  0  0  0  0
  151.9452  142.7457  159.0786 H   0  0  0  0  0  0  0  0  0  0  0  0
  150.6224  143.7441  158.4728 H   0  0  0  0  0  0  0  0  0  0  0  0
  152.2254  143.8550  157.7302 H   0  0  0  0  0  0  0  0  0  0  0  0
  152.4344  140.5502  157.9991 H   0  0  0  0  0  0  0  0  0  0  0  0
  151.7043  138.8261  156.3554 H   0  0  0  0  0  0  0  0  0  0  0  0
  150.2370  139.3425  153.3734 H   0  0  0  0  0  0  0  0  0  0  0  0
  150.2123  138.1395  154.6336 H   0  0  0  0  0  0  0  0  0  0  0  0
  147.8487  138.8610  155.2401 H   0  0  0  0  0  0  0  0  0  0  0  0
  147.8889  140.0022  153.9257 H   0  0  0  0  0  0  0  0  0  0  0  0
  148.5412  137.4223  152.9113 H   0  0  0  0  0  0  0  0  0  0  0  0
  147.2736  136.2887  151.8079 H   0  0  0  0  0  0  0  0  0  0  0  0
  144.7824  136.7847  150.7300 H   0  0  0  0  0  0  0  0  0  0  0  0
  145.7423  134.2834  152.2583 H   0  0  0  0  0  0  0  0  0  0  0  0
  144.6971  134.3058  149.4143 H   0  0  0  0  0  0  0  0  0  0  0  0
  145.9836  133.2944  150.1077 H   0  0  0  0  0  0  0  0  0  0  0  0
  143.1617  132.6923  150.1969 H   0  0  0  0  0  0  0  0  0  0  0  0
  144.3842  131.8892  151.1859 H   0  0  0  0  0  0  0  0  0  0  0  0
  143.0461  135.2295  151.0048 H   0  0  0  0  0  0  0  0  0  0  0  0
  143.7011  135.4978  154.8316 H   0  0  0  0  0  0  0  0  0  0  0  0
  145.1038  136.5321  154.6342 H   0  0  0  0  0  0  0  0  0  0  0  0
  145.1963  134.8317  154.2355 H   0  0  0  0  0  0  0  0  0  0  0  0
  142.2020  136.8724  153.4741 H   0  0  0  0  0  0  0  0  0  0  0  0
  142.7093  137.5244  151.9257 H   0  0  0  0  0  0  0  0  0  0  0  0
  143.5042  138.0551  153.3959 H   0  0  0  0  0  0  0  0  0  0  0  0
  149.0498  141.8152  154.6274 H   0  0  0  0  0  0  0  0  0  0  0  0
  149.8094  143.3083  156.2197 H   0  0  0  0  0  0  0  0  0  0  0  0
  1  2  1  0  0  0  0
  1 23  1  0  0  0  0
  1 24  1  0  0  0  0
  1 25  1  0  0  0  0
  2 22  1  0  0  0  0
  2  3  2  0  0  0  0
  3  4  1  0  0  0  0
  3 26  1  0  0  0  0
  4  5  2  0  0  0  0
  4 27  1  0  0  0  0
  5  6  1  0  0  0  0
  5 21  1  0  0  0  0
  6  7  1  0  0  0  0
  6 28  1  0  0  0  0
  6 29  1  0  0  0  0
  7  8  1  0  0  0  0
  7 30  1  0  0  0  0
  7 31  1  0  0  0  0
  8  9  1  0  0  0  0
  8 32  1  0  0  0  0
  9 10  2  0  0  0  0
  9 11  1  0  0  0  0
 11 12  1  0  0  0  0
 11 33  1  0  0  0  0
 12 18  1  0  0  0  0
 12 13  1  0  0  0  0
 12 34  1  0  0  0  0
 13 17  1  0  0  0  0
 13 14  1  0  0  0  0
 13 35  1  0  0  0  0
 14 15  1  0  0  0  0
 14 36  1  0  0  0  0
 14 37  1  0  0  0  0
 15 16  1  0  0  0  0
 15 38  1  0  0  0  0
 15 39  1  0  0  0  0
 16 17  1  0  0  0  0
 17 18  1  0  0  0  0
 17 40  1  0  0  0  0
 18 19  1  0  0  0  0
 18 20  1  0  0  0  0
 19 41  1  0  0  0  0
 19 42  1  0  0  0  0
 19 43  1  0  0  0  0
 20 44  1  0  0  0  0
 20 45  1  0  0  0  0
 20 46  1  0  0  0  0
 21 22  2  0  0  0  0
 21 47  1  0  0  0  0
 22 48  1  0  0  0  0
M  CHG  1  22   1
M  END
> <s_m_source_file>
AV-unprocessed.smi

> <i_m_source_file_index>
767

> <i_lp_mmshare_version>
43012

> <i_f3d_flags>
0

> <s_epik_input>
W0NIM11jMVtjSF1bY0hdYyhbY0hdbjEpW0NIMl1bQ0gyXVtOSF1DKD1PKVtOSF1bQ0BIXTJDKFtDSDNdKShbQ0gzXSlbQ0BIXShbQ0BASF0yMylPW0NIMl1bQ0gyXTM=

> <s_epik_cmdline>
J2VwaWtfcHl0aG9uJywgJy1waCcsICc3LjAnLCAnLXRuJywgJzgnLCAnLW1hJywgJzIwMCcsICctbWV0YWxfYmluZGluZycsICctaW1hZScsICc8aW5maWxlLm1hZT4nLCAnLW9tYWUnLCAnPG91dGZpbGUubWFlPic=

> <r_epik_Ionization_Penalty>
1.41853

> <r_epik_Ionization_Penalty_Charging>
1.41848

> <r_epik_Ionization_Penalty_Neutral>
5.17407e-05

> <r_epik_State_Penalty>
1.50205

> <r_epik_Charging_Adjusted_Penalty>
2.92053

> <i_epik_Tot_Q>
1

> <i_epik_Tot_abs_Q>
1

> <r_epik_Metal_State_Penalty>
1.5544

> <b_epik_Metal_Only>
0

> <s_lp_Force_Field>
OPLS_2005

> <r_lp_Energy>
61.237

> <b_lp_Chiralities_Consistent>
1

> <s_lp_Variant>
AV-unprocessed.smi:767-16

> <Gold.Version>
5.8.1

> <Gold.Id.Protein>
6NUR|6NUR_protein|mol2

> <Gold.PLP.Fitness>
47.6710

> <Gold.PLP.PLP>
-36.2712

> <Gold.PLP.part.hbond>
-3.0000

> <Gold.PLP.part.metal>
0.0000

> <Gold.PLP.part.buried>
-4.2945

> <Gold.PLP.part.nonpolar>
-31.7504

> <Gold.PLP.part.repulsive>
2.0444

> <Gold.PLP.ligand.clash>
0.0000

> <Gold.PLP.ligand.torsion>
0.3653

> <Gold.PLP.Chemscore.Hbond>
3.9520

> <Gold.PLP.Chemscore.CHOScore>
0.0000

> <Gold.PLP.Chemscore.Metal>
0.0000

> <Gold.Chemscore.Hbonds>
donor molecule, donor type, donor heavy atom, donor atom, acceptor molecule, acceptor atom, score
      L1  H     8    32       P1  7948  0.99
      L1  H    11    33       P1  7948  0.96
      L1  H    22    48       P1  8028  2.00

> <Gold.PLP.Chemscore.Internal.Correction>
0.2744

> <Gold.Rescore>
     Score         DG    S(hbond)    S(metal)    S(lipo)     H(rot)  DE(clash)    DE(int)     intcor
     18.58     -22.33       2.86        0.00      95.60       1.52       0.91       2.84       ----

> <Gold.Chemscore.Fitness>
18.5801

> <Gold.Chemscore.DG>
-22.3262

> <Gold.Chemscore.ZeroCoef>
-5.4800

> <Gold.Chemscore.Hbond>
2.8623

> <Gold.Chemscore.Metal>
0.0000

> <Gold.Chemscore.Lipo>
95.6027

> <Gold.Chemscore.Internal_Hbond>
0.0000

> <Gold.Chemscore.DEClash>
0.9055

> <Gold.Chemscore.DEInternal>
2.8406

> <Gold.Chemscore.Rot>
1.5233

> <Gold.Chemscore.Internal.Correction>
   9.000000E+99

> <Gold.Chemscore.Hbonds>
donor molecule, donor type, donor heavy atom, donor atom, acceptor molecule, acceptor atom, score
      L1  H     8    32       P1  7948  0.94
      L1  H    11    33       P1  7948  0.92
      L1  H    22    48       P1  8028  1.00

> <Gold.Chemscore.Hbond.Weighted>
-9.5602

> <Gold.Chemscore.Metal.Weighted>
-0.0000

> <Gold.Chemscore.Lipo.Weighted>
-11.1855

> <Gold.Chemscore.Internal_Hbond.Weighted>
0.0000

> <Gold.Chemscore.DEClash.Weighted>
0.9055

> <Gold.Chemscore.DEInternal.Weighted>
2.8406

> <Gold.Chemscore.Rot.Weighted>
3.8995

> <Gold.Chemscore.Internal.Correction.Weighted>
   9.000000E+99

> <Gold.Protein.RotatedTorsions>
[ 6907 6896 6895 6894 ] final   31.95 input  -60.11 | X-H torsion
[ 7974 7965 7964 7962 ] final   21.86 input  175.53 | X-H torsion
[ 8008 7997 7996 7995 ] final -178.34 input   59.86 | X-H torsion
[ 10167 10162 10161 10158 ] final   72.34 input  -65.29 | X-H torsion
[ 10718 10713 10712 10709 ] final  -55.94 input   66.30 | X-H torsion
[ 10763 10752 10751 10750 ] final   29.22 input  -60.55 | X-H torsion
[ 11005 11000 10999 10996 ] final   86.72 input  -57.11 | X-H torsion

> <Gold.Protein.ActiveResidues>
 VAL166  LYS551  ARG553  GLY616  TRP617  ASP618  TYR619  PRO620  LYS621  CYS622 
 ASP623  PHE694  ASN695  SER759  ASP760  ASP761  ALA762  ILE779  LEU786  VAL792 
 PHE793  MET794  SER795  GLU796  ALA797  LYS798  CYS799  TRP800  GLU811  SER814 

> <Gold.Protein.RotatedAtoms>
  152.0675  134.9555  160.0574 H   0  0  0  0  0  0  0  0  0  0  0  0  # atno 6907 bound_to 6896
  152.0894  133.4188  159.4545 H   0  0  0  0  0  0  0  0  0  0  0  0  # atno 6908 bound_to 6896
  150.6836  134.2809  159.4670 H   0  0  0  0  0  0  0  0  0  0  0  0  # atno 6909 bound_to 6896
  146.2053  139.7966  142.8730 H   0  0  0  0  0  0  0  0  0  0  0  0  # atno 7974 bound_to 7965
  156.0177  140.1254  157.0389 H   0  0  0  0  0  0  0  0  0  0  0  0  # atno 8008 bound_to 7997
  154.4299  140.1075  156.5989 H   0  0  0  0  0  0  0  0  0  0  0  0  # atno 8009 bound_to 7997
  155.5989  140.3470  155.4590 H   0  0  0  0  0  0  0  0  0  0  0  0  # atno 8010 bound_to 7997
  140.0364  144.5425  150.7468 H   0  0  0  0  0  0  0  0  0  0  0  0  # atno 10167 bound_to 10162
  156.1328  130.4158  150.0238 H   0  0  0  0  0  0  0  0  0  0  0  0  # atno 10718 bound_to 10713
  153.0444  135.6494  154.0857 H   0  0  0  0  0  0  0  0  0  0  0  0  # atno 10763 bound_to 10752
  154.0557  135.2892  155.3334 H   0  0  0  0  0  0  0  0  0  0  0  0  # atno 10764 bound_to 10752
  154.6690  135.5363  153.8180 H   0  0  0  0  0  0  0  0  0  0  0  0  # atno 10765 bound_to 10752
  139.8937  134.8374  156.2760 H   0  0  0  0  0  0  0  0  0  0  0  0  # atno 11005 bound_to 11000
  145.3340  141.0273  143.3430 LP  0  0  0  0  0  0  0  0  0  0  0  0  # atno 17320 bound_to 7965
  144.8778  139.4946  143.6737 LP  0  0  0  0  0  0  0  0  0  0  0  0  # atno 17321 bound_to 7965
  140.7280  143.2657  151.4054 LP  0  0  0  0  0  0  0  0  0  0  0  0  # atno 17342 bound_to 10162
  139.6042  144.1231  152.2231 LP  0  0  0  0  0  0  0  0  0  0  0  0  # atno 17343 bound_to 10162
  156.8145  130.9336  151.3643 LP  0  0  0  0  0  0  0  0  0  0  0  0  # atno 17370 bound_to 10713
  157.6504  130.8880  149.9623 LP  0  0  0  0  0  0  0  0  0  0  0  0  # atno 17371 bound_to 10713
  141.0069  133.7118  156.1050 LP  0  0  0  0  0  0  0  0  0  0  0  0  # atno 17394 bound_to 11000
  140.7420  134.4139  157.5553 LP  0  0  0  0  0  0  0  0  0  0  0  0  # atno 17395 bound_to 11000

$$$$
