AV-unprocessed.smi:2454|AV-procd|sdf|9698|dock9
  -GOLD-   2272013333D 1   1.00000     0.00000
 Structure written by MMmdl.
 42 43  0  0  0  0  0  0  0  0  1 V2000
  143.9752  135.3148  162.6199 C   0  0  0  0  0  0  0  0  0  0  0  0
  145.1525  135.7797  161.9835 O   0  0  0  0  0  0  0  0  0  0  0  0
  146.2461  134.8929  162.1481 C   0  0  0  0  0  0  0  0  0  0  0  0
  147.2439  135.0344  161.0175 C   0  0  0  0  0  0  0  0  0  0  0  0
  147.9788  136.2247  160.8333 C   0  0  0  0  0  0  0  0  0  0  0  0
  148.8789  136.2708  159.7446 C   0  0  0  0  0  0  0  0  0  0  0  0
  149.5909  137.4977  159.5974 N   0  0  0  0  0  0  0  0  0  0  0  0
  150.5117  137.8909  158.6913 C   0  0  0  0  0  0  0  0  0  0  0  0
  150.8763  137.1392  157.7887 O   0  0  0  0  0  0  0  0  0  0  0  0
  150.9937  139.1353  158.8398 N   0  0  0  0  0  0  0  0  0  0  0  0
  152.0132  139.7704  158.0082 C   0  0  1  0  0  0  0  0  0  0  0  0
  151.4673  139.9985  156.5862 C   0  0  0  0  0  0  0  0  0  0  0  0
  150.3873  141.0928  156.5506 C   0  0  0  0  0  0  0  0  0  0  0  0
  150.9012  142.4045  157.1641 C   0  0  0  0  0  0  0  0  0  0  0  0
  151.4129  142.1997  158.6057 C   0  0  2  0  0  0  0  0  0  0  0  0
  151.9145  143.5167  159.2327 C   0  0  0  0  0  0  0  0  0  0  0  0
  152.4457  143.2981  160.4362 F   0  0  0  0  0  0  0  0  0  0  0  0
  152.8381  144.0732  158.4490 F   0  0  0  0  0  0  0  0  0  0  0  0
  150.9037  144.3766  159.3575 F   0  0  0  0  0  0  0  0  0  0  0  0
  152.4965  141.0972  158.6331 C   0  0  0  0  0  0  0  0  0  0  0  0
  149.0010  135.1920  158.9288 N   0  0  0  0  0  0  0  0  0  0  0  0
  148.2569  134.1153  159.1920 C   0  0  0  0  0  0  0  0  0  0  0  0
  147.3855  133.9763  160.1912 N   0  0  0  0  0  0  0  0  0  0  0  0
  143.1685  136.0319  162.4676 H   0  0  0  0  0  0  0  0  0  0  0  0
  144.1257  135.2007  163.6942 H   0  0  0  0  0  0  0  0  0  0  0  0
  143.6557  134.3571  162.2073 H   0  0  0  0  0  0  0  0  0  0  0  0
  146.7496  135.0950  163.0950 H   0  0  0  0  0  0  0  0  0  0  0  0
  145.8906  133.8615  162.1886 H   0  0  0  0  0  0  0  0  0  0  0  0
  147.8516  137.0668  161.4985 H   0  0  0  0  0  0  0  0  0  0  0  0
  149.3369  138.2086  160.2676 H   0  0  0  0  0  0  0  0  0  0  0  0
  150.6345  139.6825  159.6099 H   0  0  0  0  0  0  0  0  0  0  0  0
  152.8634  139.0901  157.9334 H   0  0  0  0  0  0  0  0  0  0  0  0
  152.2888  140.2891  155.9303 H   0  0  0  0  0  0  0  0  0  0  0  0
  151.0697  139.0677  156.1796 H   0  0  0  0  0  0  0  0  0  0  0  0
  150.0706  141.2645  155.5217 H   0  0  0  0  0  0  0  0  0  0  0  0
  149.5012  140.7580  157.0916 H   0  0  0  0  0  0  0  0  0  0  0  0
  151.7020  142.8058  156.5416 H   0  0  0  0  0  0  0  0  0  0  0  0
  150.1014  143.1453  157.1516 H   0  0  0  0  0  0  0  0  0  0  0  0
  150.5710  141.8572  159.2096 H   0  0  0  0  0  0  0  0  0  0  0  0
  152.8325  140.9243  159.6560 H   0  0  0  0  0  0  0  0  0  0  0  0
  153.3741  141.4436  158.0860 H   0  0  0  0  0  0  0  0  0  0  0  0
  148.3735  133.2716  158.5281 H   0  0  0  0  0  0  0  0  0  0  0  0
  1  2  1  0  0  0  0
  1 24  1  0  0  0  0
  1 25  1  0  0  0  0
  1 26  1  0  0  0  0
  2  3  1  0  0  0  0
  3  4  1  0  0  0  0
  3 27  1  0  0  0  0
  3 28  1  0  0  0  0
  4 23  1  0  0  0  0
  4  5  2  0  0  0  0
  5  6  1  0  0  0  0
  5 29  1  0  0  0  0
  6  7  1  0  0  0  0
  6 21  2  0  0  0  0
  7  8  1  0  0  0  0
  7 30  1  0  0  0  0
  8  9  2  0  0  0  0
  8 10  1  0  0  0  0
 10 11  1  0  0  0  0
 10 31  1  0  0  0  0
 11 20  1  0  0  0  0
 11 12  1  0  0  0  0
 11 32  1  0  0  0  0
 12 13  1  0  0  0  0
 12 33  1  0  0  0  0
 12 34  1  0  0  0  0
 13 14  1  0  0  0  0
 13 35  1  0  0  0  0
 13 36  1  0  0  0  0
 14 15  1  0  0  0  0
 14 37  1  0  0  0  0
 14 38  1  0  0  0  0
 15 16  1  0  0  0  0
 15 20  1  0  0  0  0
 15 39  1  0  0  0  0
 16 17  1  0  0  0  0
 16 18  1  0  0  0  0
 16 19  1  0  0  0  0
 20 40  1  0  0  0  0
 20 41  1  0  0  0  0
 21 22  1  0  0  0  0
 22 23  2  0  0  0  0
 22 42  1  0  0  0  0
M  END
> <s_m_source_file>
AV-unprocessed.smi

> <i_m_source_file_index>
2454

> <i_lp_mmshare_version>
43012

> <i_f3d_flags>
0

> <s_epik_input>
W0NIM11PW0NIMl1jMVtjSF1jKG5bY0hdbjEpW05IXUMoPU8pW05IXVtDQEBIXTJbQ0gyXVtDSDJdW0NIMl1bQ0BASF0oQyhGKShGKUYpW0NIMl0y

> <s_epik_cmdline>
J2VwaWtfcHl0aG9uJywgJy1waCcsICc3LjAnLCAnLXRuJywgJzgnLCAnLW1hJywgJzIwMCcsICctbWV0YWxfYmluZGluZycsICctaW1hZScsICc8aW5maWxlLm1hZT4nLCAnLW9tYWUnLCAnPG91dGZpbGUubWFlPic=

> <r_lp_tautomer_probability>
1

> <r_epik_Ionization_Penalty>
3.01554e-05

> <r_epik_Ionization_Penalty_Charging>
0

> <r_epik_Ionization_Penalty_Neutral>
3.01554e-05

> <r_epik_State_Penalty>
-0

> <r_epik_Charging_Adjusted_Penalty>
0

> <i_epik_Tot_Q>
0

> <i_epik_Tot_abs_Q>
0

> <r_epik_Metal_State_Penalty>
-0

> <b_epik_Metal_Only>
0

> <s_lp_Force_Field>
OPLS_2005

> <r_lp_Energy>
13.7545

> <b_lp_Chiralities_Consistent>
1

> <s_lp_Variant>
AV-unprocessed.smi:2454-4

> <Gold.Version>
5.8.1

> <Gold.Id.Protein>
6NUR|6NUR_protein|mol2

> <Gold.PLP.Fitness>
43.5523

> <Gold.PLP.PLP>
-41.6111

> <Gold.PLP.part.hbond>
-1.0000

> <Gold.PLP.part.metal>
0.0000

> <Gold.PLP.part.buried>
-6.5049

> <Gold.PLP.part.nonpolar>
-36.5679

> <Gold.PLP.part.repulsive>
2.0472

> <Gold.PLP.ligand.clash>
0.0000

> <Gold.PLP.ligand.torsion>
0.3353

> <Gold.PLP.Chemscore.Hbond>
0.8550

> <Gold.PLP.Chemscore.CHOScore>
0.0000

> <Gold.PLP.Chemscore.Metal>
0.0000

> <Gold.Chemscore.Hbonds>
donor molecule, donor type, donor heavy atom, donor atom, acceptor molecule, acceptor atom, score
      P1  H  6896  6907       L1    21  0.86

> <Gold.PLP.Chemscore.Internal.Correction>
0.0467

> <Gold.Rescore>
     Score         DG    S(hbond)    S(metal)    S(lipo)     H(rot)  DE(clash)    DE(int)     intcor
      9.81     -11.38       0.00        0.00      85.54       1.60       0.14       1.44       ----

> <Gold.Chemscore.Fitness>
9.8058

> <Gold.Chemscore.DG>
-11.3828

> <Gold.Chemscore.ZeroCoef>
-5.4800

> <Gold.Chemscore.Hbond>
0.0000

> <Gold.Chemscore.Metal>
0.0000

> <Gold.Chemscore.Lipo>
85.5366

> <Gold.Chemscore.Internal_Hbond>
0.0000

> <Gold.Chemscore.DEClash>
0.1351

> <Gold.Chemscore.DEInternal>
1.4419

> <Gold.Chemscore.Rot>
1.6035

> <Gold.Chemscore.Internal.Correction>
   9.000000E+99

> <Gold.Chemscore.Hbonds>
donor molecule, donor type, donor heavy atom, donor atom, acceptor molecule, acceptor atom, score
      P1  H  6896  6907       L1    21  0.04

> <Gold.Chemscore.Hbond.Weighted>
-0.0001

> <Gold.Chemscore.Metal.Weighted>
-0.0000

> <Gold.Chemscore.Lipo.Weighted>
-10.0078

> <Gold.Chemscore.Internal_Hbond.Weighted>
0.0000

> <Gold.Chemscore.DEClash.Weighted>
0.1351

> <Gold.Chemscore.DEInternal.Weighted>
1.4419

> <Gold.Chemscore.Rot.Weighted>
4.1050

> <Gold.Chemscore.Internal.Correction.Weighted>
   9.000000E+99

> <Gold.Protein.RotatedTorsions>
[ 6907 6896 6895 6894 ] final  -72.75 input  -60.11 | X-H torsion
[ 7974 7965 7964 7962 ] final   54.75 input  175.53 | X-H torsion
[ 8008 7997 7996 7995 ] final -102.67 input   59.86 | X-H torsion
[ 10167 10162 10161 10158 ] final -124.99 input  -65.29 | X-H torsion
[ 10718 10713 10712 10709 ] final   96.58 input   66.30 | X-H torsion
[ 10763 10752 10751 10750 ] final -161.98 input  -60.55 | X-H torsion
[ 11005 11000 10999 10996 ] final   69.00 input  -57.11 | X-H torsion

> <Gold.Protein.ActiveResidues>
 VAL166  LYS551  ARG553  GLY616  TRP617  ASP618  TYR619  PRO620  LYS621  CYS622 
 ASP623  PHE694  ASN695  SER759  ASP760  ASP761  ALA762  ILE779  LEU786  VAL792 
 PHE793  MET794  SER795  GLU796  ALA797  LYS798  CYS799  TRP800  GLU811  SER814 

> <Gold.Protein.RotatedAtoms>
  150.7157  134.5117  159.5610 H   0  0  0  0  0  0  0  0  0  0  0  0  # atno 6907 bound_to 6896
  152.2692  134.7948  160.0426 H   0  0  0  0  0  0  0  0  0  0  0  0  # atno 6908 bound_to 6896
  151.8634  133.3426  159.3748 H   0  0  0  0  0  0  0  0  0  0  0  0  # atno 6909 bound_to 6896
  145.9576  139.4029  143.0268 H   0  0  0  0  0  0  0  0  0  0  0  0  # atno 7974 bound_to 7965
  154.8600  140.0427  157.1659 H   0  0  0  0  0  0  0  0  0  0  0  0  # atno 8008 bound_to 7997
  154.8850  140.2978  155.5383 H   0  0  0  0  0  0  0  0  0  0  0  0  # atno 8009 bound_to 7997
  156.2998  140.2404  156.3858 H   0  0  0  0  0  0  0  0  0  0  0  0  # atno 8010 bound_to 7997
  139.9869  143.5682  152.2357 H   0  0  0  0  0  0  0  0  0  0  0  0  # atno 10167 bound_to 10162
  157.6925  131.0582  150.4512 H   0  0  0  0  0  0  0  0  0  0  0  0  # atno 10718 bound_to 10713
  154.7255  135.3035  154.8978 H   0  0  0  0  0  0  0  0  0  0  0  0  # atno 10763 bound_to 10752
  153.9837  135.6727  153.4755 H   0  0  0  0  0  0  0  0  0  0  0  0  # atno 10764 bound_to 10752
  153.0871  135.4978  154.8537 H   0  0  0  0  0  0  0  0  0  0  0  0  # atno 10765 bound_to 10752
  139.9679  134.6950  156.0508 H   0  0  0  0  0  0  0  0  0  0  0  0  # atno 11005 bound_to 11000
  145.8085  140.9737  143.0961 LP  0  0  0  0  0  0  0  0  0  0  0  0  # atno 17320 bound_to 7965
  144.6808  139.9891  143.7484 LP  0  0  0  0  0  0  0  0  0  0  0  0  # atno 17321 bound_to 7965
  139.6368  144.7651  151.2420 LP  0  0  0  0  0  0  0  0  0  0  0  0  # atno 17342 bound_to 10162
  140.7469  143.6384  150.8358 LP  0  0  0  0  0  0  0  0  0  0  0  0  # atno 17343 bound_to 10162
  156.4863  130.4085  149.6432 LP  0  0  0  0  0  0  0  0  0  0  0  0  # atno 17370 bound_to 10713
  156.3459  130.7406  151.2359 LP  0  0  0  0  0  0  0  0  0  0  0  0  # atno 17371 bound_to 10713
  141.1358  133.6575  156.3591 LP  0  0  0  0  0  0  0  0  0  0  0  0  # atno 17394 bound_to 11000
  140.5357  134.6169  157.5364 LP  0  0  0  0  0  0  0  0  0  0  0  0  # atno 17395 bound_to 11000

$$$$
