#       Name:                AV-unprocessed.smi:1015
#       Creating user name   scv26
#       Creation time:       Fri Mar 27 02:39:16 2020


#       File generated by GOLD software.
#

@<TRIPOS>MOLECULE
AV-unprocessed.smi:1015
    50    51     1
SMALL
NO_CHARGES


@<TRIPOS>ATOM
      1 ****        -3.3463   2.6230  -3.6147 C.3            1 S1                 0.0000
      2 ****        -2.7549   1.3719  -3.3103 O.3            1 S1                 0.0000
      3 ****        -3.2715   0.8013  -2.1194 C.3            1 S1                 0.0000
      4 ****        -2.5764  -0.5466  -1.8720 C.3            1 S1                 0.0000
      5 ****        -1.1163  -0.4006  -1.6424 N.4            1 S1                 1.0000
      6 ****        -0.3726  -1.6491  -1.9511 C.3            1 S1                 0.0000
      7 ****         1.1492  -1.4417  -1.8328 C.3            1 S1                 0.0000
      8 ****         1.5593  -0.8973  -0.4517 C.3            1 S1                 0.0000
      9 ****         1.4830  -1.9834   0.6477 C.3            1 S1                 0.0000
     10 ****         1.9523  -1.4858   1.9366 N.am           1 S1                 0.0000
     11 ****         1.1689  -1.1624   2.9781 C.2            1 S1                 0.0000
     12 ****        -0.0510  -1.3239   2.9891 O.2            1 S1                 0.0000
     13 ****         1.8648  -0.5219   4.1782 C.3            1 S1                 0.0000
     14 ****         2.1256   0.8820   3.9211 N.pl3          1 S1                 0.0000
     15 ****         3.1934   1.4964   3.4071 C.2            1 S1                 0.0000
     16 ****         3.0057   2.8036   3.3104 N.2            1 S1                 0.0000
     17 ****         1.7259   2.9757   3.8108 N.2            1 S1                 0.0000
     18 ****         1.1980   1.8391   4.1736 N.2            1 S1                 0.0000
     19 ****         0.7313   0.3720  -0.1584 C.3            1 S1                 0.0000
     20 ****        -0.7799   0.1187  -0.2903 C.3            1 S1                 0.0000
     21 ****        -2.9192   3.0153  -4.5375 H              1 S1                 0.0000
     22 ****        -3.1608   3.3497  -2.8227 H              1 S1                 0.0000
     23 ****        -4.4235   2.5268  -3.7566 H              1 S1                 0.0000
     24 ****        -3.1422   1.4812  -1.2771 H              1 S1                 0.0000
     25 ****        -4.3444   0.6380  -2.2328 H              1 S1                 0.0000
     26 ****        -3.0307  -1.0612  -1.0241 H              1 S1                 0.0000
     27 ****        -2.7513  -1.1793  -2.7433 H              1 S1                 0.0000
     28 ****        -0.7057  -2.4477  -1.2871 H              1 S1                 0.0000
     29 ****        -0.6060  -1.9710  -2.9667 H              1 S1                 0.0000
     30 ****         1.6714  -2.3760  -2.0420 H              1 S1                 0.0000
     31 ****         1.4699  -0.7392  -2.6034 H              1 S1                 0.0000
     32 ****         2.6056  -0.5952  -0.5181 H              1 S1                 0.0000
     33 ****         0.4749  -2.3905   0.7302 H              1 S1                 0.0000
     34 ****         2.1202  -2.8242   0.3725 H              1 S1                 0.0000
     35 ****         2.9456  -1.3266   2.0254 H              1 S1                 0.0000
     36 ****         1.2438  -0.6155   5.0706 H              1 S1                 0.0000
     37 ****         2.8087  -1.0283   4.3841 H              1 S1                 0.0000
     38 ****         4.0953   0.9895   3.0964 H              1 S1                 0.0000
     39 ****         0.9608   0.7756   0.8276 H              1 S1                 0.0000
     40 ****         1.0176   1.1526  -0.8646 H              1 S1                 0.0000
     41 ****        -1.3055   1.0537  -0.1016 H              1 S1                 0.0000
     42 ****        -1.1178  -0.5865   0.4700 H              1 S1                 0.0000
     43 ****        -0.7948   0.2873  -2.3089 H              1 S1                 0.0000
     44 ****        -1.7692   1.5011  -3.2024 LP             1 S1                 0.0000
     45 ****        -2.9276   0.7429  -4.0682 LP             1 S1                 0.0000
     46 ****        -0.5107  -1.7156   2.1921 LP             1 S1                 0.0000
     47 ****        -0.5826  -1.0635   3.7951 LP             1 S1                 0.0000
     48 ****         3.6350   3.4978   2.9610 LP             1 S1                 0.0000
     49 ****         1.2645   3.8598   3.8847 LP             1 S1                 0.0000
     50 ****         0.2870   1.7005   4.5621 LP             1 S1                 0.0000
@<TRIPOS>BOND
    1    1    2 1     
    2    1   21 1     
    3    1   22 1     
    4    1   23 1     
    5    2    3 1     
    6    3    4 1     
    7    3   24 1     
    8    3   25 1     
    9    4    5 1     
   10    4   26 1     
   11    4   27 1     
   12    5   20 1     
   13    5    6 1     
   14    5   43 1     
   15    6    7 1     
   16    6   28 1     
   17    6   29 1     
   18    7    8 1     
   19    7   30 1     
   20    7   31 1     
   21    8    9 1     
   22    8   19 1     
   23    8   32 1     
   24    9   10 1     
   25    9   33 1     
   26    9   34 1     
   27   10   11 am    
   28   10   35 1     
   29   11   12 2     
   30   11   13 1     
   31   13   14 1     
   32   13   36 1     
   33   13   37 1     
   34   14   18 1     
   35   14   15 1     
   36   15   16 2     
   37   15   38 1     
   38   16   17 1     
   39   17   18 2     
   40   19   20 1     
   41   19   39 1     
   42   19   40 1     
   43   20   41 1     
   44   20   42 1     
   45    2   44 1     
   46    2   45 1     
   47   12   46 1     
   48   12   47 1     
   49   16   48 1     
   50   17   49 1     
   51   18   50 1     
@<TRIPOS>SUBSTRUCTURE
      1 S1             1
@<TRIPOS>SET
LONE_PAIRS      STATIC     ATOMS    <user>   **** ""
7 44 45 46 47 48 49 50
DONOR_HYDROGENS      STATIC     ATOMS    <user>   **** ""
2 43 35
ATOM$BLUE        STATIC     ATOMS    COLORGROUP SYSTEM
7 44 45 46 47 48 49 50
ATOM$RED        STATIC     ATOMS    COLORGROUP SYSTEM
2 43 35
