AV-unprocessed.smi:3209|AV-procd|sdf|12270|dock3
  -GOLD-   2272018103D 1   1.00000     0.00000
 Structure written by MMmdl.
 37 39  0  0  0  0  0  0  0  0  2 V2000
  153.5997  138.3202  154.3756 C   0  0  0  0  0  0  0  0  0  0  0  0
  152.2005  138.6269  154.7881 C   0  0  0  0  0  0  0  0  0  0  0  0
  151.7000  139.8643  154.8453 N   0  0  0  0  0  0  0  0  0  0  0  0
  150.3663  139.8868  155.2652 C   0  0  0  0  0  0  0  0  0  0  0  0
  149.6441  141.1941  155.3869 C   0  0  0  0  0  0  0  0  0  0  0  0
  149.5850  141.6914  156.8374 C   0  0  0  0  0  0  0  0  0  0  0  0
  150.3780  142.9261  157.0070 N   0  3  0  0  0  0  0  0  0  0  0  0
  150.7552  143.2356  158.4042 C   0  0  2  0  0  0  0  0  0  0  0  0
  150.5860  144.7402  158.7124 C   0  0  0  0  0  0  0  0  0  0  0  0
  151.9904  145.1579  159.1852 C   0  0  1  0  0  0  0  0  0  0  0  0
  152.2835  144.5229  160.5569 C   0  0  0  0  0  0  0  0  0  0  0  0
  152.4943  143.0382  160.2044 C   0  0  0  0  0  0  0  0  0  0  0  0
  152.2609  143.0123  158.6820 C   0  0  2  0  0  0  0  0  0  0  0  0
  152.8826  144.3405  158.2598 C   0  0  0  0  0  0  0  0  0  0  0  0
  149.8585  138.6375  155.5212 C   0  0  0  0  0  0  0  0  0  0  0  0
  151.0400  137.3870  155.2469 S   0  0  0  0  0  0  0  0  0  0  0  0
  154.1893  139.2348  154.3045 H   0  0  0  0  0  0  0  0  0  0  0  0
  153.6012  137.8254  153.4044 H   0  0  0  0  0  0  0  0  0  0  0  0
  154.0678  137.6599  155.1061 H   0  0  0  0  0  0  0  0  0  0  0  0
  150.1322  141.9458  154.7650 H   0  0  0  0  0  0  0  0  0  0  0  0
  148.6311  141.0938  154.9946 H   0  0  0  0  0  0  0  0  0  0  0  0
  148.5506  141.8897  157.1215 H   0  0  0  0  0  0  0  0  0  0  0  0
  149.9599  140.9168  157.5066 H   0  0  0  0  0  0  0  0  0  0  0  0
  151.2185  142.8626  156.4507 H   0  0  0  0  0  0  0  0  0  0  0  0
  150.1352  142.6408  159.0772 H   0  0  0  0  0  0  0  0  0  0  0  0
  150.3035  145.3052  157.8225 H   0  0  0  0  0  0  0  0  0  0  0  0
  149.8252  144.9236  159.4721 H   0  0  0  0  0  0  0  0  0  0  0  0
  152.1593  146.2348  159.1561 H   0  0  0  0  0  0  0  0  0  0  0  0
  153.1883  144.9448  160.9964 H   0  0  0  0  0  0  0  0  0  0  0  0
  151.4667  144.6718  161.2644 H   0  0  0  0  0  0  0  0  0  0  0  0
  153.5129  142.7298  160.4445 H   0  0  0  0  0  0  0  0  0  0  0  0
  151.8121  142.3797  160.7434 H   0  0  0  0  0  0  0  0  0  0  0  0
  152.6885  142.1320  158.2016 H   0  0  0  0  0  0  0  0  0  0  0  0
  152.7401  144.5727  157.2031 H   0  0  0  0  0  0  0  0  0  0  0  0
  153.9441  144.4188  158.5025 H   0  0  0  0  0  0  0  0  0  0  0  0
  148.8649  138.3759  155.8537 H   0  0  0  0  0  0  0  0  0  0  0  0
  149.8206  143.6935  156.6597 H   0  0  0  0  0  0  0  0  0  0  0  0
  1  2  1  0  0  0  0
  1 17  1  0  0  0  0
  1 18  1  0  0  0  0
  1 19  1  0  0  0  0
  2 16  1  0  0  0  0
  2  3  2  0  0  0  0
  3  4  1  0  0  0  0
  4  5  1  0  0  0  0
  4 15  2  0  0  0  0
  5  6  1  0  0  0  0
  5 20  1  0  0  0  0
  5 21  1  0  0  0  0
  6  7  1  0  0  0  0
  6 22  1  0  0  0  0
  6 23  1  0  0  0  0
  7  8  1  0  0  0  0
  7 24  1  0  0  0  0
  7 37  1  0  0  0  0
  8 13  1  0  0  0  0
  8  9  1  0  0  0  0
  8 25  1  0  0  0  0
  9 10  1  0  0  0  0
  9 26  1  0  0  0  0
  9 27  1  0  0  0  0
 10 14  1  0  0  0  0
 10 11  1  0  0  0  0
 10 28  1  0  0  0  0
 11 12  1  0  0  0  0
 11 29  1  0  0  0  0
 11 30  1  0  0  0  0
 12 13  1  0  0  0  0
 12 31  1  0  0  0  0
 12 32  1  0  0  0  0
 13 14  1  0  0  0  0
 13 33  1  0  0  0  0
 14 34  1  0  0  0  0
 14 35  1  0  0  0  0
 15 16  1  0  0  0  0
 15 36  1  0  0  0  0
M  CHG  1   7   1
M  END
> <s_m_source_file>
AV-unprocessed.smi

> <i_m_source_file_index>
3209

> <i_lp_mmshare_version>
43012

> <i_f3d_flags>
0

> <s_epik_input>
W0NIM11jMW5jKFtjSF1zMSlbQ0gyXVtDSDJdW05IXVtDQEhdKFtDSDJdW0NASF0yMylbQ0BIXShbQ0gyXTMpW0NIMl1bQ0gyXTI=

> <s_epik_cmdline>
J2VwaWtfcHl0aG9uJywgJy1waCcsICc3LjAnLCAnLXRuJywgJzgnLCAnLW1hJywgJzIwMCcsICctbWV0YWxfYmluZGluZycsICctaW1hZScsICc8aW5maWxlLm1hZT4nLCAnLW9tYWUnLCAnPG91dGZpbGUubWFlPic=

> <r_lp_tautomer_probability>
1

> <r_epik_Ionization_Penalty>
0.000342479

> <r_epik_Ionization_Penalty_Charging>
0.000317129

> <r_epik_Ionization_Penalty_Neutral>
2.535e-05

> <r_epik_State_Penalty>
-0

> <r_epik_Charging_Adjusted_Penalty>
0.000317129

> <i_epik_Tot_Q>
1

> <i_epik_Tot_abs_Q>
1

> <r_epik_Metal_State_Penalty>
-0

> <b_epik_Metal_Only>
0

> <s_lp_Force_Field>
OPLS_2005

> <r_lp_Energy>
48.4774

> <b_lp_Chiralities_Consistent>
1

> <s_lp_Variant>
AV-unprocessed.smi:3209-3

> <Gold.Version>
5.8.1

> <Gold.Id.Protein>
6NUR|6NUR_protein|mol2

> <Gold.PLP.Fitness>
48.1414

> <Gold.PLP.PLP>
-41.8892

> <Gold.PLP.part.hbond>
-2.0000

> <Gold.PLP.part.metal>
0.0000

> <Gold.PLP.part.buried>
-4.6431

> <Gold.PLP.part.nonpolar>
-36.6580

> <Gold.PLP.part.repulsive>
0.0716

> <Gold.PLP.ligand.clash>
0.0000

> <Gold.PLP.ligand.torsion>
1.3794

> <Gold.PLP.Chemscore.Hbond>
2.9920

> <Gold.PLP.Chemscore.CHOScore>
0.0000

> <Gold.PLP.Chemscore.Metal>
0.0000

> <Gold.Chemscore.Hbonds>
donor molecule, donor type, donor heavy atom, donor atom, acceptor molecule, acceptor atom, score
      L1  H     7    37       P1  8028  2.00
      P1  H  7989  7998       L1     3  1.00

> <Gold.PLP.Chemscore.Internal.Correction>
0.0349

> <Gold.Rescore>
     Score         DG    S(hbond)    S(metal)    S(lipo)     H(rot)  DE(clash)    DE(int)     intcor
     20.03     -21.40       1.12        0.00     132.77       1.31       0.19       1.18       ----

> <Gold.Chemscore.Fitness>
20.0316

> <Gold.Chemscore.DG>
-21.3970

> <Gold.Chemscore.ZeroCoef>
-5.4800

> <Gold.Chemscore.Hbond>
1.1194

> <Gold.Chemscore.Metal>
0.0000

> <Gold.Chemscore.Lipo>
132.7696

> <Gold.Chemscore.Internal_Hbond>
0.0000

> <Gold.Chemscore.DEClash>
0.1873

> <Gold.Chemscore.DEInternal>
1.1781

> <Gold.Chemscore.Rot>
1.3108

> <Gold.Chemscore.Internal.Correction>
   9.000000E+99

> <Gold.Chemscore.Hbonds>
donor molecule, donor type, donor heavy atom, donor atom, acceptor molecule, acceptor atom, score
      L1  H     7    37       P1  8028  1.00
      P1  H  7989  7998       L1     3  0.33

> <Gold.Chemscore.Hbond.Weighted>
-3.7388

> <Gold.Chemscore.Metal.Weighted>
-0.0000

> <Gold.Chemscore.Lipo.Weighted>
-15.5340

> <Gold.Chemscore.Internal_Hbond.Weighted>
0.0000

> <Gold.Chemscore.DEClash.Weighted>
0.1873

> <Gold.Chemscore.DEInternal.Weighted>
1.1781

> <Gold.Chemscore.Rot.Weighted>
3.3558

> <Gold.Chemscore.Internal.Correction.Weighted>
   9.000000E+99

> <Gold.Protein.RotatedTorsions>
[ 6907 6896 6895 6894 ] final  129.05 input  -60.11 | X-H torsion
[ 7974 7965 7964 7962 ] final -177.09 input  175.53 | X-H torsion
[ 8008 7997 7996 7995 ] final -147.94 input   59.86 | X-H torsion
[ 10167 10162 10161 10158 ] final -111.39 input  -65.29 | X-H torsion
[ 10718 10713 10712 10709 ] final   82.44 input   66.30 | X-H torsion
[ 10763 10752 10751 10750 ] final   48.42 input  -60.55 | X-H torsion
[ 11005 11000 10999 10996 ] final   -1.58 input  -57.11 | X-H torsion

> <Gold.Protein.ActiveResidues>
 VAL166  LYS551  ARG553  GLY616  TRP617  ASP618  TYR619  PRO620  LYS621  CYS622 
 ASP623  PHE694  ASN695  SER759  ASP760  ASP761  ALA762  ILE779  LEU786  VAL792 
 PHE793  MET794  SER795  GLU796  ALA797  LYS798  CYS799  TRP800  GLU811  SER814 

> <Gold.Protein.RotatedAtoms>
  152.3661  133.6358  159.6051 H   0  0  0  0  0  0  0  0  0  0  0  0  # atno 6907 bound_to 6896
  150.7635  133.9346  159.3446 H   0  0  0  0  0  0  0  0  0  0  0  0  # atno 6908 bound_to 6896
  151.7176  135.0901  160.0330 H   0  0  0  0  0  0  0  0  0  0  0  0  # atno 6909 bound_to 6896
  144.7127  140.1072  143.6413 H   0  0  0  0  0  0  0  0  0  0  0  0  # atno 7974 bound_to 7965
  155.5836  140.0646  157.2777 H   0  0  0  0  0  0  0  0  0  0  0  0  # atno 8008 bound_to 7997
  154.4325  140.1847  156.1049 H   0  0  0  0  0  0  0  0  0  0  0  0  # atno 8009 bound_to 7997
  156.0286  140.3309  155.7119 H   0  0  0  0  0  0  0  0  0  0  0  0  # atno 8010 bound_to 7997
  140.1341  143.4335  152.1607 H   0  0  0  0  0  0  0  0  0  0  0  0  # atno 10167 bound_to 10162
  157.6857  131.0048  150.2376 H   0  0  0  0  0  0  0  0  0  0  0  0  # atno 10718 bound_to 10713
  152.9792  135.5944  154.3924 H   0  0  0  0  0  0  0  0  0  0  0  0  # atno 10763 bound_to 10752
  154.3578  135.2767  155.2339 H   0  0  0  0  0  0  0  0  0  0  0  0  # atno 10764 bound_to 10752
  154.4349  135.6027  153.6147 H   0  0  0  0  0  0  0  0  0  0  0  0  # atno 10765 bound_to 10752
  140.6489  133.9422  155.8369 H   0  0  0  0  0  0  0  0  0  0  0  0  # atno 11005 bound_to 11000
  145.9486  139.2718  143.1225 LP  0  0  0  0  0  0  0  0  0  0  0  0  # atno 17320 bound_to 7965
  145.9347  140.9023  143.0338 LP  0  0  0  0  0  0  0  0  0  0  0  0  # atno 17321 bound_to 7965
  139.5505  144.7333  151.4451 LP  0  0  0  0  0  0  0  0  0  0  0  0  # atno 17342 bound_to 10162
  140.6799  143.8104  150.7108 LP  0  0  0  0  0  0  0  0  0  0  0  0  # atno 17343 bound_to 10162
  156.2996  130.3756  149.7763 LP  0  0  0  0  0  0  0  0  0  0  0  0  # atno 17370 bound_to 10713
  156.5397  130.8294  151.3265 LP  0  0  0  0  0  0  0  0  0  0  0  0  # atno 17371 bound_to 10713
  141.0551  134.0428  157.3733 LP  0  0  0  0  0  0  0  0  0  0  0  0  # atno 17394 bound_to 11000
  139.9053  135.0177  156.7456 LP  0  0  0  0  0  0  0  0  0  0  0  0  # atno 17395 bound_to 11000

$$$$
