AV-unprocessed.smi:36|AV-procd|sdf|295|dock5
  -GOLD-   2262016 93D 1   1.00000     0.00000
 Structure written by MMmdl.
 63 66  0  0  0  0  0  0  0  0  2 V2000
  147.6185  133.7706  162.3518 C   0  0  0  0  0  0  0  0  0  0  0  0
  147.3935  133.2527  160.9216 C   0  0  0  0  0  0  0  0  0  0  0  0
  148.5892  132.3858  160.4914 C   0  0  0  0  0  0  0  0  0  0  0  0
  146.0982  132.4264  160.8616 C   0  0  0  0  0  0  0  0  0  0  0  0
  147.2521  134.7407  159.7324 Si  0  0  0  0  0  0  0  0  0  0  0  0
  145.7606  135.8315  160.1849 C   0  0  0  0  0  0  0  0  0  0  0  0
  148.8365  135.7889  159.7494 C   0  0  0  0  0  0  0  0  0  0  0  0
  147.0474  134.1318  158.1654 O   0  0  0  0  0  0  0  0  0  0  0  0
  147.9059  133.1847  157.5633 C   0  0  0  0  0  0  0  0  0  0  0  0
  149.3232  133.7680  157.4852 C   0  0  2  0  0  0  0  0  0  0  0  0
  149.3604  134.8113  156.5163 O   0  0  0  0  0  0  0  0  0  0  0  0
  150.6316  134.8907  155.9429 C   0  0  1  0  0  0  0  0  0  0  0  0
  151.2353  136.2030  156.3229 N   0  0  0  0  0  0  0  0  0  0  0  0
  152.0877  136.4791  157.3314 C   0  0  0  0  0  0  0  0  0  0  0  0
  152.4830  137.7434  157.4706 N   0  0  0  0  0  0  0  0  0  0  0  0
  151.8047  138.3657  156.4322 C   0  0  0  0  0  0  0  0  0  0  0  0
  151.7523  139.7178  155.9935 C   0  0  0  0  0  0  0  0  0  0  0  0
  152.4405  140.7046  156.5881 N   0  5  0  0  0  0  0  0  0  0  0  0
  152.4406  140.8099  157.9412 C   0  0  0  0  0  0  0  0  0  0  0  0
  152.5008  139.8998  158.7707 O   0  0  0  0  0  0  0  0  0  0  0  0
  152.2770  142.2251  158.4287 C   0  0  0  0  0  0  0  0  0  0  0  0
  151.6174  143.1739  157.6143 C   0  0  0  0  0  0  0  0  0  0  0  0
  151.4331  144.4971  158.0606 C   0  0  0  0  0  0  0  0  0  0  0  0
  151.8988  144.8840  159.3309 C   0  0  0  0  0  0  0  0  0  0  0  0
  152.5446  143.9450  160.1566 C   0  0  0  0  0  0  0  0  0  0  0  0
  152.7287  142.6214  159.7113 C   0  0  0  0  0  0  0  0  0  0  0  0
  150.9768  139.9829  154.9109 N   0  0  0  0  0  0  0  0  0  0  0  0
  150.2922  139.0012  154.3119 C   0  0  0  0  0  0  0  0  0  0  0  0
  150.2424  137.7013  154.6200 N   0  0  0  0  0  0  0  0  0  0  0  0
  151.0246  137.4217  155.7030 C   0  0  0  0  0  0  0  0  0  0  0  0
  151.4618  133.7344  156.5084 C   0  0  0  0  0  0  0  0  0  0  0  0
  150.3774  132.7853  156.9759 C   0  0  1  0  0  0  0  0  0  0  0  0
  150.8541  131.9300  157.9950 O   0  0  0  0  0  0  0  0  0  0  0  0
  147.7187  132.9478  163.0604 H   0  0  0  0  0  0  0  0  0  0  0  0
  146.7870  134.3912  162.6864 H   0  0  0  0  0  0  0  0  0  0  0  0
  148.5252  134.3728  162.4166 H   0  0  0  0  0  0  0  0  0  0  0  0
  149.5172  132.9588  160.5006 H   0  0  0  0  0  0  0  0  0  0  0  0
  148.4560  131.9946  159.4827 H   0  0  0  0  0  0  0  0  0  0  0  0
  148.7222  131.5334  161.1581 H   0  0  0  0  0  0  0  0  0  0  0  0
  146.1476  131.5641  161.5272 H   0  0  0  0  0  0  0  0  0  0  0  0
  145.9107  132.0531  159.8545 H   0  0  0  0  0  0  0  0  0  0  0  0
  145.2340  133.0211  161.1582 H   0  0  0  0  0  0  0  0  0  0  0  0
  145.8746  136.2708  161.1757 H   0  0  0  0  0  0  0  0  0  0  0  0
  144.8310  135.2631  160.1893 H   0  0  0  0  0  0  0  0  0  0  0  0
  145.6347  136.6533  159.4805 H   0  0  0  0  0  0  0  0  0  0  0  0
  149.0360  136.1986  160.7392 H   0  0  0  0  0  0  0  0  0  0  0  0
  148.7663  136.6288  159.0586 H   0  0  0  0  0  0  0  0  0  0  0  0
  149.7075  135.2025  159.4580 H   0  0  0  0  0  0  0  0  0  0  0  0
  147.9020  132.2687  158.1551 H   0  0  0  0  0  0  0  0  0  0  0  0
  147.5340  132.9261  156.5718 H   0  0  0  0  0  0  0  0  0  0  0  0
  149.6345  134.1752  158.4483 H   0  0  0  0  0  0  0  0  0  0  0  0
  150.5581  134.8957  154.8550 H   0  0  0  0  0  0  0  0  0  0  0  0
  152.4375  135.7091  158.0030 H   0  0  0  0  0  0  0  0  0  0  0  0
  151.2528  142.8932  156.6369 H   0  0  0  0  0  0  0  0  0  0  0  0
  150.9329  145.2145  157.4273 H   0  0  0  0  0  0  0  0  0  0  0  0
  151.7572  145.8983  159.6731 H   0  0  0  0  0  0  0  0  0  0  0  0
  152.8965  144.2382  161.1345 H   0  0  0  0  0  0  0  0  0  0  0  0
  153.2175  141.9140  160.3656 H   0  0  0  0  0  0  0  0  0  0  0  0
  149.6980  139.3010  153.4616 H   0  0  0  0  0  0  0  0  0  0  0  0
  152.1215  133.3124  155.7498 H   0  0  0  0  0  0  0  0  0  0  0  0
  152.0635  134.0836  157.3498 H   0  0  0  0  0  0  0  0  0  0  0  0
  149.9943  132.2028  156.1367 H   0  0  0  0  0  0  0  0  0  0  0  0
  151.3236  131.2146  157.5934 H   0  0  0  0  0  0  0  0  0  0  0  0
  1  2  1  0  0  0  0
  1 34  1  0  0  0  0
  1 35  1  0  0  0  0
  1 36  1  0  0  0  0
  2  3  1  0  0  0  0
  2  4  1  0  0  0  0
  2  5  1  0  0  0  0
  3 37  1  0  0  0  0
  3 38  1  0  0  0  0
  3 39  1  0  0  0  0
  4 40  1  0  0  0  0
  4 41  1  0  0  0  0
  4 42  1  0  0  0  0
  5  6  1  0  0  0  0
  5  7  1  0  0  0  0
  5  8  1  0  0  0  0
  6 43  1  0  0  0  0
  6 44  1  0  0  0  0
  6 45  1  0  0  0  0
  7 46  1  0  0  0  0
  7 47  1  0  0  0  0
  7 48  1  0  0  0  0
  8  9  1  0  0  0  0
  9 10  1  0  0  0  0
  9 49  1  0  0  0  0
  9 50  1  0  0  0  0
 10 32  1  0  0  0  0
 10 11  1  0  0  0  0
 10 51  1  0  0  0  0
 11 12  1  0  0  0  0
 12 13  1  0  0  0  0
 12 31  1  0  0  0  0
 12 52  1  0  0  0  0
 13 30  1  0  0  0  0
 13 14  1  0  0  0  0
 14 15  2  0  0  0  0
 14 53  1  0  0  0  0
 15 16  1  0  0  0  0
 16 30  2  0  0  0  0
 16 17  1  0  0  0  0
 17 18  1  0  0  0  0
 17 27  2  0  0  0  0
 18 19  1  0  0  0  0
 19 20  2  0  0  0  0
 19 21  1  0  0  0  0
 21 26  1  0  0  0  0
 21 22  2  0  0  0  0
 22 23  1  0  0  0  0
 22 54  1  0  0  0  0
 23 24  2  0  0  0  0
 23 55  1  0  0  0  0
 24 25  1  0  0  0  0
 24 56  1  0  0  0  0
 25 26  2  0  0  0  0
 25 57  1  0  0  0  0
 26 58  1  0  0  0  0
 27 28  1  0  0  0  0
 28 29  2  0  0  0  0
 28 59  1  0  0  0  0
 29 30  1  0  0  0  0
 31 32  1  0  0  0  0
 31 60  1  0  0  0  0
 31 61  1  0  0  0  0
 32 33  1  0  0  0  0
 32 62  1  0  0  0  0
 33 63  1  0  0  0  0
M  CHG  1  18  -1
M  END
> <s_m_source_file>
AV-unprocessed.smi

> <i_m_source_file_index>
36

> <i_lp_mmshare_version>
43012

> <i_f3d_flags>
0

> <s_epik_input>
W0NIM11DKFtDSDNdKShbQ0gzXSlbU2ldKFtDSDNdKShbQ0gzXSlPW0NIMl1bQ0BASF0xT1tDQEhdKFtDSDJdW0NASF0xW09IXSluKFtjSF1uMiljKGMyMyluW2NIXW5jM1tOSF1DKD1PKWM0W2NIXVtjSF1bY0hdW2NIXVtjSF00

> <s_epik_cmdline>
J2VwaWtfcHl0aG9uJywgJy1waCcsICc3LjAnLCAnLXRuJywgJzgnLCAnLW1hJywgJzIwMCcsICctbWV0YWxfYmluZGluZycsICctaW1hZScsICc8aW5maWxlLm1hZT4nLCAnLW9tYWUnLCAnPG91dGZpbGUubWFlPic=

> <r_lp_tautomer_probability>
1

> <r_epik_Ionization_Penalty>
4.75685

> <r_epik_Ionization_Penalty_Charging>
3.55822

> <r_epik_Ionization_Penalty_Neutral>
1.19863

> <r_epik_State_Penalty>
3.564

> <r_epik_Charging_Adjusted_Penalty>
7.12222

> <i_epik_Tot_Q>
-1

> <i_epik_Tot_abs_Q>
1

> <r_epik_Metal_State_Penalty>
0.523258

> <b_epik_Metal_Only>
1

> <s_epik_Chemistry_Notes>
This compound contains an acetal/aminal-like group ( X-CH(R)-Y where X, Y are N, S, or O) that may be acid/base labile, releasing an aldehyde.

> <s_lp_Force_Field>
OPLS_2005

> <r_lp_Energy>
36.9476

> <b_lp_Chiralities_Consistent>
1

> <s_lp_Variant>
AV-unprocessed.smi:36-17

> <Gold.Version>
5.8.1

> <Gold.Id.Protein>
6NUR|6NUR_protein|mol2

> <Gold.PLP.Fitness>
56.4009

> <Gold.PLP.PLP>
-45.7835

> <Gold.PLP.part.hbond>
-3.0000

> <Gold.PLP.part.metal>
0.0000

> <Gold.PLP.part.buried>
-2.8555

> <Gold.PLP.part.nonpolar>
-39.4120

> <Gold.PLP.part.repulsive>
0.2698

> <Gold.PLP.ligand.clash>
0.0000

> <Gold.PLP.ligand.torsion>
1.7006

> <Gold.PLP.Chemscore.Hbond>
3.5647

> <Gold.PLP.Chemscore.CHOScore>
1.0000

> <Gold.PLP.Chemscore.Metal>
0.0000

> <Gold.Chemscore.Hbonds>
donor molecule, donor type, donor heavy atom, donor atom, acceptor molecule, acceptor atom, score
      P1  H  6896  6907       L1    33  0.75
      P1  H  7989  7998       L1    27  1.00
      P1  H  7997  8009       L1    18  1.47
      L1  C    28    59       P1  7957  1.00

> <Gold.PLP.Chemscore.Internal.Correction>
0.3245

> <Gold.Rescore>
     Score         DG    S(hbond)    S(metal)    S(lipo)     H(rot)  DE(clash)    DE(int)     intcor
      9.47     -15.69       1.00        0.00     117.27       2.67       1.51       4.71       ----

> <Gold.Chemscore.Fitness>
9.4699

> <Gold.Chemscore.DG>
-15.6928

> <Gold.Chemscore.ZeroCoef>
-5.4800

> <Gold.Chemscore.Hbond>
0.9964

> <Gold.Chemscore.Metal>
0.0000

> <Gold.Chemscore.Lipo>
117.2696

> <Gold.Chemscore.Internal_Hbond>
0.0000

> <Gold.Chemscore.DEClash>
1.5080

> <Gold.Chemscore.DEInternal>
4.7149

> <Gold.Chemscore.Rot>
2.6702

> <Gold.Chemscore.Internal.Correction>
   9.000000E+99

> <Gold.Chemscore.Hbonds>
donor molecule, donor type, donor heavy atom, donor atom, acceptor molecule, acceptor atom, score
      P1  H  6896  6907       L1    33  0.09
      P1  H  7989  7998       L1    27  0.34
      P1  H  7997  8009       L1    18  0.06

> <Gold.Chemscore.Hbond.Weighted>
-3.3280

> <Gold.Chemscore.Metal.Weighted>
-0.0000

> <Gold.Chemscore.Lipo.Weighted>
-13.7205

> <Gold.Chemscore.Internal_Hbond.Weighted>
0.0000

> <Gold.Chemscore.DEClash.Weighted>
1.5080

> <Gold.Chemscore.DEInternal.Weighted>
4.7149

> <Gold.Chemscore.Rot.Weighted>
6.8358

> <Gold.Chemscore.Internal.Correction.Weighted>
   9.000000E+99

> <Gold.Protein.RotatedTorsions>
[ 6907 6896 6895 6894 ] final -158.48 input  -60.11 | X-H torsion
[ 7974 7965 7964 7962 ] final  -77.09 input  175.53 | X-H torsion
[ 8008 7997 7996 7995 ] final -163.05 input   59.86 | X-H torsion
[ 10167 10162 10161 10158 ] final  126.18 input  -65.29 | X-H torsion
[ 10718 10713 10712 10709 ] final   81.66 input   66.30 | X-H torsion
[ 10763 10752 10751 10750 ] final  105.67 input  -60.55 | X-H torsion
[ 11005 11000 10999 10996 ] final  -53.79 input  -57.11 | X-H torsion

> <Gold.Protein.ActiveResidues>
 VAL166  LYS551  ARG553  GLY616  TRP617  ASP618  TYR619  PRO620  LYS621  CYS622 
 ASP623  PHE694  ASN695  SER759  ASP760  ASP761  ALA762  ILE779  LEU786  VAL792 
 PHE793  MET794  SER795  GLU796  ALA797  LYS798  CYS799  TRP800  GLU811  SER814 

> <Gold.Protein.RotatedAtoms>
  151.3188  133.4048  159.2652 H   0  0  0  0  0  0  0  0  0  0  0  0  # atno 6907 bound_to 6896
  151.0051  134.9354  159.7986 H   0  0  0  0  0  0  0  0  0  0  0  0  # atno 6908 bound_to 6896
  152.5286  134.3153  159.9181 H   0  0  0  0  0  0  0  0  0  0  0  0  # atno 6909 bound_to 6896
  145.6042  140.9402  143.1224 H   0  0  0  0  0  0  0  0  0  0  0  0  # atno 7974 bound_to 7965
  155.8157  140.0912  157.1878 H   0  0  0  0  0  0  0  0  0  0  0  0  # atno 8008 bound_to 7997
  154.3979  140.1446  156.3499 H   0  0  0  0  0  0  0  0  0  0  0  0  # atno 8009 bound_to 7997
  155.8319  140.3442  155.5580 H   0  0  0  0  0  0  0  0  0  0  0  0  # atno 8010 bound_to 7997
  139.5645  144.6903  151.3949 H   0  0  0  0  0  0  0  0  0  0  0  0  # atno 10167 bound_to 10162
  157.6838  131.0014  150.2259 H   0  0  0  0  0  0  0  0  0  0  0  0  # atno 10718 bound_to 10713
  153.3825  135.3902  155.1867 H   0  0  0  0  0  0  0  0  0  0  0  0  # atno 10763 bound_to 10752
  154.8709  135.3729  154.4839 H   0  0  0  0  0  0  0  0  0  0  0  0  # atno 10764 bound_to 10752
  153.5317  135.7085  153.5741 H   0  0  0  0  0  0  0  0  0  0  0  0  # atno 10765 bound_to 10752
  141.0994  133.6620  156.4224 H   0  0  0  0  0  0  0  0  0  0  0  0  # atno 11005 bound_to 11000
  144.7297  139.7765  143.7352 LP  0  0  0  0  0  0  0  0  0  0  0  0  # atno 17320 bound_to 7965
  146.1553  139.4649  143.0023 LP  0  0  0  0  0  0  0  0  0  0  0  0  # atno 17321 bound_to 7965
  140.6928  143.7821  150.7280 LP  0  0  0  0  0  0  0  0  0  0  0  0  # atno 17342 bound_to 10162
  140.1309  143.4527  152.2255 LP  0  0  0  0  0  0  0  0  0  0  0  0  # atno 17343 bound_to 10162
  156.2901  130.3744  149.7849 LP  0  0  0  0  0  0  0  0  0  0  0  0  # atno 17370 bound_to 10713
  156.5511  130.8342  151.3300 LP  0  0  0  0  0  0  0  0  0  0  0  0  # atno 17371 bound_to 10713
  140.5060  134.6440  157.5267 LP  0  0  0  0  0  0  0  0  0  0  0  0  # atno 17394 bound_to 11000
  139.9840  134.7091  155.9807 LP  0  0  0  0  0  0  0  0  0  0  0  0  # atno 17395 bound_to 11000

$$$$
