AV-unprocessed.smi:3101|AV-procd|sdf|11809|dock5
  -GOLD-   2272017183D 1   1.00000     0.00000
 Structure written by MMmdl.
 28 29  0  0  0  0  0  0  0  0  1 V2000
  152.1305  144.9913  158.5713 C   0  0  0  0  0  0  0  0  0  0  0  0
  152.8000  143.9045  159.4306 C   0  0  1  0  0  0  0  0  0  0  0  0
  152.2379  143.7697  160.8367 C   0  0  0  0  0  0  0  0  0  0  0  0
  152.5817  142.3262  161.2193 C   0  0  0  0  0  0  0  0  0  0  0  0
  153.0751  141.6937  160.0371 O   0  0  0  0  0  0  0  0  0  0  0  0
  152.7522  142.4662  158.8854 C   0  0  1  0  0  0  0  0  0  0  0  0
  151.3981  141.9885  158.3211 C   0  0  0  0  0  0  0  0  0  0  0  0
  150.4066  141.9165  159.0484 O   0  0  0  0  0  0  0  0  0  0  0  0
  151.4049  141.6548  157.0172 N   0  0  0  0  0  0  0  0  0  0  0  0
  150.3192  141.2059  156.2202 C   0  0  0  0  0  0  0  0  0  0  0  0
  149.0291  141.5490  156.6897 C   0  0  0  0  0  0  0  0  0  0  0  0
  147.8977  141.1896  156.0433 N   0  0  0  0  0  0  0  0  0  0  0  0
  148.0520  140.4746  154.9087 C   0  0  0  0  0  0  0  0  0  0  0  0
  149.3286  140.1230  154.4261 C   0  0  0  0  0  0  0  0  0  0  0  0
  150.4552  140.4858  155.0771 N   0  0  0  0  0  0  0  0  0  0  0  0
  151.0547  144.8403  158.4825 H   0  0  0  0  0  0  0  0  0  0  0  0
  152.5504  145.0056  157.5655 H   0  0  0  0  0  0  0  0  0  0  0  0
  152.2853  145.9779  159.0082 H   0  0  0  0  0  0  0  0  0  0  0  0
  153.8544  144.1691  159.5253 H   0  0  0  0  0  0  0  0  0  0  0  0
  152.6681  144.4977  161.5252 H   0  0  0  0  0  0  0  0  0  0  0  0
  151.1564  143.9102  160.8406 H   0  0  0  0  0  0  0  0  0  0  0  0
  153.3474  142.2880  161.9945 H   0  0  0  0  0  0  0  0  0  0  0  0
  151.7018  141.7992  161.5896 H   0  0  0  0  0  0  0  0  0  0  0  0
  153.5266  142.3246  158.1298 H   0  0  0  0  0  0  0  0  0  0  0  0
  152.2911  141.7359  156.5402 H   0  0  0  0  0  0  0  0  0  0  0  0
  148.9002  142.1207  157.5973 H   0  0  0  0  0  0  0  0  0  0  0  0
  147.1548  140.1812  154.3840 H   0  0  0  0  0  0  0  0  0  0  0  0
  149.4463  139.5506  153.5179 H   0  0  0  0  0  0  0  0  0  0  0  0
  1  2  1  0  0  0  0
  1 16  1  0  0  0  0
  1 17  1  0  0  0  0
  1 18  1  0  0  0  0
  2  6  1  0  0  0  0
  2  3  1  0  0  0  0
  2 19  1  0  0  0  0
  3  4  1  0  0  0  0
  3 20  1  0  0  0  0
  3 21  1  0  0  0  0
  4  5  1  0  0  0  0
  4 22  1  0  0  0  0
  4 23  1  0  0  0  0
  5  6  1  0  0  0  0
  6  7  1  0  0  0  0
  6 24  1  0  0  0  0
  7  8  2  0  0  0  0
  7  9  1  0  0  0  0
  9 10  1  0  0  0  0
  9 25  1  0  0  0  0
 10 15  1  0  0  0  0
 10 11  2  0  0  0  0
 11 12  1  0  0  0  0
 11 26  1  0  0  0  0
 12 13  2  0  0  0  0
 13 14  1  0  0  0  0
 13 27  1  0  0  0  0
 14 15  2  0  0  0  0
 14 28  1  0  0  0  0
M  END
> <s_m_source_file>
AV-unprocessed.smi

> <i_m_source_file_index>
3101

> <i_lp_mmshare_version>
43012

> <i_f3d_flags>
0

> <s_epik_input>
W0NIM11bQ0BASF0xW0NIMl1bQ0gyXU9bQ0BIXTFDKD1PKVtOSF1jMltjSF1uW2NIXVtjSF1uMg==

> <s_epik_cmdline>
J2VwaWtfcHl0aG9uJywgJy1waCcsICc3LjAnLCAnLXRuJywgJzgnLCAnLW1hJywgJzIwMCcsICctbWV0YWxfYmluZGluZycsICctaW1hZScsICc8aW5maWxlLm1hZT4nLCAnLW9tYWUnLCAnPG91dGZpbGUubWFlPic=

> <r_lp_tautomer_probability>
1

> <r_epik_Ionization_Penalty>
2.83174e-06

> <r_epik_Ionization_Penalty_Charging>
0

> <r_epik_Ionization_Penalty_Neutral>
2.83174e-06

> <r_epik_State_Penalty>
-0

> <r_epik_Charging_Adjusted_Penalty>
0

> <i_epik_Tot_Q>
0

> <i_epik_Tot_abs_Q>
0

> <r_epik_Metal_State_Penalty>
-0

> <b_epik_Metal_Only>
0

> <s_lp_Force_Field>
OPLS_2005

> <r_lp_Energy>
27.517

> <b_lp_Chiralities_Consistent>
1

> <s_lp_Variant>
AV-unprocessed.smi:3101-2

> <Gold.Version>
5.8.1

> <Gold.Id.Protein>
6NUR|6NUR_protein|mol2

> <Gold.PLP.Fitness>
36.6552

> <Gold.PLP.PLP>
-30.9791

> <Gold.PLP.part.hbond>
-2.0000

> <Gold.PLP.part.metal>
0.0000

> <Gold.PLP.part.buried>
-4.3182

> <Gold.PLP.part.nonpolar>
-25.3559

> <Gold.PLP.part.repulsive>
0.2555

> <Gold.PLP.ligand.clash>
0.0000

> <Gold.PLP.ligand.torsion>
0.1624

> <Gold.PLP.Chemscore.Hbond>
0.9920

> <Gold.PLP.Chemscore.CHOScore>
1.0000

> <Gold.PLP.Chemscore.Metal>
0.0000

> <Gold.Chemscore.Hbonds>
donor molecule, donor type, donor heavy atom, donor atom, acceptor molecule, acceptor atom, score
      P1  H  7989  7998       L1    15  0.95
      L1  C    14    28       P1  7957  1.00

> <Gold.PLP.Chemscore.Internal.Correction>
0.0249

> <Gold.Rescore>
     Score         DG    S(hbond)    S(metal)    S(lipo)     H(rot)  DE(clash)    DE(int)     intcor
     12.75     -14.49       0.77        0.00      76.85       1.00       0.15       1.59       ----

> <Gold.Chemscore.Fitness>
12.7478

> <Gold.Chemscore.DG>
-14.4893

> <Gold.Chemscore.ZeroCoef>
-5.4800

> <Gold.Chemscore.Hbond>
0.7720

> <Gold.Chemscore.Metal>
0.0000

> <Gold.Chemscore.Lipo>
76.8457

> <Gold.Chemscore.Internal_Hbond>
0.0000

> <Gold.Chemscore.DEClash>
0.1542

> <Gold.Chemscore.DEInternal>
1.5872

> <Gold.Chemscore.Rot>
1.0000

> <Gold.Chemscore.Internal.Correction>
   9.000000E+99

> <Gold.Chemscore.Hbonds>
donor molecule, donor type, donor heavy atom, donor atom, acceptor molecule, acceptor atom, score
      P1  H  7989  7998       L1    15  0.20

> <Gold.Chemscore.Hbond.Weighted>
-2.5783

> <Gold.Chemscore.Metal.Weighted>
-0.0000

> <Gold.Chemscore.Lipo.Weighted>
-8.9909

> <Gold.Chemscore.Internal_Hbond.Weighted>
0.0000

> <Gold.Chemscore.DEClash.Weighted>
0.1542

> <Gold.Chemscore.DEInternal.Weighted>
1.5872

> <Gold.Chemscore.Rot.Weighted>
2.5600

> <Gold.Chemscore.Internal.Correction.Weighted>
   9.000000E+99

> <Gold.Protein.RotatedTorsions>
[ 6907 6896 6895 6894 ] final    2.37 input  -60.11 | X-H torsion
[ 7974 7965 7964 7962 ] final  -33.82 input  175.53 | X-H torsion
[ 8008 7997 7996 7995 ] final  -91.55 input   59.86 | X-H torsion
[ 10167 10162 10161 10158 ] final -119.87 input  -65.29 | X-H torsion
[ 10718 10713 10712 10709 ] final -122.31 input   66.30 | X-H torsion
[ 10763 10752 10751 10750 ] final  107.78 input  -60.55 | X-H torsion
[ 11005 11000 10999 10996 ] final  145.02 input  -57.11 | X-H torsion

> <Gold.Protein.ActiveResidues>
 VAL166  LYS551  ARG553  GLY616  TRP617  ASP618  TYR619  PRO620  LYS621  CYS622 
 ASP623  PHE694  ASN695  SER759  ASP760  ASP761  ALA762  ILE779  LEU786  VAL792 
 PHE793  MET794  SER795  GLU796  ALA797  LYS798  CYS799  TRP800  GLU811  SER814 

> <Gold.Protein.RotatedAtoms>
  151.6078  135.1042  160.0074 H   0  0  0  0  0  0  0  0  0  0  0  0  # atno 6907 bound_to 6896
  152.4224  133.7134  159.6502 H   0  0  0  0  0  0  0  0  0  0  0  0  # atno 6908 bound_to 6896
  150.8112  133.8346  159.3203 H   0  0  0  0  0  0  0  0  0  0  0  0  # atno 6909 bound_to 6896
  146.0879  140.5963  142.8878 H   0  0  0  0  0  0  0  0  0  0  0  0  # atno 7974 bound_to 7965
  154.7121  140.0518  157.0560 H   0  0  0  0  0  0  0  0  0  0  0  0  # atno 8008 bound_to 7997
  155.0541  140.3182  155.4663 H   0  0  0  0  0  0  0  0  0  0  0  0  # atno 8009 bound_to 7997
  156.2792  140.2110  156.5667 H   0  0  0  0  0  0  0  0  0  0  0  0  # atno 8010 bound_to 7997
  140.0419  143.5145  152.2126 H   0  0  0  0  0  0  0  0  0  0  0  0  # atno 10167 bound_to 10162
  156.1408  130.6464  150.9768 H   0  0  0  0  0  0  0  0  0  0  0  0  # atno 10718 bound_to 10713
  153.4115  135.3833  155.2053 H   0  0  0  0  0  0  0  0  0  0  0  0  # atno 10763 bound_to 10752
  154.8738  135.3795  154.4495 H   0  0  0  0  0  0  0  0  0  0  0  0  # atno 10764 bound_to 10752
  153.5004  135.7088  153.5897 H   0  0  0  0  0  0  0  0  0  0  0  0  # atno 10765 bound_to 10752
  140.0678  134.9168  157.1294 H   0  0  0  0  0  0  0  0  0  0  0  0  # atno 11005 bound_to 11000
  144.7339  140.4752  143.6918 LP  0  0  0  0  0  0  0  0  0  0  0  0  # atno 17320 bound_to 7965
  145.6094  139.1511  143.3084 LP  0  0  0  0  0  0  0  0  0  0  0  0  # atno 17321 bound_to 7965
  139.6008  144.7582  151.3176 LP  0  0  0  0  0  0  0  0  0  0  0  0  # atno 17342 bound_to 10162
  140.7256  143.7013  150.7843 LP  0  0  0  0  0  0  0  0  0  0  0  0  # atno 17343 bound_to 10162
  157.6574  131.0887  150.7917 LP  0  0  0  0  0  0  0  0  0  0  0  0  # atno 17370 bound_to 10713
  156.7992  130.4915  149.5372 LP  0  0  0  0  0  0  0  0  0  0  0  0  # atno 17371 bound_to 10713
  140.3672  134.2430  155.7181 LP  0  0  0  0  0  0  0  0  0  0  0  0  # atno 17394 bound_to 11000
  141.2000  133.7998  157.0510 LP  0  0  0  0  0  0  0  0  0  0  0  0  # atno 17395 bound_to 11000

$$$$
