AV-unprocessed.smi:2317|AV-procd|sdf|9272|dock1
  -GOLD-   2272012493D 1   1.00000     0.00000
 Structure written by MMmdl.
 37 38  0  0  0  0  0  0  0  0  1 V2000
  144.7395  136.9573  152.4721 O   0  0  0  0  0  0  0  0  0  0  0  0
  145.9436  136.7684  152.3028 C   0  0  0  0  0  0  0  0  0  0  0  0
  146.8854  137.6654  152.6307 N   0  0  0  0  0  0  0  0  0  0  0  0
  146.6421  138.9656  153.2506 C   0  0  0  0  0  0  0  0  0  0  0  0
  147.7168  139.3319  154.2996 C   0  0  1  0  0  0  0  0  0  0  0  0
  149.0082  138.4894  154.1800 C   0  0  0  0  0  0  0  0  0  0  0  0
  150.0329  138.8618  155.2641 C   0  0  0  0  0  0  0  0  0  0  0  0
  150.3630  140.3609  155.2347 C   0  0  0  0  0  0  0  0  0  0  0  0
  149.0889  141.2141  155.3565 C   0  0  0  0  0  0  0  0  0  0  0  0
  148.0413  140.8468  154.2876 C   0  0  1  0  0  0  0  0  0  0  0  0
  148.5113  141.2609  153.0180 O   0  0  0  0  0  0  0  0  0  0  0  0
  146.4933  135.6688  151.7589 N   0  0  0  0  0  0  0  0  0  0  0  0
  145.8618  134.4830  151.2901 C   0  0  0  0  0  0  0  0  0  0  0  0
  144.5937  134.4436  150.6601 C   0  0  0  0  0  0  0  0  0  0  0  0
  144.0773  133.1951  150.2583 C   0  0  0  0  0  0  0  0  0  0  0  0
  144.7243  132.0259  150.4472 N   0  0  0  0  0  0  0  0  0  0  0  0
  145.9275  132.0654  151.0575 C   0  0  0  0  0  0  0  0  0  0  0  0
  146.5333  133.2592  151.4978 C   0  0  0  0  0  0  0  0  0  0  0  0
  147.7426  133.2264  152.1083 F   0  0  0  0  0  0  0  0  0  0  0  0
  147.8490  137.4274  152.4464 H   0  0  0  0  0  0  0  0  0  0  0  0
  146.5607  139.7474  152.4938 H   0  0  0  0  0  0  0  0  0  0  0  0
  145.6661  138.9125  153.7336 H   0  0  0  0  0  0  0  0  0  0  0  0
  147.2866  139.1142  155.2787 H   0  0  0  0  0  0  0  0  0  0  0  0
  148.7802  137.4274  154.2676 H   0  0  0  0  0  0  0  0  0  0  0  0
  149.4509  138.6264  153.1926 H   0  0  0  0  0  0  0  0  0  0  0  0
  149.6389  138.5948  156.2454 H   0  0  0  0  0  0  0  0  0  0  0  0
  150.9444  138.2791  155.1286 H   0  0  0  0  0  0  0  0  0  0  0  0
  151.0517  140.6051  156.0441 H   0  0  0  0  0  0  0  0  0  0  0  0
  150.8821  140.6026  154.3065 H   0  0  0  0  0  0  0  0  0  0  0  0
  148.6559  141.0655  156.3465 H   0  0  0  0  0  0  0  0  0  0  0  0
  149.3403  142.2735  155.2918 H   0  0  0  0  0  0  0  0  0  0  0  0
  147.1286  141.4094  154.4876 H   0  0  0  0  0  0  0  0  0  0  0  0
  148.6738  140.4931  152.4917 H   0  0  0  0  0  0  0  0  0  0  0  0
  147.4939  135.6966  151.6281 H   0  0  0  0  0  0  0  0  0  0  0  0
  144.0042  135.3297  150.4863 H   0  0  0  0  0  0  0  0  0  0  0  0
  143.1128  133.1342  149.7764 H   0  0  0  0  0  0  0  0  0  0  0  0
  146.4219  131.1162  151.2016 H   0  0  0  0  0  0  0  0  0  0  0  0
  1  2  2  0  0  0  0
  2  3  1  0  0  0  0
  2 12  1  0  0  0  0
  3  4  1  0  0  0  0
  3 20  1  0  0  0  0
  4  5  1  0  0  0  0
  4 21  1  0  0  0  0
  4 22  1  0  0  0  0
  5 10  1  0  0  0  0
  5  6  1  0  0  0  0
  5 23  1  0  0  0  0
  6  7  1  0  0  0  0
  6 24  1  0  0  0  0
  6 25  1  0  0  0  0
  7  8  1  0  0  0  0
  7 26  1  0  0  0  0
  7 27  1  0  0  0  0
  8  9  1  0  0  0  0
  8 28  1  0  0  0  0
  8 29  1  0  0  0  0
  9 10  1  0  0  0  0
  9 30  1  0  0  0  0
  9 31  1  0  0  0  0
 10 11  1  0  0  0  0
 10 32  1  0  0  0  0
 11 33  1  0  0  0  0
 12 13  1  0  0  0  0
 12 34  1  0  0  0  0
 13 18  1  0  0  0  0
 13 14  2  0  0  0  0
 14 15  1  0  0  0  0
 14 35  1  0  0  0  0
 15 16  2  0  0  0  0
 15 36  1  0  0  0  0
 16 17  1  0  0  0  0
 17 18  2  0  0  0  0
 17 37  1  0  0  0  0
 18 19  1  0  0  0  0
M  END
> <s_m_source_file>
AV-unprocessed.smi

> <i_m_source_file_index>
2317

> <i_lp_mmshare_version>
43012

> <i_f3d_flags>
0

> <s_epik_input>
RmMxW2NIXW5bY0hdW2NIXWMxW05IXUMoPU8pW05IXVtDSDJdW0NAQEhdMltDSDJdW0NIMl1bQ0gyXVtDSDJdW0NASF0yW09IXQ==

> <s_epik_cmdline>
J2VwaWtfcHl0aG9uJywgJy1waCcsICc3LjAnLCAnLXRuJywgJzgnLCAnLW1hJywgJzIwMCcsICctbWV0YWxfYmluZGluZycsICctaW1hZScsICc8aW5maWxlLm1hZT4nLCAnLW9tYWUnLCAnPG91dGZpbGUubWFlPic=

> <r_epik_Ionization_Penalty>
0.00317647

> <r_epik_Ionization_Penalty_Charging>
0

> <r_epik_Ionization_Penalty_Neutral>
0.00317647

> <r_epik_State_Penalty>
0.0022093

> <r_epik_Charging_Adjusted_Penalty>
0.0022093

> <i_epik_Tot_Q>
0

> <i_epik_Tot_abs_Q>
0

> <r_epik_Metal_State_Penalty>
-0

> <b_epik_Metal_Only>
0

> <s_lp_Force_Field>
OPLS_2005

> <r_lp_Energy>
21.0871

> <b_lp_Chiralities_Consistent>
1

> <s_lp_Variant>
AV-unprocessed.smi:2317-2

> <Gold.Version>
5.8.1

> <Gold.Id.Protein>
6NUR|6NUR_protein|mol2

> <Gold.PLP.Fitness>
43.5910

> <Gold.PLP.PLP>
-30.6083

> <Gold.PLP.part.hbond>
-3.5989

> <Gold.PLP.part.metal>
0.0000

> <Gold.PLP.part.buried>
-1.8341

> <Gold.PLP.part.nonpolar>
-25.7229

> <Gold.PLP.part.repulsive>
0.4694

> <Gold.PLP.ligand.clash>
0.0000

> <Gold.PLP.ligand.torsion>
0.9653

> <Gold.PLP.Chemscore.Hbond>
3.6473

> <Gold.PLP.Chemscore.CHOScore>
1.3162

> <Gold.PLP.Chemscore.Metal>
0.0000

> <Gold.Chemscore.Hbonds>
donor molecule, donor type, donor heavy atom, donor atom, acceptor molecule, acceptor atom, score
      L1  H     3    20       P1  7948  0.94
      L1  H    11    33       P1  7957  0.77
      L1  H    12    34       P1  7948  0.99
      P1  H  8011  8017       L1    11  0.91
      L1  C    15    36       P1 10186  1.00
      L1  C    17    37       P1 10747  0.39

> <Gold.PLP.Chemscore.Internal.Correction>
0.0228

> <Gold.Rescore>
     Score         DG    S(hbond)    S(metal)    S(lipo)     H(rot)  DE(clash)    DE(int)     intcor
     19.36     -20.67       3.31        0.00      74.35       1.79       0.33       0.98       ----

> <Gold.Chemscore.Fitness>
19.3600

> <Gold.Chemscore.DG>
-20.6703

> <Gold.Chemscore.ZeroCoef>
-5.4800

> <Gold.Chemscore.Hbond>
3.3120

> <Gold.Chemscore.Metal>
0.0000

> <Gold.Chemscore.Lipo>
74.3466

> <Gold.Chemscore.Internal_Hbond>
0.0000

> <Gold.Chemscore.DEClash>
0.3275

> <Gold.Chemscore.DEInternal>
0.9828

> <Gold.Chemscore.Rot>
1.7853

> <Gold.Chemscore.Internal.Correction>
   9.000000E+99

> <Gold.Chemscore.Hbonds>
donor molecule, donor type, donor heavy atom, donor atom, acceptor molecule, acceptor atom, score
      L1  H     3    20       P1  7948  0.91
      L1  H    11    33       P1  7957  0.76
      L1  H    12    34       P1  7948  0.92
      P1  H  8011  8017       L1    11  0.23

> <Gold.Chemscore.Hbond.Weighted>
-11.0622

> <Gold.Chemscore.Metal.Weighted>
-0.0000

> <Gold.Chemscore.Lipo.Weighted>
-8.6985

> <Gold.Chemscore.Internal_Hbond.Weighted>
0.0000

> <Gold.Chemscore.DEClash.Weighted>
0.3275

> <Gold.Chemscore.DEInternal.Weighted>
0.9828

> <Gold.Chemscore.Rot.Weighted>
4.5704

> <Gold.Chemscore.Internal.Correction.Weighted>
   9.000000E+99

> <Gold.Protein.RotatedTorsions>
[ 6907 6896 6895 6894 ] final  136.55 input  -60.11 | X-H torsion
[ 7974 7965 7964 7962 ] final -163.53 input  175.53 | X-H torsion
[ 8008 7997 7996 7995 ] final  108.18 input   59.86 | X-H torsion
[ 10167 10162 10161 10158 ] final    6.42 input  -65.29 | X-H torsion
[ 10718 10713 10712 10709 ] final  104.91 input   66.30 | X-H torsion
[ 10763 10752 10751 10750 ] final  176.22 input  -60.55 | X-H torsion
[ 11005 11000 10999 10996 ] final   99.49 input  -57.11 | X-H torsion

> <Gold.Protein.ActiveResidues>
 VAL166  LYS551  ARG553  GLY616  TRP617  ASP618  TYR619  PRO620  LYS621  CYS622 
 ASP623  PHE694  ASN695  SER759  ASP760  ASP761  ALA762  ILE779  LEU786  VAL792 
 PHE793  MET794  SER795  GLU796  ALA797  LYS798  CYS799  TRP800  GLU811  SER814 

> <Gold.Protein.RotatedAtoms>
  152.2881  133.5535  159.5539 H   0  0  0  0  0  0  0  0  0  0  0  0  # atno 6907 bound_to 6896
  150.7224  134.0468  159.3793 H   0  0  0  0  0  0  0  0  0  0  0  0  # atno 6908 bound_to 6896
  151.8375  135.0601  160.0495 H   0  0  0  0  0  0  0  0  0  0  0  0  # atno 6909 bound_to 6896
  144.7323  140.3093  143.6191 H   0  0  0  0  0  0  0  0  0  0  0  0  # atno 7974 bound_to 7965
  156.1883  140.3081  155.9282 H   0  0  0  0  0  0  0  0  0  0  0  0  # atno 8008 bound_to 7997
  155.3231  140.0457  157.3057 H   0  0  0  0  0  0  0  0  0  0  0  0  # atno 8009 bound_to 7997
  154.5422  140.2265  155.8632 H   0  0  0  0  0  0  0  0  0  0  0  0  # atno 8010 bound_to 7997
  140.6428  143.7733  150.7454 H   0  0  0  0  0  0  0  0  0  0  0  0  # atno 10167 bound_to 10162
  157.6724  131.0815  150.5777 H   0  0  0  0  0  0  0  0  0  0  0  0  # atno 10718 bound_to 10713
  154.4782  135.2774  155.1591 H   0  0  0  0  0  0  0  0  0  0  0  0  # atno 10763 bound_to 10752
  154.3312  135.6189  153.5556 H   0  0  0  0  0  0  0  0  0  0  0  0  # atno 10764 bound_to 10752
  152.9872  135.5766  154.5177 H   0  0  0  0  0  0  0  0  0  0  0  0  # atno 10765 bound_to 10752
  139.8771  134.9098  156.4613 H   0  0  0  0  0  0  0  0  0  0  0  0  # atno 11005 bound_to 11000
  145.7681  139.1847  143.2228 LP  0  0  0  0  0  0  0  0  0  0  0  0  # atno 17320 bound_to 7965
  146.0933  140.7630  142.9584 LP  0  0  0  0  0  0  0  0  0  0  0  0  # atno 17321 bound_to 7965
  140.1368  143.4477  152.2219 LP  0  0  0  0  0  0  0  0  0  0  0  0  # atno 17342 bound_to 10162
  139.5638  144.7422  151.4080 LP  0  0  0  0  0  0  0  0  0  0  0  0  # atno 17343 bound_to 10162
  156.6078  130.4372  149.5871 LP  0  0  0  0  0  0  0  0  0  0  0  0  # atno 17370 bound_to 10713
  156.2454  130.6876  151.1595 LP  0  0  0  0  0  0  0  0  0  0  0  0  # atno 17371 bound_to 10713
  140.8862  133.7882  155.9520 LP  0  0  0  0  0  0  0  0  0  0  0  0  # atno 17394 bound_to 11000
  140.8802  134.2620  157.5148 LP  0  0  0  0  0  0  0  0  0  0  0  0  # atno 17395 bound_to 11000

$$$$
