AV-unprocessed.smi:2700|AV-procd|sdf|10427|dock3
  -GOLD-   2272014463D 1   1.00000     0.00000
 Structure written by MMmdl.
 21 22  0  0  0  0  0  0  0  0  3 V2000
  152.8412  139.2546  155.5703 O   0  0  0  0  0  0  0  0  0  0  0  0
  151.9249  139.9626  156.0420 C   0  0  0  0  0  0  0  0  0  0  0  0
  150.9695  140.4480  155.3976 O   0  5  0  0  0  0  0  0  0  0  0  0
  152.0008  140.2981  157.5324 C   0  0  0  0  0  0  0  0  0  0  0  0
  151.8488  141.7483  157.8768 C   0  0  0  0  0  0  0  0  0  0  0  0
  152.6272  142.3349  158.8996 C   0  0  0  0  0  0  0  0  0  0  0  0
  152.4773  143.7063  159.1922 C   0  0  0  0  0  0  0  0  0  0  0  0
  151.5518  144.4675  158.4506 C   0  0  0  0  0  0  0  0  0  0  0  0
  150.8265  143.8775  157.4759 N   0  3  0  0  0  0  0  0  0  0  0  0
  150.9426  142.5672  157.1684 C   0  0  0  0  0  0  0  0  0  0  0  0
  151.4420  139.2432  158.4695 C   0  0  0  0  0  0  0  0  0  0  0  0
  152.9330  139.4276  158.3550 C   0  0  0  0  0  0  0  0  0  0  0  0
  153.3381  141.7373  159.4518 H   0  0  0  0  0  0  0  0  0  0  0  0
  153.0674  144.1665  159.9711 H   0  0  0  0  0  0  0  0  0  0  0  0
  151.3740  145.5219  158.6032 H   0  0  0  0  0  0  0  0  0  0  0  0
  150.3147  142.2132  156.3637 H   0  0  0  0  0  0  0  0  0  0  0  0
  150.9701  139.5765  159.3916 H   0  0  0  0  0  0  0  0  0  0  0  0
  151.0318  138.3293  158.0431 H   0  0  0  0  0  0  0  0  0  0  0  0
  153.4845  138.6334  157.8547 H   0  0  0  0  0  0  0  0  0  0  0  0
  153.4426  139.8816  159.2027 H   0  0  0  0  0  0  0  0  0  0  0  0
  150.1654  144.4457  156.9459 H   0  0  0  0  0  0  0  0  0  0  0  0
  1  2  2  0  0  0  0
  2  3  1  0  0  0  0
  2  4  1  0  0  0  0
  4 12  1  0  0  0  0
  4  5  1  0  0  0  0
  4 11  1  0  0  0  0
  5 10  1  0  0  0  0
  5  6  2  0  0  0  0
  6  7  1  0  0  0  0
  6 13  1  0  0  0  0
  7  8  2  0  0  0  0
  7 14  1  0  0  0  0
  8  9  1  0  0  0  0
  8 15  1  0  0  0  0
  9 10  2  0  0  0  0
  9 21  1  0  0  0  0
 10 16  1  0  0  0  0
 11 12  1  0  0  0  0
 11 17  1  0  0  0  0
 11 18  1  0  0  0  0
 12 19  1  0  0  0  0
 12 20  1  0  0  0  0
M  CHG  1   3  -1
M  CHG  1   9   1
M  END
> <s_m_source_file>
AV-unprocessed.smi

> <i_m_source_file_index>
2700

> <i_lp_mmshare_version>
43012

> <i_f3d_flags>
0

> <s_epik_input>
Tz1DKFtPSF0pQzEoW0NIMl1bQ0gyXTEpYzJbY0hdW2NIXVtjSF1uW2NIXTI=

> <s_epik_cmdline>
J2VwaWtfcHl0aG9uJywgJy1waCcsICc3LjAnLCAnLXRuJywgJzgnLCAnLW1hJywgJzIwMCcsICctbWV0YWxfYmluZGluZycsICctaW1hZScsICc8aW5maWxlLm1hZT4nLCAnLW9tYWUnLCAnPG91dGZpbGUubWFlPic=

> <r_epik_Ionization_Penalty>
1.51613

> <r_epik_Ionization_Penalty_Charging>
1.51613

> <r_epik_Ionization_Penalty_Neutral>
0

> <r_epik_State_Penalty>
1.60739

> <r_epik_Charging_Adjusted_Penalty>
3.12352

> <i_epik_Tot_Q>
0

> <i_epik_Tot_abs_Q>
2

> <r_epik_Metal_State_Penalty>
5.65951

> <b_epik_Metal_Only>
0

> <s_lp_Force_Field>
OPLS_2005

> <r_lp_Energy>
9.09534

> <b_lp_Chiralities_Consistent>
1

> <s_lp_Variant>
AV-unprocessed.smi:2700-2

> <Gold.Version>
5.8.1

> <Gold.Id.Protein>
6NUR|6NUR_protein|mol2

> <Gold.PLP.Fitness>
42.1800

> <Gold.PLP.PLP>
-27.8819

> <Gold.PLP.part.hbond>
-3.0000

> <Gold.PLP.part.metal>
0.0000

> <Gold.PLP.part.buried>
-4.4965

> <Gold.PLP.part.nonpolar>
-20.5040

> <Gold.PLP.part.repulsive>
0.0542

> <Gold.PLP.ligand.clash>
0.0000

> <Gold.PLP.ligand.torsion>
1.1116

> <Gold.PLP.Chemscore.Hbond>
4.9600

> <Gold.PLP.Chemscore.CHOScore>
0.0000

> <Gold.PLP.Chemscore.Metal>
0.0000

> <Gold.Chemscore.Hbonds>
donor molecule, donor type, donor heavy atom, donor atom, acceptor molecule, acceptor atom, score
      L1  H     9    21       P1  8028  2.00
      P1  H  7989  7998       L1     3  0.92
      P1  H  7997  8010       L1     1  2.00

> <Gold.PLP.Chemscore.Internal.Correction>
1.6412

> <Gold.Rescore>
     Score         DG    S(hbond)    S(metal)    S(lipo)     H(rot)  DE(clash)    DE(int)     intcor
     16.19     -18.69       2.71        0.00      66.18       1.40       0.01       2.50       ----

> <Gold.Chemscore.Fitness>
16.1891

> <Gold.Chemscore.DG>
-18.6916

> <Gold.Chemscore.ZeroCoef>
-5.4800

> <Gold.Chemscore.Hbond>
2.7091

> <Gold.Chemscore.Metal>
0.0000

> <Gold.Chemscore.Lipo>
66.1769

> <Gold.Chemscore.Internal_Hbond>
0.0000

> <Gold.Chemscore.DEClash>
0.0060

> <Gold.Chemscore.DEInternal>
2.4965

> <Gold.Chemscore.Rot>
1.3982

> <Gold.Chemscore.Internal.Correction>
   9.000000E+99

> <Gold.Chemscore.Hbonds>
donor molecule, donor type, donor heavy atom, donor atom, acceptor molecule, acceptor atom, score
      L1  H     9    21       P1  8028  0.77
      P1  H  7989  7998       L1     3  0.55
      P1  H  7997  8010       L1     1  0.40

> <Gold.Chemscore.Hbond.Weighted>
-9.0484

> <Gold.Chemscore.Metal.Weighted>
-0.0000

> <Gold.Chemscore.Lipo.Weighted>
-7.7427

> <Gold.Chemscore.Internal_Hbond.Weighted>
0.0000

> <Gold.Chemscore.DEClash.Weighted>
0.0060

> <Gold.Chemscore.DEInternal.Weighted>
2.4965

> <Gold.Chemscore.Rot.Weighted>
3.5795

> <Gold.Chemscore.Internal.Correction.Weighted>
   9.000000E+99

> <Gold.Protein.RotatedTorsions>
[ 6907 6896 6895 6894 ] final  156.13 input  -60.11 | X-H torsion
[ 7974 7965 7964 7962 ] final  179.77 input  175.53 | X-H torsion
[ 8008 7997 7996 7995 ] final   89.02 input   59.86 | X-H torsion
[ 10167 10162 10161 10158 ] final   97.48 input  -65.29 | X-H torsion
[ 10718 10713 10712 10709 ] final -110.48 input   66.30 | X-H torsion
[ 10763 10752 10751 10750 ] final -117.20 input  -60.55 | X-H torsion
[ 11005 11000 10999 10996 ] final -154.01 input  -57.11 | X-H torsion

> <Gold.Protein.ActiveResidues>
 VAL166  LYS551  ARG553  GLY616  TRP617  ASP618  TYR619  PRO620  LYS621  CYS622 
 ASP623  PHE694  ASN695  SER759  ASP760  ASP761  ALA762  ILE779  LEU786  VAL792 
 PHE793  MET794  SER795  GLU796  ALA797  LYS798  CYS799  TRP800  GLU811  SER814 

> <Gold.Protein.RotatedAtoms>
  152.0341  133.3949  159.4309 H   0  0  0  0  0  0  0  0  0  0  0  0  # atno 6907 bound_to 6896
  150.6880  134.3488  159.4909 H   0  0  0  0  0  0  0  0  0  0  0  0  # atno 6908 bound_to 6896
  152.1278  134.9157  160.0611 H   0  0  0  0  0  0  0  0  0  0  0  0  # atno 6909 bound_to 6896
  144.7143  140.0598  143.6433 H   0  0  0  0  0  0  0  0  0  0  0  0  # atno 7974 bound_to 7965
  155.9949  140.3365  155.6789 H   0  0  0  0  0  0  0  0  0  0  0  0  # atno 8008 bound_to 7997
  155.6369  140.0691  157.2649 H   0  0  0  0  0  0  0  0  0  0  0  0  # atno 8009 bound_to 7997
  154.4231  140.1749  156.1519 H   0  0  0  0  0  0  0  0  0  0  0  0  # atno 8010 bound_to 7997
  139.7797  144.6893  151.0040 H   0  0  0  0  0  0  0  0  0  0  0  0  # atno 10167 bound_to 10162
  156.0593  130.5818  150.8243 H   0  0  0  0  0  0  0  0  0  0  0  0  # atno 10718 bound_to 10713
  154.8547  135.4318  154.1943 H   0  0  0  0  0  0  0  0  0  0  0  0  # atno 10763 bound_to 10752
  153.3004  135.6968  153.7214 H   0  0  0  0  0  0  0  0  0  0  0  0  # atno 10764 bound_to 10752
  153.6347  135.3478  155.3027 H   0  0  0  0  0  0  0  0  0  0  0  0  # atno 10765 bound_to 10752
  140.7019  134.3928  157.5208 H   0  0  0  0  0  0  0  0  0  0  0  0  # atno 11005 bound_to 11000
  145.9873  139.2988  143.1006 LP  0  0  0  0  0  0  0  0  0  0  0  0  # atno 17320 bound_to 7965
  145.8942  140.9284  143.0536 LP  0  0  0  0  0  0  0  0  0  0  0  0  # atno 17321 bound_to 7965
  140.7818  143.4497  151.0431 LP  0  0  0  0  0  0  0  0  0  0  0  0  # atno 17342 bound_to 10162
  139.8177  143.7862  152.3175 LP  0  0  0  0  0  0  0  0  0  0  0  0  # atno 17343 bound_to 10162
  157.5589  131.0945  150.9588 LP  0  0  0  0  0  0  0  0  0  0  0  0  # atno 17370 bound_to 10713
  156.9830  130.5534  149.5297 LP  0  0  0  0  0  0  0  0  0  0  0  0  # atno 17371 bound_to 10713
  139.8894  134.8830  156.2421 LP  0  0  0  0  0  0  0  0  0  0  0  0  # atno 17394 bound_to 11000
  141.0156  133.7070  156.1184 LP  0  0  0  0  0  0  0  0  0  0  0  0  # atno 17395 bound_to 11000

$$$$
