AV-unprocessed.smi:264|AV-procd|sdf|2012|dock7
  -GOLD-   2262021213D 1   1.00000     0.00000
 Structure written by MMmdl.
 52 56  0  0  0  0  0  0  0  0  1 V2000
  152.1797  144.9599  158.7649 C   0  0  0  0  0  0  0  0  0  0  0  0
  152.7521  143.5375  158.6514 C   0  0  1  0  0  0  0  0  0  0  0  0
  153.6231  143.2550  159.7465 O   0  0  0  0  0  0  0  0  0  0  0  0
  153.1996  142.0773  160.4193 C   0  0  0  0  0  0  0  0  0  0  0  0
  152.4427  141.2866  159.3606 C   0  0  0  0  0  0  0  0  0  0  0  0
  151.7277  142.3813  158.5814 C   0  0  1  0  0  0  0  0  0  0  0  0
  150.5363  142.7186  159.2753 O   0  0  0  0  0  0  0  0  0  0  0  0
  151.3555  141.9847  157.1330 C   0  0  0  0  0  0  0  0  0  0  0  0
  150.7074  140.6854  157.0388 N   0  0  0  0  0  0  0  0  0  0  0  0
  149.5030  140.3239  157.5990 C   0  0  0  0  0  0  0  0  0  0  0  0
  149.1354  139.0911  157.3801 N   0  0  0  0  0  0  0  0  0  0  0  0
  150.1559  138.5656  156.5960 C   0  0  0  0  0  0  0  0  0  0  0  0
  150.4070  137.2953  156.0030 C   0  0  0  0  0  0  0  0  0  0  0  0
  149.6019  136.2169  156.1038 N   0  0  0  0  0  0  0  0  0  0  0  0
  148.2379  136.4752  155.6707 C   0  0  0  0  0  0  0  0  0  0  0  0
  147.3436  135.2860  156.0500 C   0  0  0  0  0  0  0  0  0  0  0  0
  147.8803  134.0754  155.5158 O   0  0  0  0  0  0  0  0  0  0  0  0
  149.2195  133.7829  155.9303 C   0  0  2  0  0  0  0  0  0  0  0  0
  149.6584  132.5098  155.2125 C   0  0  0  0  0  0  0  0  0  0  0  0
  150.5106  131.7969  156.2513 C   0  0  0  0  0  0  0  0  0  0  0  0
  149.7866  132.0306  157.4444 O   0  0  0  0  0  0  0  0  0  0  0  0
  149.3154  133.3728  157.4191 C   0  0  0  0  0  0  0  0  0  0  0  0
  150.1385  134.9732  155.5667 C   0  0  0  0  0  0  0  0  0  0  0  0
  151.5554  137.1366  155.3011 N   0  0  0  0  0  0  0  0  0  0  0  0
  152.4047  138.1598  155.1686 C   0  0  0  0  0  0  0  0  0  0  0  0
  152.3019  139.3986  155.6548 N   0  0  0  0  0  0  0  0  0  0  0  0
  151.1530  139.5568  156.3729 C   0  0  0  0  0  0  0  0  0  0  0  0
  151.5041  145.1783  157.9376 H   0  0  0  0  0  0  0  0  0  0  0  0
  152.9805  145.6992  158.7432 H   0  0  0  0  0  0  0  0  0  0  0  0
  151.6316  145.1006  159.6969 H   0  0  0  0  0  0  0  0  0  0  0  0
  153.3845  143.4982  157.7635 H   0  0  0  0  0  0  0  0  0  0  0  0
  154.0441  141.5263  160.8334 H   0  0  0  0  0  0  0  0  0  0  0  0
  152.5369  142.3540  161.2404 H   0  0  0  0  0  0  0  0  0  0  0  0
  153.1614  140.7758  158.7188 H   0  0  0  0  0  0  0  0  0  0  0  0
  151.7742  140.5339  159.7809 H   0  0  0  0  0  0  0  0  0  0  0  0
  149.9992  143.2485  158.7065 H   0  0  0  0  0  0  0  0  0  0  0  0
  150.6917  142.7324  156.6967 H   0  0  0  0  0  0  0  0  0  0  0  0
  152.2467  141.9656  156.5043 H   0  0  0  0  0  0  0  0  0  0  0  0
  148.9060  141.0063  158.1866 H   0  0  0  0  0  0  0  0  0  0  0  0
  147.8612  137.3887  156.1331 H   0  0  0  0  0  0  0  0  0  0  0  0
  148.2208  136.6279  154.5906 H   0  0  0  0  0  0  0  0  0  0  0  0
  147.2396  135.2174  157.1329 H   0  0  0  0  0  0  0  0  0  0  0  0
  146.3402  135.4314  155.6501 H   0  0  0  0  0  0  0  0  0  0  0  0
  148.7904  131.8895  154.9832 H   0  0  0  0  0  0  0  0  0  0  0  0
  150.1893  132.6915  154.2773 H   0  0  0  0  0  0  0  0  0  0  0  0
  150.6218  130.7314  156.0487 H   0  0  0  0  0  0  0  0  0  0  0  0
  151.5030  132.2446  156.3236 H   0  0  0  0  0  0  0  0  0  0  0  0
  150.0179  134.0068  157.9617 H   0  0  0  0  0  0  0  0  0  0  0  0
  148.3591  133.4201  157.9388 H   0  0  0  0  0  0  0  0  0  0  0  0
  150.2088  135.0511  154.4820 H   0  0  0  0  0  0  0  0  0  0  0  0
  151.1498  134.8086  155.9419 H   0  0  0  0  0  0  0  0  0  0  0  0
  153.2953  137.9563  154.5923 H   0  0  0  0  0  0  0  0  0  0  0  0
  1  2  1  0  0  0  0
  1 28  1  0  0  0  0
  1 29  1  0  0  0  0
  1 30  1  0  0  0  0
  2  6  1  0  0  0  0
  2  3  1  0  0  0  0
  2 31  1  0  0  0  0
  3  4  1  0  0  0  0
  4  5  1  0  0  0  0
  4 32  1  0  0  0  0
  4 33  1  0  0  0  0
  5  6  1  0  0  0  0
  5 34  1  0  0  0  0
  5 35  1  0  0  0  0
  6  7  1  0  0  0  0
  6  8  1  0  0  0  0
  7 36  1  0  0  0  0
  8  9  1  0  0  0  0
  8 37  1  0  0  0  0
  8 38  1  0  0  0  0
  9 27  1  0  0  0  0
  9 10  1  0  0  0  0
 10 11  2  0  0  0  0
 10 39  1  0  0  0  0
 11 12  1  0  0  0  0
 12 27  2  0  0  0  0
 12 13  1  0  0  0  0
 13 14  1  0  0  0  0
 13 24  2  0  0  0  0
 14 23  1  0  0  0  0
 14 15  1  0  0  0  0
 15 16  1  0  0  0  0
 15 40  1  0  0  0  0
 15 41  1  0  0  0  0
 16 17  1  0  0  0  0
 16 42  1  0  0  0  0
 16 43  1  0  0  0  0
 17 18  1  0  0  0  0
 18 22  1  0  0  0  0
 18 19  1  0  0  0  0
 18 23  1  0  0  0  0
 19 20  1  0  0  0  0
 19 44  1  0  0  0  0
 19 45  1  0  0  0  0
 20 21  1  0  0  0  0
 20 46  1  0  0  0  0
 20 47  1  0  0  0  0
 21 22  1  0  0  0  0
 22 48  1  0  0  0  0
 22 49  1  0  0  0  0
 23 50  1  0  0  0  0
 23 51  1  0  0  0  0
 24 25  1  0  0  0  0
 25 26  2  0  0  0  0
 25 52  1  0  0  0  0
 26 27  1  0  0  0  0
M  END
> <s_m_source_file>
AV-unprocessed.smi

> <i_m_source_file_index>
264

> <i_lp_mmshare_version>
43012

> <i_f3d_flags>
0

> <s_epik_input>
W0NIMl0xW0NIMl1PW0NAQEhdKFtDSDNdKVtDQEBdMShbT0hdKVtDSDJdbihbY0hdbjIpYyhjMjMpbltjSF1uYzNOKFtDSDJdNClbQ0gyXVtDSDJdT1tDQF00NVtDSDJdW0NIMl1PW0NIMl01

> <s_epik_cmdline>
J2VwaWtfcHl0aG9uJywgJy1waCcsICc3LjAnLCAnLXRuJywgJzgnLCAnLW1hJywgJzIwMCcsICctbWV0YWxfYmluZGluZycsICctaW1hZScsICc8aW5maWxlLm1hZT4nLCAnLW9tYWUnLCAnPG91dGZpbGUubWFlPic=

> <r_lp_tautomer_probability>
1

> <r_epik_Ionization_Penalty>
0.00539389

> <r_epik_Ionization_Penalty_Charging>
0

> <r_epik_Ionization_Penalty_Neutral>
0.00539389

> <r_epik_State_Penalty>
0.00375441

> <r_epik_Charging_Adjusted_Penalty>
0.00375441

> <i_epik_Tot_Q>
0

> <i_epik_Tot_abs_Q>
0

> <r_epik_Metal_State_Penalty>
-0

> <b_epik_Metal_Only>
0

> <s_lp_Force_Field>
OPLS_2005

> <r_lp_Energy>
56.7772

> <b_lp_Chiralities_Consistent>
1

> <s_lp_Variant>
AV-unprocessed.smi:264-6

> <Gold.Version>
5.8.1

> <Gold.Id.Protein>
6NUR|6NUR_protein|mol2

> <Gold.PLP.Fitness>
46.8546

> <Gold.PLP.PLP>
-41.4761

> <Gold.PLP.part.hbond>
-2.7054

> <Gold.PLP.part.metal>
0.0000

> <Gold.PLP.part.buried>
-7.4206

> <Gold.PLP.part.nonpolar>
-31.3118

> <Gold.PLP.part.repulsive>
0.2892

> <Gold.PLP.ligand.clash>
0.0000

> <Gold.PLP.ligand.torsion>
0.2276

> <Gold.PLP.Chemscore.Hbond>
1.8892

> <Gold.PLP.Chemscore.CHOScore>
0.0000

> <Gold.PLP.Chemscore.Metal>
0.0000

> <Gold.Chemscore.Hbonds>
donor molecule, donor type, donor heavy atom, donor atom, acceptor molecule, acceptor atom, score
      P1  H  7997  8008       L1    26  0.46
      P1  H 10752 10765       L1    24  0.46

> <Gold.PLP.Chemscore.Internal.Correction>
0.1661

> <Gold.Rescore>
     Score         DG    S(hbond)    S(metal)    S(lipo)     H(rot)  DE(clash)    DE(int)     intcor
     14.71     -15.33       1.18        0.00      96.68       2.11       0.36       0.26       ----

> <Gold.Chemscore.Fitness>
14.7144

> <Gold.Chemscore.DG>
-15.3311

> <Gold.Chemscore.ZeroCoef>
-5.4800

> <Gold.Chemscore.Hbond>
1.1770

> <Gold.Chemscore.Metal>
0.0000

> <Gold.Chemscore.Lipo>
96.6844

> <Gold.Chemscore.Internal_Hbond>
0.0000

> <Gold.Chemscore.DEClash>
0.3561

> <Gold.Chemscore.DEInternal>
0.2606

> <Gold.Chemscore.Rot>
2.1063

> <Gold.Chemscore.Internal.Correction>
   9.000000E+99

> <Gold.Chemscore.Hbonds>
donor molecule, donor type, donor heavy atom, donor atom, acceptor molecule, acceptor atom, score
      P1  H  7997  8008       L1    26  0.30
      P1  H 10752 10765       L1    24  0.06

> <Gold.Chemscore.Hbond.Weighted>
-3.9312

> <Gold.Chemscore.Metal.Weighted>
-0.0000

> <Gold.Chemscore.Lipo.Weighted>
-11.3121

> <Gold.Chemscore.Internal_Hbond.Weighted>
0.0000

> <Gold.Chemscore.DEClash.Weighted>
0.3561

> <Gold.Chemscore.DEInternal.Weighted>
0.2606

> <Gold.Chemscore.Rot.Weighted>
5.3921

> <Gold.Chemscore.Internal.Correction.Weighted>
   9.000000E+99

> <Gold.Protein.RotatedTorsions>
[ 6907 6896 6895 6894 ] final  -64.24 input  -60.11 | X-H torsion
[ 7974 7965 7964 7962 ] final  118.36 input  175.53 | X-H torsion
[ 8008 7997 7996 7995 ] final  -27.28 input   59.86 | X-H torsion
[ 10167 10162 10161 10158 ] final   51.57 input  -65.29 | X-H torsion
[ 10718 10713 10712 10709 ] final    1.55 input   66.30 | X-H torsion
[ 10763 10752 10751 10750 ] final  178.02 input  -60.55 | X-H torsion
[ 11005 11000 10999 10996 ] final  -22.60 input  -57.11 | X-H torsion

> <Gold.Protein.ActiveResidues>
 VAL166  LYS551  ARG553  GLY616  TRP617  ASP618  TYR619  PRO620  LYS621  CYS622 
 ASP623  PHE694  ASN695  SER759  ASP760  ASP761  ALA762  ILE779  LEU786  VAL792 
 PHE793  MET794  SER795  GLU796  ALA797  LYS798  CYS799  TRP800  GLU811  SER814 

> <Gold.Protein.RotatedAtoms>
  150.7598  134.6325  159.6193 H   0  0  0  0  0  0  0  0  0  0  0  0  # atno 6907 bound_to 6896
  152.3598  134.6885  160.0219 H   0  0  0  0  0  0  0  0  0  0  0  0  # atno 6908 bound_to 6896
  151.7278  133.3280  159.3369 H   0  0  0  0  0  0  0  0  0  0  0  0  # atno 6909 bound_to 6896
  145.1561  139.3182  143.4541 H   0  0  0  0  0  0  0  0  0  0  0  0  # atno 7974 bound_to 7965
  154.4384  140.1876  156.0908 H   0  0  0  0  0  0  0  0  0  0  0  0  # atno 8008 bound_to 7997
  156.0367  140.3324  155.7173 H   0  0  0  0  0  0  0  0  0  0  0  0  # atno 8009 bound_to 7997
  155.5759  140.0617  157.2786 H   0  0  0  0  0  0  0  0  0  0  0  0  # atno 8010 bound_to 7997
  140.2605  144.3378  150.6319 H   0  0  0  0  0  0  0  0  0  0  0  0  # atno 10167 bound_to 10162
  156.8498  130.5550  149.5670 H   0  0  0  0  0  0  0  0  0  0  0  0  # atno 10718 bound_to 10713
  154.5022  135.2784  155.1411 H   0  0  0  0  0  0  0  0  0  0  0  0  # atno 10763 bound_to 10752
  154.3040  135.6242  153.5440 H   0  0  0  0  0  0  0  0  0  0  0  0  # atno 10764 bound_to 10752
  152.9904  135.5704  154.5467 H   0  0  0  0  0  0  0  0  0  0  0  0  # atno 10765 bound_to 10752
  140.8672  133.7746  156.0143 H   0  0  0  0  0  0  0  0  0  0  0  0  # atno 11005 bound_to 11000
  146.3488  140.1654  142.8590 LP  0  0  0  0  0  0  0  0  0  0  0  0  # atno 17320 bound_to 7965
  145.0379  140.8922  143.5070 LP  0  0  0  0  0  0  0  0  0  0  0  0  # atno 17321 bound_to 7965
  140.5969  143.2167  151.7146 LP  0  0  0  0  0  0  0  0  0  0  0  0  # atno 17342 bound_to 10162
  139.5018  144.3853  152.0335 LP  0  0  0  0  0  0  0  0  0  0  0  0  # atno 17343 bound_to 10162
  156.0834  130.5839  150.9605 LP  0  0  0  0  0  0  0  0  0  0  0  0  # atno 17370 bound_to 10713
  157.6309  131.0921  150.8442 LP  0  0  0  0  0  0  0  0  0  0  0  0  # atno 17371 bound_to 10713
  140.8615  134.2835  157.5232 LP  0  0  0  0  0  0  0  0  0  0  0  0  # atno 17394 bound_to 11000
  139.8710  134.9520  156.4103 LP  0  0  0  0  0  0  0  0  0  0  0  0  # atno 17395 bound_to 11000

$$$$
