#       Name:                AV-unprocessed.smi:1056
#       Creating user name   scv26
#       Creation time:       Fri Mar 27 03:14:48 2020


#       File generated by GOLD software.
#

@<TRIPOS>MOLECULE
AV-unprocessed.smi:1056
    50    52     1
SMALL
NO_CHARGES


@<TRIPOS>ATOM
      1 ****        -3.8887   4.4717   2.1082 C.3            1 S1                 0.0000
      2 ****        -3.1745   3.3802   1.3292 C.ar           1 S1                 0.0000
      3 ****        -2.9865   3.5558  -0.0603 C.ar           1 S1                 0.0000
      4 ****        -2.3275   2.5412  -0.7446 C.ar           1 S1                 0.0000
      5 ****        -1.9898   2.4190  -2.0940 N.pl3          1 S1                 1.0000
      6 ****        -1.3423   1.2383  -2.2950 C.2            1 S1                 0.0000
      7 ****        -1.2627   0.6032  -1.0945 N.pl3          1 S1                 0.0000
      8 ****        -0.6657  -0.6982  -0.7610 C.3            1 S1                 0.0000
      9 ****         0.8483  -0.6112  -0.4840 C.3            1 S1                 0.0000
     10 ****         1.0766   0.2328   0.6275 O.3            1 S1                 0.0000
     11 ****         1.4488  -1.9996  -0.1790 C.3            1 S1                 0.0000
     12 ****         2.9110  -2.0435  -0.0018 N.3            1 S1                 0.0000
     13 ****         3.6671  -1.7064  -1.2135 C.3            1 S1                 0.0000
     14 ****         3.5174  -2.7484  -2.3404 C.3            1 S1                 0.0000
     15 ****         3.5593  -4.1209  -1.8376 N.am           1 S1                 0.0000
     16 ****         3.4466  -4.4689  -0.5440 C.2            1 S1                 0.0000
     17 ****         3.4331  -5.6444  -0.1870 O.2            1 S1                 0.0000
     18 ****         3.3642  -3.3462   0.5101 C.3            1 S1                 0.0000
     19 ****        -1.8634   1.3801  -0.0962 C.ar           1 S1                 0.0000
     20 ****        -2.0406   1.1922   1.2727 C.ar           1 S1                 0.0000
     21 ****        -2.7071   2.2132   1.9871 C.ar           1 S1                 0.0000
     22 ****        -2.9104   2.0362   3.4822 C.3            1 S1                 0.0000
     23 ****        -4.1623   5.3080   1.4642 H              1 S1                 0.0000
     24 ****        -3.2488   4.8583   2.9018 H              1 S1                 0.0000
     25 ****        -4.8034   4.0847   2.5579 H              1 S1                 0.0000
     26 ****        -3.3390   4.4420  -0.5677 H              1 S1                 0.0000
     27 ****        -0.9612   0.8715  -3.2372 H              1 S1                 0.0000
     28 ****        -1.2011  -1.1363   0.0817 H              1 S1                 0.0000
     29 ****        -0.8474  -1.3570  -1.6111 H              1 S1                 0.0000
     30 ****         1.3238  -0.1674  -1.3573 H              1 S1                 0.0000
     31 ****         2.0060   0.2512   0.8002 H              1 S1                 0.0000
     32 ****         0.9689  -2.3700   0.7285 H              1 S1                 0.0000
     33 ****         1.1470  -2.6958  -0.9620 H              1 S1                 0.0000
     34 ****         3.4141  -0.7126  -1.5787 H              1 S1                 0.0000
     35 ****         4.7241  -1.6405  -0.9497 H              1 S1                 0.0000
     36 ****         2.5690  -2.6070  -2.8595 H              1 S1                 0.0000
     37 ****         4.3015  -2.6141  -3.0857 H              1 S1                 0.0000
     38 ****         3.6377  -4.8597  -2.5217 H              1 S1                 0.0000
     39 ****         4.3663  -3.2313   0.9251 H              1 S1                 0.0000
     40 ****         2.7395  -3.6714   1.3432 H              1 S1                 0.0000
     41 ****        -1.6786   0.3079   1.7761 H              1 S1                 0.0000
     42 ****        -2.5380   1.0700   3.8240 H              1 S1                 0.0000
     43 ****        -3.9690   2.0919   3.7361 H              1 S1                 0.0000
     44 ****        -2.3795   2.8122   4.0340 H              1 S1                 0.0000
     45 ****        -2.1846   3.0908  -2.8254 H              1 S1                 0.0000
     46 ****         0.5911  -0.1217   1.4266 LP             1 S1                 0.0000
     47 ****         0.7523   1.1564   0.4230 LP             1 S1                 0.0000
     48 ****         3.1027  -1.3339   0.6762 LP             1 S1                 0.0000
     49 ****         3.5072  -6.3743  -0.8666 LP             1 S1                 0.0000
     50 ****         3.3481  -5.8714   0.7832 LP             1 S1                 0.0000
@<TRIPOS>BOND
    1    1    2 1     
    2    1   23 1     
    3    1   24 1     
    4    1   25 1     
    5    2   21 ar    
    6    2    3 ar    
    7    3    4 ar    
    8    3   26 1     
    9    4   19 ar    
   10    4    5 1     
   11    5    6 2     
   12    5   45 1     
   13    6    7 1     
   14    6   27 1     
   15    7    8 1     
   16    7   19 1     
   17    8    9 1     
   18    8   28 1     
   19    8   29 1     
   20    9   10 1     
   21    9   11 1     
   22    9   30 1     
   23   10   31 1     
   24   11   12 1     
   25   11   32 1     
   26   11   33 1     
   27   12   18 1     
   28   12   13 1     
   29   13   14 1     
   30   13   34 1     
   31   13   35 1     
   32   14   15 1     
   33   14   36 1     
   34   14   37 1     
   35   15   16 am    
   36   15   38 1     
   37   16   17 2     
   38   16   18 1     
   39   18   39 1     
   40   18   40 1     
   41   19   20 ar    
   42   20   21 ar    
   43   20   41 1     
   44   21   22 1     
   45   22   42 1     
   46   22   43 1     
   47   22   44 1     
   48   10   46 1     
   49   10   47 1     
   50   12   48 1     
   51   17   49 1     
   52   17   50 1     
@<TRIPOS>SUBSTRUCTURE
      1 S1             1
@<TRIPOS>SET
LONE_PAIRS      STATIC     ATOMS    <user>   **** ""
5 46 47 48 49 50
DONOR_HYDROGENS      STATIC     ATOMS    <user>   **** ""
3 45 31 38
ATOM$BLUE        STATIC     ATOMS    COLORGROUP SYSTEM
5 46 47 48 49 50
ATOM$RED        STATIC     ATOMS    COLORGROUP SYSTEM
3 45 31 38
