AV-unprocessed.smi:1055|AV-procd|sdf|4628|dock9
  -GOLD-   22720 3133D 1   1.00000     0.00000
 Structure written by MMmdl.
 51 52  0  0  0  0  0  0  0  0  2 V2000
  150.5432  141.9984  156.8667 C   0  0  0  0  0  0  0  0  0  0  0  0
  151.3051  141.6542  157.9179 C   0  0  0  0  0  0  0  0  0  0  0  0
  151.8643  142.6872  158.8783 C   0  0  0  0  0  0  0  0  0  0  0  0
  151.6380  140.2018  158.2282 C   0  0  0  0  0  0  0  0  0  0  0  0
  150.9699  139.2469  157.3435 N   0  0  0  0  0  0  0  0  0  0  0  0
  151.0191  137.8846  157.8866 C   0  0  0  0  0  0  0  0  0  0  0  0
  150.2567  136.9125  156.9697 C   0  0  0  0  0  0  0  0  0  0  0  0
  150.8337  136.9271  155.5440 C   0  0  0  0  0  0  0  0  0  0  0  0
  150.0257  136.1077  154.6454 N   0  0  0  0  0  0  0  0  0  0  0  0
  149.8581  134.7820  154.7535 C   0  0  0  0  0  0  0  0  0  0  0  0
  150.3859  134.1007  155.6322 O   0  0  0  0  0  0  0  0  0  0  0  0
  149.0620  134.3100  153.7785 N   0  0  0  0  0  0  0  0  0  0  0  0
  148.6155  132.9768  153.5692 C   0  0  0  0  0  0  0  0  0  0  0  0
  149.2757  131.9430  154.2656 C   0  0  0  0  0  0  0  0  0  0  0  0
  148.8771  130.6034  154.0778 C   0  0  0  0  0  0  0  0  0  0  0  0
  147.8211  130.3011  153.1831 C   0  0  0  0  0  0  0  0  0  0  0  0
  147.3652  128.9874  152.9400 N   0  0  0  0  0  0  0  0  0  0  0  0
  146.3529  128.7478  151.9198 C   0  0  0  0  0  0  0  0  0  0  0  0
  147.8969  127.8787  153.7250 C   0  0  0  0  0  0  0  0  0  0  0  0
  147.2261  131.3275  152.5274 N   0  3  0  0  0  0  0  0  0  0  0  0
  147.5744  132.6233  152.6783 C   0  0  0  0  0  0  0  0  0  0  0  0
  150.8776  138.3756  155.0370 C   0  0  0  0  0  0  0  0  0  0  0  0
  151.6195  139.2850  156.0318 C   0  0  0  0  0  0  0  0  0  0  0  0
  150.3061  143.0318  156.6602 H   0  0  0  0  0  0  0  0  0  0  0  0
  150.1452  141.2516  156.1954 H   0  0  0  0  0  0  0  0  0  0  0  0
  151.5147  142.4882  159.8915 H   0  0  0  0  0  0  0  0  0  0  0  0
  151.5528  143.6957  158.6036 H   0  0  0  0  0  0  0  0  0  0  0  0
  152.9542  142.6604  158.8796 H   0  0  0  0  0  0  0  0  0  0  0  0
  152.7185  140.0826  158.1364 H   0  0  0  0  0  0  0  0  0  0  0  0
  151.3830  139.9814  159.2663 H   0  0  0  0  0  0  0  0  0  0  0  0
  152.0560  137.5643  157.9996 H   0  0  0  0  0  0  0  0  0  0  0  0
  150.5665  137.8529  158.8776 H   0  0  0  0  0  0  0  0  0  0  0  0
  150.3051  135.9058  157.3860 H   0  0  0  0  0  0  0  0  0  0  0  0
  149.2011  137.1882  156.9493 H   0  0  0  0  0  0  0  0  0  0  0  0
  151.8546  136.5408  155.5671 H   0  0  0  0  0  0  0  0  0  0  0  0
  149.5572  136.5893  153.8920 H   0  0  0  0  0  0  0  0  0  0  0  0
  148.7688  134.9805  153.0830 H   0  0  0  0  0  0  0  0  0  0  0  0
  150.0828  132.1712  154.9464 H   0  0  0  0  0  0  0  0  0  0  0  0
  149.3924  129.8281  154.6246 H   0  0  0  0  0  0  0  0  0  0  0  0
  145.4311  129.2758  152.1653 H   0  0  0  0  0  0  0  0  0  0  0  0
  146.1169  127.6867  151.8364 H   0  0  0  0  0  0  0  0  0  0  0  0
  146.7025  129.0877  150.9445 H   0  0  0  0  0  0  0  0  0  0  0  0
  147.7027  128.0325  154.7870 H   0  0  0  0  0  0  0  0  0  0  0  0
  148.9737  127.7877  153.5786 H   0  0  0  0  0  0  0  0  0  0  0  0
  147.4399  126.9320  153.4368 H   0  0  0  0  0  0  0  0  0  0  0  0
  147.0124  133.3153  152.0696 H   0  0  0  0  0  0  0  0  0  0  0  0
  151.3691  138.4168  154.0643 H   0  0  0  0  0  0  0  0  0  0  0  0
  149.8644  138.7530  154.8888 H   0  0  0  0  0  0  0  0  0  0  0  0
  151.6172  140.3076  155.6523 H   0  0  0  0  0  0  0  0  0  0  0  0
  152.6633  138.9787  156.1195 H   0  0  0  0  0  0  0  0  0  0  0  0
  146.4706  131.1093  151.8776 H   0  0  0  0  0  0  0  0  0  0  0  0
  1  2  2  0  0  0  0
  1 24  1  0  0  0  0
  1 25  1  0  0  0  0
  2  3  1  0  0  0  0
  2  4  1  0  0  0  0
  3 26  1  0  0  0  0
  3 27  1  0  0  0  0
  3 28  1  0  0  0  0
  4  5  1  0  0  0  0
  4 29  1  0  0  0  0
  4 30  1  0  0  0  0
  5 23  1  0  0  0  0
  5  6  1  0  0  0  0
  6  7  1  0  0  0  0
  6 31  1  0  0  0  0
  6 32  1  0  0  0  0
  7  8  1  0  0  0  0
  7 33  1  0  0  0  0
  7 34  1  0  0  0  0
  8  9  1  0  0  0  0
  8 22  1  0  0  0  0
  8 35  1  0  0  0  0
  9 10  1  0  0  0  0
  9 36  1  0  0  0  0
 10 11  2  0  0  0  0
 10 12  1  0  0  0  0
 12 13  1  0  0  0  0
 12 37  1  0  0  0  0
 13 21  1  0  0  0  0
 13 14  2  0  0  0  0
 14 15  1  0  0  0  0
 14 38  1  0  0  0  0
 15 16  2  0  0  0  0
 15 39  1  0  0  0  0
 16 17  1  0  0  0  0
 16 20  1  0  0  0  0
 17 18  1  0  0  0  0
 17 19  1  0  0  0  0
 18 40  1  0  0  0  0
 18 41  1  0  0  0  0
 18 42  1  0  0  0  0
 19 43  1  0  0  0  0
 19 44  1  0  0  0  0
 19 45  1  0  0  0  0
 20 21  2  0  0  0  0
 20 51  1  0  0  0  0
 21 46  1  0  0  0  0
 22 23  1  0  0  0  0
 22 47  1  0  0  0  0
 22 48  1  0  0  0  0
 23 49  1  0  0  0  0
 23 50  1  0  0  0  0
M  CHG  1  20   1
M  END
> <s_m_source_file>
AV-unprocessed.smi

> <i_m_source_file_index>
1055

> <i_lp_mmshare_version>
43012

> <i_f3d_flags>
0

> <s_epik_input>
W0NIMl09QyhbQ0gzXSlbQ0gyXU4xW0NIMl1bQ0gyXVtDSF0oW0NIMl1bQ0gyXTEpW05IXUMoPU8pW05IXWMyW2NIXVtjSF1jKE4oW0NIM10pW0NIM10pbltjSF0y

> <s_epik_cmdline>
J2VwaWtfcHl0aG9uJywgJy1waCcsICc3LjAnLCAnLXRuJywgJzgnLCAnLW1hJywgJzIwMCcsICctbWV0YWxfYmluZGluZycsICctaW1hZScsICc8aW5maWxlLm1hZT4nLCAnLW9tYWUnLCAnPG91dGZpbGUubWFlPic=

> <r_epik_Ionization_Penalty>
2.2313

> <r_epik_Ionization_Penalty_Charging>
0.252156

> <r_epik_Ionization_Penalty_Neutral>
1.97915

> <r_epik_State_Penalty>
2.37644

> <r_epik_Charging_Adjusted_Penalty>
2.62859

> <i_epik_Tot_Q>
1

> <i_epik_Tot_abs_Q>
1

> <r_epik_Metal_State_Penalty>
2.63815

> <b_epik_Metal_Only>
0

> <s_lp_Force_Field>
OPLS_2005

> <r_lp_Energy>
24.1414

> <b_lp_Chiralities_Consistent>
1

> <s_lp_Variant>
AV-unprocessed.smi:1055-5

> <Gold.Version>
5.8.1

> <Gold.Id.Protein>
6NUR|6NUR_protein|mol2

> <Gold.PLP.Fitness>
44.2036

> <Gold.PLP.PLP>
-39.2540

> <Gold.PLP.part.hbond>
-3.4496

> <Gold.PLP.part.metal>
0.0000

> <Gold.PLP.part.buried>
-3.3673

> <Gold.PLP.part.nonpolar>
-32.9700

> <Gold.PLP.part.repulsive>
0.1195

> <Gold.PLP.ligand.clash>
0.0000

> <Gold.PLP.ligand.torsion>
0.2071

> <Gold.PLP.Chemscore.Hbond>
1.7771

> <Gold.PLP.Chemscore.CHOScore>
0.0000

> <Gold.PLP.Chemscore.Metal>
0.0000

> <Gold.Chemscore.Hbonds>
donor molecule, donor type, donor heavy atom, donor atom, acceptor molecule, acceptor atom, score
      L1  H     9    36       P1  7948  0.60
      L1  H    12    37       P1  7948  1.00

> <Gold.PLP.Chemscore.Internal.Correction>
0.0324

> <Gold.Rescore>
     Score         DG    S(hbond)    S(metal)    S(lipo)     H(rot)  DE(clash)    DE(int)     intcor
     15.14     -16.90       1.15        0.00      93.86       1.32       0.13       1.63       ----

> <Gold.Chemscore.Fitness>
15.1449

> <Gold.Chemscore.DG>
-16.9032

> <Gold.Chemscore.ZeroCoef>
-5.4800

> <Gold.Chemscore.Hbond>
1.1464

> <Gold.Chemscore.Metal>
0.0000

> <Gold.Chemscore.Lipo>
93.8568

> <Gold.Chemscore.Internal_Hbond>
0.0000

> <Gold.Chemscore.DEClash>
0.1277

> <Gold.Chemscore.DEInternal>
1.6306

> <Gold.Chemscore.Rot>
1.3231

> <Gold.Chemscore.Internal.Correction>
   9.000000E+99

> <Gold.Chemscore.Hbonds>
donor molecule, donor type, donor heavy atom, donor atom, acceptor molecule, acceptor atom, score
      L1  H     9    36       P1  7948  0.46
      L1  H    12    37       P1  7948  0.34

> <Gold.Chemscore.Hbond.Weighted>
-3.8291

> <Gold.Chemscore.Metal.Weighted>
-0.0000

> <Gold.Chemscore.Lipo.Weighted>
-10.9813

> <Gold.Chemscore.Internal_Hbond.Weighted>
0.0000

> <Gold.Chemscore.DEClash.Weighted>
0.1277

> <Gold.Chemscore.DEInternal.Weighted>
1.6306

> <Gold.Chemscore.Rot.Weighted>
3.3871

> <Gold.Chemscore.Internal.Correction.Weighted>
   9.000000E+99

> <Gold.Protein.RotatedTorsions>
[ 6907 6896 6895 6894 ] final  -11.24 input  -60.11 | X-H torsion
[ 7974 7965 7964 7962 ] final   61.63 input  175.53 | X-H torsion
[ 8008 7997 7996 7995 ] final -132.61 input   59.86 | X-H torsion
[ 10167 10162 10161 10158 ] final  132.92 input  -65.29 | X-H torsion
[ 10718 10713 10712 10709 ] final -139.49 input   66.30 | X-H torsion
[ 10763 10752 10751 10750 ] final  135.97 input  -60.55 | X-H torsion
[ 11005 11000 10999 10996 ] final  -32.74 input  -57.11 | X-H torsion

> <Gold.Protein.ActiveResidues>
 VAL166  LYS551  ARG553  GLY616  TRP617  ASP618  TYR619  PRO620  LYS621  CYS622 
 ASP623  PHE694  ASN695  SER759  ASP760  ASP761  ALA762  ILE779  LEU786  VAL792 
 PHE793  MET794  SER795  GLU796  ALA797  LYS798  CYS799  TRP800  GLU811  SER814 

> <Gold.Protein.RotatedAtoms>
  151.3892  135.0953  159.9520 H   0  0  0  0  0  0  0  0  0  0  0  0  # atno 6907 bound_to 6896
  152.5085  133.8996  159.7445 H   0  0  0  0  0  0  0  0  0  0  0  0  # atno 6908 bound_to 6896
  150.9446  133.6562  159.2812 H   0  0  0  0  0  0  0  0  0  0  0  0  # atno 6909 bound_to 6896
  145.8826  139.3454  143.0697 H   0  0  0  0  0  0  0  0  0  0  0  0  # atno 7974 bound_to 7965
  155.3318  140.0467  157.3043 H   0  0  0  0  0  0  0  0  0  0  0  0  # atno 8008 bound_to 7997
  154.5324  140.2261  155.8747 H   0  0  0  0  0  0  0  0  0  0  0  0  # atno 8009 bound_to 7997
  156.1802  140.3076  155.9140 H   0  0  0  0  0  0  0  0  0  0  0  0  # atno 8010 bound_to 7997
  139.5319  144.6640  151.4921 H   0  0  0  0  0  0  0  0  0  0  0  0  # atno 10167 bound_to 10162
  156.3113  130.7483  151.1560 H   0  0  0  0  0  0  0  0  0  0  0  0  # atno 10718 bound_to 10713
  153.8487  135.3082  155.3431 H   0  0  0  0  0  0  0  0  0  0  0  0  # atno 10763 bound_to 10752
  154.7901  135.4788  154.0035 H   0  0  0  0  0  0  0  0  0  0  0  0  # atno 10764 bound_to 10752
  153.1531  135.6847  153.8945 H   0  0  0  0  0  0  0  0  0  0  0  0  # atno 10765 bound_to 10752
  140.9577  133.7183  156.1320 H   0  0  0  0  0  0  0  0  0  0  0  0  # atno 11005 bound_to 11000
  145.9005  140.9246  143.0505 LP  0  0  0  0  0  0  0  0  0  0  0  0  # atno 17320 bound_to 7965
  144.6727  140.1026  143.7459 LP  0  0  0  0  0  0  0  0  0  0  0  0  # atno 17321 bound_to 7965
  140.6502  143.8712  150.6778 LP  0  0  0  0  0  0  0  0  0  0  0  0  # atno 17342 bound_to 10162
  140.2074  143.3910  152.1745 LP  0  0  0  0  0  0  0  0  0  0  0  0  # atno 17343 bound_to 10162
  157.7391  131.0532  150.5249 LP  0  0  0  0  0  0  0  0  0  0  0  0  # atno 17370 bound_to 10713
  156.5389  130.4203  149.6164 LP  0  0  0  0  0  0  0  0  0  0  0  0  # atno 17371 bound_to 10713
  140.7512  134.4043  157.5541 LP  0  0  0  0  0  0  0  0  0  0  0  0  # atno 17394 bound_to 11000
  139.8868  134.8901  156.2566 LP  0  0  0  0  0  0  0  0  0  0  0  0  # atno 17395 bound_to 11000

$$$$
