AV-unprocessed.smi:1025|AV-procd|sdf|4467|dock9
  -GOLD-   22720 2443D 1   1.00000     0.00000
 Structure written by MMmdl.
 51 52  0  0  0  0  0  0  0  0  1 V2000
  143.2071  132.8518  147.7024 C   0  0  0  0  0  0  0  0  0  0  0  0
  144.4201  133.0100  148.4898 N   0  0  0  0  0  0  0  0  0  0  0  0
  144.7038  132.3033  149.5938 C   0  0  0  0  0  0  0  0  0  0  0  0
  143.9484  131.4423  150.0445 O   0  0  0  0  0  0  0  0  0  0  0  0
  146.0428  132.6250  150.2848 C   0  0  2  0  0  0  0  0  0  0  0  0
  146.5070  131.4988  151.2375 C   0  0  0  0  0  0  0  0  0  0  0  0
  145.7571  131.4786  152.5825 C   0  0  0  0  0  0  0  0  0  0  0  0
  145.8173  132.8505  153.2816 C   0  0  2  0  0  0  0  0  0  0  0  0
  145.0486  132.8294  154.5223 N   0  0  0  0  0  0  0  0  0  0  0  0
  145.3395  133.5316  155.6263 C   0  0  0  0  0  0  0  0  0  0  0  0
  146.3110  134.2809  155.7168 O   0  0  0  0  0  0  0  0  0  0  0  0
  144.4319  133.3095  156.5921 N   0  0  0  0  0  0  0  0  0  0  0  0
  144.3549  133.8782  157.8923 C   0  0  0  0  0  0  0  0  0  0  0  0
  143.1749  134.0217  158.6615 C   0  0  0  0  0  0  0  0  0  0  0  0
  143.1952  134.5769  159.8920 N   0  0  0  0  0  0  0  0  0  0  0  0
  144.3676  135.0274  160.3572 C   0  0  0  0  0  0  0  0  0  0  0  0
  144.4064  135.5097  161.8180 C   0  0  0  0  0  0  0  0  0  0  0  0
  144.9114  136.9688  161.9086 C   0  0  0  0  0  0  0  0  0  0  0  0
  145.3324  134.5909  162.6362 C   0  0  0  0  0  0  0  0  0  0  0  0
  142.9921  135.5068  162.4447 C   0  0  0  0  0  0  0  0  0  0  0  0
  145.5415  134.9110  159.7228 N   0  0  0  0  0  0  0  0  0  0  0  0
  145.5360  134.3590  158.4915 C   0  0  0  0  0  0  0  0  0  0  0  0
  145.2790  133.9596  152.3607 C   0  0  0  0  0  0  0  0  0  0  0  0
  146.0267  133.9886  151.0146 C   0  0  0  0  0  0  0  0  0  0  0  0
  143.2227  133.5366  146.8546 H   0  0  0  0  0  0  0  0  0  0  0  0
  142.3232  133.0721  148.3025 H   0  0  0  0  0  0  0  0  0  0  0  0
  143.1228  131.8345  147.3176 H   0  0  0  0  0  0  0  0  0  0  0  0
  145.0876  133.7000  148.1769 H   0  0  0  0  0  0  0  0  0  0  0  0
  146.7905  132.6988  149.4932 H   0  0  0  0  0  0  0  0  0  0  0  0
  146.4094  130.5277  150.7500 H   0  0  0  0  0  0  0  0  0  0  0  0
  147.5724  131.6242  151.4341 H   0  0  0  0  0  0  0  0  0  0  0  0
  144.7189  131.1830  152.4295 H   0  0  0  0  0  0  0  0  0  0  0  0
  146.1948  130.7137  153.2248 H   0  0  0  0  0  0  0  0  0  0  0  0
  146.8591  133.0820  153.5117 H   0  0  0  0  0  0  0  0  0  0  0  0
  144.2305  132.2381  154.5375 H   0  0  0  0  0  0  0  0  0  0  0  0
  143.6739  132.6885  156.3493 H   0  0  0  0  0  0  0  0  0  0  0  0
  142.2035  133.7056  158.3171 H   0  0  0  0  0  0  0  0  0  0  0  0
  144.8973  137.3302  162.9374 H   0  0  0  0  0  0  0  0  0  0  0  0
  144.2898  137.6419  161.3165 H   0  0  0  0  0  0  0  0  0  0  0  0
  145.9379  137.0692  161.5545 H   0  0  0  0  0  0  0  0  0  0  0  0
  146.3478  134.5968  162.2386 H   0  0  0  0  0  0  0  0  0  0  0  0
  144.9799  133.5589  162.6212 H   0  0  0  0  0  0  0  0  0  0  0  0
  145.3860  134.9054  163.6789 H   0  0  0  0  0  0  0  0  0  0  0  0
  143.0090  135.8900  163.4654 H   0  0  0  0  0  0  0  0  0  0  0  0
  142.5687  134.5029  162.4939 H   0  0  0  0  0  0  0  0  0  0  0  0
  142.3029  136.1292  161.8725 H   0  0  0  0  0  0  0  0  0  0  0  0
  146.4883  134.2908  157.9863 H   0  0  0  0  0  0  0  0  0  0  0  0
  144.2108  133.8205  152.1929 H   0  0  0  0  0  0  0  0  0  0  0  0
  145.3817  134.9287  152.8506 H   0  0  0  0  0  0  0  0  0  0  0  0
  147.0563  134.3018  151.1931 H   0  0  0  0  0  0  0  0  0  0  0  0
  145.5926  134.7556  150.3718 H   0  0  0  0  0  0  0  0  0  0  0  0
  1  2  1  0  0  0  0
  1 25  1  0  0  0  0
  1 26  1  0  0  0  0
  1 27  1  0  0  0  0
  2  3  1  0  0  0  0
  2 28  1  0  0  0  0
  3  4  2  0  0  0  0
  3  5  1  0  0  0  0
  5 24  1  0  0  0  0
  5  6  1  0  0  0  0
  5 29  1  0  0  0  0
  6  7  1  0  0  0  0
  6 30  1  0  0  0  0
  6 31  1  0  0  0  0
  7  8  1  0  0  0  0
  7 32  1  0  0  0  0
  7 33  1  0  0  0  0
  8  9  1  0  0  0  0
  8 23  1  0  0  0  0
  8 34  1  0  0  0  0
  9 10  1  0  0  0  0
  9 35  1  0  0  0  0
 10 11  2  0  0  0  0
 10 12  1  0  0  0  0
 12 13  1  0  0  0  0
 12 36  1  0  0  0  0
 13 22  1  0  0  0  0
 13 14  2  0  0  0  0
 14 15  1  0  0  0  0
 14 37  1  0  0  0  0
 15 16  2  0  0  0  0
 16 17  1  0  0  0  0
 16 21  1  0  0  0  0
 17 18  1  0  0  0  0
 17 19  1  0  0  0  0
 17 20  1  0  0  0  0
 18 38  1  0  0  0  0
 18 39  1  0  0  0  0
 18 40  1  0  0  0  0
 19 41  1  0  0  0  0
 19 42  1  0  0  0  0
 19 43  1  0  0  0  0
 20 44  1  0  0  0  0
 20 45  1  0  0  0  0
 20 46  1  0  0  0  0
 21 22  2  0  0  0  0
 22 47  1  0  0  0  0
 23 24  1  0  0  0  0
 23 48  1  0  0  0  0
 23 49  1  0  0  0  0
 24 50  1  0  0  0  0
 24 51  1  0  0  0  0
M  END
> <s_m_source_file>
AV-unprocessed.smi

> <i_m_source_file_index>
1025

> <i_lp_mmshare_version>
43012

> <i_f3d_flags>
0

> <s_epik_input>
W0NIM11bTkhdQyg9TylbQ0BASF0xW0NIMl1bQ0gyXVtDQEhdKFtDSDJdW0NIMl0xKVtOSF1DKD1PKVtOSF1jMltjSF1uYyhDKFtDSDNdKShbQ0gzXSlbQ0gzXSluW2NIXTI=

> <s_epik_cmdline>
J2VwaWtfcHl0aG9uJywgJy1waCcsICc3LjAnLCAnLXRuJywgJzgnLCAnLW1hJywgJzIwMCcsICctbWV0YWxfYmluZGluZycsICctaW1hZScsICc8aW5maWxlLm1hZT4nLCAnLW9tYWUnLCAnPG91dGZpbGUubWFlPic=

> <r_lp_tautomer_probability>
1

> <r_epik_Ionization_Penalty>
2.76239e-05

> <r_epik_Ionization_Penalty_Charging>
0

> <r_epik_Ionization_Penalty_Neutral>
2.76239e-05

> <r_epik_State_Penalty>
-0

> <r_epik_Charging_Adjusted_Penalty>
0

> <i_epik_Tot_Q>
0

> <i_epik_Tot_abs_Q>
0

> <r_epik_Metal_State_Penalty>
-0

> <b_epik_Metal_Only>
0

> <s_lp_Force_Field>
OPLS_2005

> <r_lp_Energy>
4.91063

> <b_lp_Chiralities_Consistent>
1

> <s_lp_Variant>
AV-unprocessed.smi:1025-2

> <Gold.Version>
5.8.1

> <Gold.Id.Protein>
6NUR|6NUR_protein|mol2

> <Gold.PLP.Fitness>
37.0059

> <Gold.PLP.PLP>
-24.9533

> <Gold.PLP.part.hbond>
-4.0000

> <Gold.PLP.part.metal>
0.0000

> <Gold.PLP.part.buried>
2.5011

> <Gold.PLP.part.nonpolar>
-25.6709

> <Gold.PLP.part.repulsive>
0.3970

> <Gold.PLP.ligand.clash>
0.0000

> <Gold.PLP.ligand.torsion>
0.9760

> <Gold.PLP.Chemscore.Hbond>
3.6068

> <Gold.PLP.Chemscore.CHOScore>
0.9994

> <Gold.PLP.Chemscore.Metal>
0.0000

> <Gold.Chemscore.Hbonds>
donor molecule, donor type, donor heavy atom, donor atom, acceptor molecule, acceptor atom, score
      L1  H     2    28       P1  7921  1.00
      L1  H     9    35       P1 10957  1.00
      L1  H    12    36       P1 10957  0.90
      P1  H 10785 10796       L1     4  0.70
      L1  C    14    37       P1 11000  1.00

> <Gold.PLP.Chemscore.Internal.Correction>
0.1859

> <Gold.Rescore>
     Score         DG    S(hbond)    S(metal)    S(lipo)     H(rot)  DE(clash)    DE(int)     intcor
     16.56     -21.58       3.26        0.00      77.61       1.52       2.81       2.20       ----

> <Gold.Chemscore.Fitness>
16.5635

> <Gold.Chemscore.DG>
-21.5778

> <Gold.Chemscore.ZeroCoef>
-5.4800

> <Gold.Chemscore.Hbond>
3.2640

> <Gold.Chemscore.Metal>
0.0000

> <Gold.Chemscore.Lipo>
77.6067

> <Gold.Chemscore.Internal_Hbond>
0.0000

> <Gold.Chemscore.DEClash>
2.8129

> <Gold.Chemscore.DEInternal>
2.2015

> <Gold.Chemscore.Rot>
1.5171

> <Gold.Chemscore.Internal.Correction>
   9.000000E+99

> <Gold.Chemscore.Hbonds>
donor molecule, donor type, donor heavy atom, donor atom, acceptor molecule, acceptor atom, score
      L1  H     2    28       P1  7921  0.81
      L1  H     9    35       P1 10957  0.65
      L1  H    12    36       P1 10957  0.84
      P1  H 10785 10796       L1     4  0.65

> <Gold.Chemscore.Hbond.Weighted>
-10.9017

> <Gold.Chemscore.Metal.Weighted>
-0.0000

> <Gold.Chemscore.Lipo.Weighted>
-9.0800

> <Gold.Chemscore.Internal_Hbond.Weighted>
0.0000

> <Gold.Chemscore.DEClash.Weighted>
2.8129

> <Gold.Chemscore.DEInternal.Weighted>
2.2015

> <Gold.Chemscore.Rot.Weighted>
3.8839

> <Gold.Chemscore.Internal.Correction.Weighted>
   9.000000E+99

> <Gold.Protein.RotatedTorsions>
[ 6907 6896 6895 6894 ] final -164.70 input  -60.11 | X-H torsion
[ 7974 7965 7964 7962 ] final  -45.68 input  175.53 | X-H torsion
[ 8008 7997 7996 7995 ] final  175.07 input   59.86 | X-H torsion
[ 10167 10162 10161 10158 ] final   85.42 input  -65.29 | X-H torsion
[ 10718 10713 10712 10709 ] final    9.47 input   66.30 | X-H torsion
[ 10763 10752 10751 10750 ] final   23.69 input  -60.55 | X-H torsion
[ 11005 11000 10999 10996 ] final   83.39 input  -57.11 | X-H torsion

> <Gold.Protein.ActiveResidues>
 VAL166  LYS551  ARG553  GLY616  TRP617  ASP618  TYR619  PRO620  LYS621  CYS622 
 ASP623  PHE694  ASN695  SER759  ASP760  ASP761  ALA762  ILE779  LEU786  VAL792 
 PHE793  MET794  SER795  GLU796  ALA797  LYS798  CYS799  TRP800  GLU811  SER814 

> <Gold.Protein.RotatedAtoms>
  151.4159  133.3713  159.2749 H   0  0  0  0  0  0  0  0  0  0  0  0  # atno 6907 bound_to 6896
  150.9329  134.8744  159.7573 H   0  0  0  0  0  0  0  0  0  0  0  0  # atno 6908 bound_to 6896
  152.5036  134.4105  159.9499 H   0  0  0  0  0  0  0  0  0  0  0  0  # atno 6909 bound_to 6896
  145.9796  140.7298  142.9370 H   0  0  0  0  0  0  0  0  0  0  0  0  # atno 7974 bound_to 7965
  156.0909  140.1418  156.9593 H   0  0  0  0  0  0  0  0  0  0  0  0  # atno 8008 bound_to 7997
  154.4641  140.0932  156.7021 H   0  0  0  0  0  0  0  0  0  0  0  0  # atno 8009 bound_to 7997
  155.4921  140.3448  155.4359 H   0  0  0  0  0  0  0  0  0  0  0  0  # atno 8010 bound_to 7997
  139.8979  144.6347  150.8668 H   0  0  0  0  0  0  0  0  0  0  0  0  # atno 10167 bound_to 10162
  156.9668  130.5954  149.5666 H   0  0  0  0  0  0  0  0  0  0  0  0  # atno 10718 bound_to 10713
  153.0820  135.6621  154.0026 H   0  0  0  0  0  0  0  0  0  0  0  0  # atno 10763 bound_to 10752
  153.9646  135.2970  155.3433 H   0  0  0  0  0  0  0  0  0  0  0  0  # atno 10764 bound_to 10752
  154.7221  135.5160  153.8900 H   0  0  0  0  0  0  0  0  0  0  0  0  # atno 10765 bound_to 10752
  139.9032  134.8141  156.2303 H   0  0  0  0  0  0  0  0  0  0  0  0  # atno 11005 bound_to 11000
  144.6858  140.2886  143.7281 LP  0  0  0  0  0  0  0  0  0  0  0  0  # atno 17320 bound_to 7965
  145.7789  139.1884  143.2169 LP  0  0  0  0  0  0  0  0  0  0  0  0  # atno 17321 bound_to 7965
  140.7713  143.3459  151.2111 LP  0  0  0  0  0  0  0  0  0  0  0  0  # atno 17342 bound_to 10162
  139.7051  143.9468  152.2923 LP  0  0  0  0  0  0  0  0  0  0  0  0  # atno 17343 bound_to 10162
  156.0299  130.5391  150.8506 LP  0  0  0  0  0  0  0  0  0  0  0  0  # atno 17370 bound_to 10713
  157.5620  131.0946  150.9545 LP  0  0  0  0  0  0  0  0  0  0  0  0  # atno 17371 bound_to 10713
  141.0349  133.6968  156.1495 LP  0  0  0  0  0  0  0  0  0  0  0  0  # atno 17394 bound_to 11000
  140.7041  134.4532  157.5585 LP  0  0  0  0  0  0  0  0  0  0  0  0  # atno 17395 bound_to 11000

$$$$
