AV-unprocessed.smi:2027|AV-procd|sdf|8216|dock1
  -GOLD-   2272010483D 1   1.00000     0.00000
 Structure written by MMmdl.
 50 52  0  0  0  0  0  0  0  0  2 V2000
  152.2857  144.0328  161.5299 C   0  0  0  0  0  0  0  0  0  0  0  0
  152.1516  143.1750  160.2833 C   0  0  0  0  0  0  0  0  0  0  0  0
  151.2115  143.5573  159.2998 C   0  0  0  0  0  0  0  0  0  0  0  0
  151.1110  142.7524  158.1712 C   0  0  0  0  0  0  0  0  0  0  0  0
  150.2966  142.8588  157.0416 N   0  3  0  0  0  0  0  0  0  0  0  0
  150.5579  141.8258  156.1936 C   0  0  0  0  0  0  0  0  0  0  0  0
  151.5260  141.0601  156.7656 N   0  0  0  0  0  0  0  0  0  0  0  0
  152.1690  139.8343  156.2710 C   0  0  0  0  0  0  0  0  0  0  0  0
  151.1607  138.8470  155.6487 C   0  0  1  0  0  0  0  0  0  0  0  0
  150.7588  139.2787  154.3633 O   0  0  0  0  0  0  0  0  0  0  0  0
  151.6221  137.3751  155.5520 C   0  0  0  0  0  0  0  0  0  0  0  0
  150.5499  136.3762  155.6132 N   0  0  0  0  0  0  0  0  0  0  0  0
  149.5447  136.7558  156.6023 C   0  0  0  0  0  0  0  0  0  0  0  0
  151.0535  135.0291  155.8966 C   0  0  0  0  0  0  0  0  0  0  0  0
  150.2817  133.9631  155.1654 C   0  0  0  0  0  0  0  0  0  0  0  0
  150.4645  132.5519  155.2249 C   0  0  0  0  0  0  0  0  0  0  0  0
  149.6172  131.8904  154.4530 N   0  0  0  0  0  0  0  0  0  0  0  0
  148.8712  132.8518  153.8711 N   0  0  0  0  0  0  0  0  0  0  0  0
  147.8214  132.4821  152.9463 C   0  0  0  0  0  0  0  0  0  0  0  0
  149.2507  134.1113  154.2801 C   0  0  0  0  0  0  0  0  0  0  0  0
  151.9044  141.6013  158.0005 C   0  0  0  0  0  0  0  0  0  0  0  0
  152.8380  141.2130  158.9594 C   0  0  0  0  0  0  0  0  0  0  0  0
  152.9545  142.0173  160.1150 C   0  0  0  0  0  0  0  0  0  0  0  0
  153.9636  141.6147  161.1769 C   0  0  0  0  0  0  0  0  0  0  0  0
  151.6434  144.9125  161.4800 H   0  0  0  0  0  0  0  0  0  0  0  0
  153.3127  144.3784  161.6505 H   0  0  0  0  0  0  0  0  0  0  0  0
  152.0044  143.4638  162.4164 H   0  0  0  0  0  0  0  0  0  0  0  0
  150.5980  144.4383  159.4208 H   0  0  0  0  0  0  0  0  0  0  0  0
  150.0845  141.6479  155.2387 H   0  0  0  0  0  0  0  0  0  0  0  0
  152.9463  140.1136  155.5621 H   0  0  0  0  0  0  0  0  0  0  0  0
  152.6720  139.3689  157.1193 H   0  0  0  0  0  0  0  0  0  0  0  0
  150.2628  138.8625  156.2676 H   0  0  0  0  0  0  0  0  0  0  0  0
  150.5231  138.5173  153.8554 H   0  0  0  0  0  0  0  0  0  0  0  0
  152.2178  137.2270  154.6498 H   0  0  0  0  0  0  0  0  0  0  0  0
  152.3167  137.2142  156.3783 H   0  0  0  0  0  0  0  0  0  0  0  0
  148.7192  136.0436  156.6214 H   0  0  0  0  0  0  0  0  0  0  0  0
  149.1217  137.7333  156.3681 H   0  0  0  0  0  0  0  0  0  0  0  0
  149.9752  136.8037  157.6035 H   0  0  0  0  0  0  0  0  0  0  0  0
  152.1051  134.9507  155.6327 H   0  0  0  0  0  0  0  0  0  0  0  0
  151.0311  134.8534  156.9731 H   0  0  0  0  0  0  0  0  0  0  0  0
  151.1821  131.9919  155.8061 H   0  0  0  0  0  0  0  0  0  0  0  0
  147.5000  133.3561  152.3787 H   0  0  0  0  0  0  0  0  0  0  0  0
  146.9697  132.0840  153.4985 H   0  0  0  0  0  0  0  0  0  0  0  0
  148.1852  131.7244  152.2514 H   0  0  0  0  0  0  0  0  0  0  0  0
  148.7602  135.0017  153.9148 H   0  0  0  0  0  0  0  0  0  0  0  0
  153.4554  140.3363  158.8323 H   0  0  0  0  0  0  0  0  0  0  0  0
  154.4589  140.6774  160.9210 H   0  0  0  0  0  0  0  0  0  0  0  0
  153.4737  141.4783  162.1412 H   0  0  0  0  0  0  0  0  0  0  0  0
  154.7325  142.3803  161.2826 H   0  0  0  0  0  0  0  0  0  0  0  0
  149.6140  143.5832  156.8586 H   0  0  0  0  0  0  0  0  0  0  0  0
  1  2  1  0  0  0  0
  1 25  1  0  0  0  0
  1 26  1  0  0  0  0
  1 27  1  0  0  0  0
  2 23  1  0  0  0  0
  2  3  2  0  0  0  0
  3  4  1  0  0  0  0
  3 28  1  0  0  0  0
  4 21  2  0  0  0  0
  4  5  1  0  0  0  0
  5  6  2  0  0  0  0
  5 50  1  0  0  0  0
  6  7  1  0  0  0  0
  6 29  1  0  0  0  0
  7  8  1  0  0  0  0
  7 21  1  0  0  0  0
  8  9  1  0  0  0  0
  8 30  1  0  0  0  0
  8 31  1  0  0  0  0
  9 10  1  0  0  0  0
  9 11  1  0  0  0  0
  9 32  1  0  0  0  0
 10 33  1  0  0  0  0
 11 12  1  0  0  0  0
 11 34  1  0  0  0  0
 11 35  1  0  0  0  0
 12 13  1  0  0  0  0
 12 14  1  0  0  0  0
 13 36  1  0  0  0  0
 13 37  1  0  0  0  0
 13 38  1  0  0  0  0
 14 15  1  0  0  0  0
 14 39  1  0  0  0  0
 14 40  1  0  0  0  0
 15 20  2  0  0  0  0
 15 16  1  0  0  0  0
 16 17  2  0  0  0  0
 16 41  1  0  0  0  0
 17 18  1  0  0  0  0
 18 19  1  0  0  0  0
 18 20  1  0  0  0  0
 19 42  1  0  0  0  0
 19 43  1  0  0  0  0
 19 44  1  0  0  0  0
 20 45  1  0  0  0  0
 21 22  1  0  0  0  0
 22 23  2  0  0  0  0
 22 46  1  0  0  0  0
 23 24  1  0  0  0  0
 24 47  1  0  0  0  0
 24 48  1  0  0  0  0
 24 49  1  0  0  0  0
M  CHG  1   5   1
M  END
> <s_m_source_file>
AV-unprocessed.smi

> <i_m_source_file_index>
2027

> <i_lp_mmshare_version>
43012

> <i_f3d_flags>
0

> <s_epik_input>
W0NIM11jKFtjSF0xKWMoW0NIM10pW2NIXWMoYzEyKW4oW2NIXW4yKVtDSDJdW0NASF0oW09IXSlbQ0gyXU4oW0NIM10pW0NIMl1jM1tjSF1ubihbQ0gzXSlbY0hdMw==

> <s_epik_cmdline>
J2VwaWtfcHl0aG9uJywgJy1waCcsICc3LjAnLCAnLXRuJywgJzgnLCAnLW1hJywgJzIwMCcsICctbWV0YWxfYmluZGluZycsICctaW1hZScsICc8aW5maWxlLm1hZT4nLCAnLW9tYWUnLCAnPG91dGZpbGUubWFlPic=

> <r_epik_Ionization_Penalty>
1.48134

> <r_epik_Ionization_Penalty_Charging>
1.21121

> <r_epik_Ionization_Penalty_Neutral>
0.270133

> <r_epik_State_Penalty>
1.53013

> <r_epik_Charging_Adjusted_Penalty>
2.74134

> <i_epik_Tot_Q>
1

> <i_epik_Tot_abs_Q>
1

> <r_epik_Metal_State_Penalty>
1.60443

> <b_epik_Metal_Only>
0

> <s_lp_Force_Field>
OPLS_2005

> <r_lp_Energy>
28.2554

> <b_lp_Chiralities_Consistent>
1

> <s_lp_Variant>
AV-unprocessed.smi:2027-8

> <Gold.Version>
5.8.1

> <Gold.Id.Protein>
6NUR|6NUR_protein|mol2

> <Gold.PLP.Fitness>
59.5718

> <Gold.PLP.PLP>
-49.9380

> <Gold.PLP.part.hbond>
-2.0000

> <Gold.PLP.part.metal>
0.0000

> <Gold.PLP.part.buried>
-5.6502

> <Gold.PLP.part.nonpolar>
-42.1481

> <Gold.PLP.part.repulsive>
0.1423

> <Gold.PLP.ligand.clash>
0.0000

> <Gold.PLP.ligand.torsion>
1.3074

> <Gold.PLP.Chemscore.Hbond>
3.0000

> <Gold.PLP.Chemscore.CHOScore>
1.0000

> <Gold.PLP.Chemscore.Metal>
0.0000

> <Gold.Chemscore.Hbonds>
donor molecule, donor type, donor heavy atom, donor atom, acceptor molecule, acceptor atom, score
      L1  H     5    50       P1  8028  1.92
      P1  H  7989  7998       L1    10  1.00
      L1  C    20    45       P1  7948  1.00

> <Gold.PLP.Chemscore.Internal.Correction>
0.2486

> <Gold.Rescore>
     Score         DG    S(hbond)    S(metal)    S(lipo)     H(rot)  DE(clash)    DE(int)     intcor
     19.45     -20.61       1.99        0.00     127.31       2.50       0.10       1.06       ----

> <Gold.Chemscore.Fitness>
19.4544

> <Gold.Chemscore.DG>
-20.6084

> <Gold.Chemscore.ZeroCoef>
-5.4800

> <Gold.Chemscore.Hbond>
1.9858

> <Gold.Chemscore.Metal>
0.0000

> <Gold.Chemscore.Lipo>
127.3150

> <Gold.Chemscore.Internal_Hbond>
0.0000

> <Gold.Chemscore.DEClash>
0.0983

> <Gold.Chemscore.DEInternal>
1.0557

> <Gold.Chemscore.Rot>
2.5000

> <Gold.Chemscore.Internal.Correction>
   9.000000E+99

> <Gold.Chemscore.Hbonds>
donor molecule, donor type, donor heavy atom, donor atom, acceptor molecule, acceptor atom, score
      L1  H     5    50       P1  8028  0.90
      P1  H  7989  7998       L1    10  0.92

> <Gold.Chemscore.Hbond.Weighted>
-6.6325

> <Gold.Chemscore.Metal.Weighted>
-0.0000

> <Gold.Chemscore.Lipo.Weighted>
-14.8959

> <Gold.Chemscore.Internal_Hbond.Weighted>
0.0000

> <Gold.Chemscore.DEClash.Weighted>
0.0983

> <Gold.Chemscore.DEInternal.Weighted>
1.0557

> <Gold.Chemscore.Rot.Weighted>
6.3999

> <Gold.Chemscore.Internal.Correction.Weighted>
   9.000000E+99

> <Gold.Protein.RotatedTorsions>
[ 6907 6896 6895 6894 ] final  173.07 input  -60.11 | X-H torsion
[ 7974 7965 7964 7962 ] final   26.13 input  175.53 | X-H torsion
[ 8008 7997 7996 7995 ] final -149.00 input   59.86 | X-H torsion
[ 10167 10162 10161 10158 ] final -129.39 input  -65.29 | X-H torsion
[ 10718 10713 10712 10709 ] final   36.62 input   66.30 | X-H torsion
[ 10763 10752 10751 10750 ] final  169.44 input  -60.55 | X-H torsion
[ 11005 11000 10999 10996 ] final  -70.19 input  -57.11 | X-H torsion

> <Gold.Protein.ActiveResidues>
 VAL166  LYS551  ARG553  GLY616  TRP617  ASP618  TYR619  PRO620  LYS621  CYS622 
 ASP623  PHE694  ASN695  SER759  ASP760  ASP761  ALA762  ILE779  LEU786  VAL792 
 PHE793  MET794  SER795  GLU796  ALA797  LYS798  CYS799  TRP800  GLU811  SER814 

> <Gold.Protein.RotatedAtoms>
  151.7742  133.3344  159.3452 H   0  0  0  0  0  0  0  0  0  0  0  0  # atno 6907 bound_to 6896
  150.7450  134.5990  159.6036 H   0  0  0  0  0  0  0  0  0  0  0  0  # atno 6908 bound_to 6896
  152.3320  134.7248  160.0338 H   0  0  0  0  0  0  0  0  0  0  0  0  # atno 6909 bound_to 6896
  146.1853  139.7370  142.8871 H   0  0  0  0  0  0  0  0  0  0  0  0  # atno 7974 bound_to 7965
  155.6007  140.0662  157.2734 H   0  0  0  0  0  0  0  0  0  0  0  0  # atno 8008 bound_to 7997
  154.4280  140.1819  156.1217 H   0  0  0  0  0  0  0  0  0  0  0  0  # atno 8009 bound_to 7997
  156.0162  140.3321  155.6994 H   0  0  0  0  0  0  0  0  0  0  0  0  # atno 8010 bound_to 7997
  139.9402  143.6171  152.2505 H   0  0  0  0  0  0  0  0  0  0  0  0  # atno 10167 bound_to 10162
  157.3370  130.7528  149.6886 H   0  0  0  0  0  0  0  0  0  0  0  0  # atno 10718 bound_to 10713
  154.3832  135.2753  155.2199 H   0  0  0  0  0  0  0  0  0  0  0  0  # atno 10763 bound_to 10752
  154.4296  135.5980  153.6064 H   0  0  0  0  0  0  0  0  0  0  0  0  # atno 10764 bound_to 10752
  152.9834  135.5992  154.4078 H   0  0  0  0  0  0  0  0  0  0  0  0  # atno 10765 bound_to 10752
  141.1569  133.6783  156.6714 H   0  0  0  0  0  0  0  0  0  0  0  0  # atno 11005 bound_to 11000
  145.3957  141.0378  143.3099 LP  0  0  0  0  0  0  0  0  0  0  0  0  # atno 17320 bound_to 7965
  144.8386  139.5509  143.6910 LP  0  0  0  0  0  0  0  0  0  0  0  0  # atno 17321 bound_to 7965
  139.6710  144.7661  151.1783 LP  0  0  0  0  0  0  0  0  0  0  0  0  # atno 17342 bound_to 10162
  140.7613  143.5865  150.8841 LP  0  0  0  0  0  0  0  0  0  0  0  0  # atno 17343 bound_to 10162
  155.9703  130.4178  150.4299 LP  0  0  0  0  0  0  0  0  0  0  0  0  # atno 17370 bound_to 10713
  157.2340  131.0510  151.2475 LP  0  0  0  0  0  0  0  0  0  0  0  0  # atno 17371 bound_to 10713
  140.3172  134.8038  157.4223 LP  0  0  0  0  0  0  0  0  0  0  0  0  # atno 17394 bound_to 11000
  140.1128  134.5323  155.8251 LP  0  0  0  0  0  0  0  0  0  0  0  0  # atno 17395 bound_to 11000

$$$$
