AV-unprocessed.smi:2079|AV-procd|sdf|8475|dock3
  -GOLD-   2272011173D 1   1.00000     0.00000
 Structure written by MMmdl.
 42 43  0  0  0  0  0  0  0  0  2 V2000
  152.3183  139.9927  158.5809 C   0  0  0  0  0  0  0  0  0  0  0  0
  151.8973  139.3769  157.2908 C   0  0  0  0  0  0  0  0  0  0  0  0
  151.1884  138.2491  156.9854 C   0  0  0  0  0  0  0  0  0  0  0  0
  151.1491  138.2713  155.5658 C   0  0  0  0  0  0  0  0  0  0  0  0
  150.4828  137.2520  154.8386 N   0  0  0  0  0  0  0  0  0  0  0  0
  149.7628  136.2322  155.3362 C   0  0  0  0  0  0  0  0  0  0  0  0
  149.5442  136.0338  156.5318 O   0  0  0  0  0  0  0  0  0  0  0  0
  149.2966  135.4372  154.3619 N   0  0  0  0  0  0  0  0  0  0  0  0
  148.5069  134.2309  154.5842 C   0  0  0  0  0  0  0  0  0  0  0  0
  147.0018  134.4877  154.3563 C   0  0  0  0  0  0  0  0  0  0  0  0
  146.6396  134.6798  152.9217 N   0  3  2  0  0  0  0  0  0  0  0  0
  145.4333  135.5436  152.7600 C   0  0  0  0  0  0  0  0  0  0  0  0
  145.1320  135.8474  151.2857 C   0  0  0  0  0  0  0  0  0  0  0  0
  144.9499  134.5522  150.4960 C   0  0  0  0  0  0  0  0  0  0  0  0
  146.1958  133.6804  150.6651 C   0  0  0  0  0  0  0  0  0  0  0  0
  146.5058  133.3978  152.1518 C   0  0  1  0  0  0  0  0  0  0  0  0
  147.7592  132.5007  152.2293 C   0  0  0  0  0  0  0  0  0  0  0  0
  151.7803  139.3155  155.0513 N   0  0  0  0  0  0  0  0  0  0  0  0
  152.2625  140.0299  156.1543 O   0  0  0  0  0  0  0  0  0  0  0  0
  152.1614  139.3039  159.4112 H   0  0  0  0  0  0  0  0  0  0  0  0
  151.7457  140.8985  158.7798 H   0  0  0  0  0  0  0  0  0  0  0  0
  153.3752  140.2584  158.5572 H   0  0  0  0  0  0  0  0  0  0  0  0
  150.7653  137.5290  157.6701 H   0  0  0  0  0  0  0  0  0  0  0  0
  150.5785  137.2965  153.8350 H   0  0  0  0  0  0  0  0  0  0  0  0
  149.5203  135.6699  153.4050 H   0  0  0  0  0  0  0  0  0  0  0  0
  148.8898  133.4820  153.8925 H   0  0  0  0  0  0  0  0  0  0  0  0
  148.6845  133.8504  155.5917 H   0  0  0  0  0  0  0  0  0  0  0  0
  146.4762  133.6253  154.7582 H   0  0  0  0  0  0  0  0  0  0  0  0
  146.6701  135.3498  154.9369 H   0  0  0  0  0  0  0  0  0  0  0  0
  144.5735  135.0584  153.2250 H   0  0  0  0  0  0  0  0  0  0  0  0
  145.5678  136.4976  153.2659 H   0  0  0  0  0  0  0  0  0  0  0  0
  144.2335  136.4602  151.2073 H   0  0  0  0  0  0  0  0  0  0  0  0
  145.9455  136.4330  150.8553 H   0  0  0  0  0  0  0  0  0  0  0  0
  144.0686  134.0171  150.8524 H   0  0  0  0  0  0  0  0  0  0  0  0
  144.7809  134.7723  149.4415 H   0  0  0  0  0  0  0  0  0  0  0  0
  146.0512  132.7428  150.1270 H   0  0  0  0  0  0  0  0  0  0  0  0
  147.0496  134.1733  150.1974 H   0  0  0  0  0  0  0  0  0  0  0  0
  145.6673  132.8408  152.5735 H   0  0  0  0  0  0  0  0  0  0  0  0
  147.6870  131.6703  151.5264 H   0  0  0  0  0  0  0  0  0  0  0  0
  147.8877  132.0476  153.2118 H   0  0  0  0  0  0  0  0  0  0  0  0
  148.6647  133.0577  151.9858 H   0  0  0  0  0  0  0  0  0  0  0  0
  147.4110  135.1782  152.5010 H   0  0  0  0  0  0  0  0  0  0  0  0
  1  2  1  0  0  0  0
  1 20  1  0  0  0  0
  1 21  1  0  0  0  0
  1 22  1  0  0  0  0
  2 19  1  0  0  0  0
  2  3  2  0  0  0  0
  3  4  1  0  0  0  0
  3 23  1  0  0  0  0
  4  5  1  0  0  0  0
  4 18  2  0  0  0  0
  5  6  1  0  0  0  0
  5 24  1  0  0  0  0
  6  7  2  0  0  0  0
  6  8  1  0  0  0  0
  8  9  1  0  0  0  0
  8 25  1  0  0  0  0
  9 10  1  0  0  0  0
  9 26  1  0  0  0  0
  9 27  1  0  0  0  0
 10 11  1  0  0  0  0
 10 28  1  0  0  0  0
 10 29  1  0  0  0  0
 11 16  1  0  0  0  0
 11 12  1  0  0  0  0
 11 42  1  0  0  0  0
 12 13  1  0  0  0  0
 12 30  1  0  0  0  0
 12 31  1  0  0  0  0
 13 14  1  0  0  0  0
 13 32  1  0  0  0  0
 13 33  1  0  0  0  0
 14 15  1  0  0  0  0
 14 34  1  0  0  0  0
 14 35  1  0  0  0  0
 15 16  1  0  0  0  0
 15 36  1  0  0  0  0
 15 37  1  0  0  0  0
 16 17  1  0  0  0  0
 16 38  1  0  0  0  0
 17 39  1  0  0  0  0
 17 40  1  0  0  0  0
 17 41  1  0  0  0  0
 18 19  1  0  0  0  0
M  CHG  1  11   1
M  END
> <s_m_source_file>
AV-unprocessed.smi

> <i_m_source_file_index>
2079

> <i_lp_mmshare_version>
43012

> <i_f3d_flags>
0

> <s_epik_input>
W0NIM11jMVtjSF1jKG5vMSlbTkhdQyg9TylbTkhdW0NIMl1bQ0gyXU4yW0NIMl1bQ0gyXVtDSDJdW0NIMl1bQ0BIXTJbQ0gzXQ==

> <s_epik_cmdline>
J2VwaWtfcHl0aG9uJywgJy1waCcsICc3LjAnLCAnLXRuJywgJzgnLCAnLW1hJywgJzIwMCcsICctbWV0YWxfYmluZGluZycsICctaW1hZScsICc8aW5maWxlLm1hZT4nLCAnLW9tYWUnLCAnPG91dGZpbGUubWFlPic=

> <r_epik_Ionization_Penalty>
0.00265971

> <r_epik_Ionization_Penalty_Charging>
0.00262393

> <r_epik_Ionization_Penalty_Neutral>
3.57846e-05

> <r_epik_State_Penalty>
0.00182566

> <r_epik_Charging_Adjusted_Penalty>
0.00444959

> <i_epik_Tot_Q>
1

> <i_epik_Tot_abs_Q>
1

> <r_epik_Metal_State_Penalty>
0.0216344

> <b_epik_Metal_Only>
0

> <s_lp_Force_Field>
OPLS_2005

> <r_lp_Energy>
17.1717

> <b_lp_Chiralities_Consistent>
1

> <s_lp_Variant>
AV-unprocessed.smi:2079-1

> <Gold.Version>
5.8.1

> <Gold.Id.Protein>
6NUR|6NUR_protein|mol2

> <Gold.PLP.Fitness>
37.9012

> <Gold.PLP.PLP>
-23.8048

> <Gold.PLP.part.hbond>
-4.0000

> <Gold.PLP.part.metal>
0.0000

> <Gold.PLP.part.buried>
-1.0105

> <Gold.PLP.part.nonpolar>
-18.8512

> <Gold.PLP.part.repulsive>
0.1366

> <Gold.PLP.ligand.clash>
0.0000

> <Gold.PLP.ligand.torsion>
0.4374

> <Gold.PLP.Chemscore.Hbond>
4.9840

> <Gold.PLP.Chemscore.CHOScore>
0.0000

> <Gold.PLP.Chemscore.Metal>
0.0000

> <Gold.Chemscore.Hbonds>
donor molecule, donor type, donor heavy atom, donor atom, acceptor molecule, acceptor atom, score
      L1  H     8    25       P1  7948  0.84
      L1  H    11    42       P1  7948  2.00
      P1  H  7989  7998       L1    18  0.60
      P1  H  7997  8009       L1    19  0.76

> <Gold.PLP.Chemscore.Internal.Correction>
0.0191

> <Gold.Rescore>
     Score         DG    S(hbond)    S(metal)    S(lipo)     H(rot)  DE(clash)    DE(int)     intcor
     13.70     -15.64       2.37        0.00      53.62       1.57       0.03       1.91       ----

> <Gold.Chemscore.Fitness>
13.6977

> <Gold.Chemscore.DG>
-15.6394

> <Gold.Chemscore.ZeroCoef>
-5.4800

> <Gold.Chemscore.Hbond>
2.3665

> <Gold.Chemscore.Metal>
0.0000

> <Gold.Chemscore.Lipo>
53.6231

> <Gold.Chemscore.Internal_Hbond>
0.0000

> <Gold.Chemscore.DEClash>
0.0324

> <Gold.Chemscore.DEInternal>
1.9093

> <Gold.Chemscore.Rot>
1.5697

> <Gold.Chemscore.Internal.Correction>
   9.000000E+99

> <Gold.Chemscore.Hbonds>
donor molecule, donor type, donor heavy atom, donor atom, acceptor molecule, acceptor atom, score
      L1  H     8    25       P1  7948  0.14
      L1  H    11    42       P1  7948  0.99
      P1  H  7989  7998       L1    18  0.23
      P1  H  7997  8009       L1    19  0.41

> <Gold.Chemscore.Hbond.Weighted>
-7.9040

> <Gold.Chemscore.Metal.Weighted>
-0.0000

> <Gold.Chemscore.Lipo.Weighted>
-6.2739

> <Gold.Chemscore.Internal_Hbond.Weighted>
0.0000

> <Gold.Chemscore.DEClash.Weighted>
0.0324

> <Gold.Chemscore.DEInternal.Weighted>
1.9093

> <Gold.Chemscore.Rot.Weighted>
4.0185

> <Gold.Chemscore.Internal.Correction.Weighted>
   9.000000E+99

> <Gold.Protein.RotatedTorsions>
[ 6907 6896 6895 6894 ] final  -58.49 input  -60.11 | X-H torsion
[ 7974 7965 7964 7962 ] final   64.54 input  175.53 | X-H torsion
[ 8008 7997 7996 7995 ] final -144.91 input   59.86 | X-H torsion
[ 10167 10162 10161 10158 ] final   19.26 input  -65.29 | X-H torsion
[ 10718 10713 10712 10709 ] final  112.01 input   66.30 | X-H torsion
[ 10763 10752 10751 10750 ] final  114.16 input  -60.55 | X-H torsion
[ 11005 11000 10999 10996 ] final   92.87 input  -57.11 | X-H torsion

> <Gold.Protein.ActiveResidues>
 VAL166  LYS551  ARG553  GLY616  TRP617  ASP618  TYR619  PRO620  LYS621  CYS622 
 ASP623  PHE694  ASN695  SER759  ASP760  ASP761  ALA762  ILE779  LEU786  VAL792 
 PHE793  MET794  SER795  GLU796  ALA797  LYS798  CYS799  TRP800  GLU811  SER814 

> <Gold.Protein.RotatedAtoms>
  150.8003  134.7091  159.6593 H   0  0  0  0  0  0  0  0  0  0  0  0  # atno 6907 bound_to 6896
  152.4119  134.6106  160.0034 H   0  0  0  0  0  0  0  0  0  0  0  0  # atno 6908 bound_to 6896
  151.6347  133.3293  159.3153 H   0  0  0  0  0  0  0  0  0  0  0  0  # atno 6909 bound_to 6896
  145.8490  139.3242  143.0887 H   0  0  0  0  0  0  0  0  0  0  0  0  # atno 7974 bound_to 7965
  155.5346  140.0602  157.2882 H   0  0  0  0  0  0  0  0  0  0  0  0  # atno 8008 bound_to 7997
  154.4473  140.1930  156.0573 H   0  0  0  0  0  0  0  0  0  0  0  0  # atno 8009 bound_to 7997
  156.0628  140.3270  155.7486 H   0  0  0  0  0  0  0  0  0  0  0  0  # atno 8010 bound_to 7997
  140.5592  143.9368  150.6631 H   0  0  0  0  0  0  0  0  0  0  0  0  # atno 10167 bound_to 10162
  157.6415  131.0960  150.6833 H   0  0  0  0  0  0  0  0  0  0  0  0  # atno 10718 bound_to 10713
  153.5031  135.3634  155.2550 H   0  0  0  0  0  0  0  0  0  0  0  0  # atno 10763 bound_to 10752
  154.8746  135.4005  154.3455 H   0  0  0  0  0  0  0  0  0  0  0  0  # atno 10764 bound_to 10752
  153.4095  135.7077  153.6436 H   0  0  0  0  0  0  0  0  0  0  0  0  # atno 10765 bound_to 10752
  139.8817  134.8758  156.3636 H   0  0  0  0  0  0  0  0  0  0  0  0  # atno 11005 bound_to 11000
  145.9380  140.9001  143.0322 LP  0  0  0  0  0  0  0  0  0  0  0  0  # atno 17320 bound_to 7965
  144.6730  140.1509  143.7430 LP  0  0  0  0  0  0  0  0  0  0  0  0  # atno 17321 bound_to 7965
  140.2814  143.3386  152.1147 LP  0  0  0  0  0  0  0  0  0  0  0  0  # atno 17342 bound_to 10162
  139.5062  144.6809  151.6010 LP  0  0  0  0  0  0  0  0  0  0  0  0  # atno 17343 bound_to 10162
  156.7156  130.4665  149.5536 LP  0  0  0  0  0  0  0  0  0  0  0  0  # atno 17370 bound_to 10713
  156.1700  130.6430  151.0825 LP  0  0  0  0  0  0  0  0  0  0  0  0  # atno 17371 bound_to 10713
  140.9513  133.7449  156.0275 LP  0  0  0  0  0  0  0  0  0  0  0  0  # atno 17394 bound_to 11000
  140.8103  134.3407  157.5414 LP  0  0  0  0  0  0  0  0  0  0  0  0  # atno 17395 bound_to 11000

$$$$
