AV-unprocessed.smi:2047|AV-procd|sdf|8319|dock8
  -GOLD-   2272010583D 1   1.00000     0.00000
 Structure written by MMmdl.
 42 44  0  0  0  0  0  0  0  0  3 V2000
  152.8513  137.7985  156.1191 O   0  0  0  0  0  0  0  0  0  0  0  0
  151.8485  137.7002  155.4026 C   0  0  0  0  0  0  0  0  0  0  0  0
  150.9715  138.7150  155.3196 N   0  0  0  0  0  0  0  0  0  0  0  0
  151.0066  139.9821  155.9672 C   0  0  0  0  0  0  0  0  0  0  0  0
  151.9511  140.2781  156.9823 C   0  0  0  0  0  0  0  0  0  0  0  0
  151.9401  141.5431  157.6007 C   0  0  0  0  0  0  0  0  0  0  0  0
  150.9781  142.4882  157.2027 C   0  0  0  0  0  0  0  0  0  0  0  0
  150.0804  142.1682  156.2477 N   0  3  0  0  0  0  0  0  0  0  0  0
  150.0434  140.9676  155.6174 C   0  0  0  0  0  0  0  0  0  0  0  0
  149.0408  140.7339  154.6518 N   0  0  0  0  0  0  0  0  0  0  0  0
  147.8366  140.0935  155.1753 C   0  0  0  0  0  0  0  0  0  0  0  0
  146.6540  140.7120  154.4261 C   0  0  0  0  0  0  0  0  0  0  0  0
  147.1780  142.0840  154.0206 C   0  0  0  0  0  0  0  0  0  0  0  0
  148.6506  141.8009  153.7321 C   0  0  0  0  0  0  0  0  0  0  0  0
  151.4848  136.6498  154.6194 N   0  5  0  0  0  0  0  0  0  0  0  0
  150.3719  135.7391  154.9024 C   0  0  2  0  0  0  0  0  0  0  0  0
  149.6364  136.1571  156.1910 C   0  0  0  0  0  0  0  0  0  0  0  0
  148.7291  135.0013  156.6361 C   0  0  0  0  0  0  0  0  0  0  0  0
  149.5926  133.4653  156.1249 S   0  0  0  0  0  0  0  0  0  0  0  0
  150.2424  132.8540  157.2949 O   0  0  0  0  0  0  0  0  0  0  0  0
  148.6969  132.6765  155.2644 O   0  0  0  0  0  0  0  0  0  0  0  0
  150.8670  134.2971  155.0973 C   0  0  0  0  0  0  0  0  0  0  0  0
  150.2432  138.5960  154.6311 H   0  0  0  0  0  0  0  0  0  0  0  0
  152.6776  139.5473  157.3038 H   0  0  0  0  0  0  0  0  0  0  0  0
  152.6572  141.7810  158.3726 H   0  0  0  0  0  0  0  0  0  0  0  0
  150.8929  143.4799  157.6228 H   0  0  0  0  0  0  0  0  0  0  0  0
  147.8705  139.0131  155.0336 H   0  0  0  0  0  0  0  0  0  0  0  0
  147.7432  140.2879  156.2452 H   0  0  0  0  0  0  0  0  0  0  0  0
  146.4332  140.1244  153.5337 H   0  0  0  0  0  0  0  0  0  0  0  0
  145.7479  140.7612  155.0303 H   0  0  0  0  0  0  0  0  0  0  0  0
  146.6508  142.5086  153.1659 H   0  0  0  0  0  0  0  0  0  0  0  0
  147.0879  142.7792  154.8566 H   0  0  0  0  0  0  0  0  0  0  0  0
  149.2561  142.7046  153.7966 H   0  0  0  0  0  0  0  0  0  0  0  0
  148.7621  141.4187  152.7169 H   0  0  0  0  0  0  0  0  0  0  0  0
  149.6333  135.7341  154.0991 H   0  0  0  0  0  0  0  0  0  0  0  0
  150.3653  136.3495  156.9798 H   0  0  0  0  0  0  0  0  0  0  0  0
  149.0679  137.0773  156.0519 H   0  0  0  0  0  0  0  0  0  0  0  0
  148.5534  134.9939  157.7116 H   0  0  0  0  0  0  0  0  0  0  0  0
  147.7641  135.0354  156.1280 H   0  0  0  0  0  0  0  0  0  0  0  0
  150.9999  133.7641  154.1558 H   0  0  0  0  0  0  0  0  0  0  0  0
  151.8070  134.2702  155.6494 H   0  0  0  0  0  0  0  0  0  0  0  0
  149.3858  142.8685  155.9880 H   0  0  0  0  0  0  0  0  0  0  0  0
  1  2  2  0  0  0  0
  2  3  1  0  0  0  0
  2 15  1  0  0  0  0
  3  4  1  0  0  0  0
  3 23  1  0  0  0  0
  4  9  1  0  0  0  0
  4  5  2  0  0  0  0
  5  6  1  0  0  0  0
  5 24  1  0  0  0  0
  6  7  2  0  0  0  0
  6 25  1  0  0  0  0
  7  8  1  0  0  0  0
  7 26  1  0  0  0  0
  8  9  2  0  0  0  0
  8 42  1  0  0  0  0
  9 10  1  0  0  0  0
 10 14  1  0  0  0  0
 10 11  1  0  0  0  0
 11 12  1  0  0  0  0
 11 27  1  0  0  0  0
 11 28  1  0  0  0  0
 12 13  1  0  0  0  0
 12 29  1  0  0  0  0
 12 30  1  0  0  0  0
 13 14  1  0  0  0  0
 13 31  1  0  0  0  0
 13 32  1  0  0  0  0
 14 33  1  0  0  0  0
 14 34  1  0  0  0  0
 15 16  1  0  0  0  0
 16 22  1  0  0  0  0
 16 17  1  0  0  0  0
 16 35  1  0  0  0  0
 17 18  1  0  0  0  0
 17 36  1  0  0  0  0
 17 37  1  0  0  0  0
 18 19  1  0  0  0  0
 18 38  1  0  0  0  0
 18 39  1  0  0  0  0
 19 20  2  0  0  0  0
 19 21  2  0  0  0  0
 19 22  1  0  0  0  0
 22 40  1  0  0  0  0
 22 41  1  0  0  0  0
M  CHG  1   8   1
M  CHG  1  15  -1
M  END
> <s_m_source_file>
AV-unprocessed.smi

> <i_m_source_file_index>
2047

> <i_lp_mmshare_version>
43012

> <i_f3d_flags>
0

> <s_epik_input>
Tz1TMSg9TylbQ0gyXVtDSDJdW0NASF0oW0NIMl0xKVtOSF1DKD1PKVtOSF1jMltjSF1bY0hdW2NIXW5jMk4zW0NIMl1bQ0gyXVtDSDJdW0NIMl0z

> <s_epik_cmdline>
J2VwaWtfcHl0aG9uJywgJy1waCcsICc3LjAnLCAnLXRuJywgJzgnLCAnLW1hJywgJzIwMCcsICctbWV0YWxfYmluZGluZycsICctaW1hZScsICc8aW5maWxlLm1hZT4nLCAnLW9tYWUnLCAnPG91dGZpbGUubWFlPic=

> <r_lp_tautomer_probability>
0.999994

> <r_epik_Ionization_Penalty>
8.27033

> <r_epik_Ionization_Penalty_Charging>
8.27033

> <r_epik_Ionization_Penalty_Neutral>
3.23223e-06

> <r_epik_State_Penalty>
7.90314

> <r_epik_Charging_Adjusted_Penalty>
16.1735

> <i_epik_Tot_Q>
0

> <i_epik_Tot_abs_Q>
2

> <r_epik_Metal_State_Penalty>
3.89381

> <b_epik_Metal_Only>
1

> <s_lp_Force_Field>
OPLS_2005

> <r_lp_Energy>
38.7939

> <b_lp_Chiralities_Consistent>
1

> <s_lp_Variant>
AV-unprocessed.smi:2047-5

> <Gold.Version>
5.8.1

> <Gold.Id.Protein>
6NUR|6NUR_protein|mol2

> <Gold.PLP.Fitness>
39.1211

> <Gold.PLP.PLP>
-26.6809

> <Gold.PLP.part.hbond>
-3.0000

> <Gold.PLP.part.metal>
0.0000

> <Gold.PLP.part.buried>
-3.6070

> <Gold.PLP.part.nonpolar>
-19.6956

> <Gold.PLP.part.repulsive>
0.4078

> <Gold.PLP.ligand.clash>
0.0000

> <Gold.PLP.ligand.torsion>
1.3616

> <Gold.PLP.Chemscore.Hbond>
5.0000

> <Gold.PLP.Chemscore.CHOScore>
0.0000

> <Gold.PLP.Chemscore.Metal>
0.0000

> <Gold.Chemscore.Hbonds>
donor molecule, donor type, donor heavy atom, donor atom, acceptor molecule, acceptor atom, score
      L1  H     8    42       P1  8028  2.00
      P1  H  6896  6908       L1    20  0.52
      P1  H 10752 10764       L1    15  1.95

> <Gold.PLP.Chemscore.Internal.Correction>
0.1633

> <Gold.Rescore>
     Score         DG    S(hbond)    S(metal)    S(lipo)     H(rot)  DE(clash)    DE(int)     intcor
     15.02     -18.99       2.71        0.00      65.35       1.25       1.33       2.64       ----

> <Gold.Chemscore.Fitness>
15.0201

> <Gold.Chemscore.DG>
-18.9868

> <Gold.Chemscore.ZeroCoef>
-5.4800

> <Gold.Chemscore.Hbond>
2.7114

> <Gold.Chemscore.Metal>
0.0000

> <Gold.Chemscore.Lipo>
65.3458

> <Gold.Chemscore.Internal_Hbond>
0.0000

> <Gold.Chemscore.DEClash>
1.3301

> <Gold.Chemscore.DEInternal>
2.6366

> <Gold.Chemscore.Rot>
1.2480

> <Gold.Chemscore.Internal.Correction>
   9.000000E+99

> <Gold.Chemscore.Hbonds>
donor molecule, donor type, donor heavy atom, donor atom, acceptor molecule, acceptor atom, score
      L1  H     8    42       P1  8028  0.95
      P1  H  6896  6908       L1    20  0.50
      P1  H 10752 10764       L1    15  0.11

> <Gold.Chemscore.Hbond.Weighted>
-9.0562

> <Gold.Chemscore.Metal.Weighted>
-0.0000

> <Gold.Chemscore.Lipo.Weighted>
-7.6455

> <Gold.Chemscore.Internal_Hbond.Weighted>
0.0000

> <Gold.Chemscore.DEClash.Weighted>
1.3301

> <Gold.Chemscore.DEInternal.Weighted>
2.6366

> <Gold.Chemscore.Rot.Weighted>
3.1948

> <Gold.Chemscore.Internal.Correction.Weighted>
   9.000000E+99

> <Gold.Protein.RotatedTorsions>
[ 6907 6896 6895 6894 ] final   84.21 input  -60.11 | X-H torsion
[ 7974 7965 7964 7962 ] final  116.86 input  175.53 | X-H torsion
[ 8008 7997 7996 7995 ] final  -56.86 input   59.86 | X-H torsion
[ 10167 10162 10161 10158 ] final   31.87 input  -65.29 | X-H torsion
[ 10718 10713 10712 10709 ] final   69.98 input   66.30 | X-H torsion
[ 10763 10752 10751 10750 ] final  -47.99 input  -60.55 | X-H torsion
[ 11005 11000 10999 10996 ] final   58.29 input  -57.11 | X-H torsion

> <Gold.Protein.ActiveResidues>
 VAL166  LYS551  ARG553  GLY616  TRP617  ASP618  TYR619  PRO620  LYS621  CYS622 
 ASP623  PHE694  ASN695  SER759  ASP760  ASP761  ALA762  ILE779  LEU786  VAL792 
 PHE793  MET794  SER795  GLU796  ALA797  LYS798  CYS799  TRP800  GLU811  SER814 

> <Gold.Protein.RotatedAtoms>
  152.5347  134.2775  159.8994 H   0  0  0  0  0  0  0  0  0  0  0  0  # atno 6907 bound_to 6896
  151.2730  133.4239  159.2630 H   0  0  0  0  0  0  0  0  0  0  0  0  # atno 6908 bound_to 6896
  151.0350  134.9582  159.8188 H   0  0  0  0  0  0  0  0  0  0  0  0  # atno 6909 bound_to 6896
  145.1744  139.3084  143.4451 H   0  0  0  0  0  0  0  0  0  0  0  0  # atno 7974 bound_to 7965
  154.4246  140.1120  156.5704 H   0  0  0  0  0  0  0  0  0  0  0  0  # atno 8008 bound_to 7997
  155.6218  140.3495  155.4635 H   0  0  0  0  0  0  0  0  0  0  0  0  # atno 8009 bound_to 7997
  156.0018  140.1201  157.0529 H   0  0  0  0  0  0  0  0  0  0  0  0  # atno 8010 bound_to 7997
  140.4550  144.0992  150.6200 H   0  0  0  0  0  0  0  0  0  0  0  0  # atno 10167 bound_to 10162
  157.6375  130.9453  150.0587 H   0  0  0  0  0  0  0  0  0  0  0  0  # atno 10718 bound_to 10713
  154.0705  135.6605  153.4823 H   0  0  0  0  0  0  0  0  0  0  0  0  # atno 10763 bound_to 10752
  153.0393  135.5156  154.7571 H   0  0  0  0  0  0  0  0  0  0  0  0  # atno 10764 bound_to 10752
  154.6636  135.3018  154.9802 H   0  0  0  0  0  0  0  0  0  0  0  0  # atno 10765 bound_to 10752
  140.0388  134.5904  155.9409 H   0  0  0  0  0  0  0  0  0  0  0  0  # atno 11005 bound_to 11000
  146.3463  140.1901  142.8589 LP  0  0  0  0  0  0  0  0  0  0  0  0  # atno 17320 bound_to 7965
  145.0200  140.8785  143.5173 LP  0  0  0  0  0  0  0  0  0  0  0  0  # atno 17321 bound_to 7965
  140.4162  143.2633  151.9772 LP  0  0  0  0  0  0  0  0  0  0  0  0  # atno 17342 bound_to 10162
  139.4800  144.5872  151.7834 LP  0  0  0  0  0  0  0  0  0  0  0  0  # atno 17343 bound_to 10162
  156.1627  130.3644  149.9277 LP  0  0  0  0  0  0  0  0  0  0  0  0  # atno 17370 bound_to 10713
  156.7271  130.9029  151.3623 LP  0  0  0  0  0  0  0  0  0  0  0  0  # atno 17371 bound_to 10713
  141.1872  133.6559  156.5271 LP  0  0  0  0  0  0  0  0  0  0  0  0  # atno 17394 bound_to 11000
  140.4103  134.7278  157.4832 LP  0  0  0  0  0  0  0  0  0  0  0  0  # atno 17395 bound_to 11000

$$$$
