AV-unprocessed.smi:1352|AV-procd|sdf|5528|dock8
  -GOLD-   22720 5113D 1   1.00000     0.00000
 Structure written by MMmdl.
 47 48  0  0  0  0  0  0  0  0  2 V2000
  144.9451  131.9666  150.0905 C   0  0  0  0  0  0  0  0  0  0  0  0
  144.3946  132.6080  151.3722 C   0  0  2  0  0  0  0  0  0  0  0  0
  143.8185  134.0082  151.0944 C   0  0  0  0  0  0  0  0  0  0  0  0
  143.3217  134.6854  152.3847 C   0  0  1  0  0  0  0  0  0  0  0  0
  141.9994  134.0921  152.9026 C   0  0  0  0  0  0  0  0  0  0  0  0
  144.4264  134.6759  153.4600 C   0  0  0  0  0  0  0  0  0  0  0  0
  144.9383  133.3034  153.7131 N   0  3  2  0  0  0  0  0  0  0  0  0
  145.8960  133.2625  154.8470 C   0  0  0  0  0  0  0  0  0  0  0  0
  145.3569  133.9841  156.0973 C   0  0  0  0  0  0  0  0  0  0  0  0
  146.4324  134.3507  157.0110 N   0  0  0  0  0  0  0  0  0  0  0  0
  146.2952  135.1545  158.0764 C   0  0  0  0  0  0  0  0  0  0  0  0
  145.2290  135.6927  158.3784 O   0  0  0  0  0  0  0  0  0  0  0  0
  147.5645  135.3969  158.9056 C   0  0  0  0  0  0  0  0  0  0  0  0
  147.3828  135.1316  160.3427 N   0  0  0  0  0  0  0  0  0  0  0  0
  147.1256  133.7992  160.7226 C   0  0  0  0  0  0  0  0  0  0  0  0
  146.9454  133.4491  162.0060 C   0  0  0  0  0  0  0  0  0  0  0  0
  147.0203  134.4816  163.0120 C   0  0  0  0  0  0  0  0  0  0  0  0
  147.2692  135.7588  162.6600 C   0  0  0  0  0  0  0  0  0  0  0  0
  147.4703  136.1452  161.2587 C   0  0  0  0  0  0  0  0  0  0  0  0
  147.7039  137.3082  160.9279 O   0  0  0  0  0  0  0  0  0  0  0  0
  145.4714  132.6818  152.4718 C   0  0  0  0  0  0  0  0  0  0  0  0
  145.7632  132.5537  149.6718 H   0  0  0  0  0  0  0  0  0  0  0  0
  144.1703  131.8856  149.3277 H   0  0  0  0  0  0  0  0  0  0  0  0
  145.3216  130.9617  150.2838 H   0  0  0  0  0  0  0  0  0  0  0  0
  143.5880  131.9677  151.7309 H   0  0  0  0  0  0  0  0  0  0  0  0
  144.5918  134.6313  150.6421 H   0  0  0  0  0  0  0  0  0  0  0  0
  143.0105  133.9497  150.3639 H   0  0  0  0  0  0  0  0  0  0  0  0
  143.1128  135.7281  152.1417 H   0  0  0  0  0  0  0  0  0  0  0  0
  142.1098  133.0528  153.2111 H   0  0  0  0  0  0  0  0  0  0  0  0
  141.2259  134.1298  152.1351 H   0  0  0  0  0  0  0  0  0  0  0  0
  141.6321  134.6518  153.7631 H   0  0  0  0  0  0  0  0  0  0  0  0
  145.2561  135.3116  153.1462 H   0  0  0  0  0  0  0  0  0  0  0  0
  144.0362  135.1068  154.3833 H   0  0  0  0  0  0  0  0  0  0  0  0
  146.1558  132.2279  155.0762 H   0  0  0  0  0  0  0  0  0  0  0  0
  146.8230  133.7512  154.5442 H   0  0  0  0  0  0  0  0  0  0  0  0
  144.7920  134.8735  155.8119 H   0  0  0  0  0  0  0  0  0  0  0  0
  144.6695  133.3454  156.6504 H   0  0  0  0  0  0  0  0  0  0  0  0
  147.3429  133.9516  156.8316 H   0  0  0  0  0  0  0  0  0  0  0  0
  148.3771  134.7822  158.5138 H   0  0  0  0  0  0  0  0  0  0  0  0
  147.8832  136.4275  158.7438 H   0  0  0  0  0  0  0  0  0  0  0  0
  147.0916  133.0864  159.9114 H   0  0  0  0  0  0  0  0  0  0  0  0
  146.7530  132.4221  162.2791 H   0  0  0  0  0  0  0  0  0  0  0  0
  146.8769  134.2289  164.0523 H   0  0  0  0  0  0  0  0  0  0  0  0
  147.3227  136.5176  163.4269 H   0  0  0  0  0  0  0  0  0  0  0  0
  145.8287  131.6743  152.6810 H   0  0  0  0  0  0  0  0  0  0  0  0
  146.3324  133.2533  152.1206 H   0  0  0  0  0  0  0  0  0  0  0  0
  144.1380  132.7566  153.9978 H   0  0  0  0  0  0  0  0  0  0  0  0
  1  2  1  0  0  0  0
  1 22  1  0  0  0  0
  1 23  1  0  0  0  0
  1 24  1  0  0  0  0
  2 21  1  0  0  0  0
  2  3  1  0  0  0  0
  2 25  1  0  0  0  0
  3  4  1  0  0  0  0
  3 26  1  0  0  0  0
  3 27  1  0  0  0  0
  4  5  1  0  0  0  0
  4  6  1  0  0  0  0
  4 28  1  0  0  0  0
  5 29  1  0  0  0  0
  5 30  1  0  0  0  0
  5 31  1  0  0  0  0
  6  7  1  0  0  0  0
  6 32  1  0  0  0  0
  6 33  1  0  0  0  0
  7  8  1  0  0  0  0
  7 21  1  0  0  0  0
  7 47  1  0  0  0  0
  8  9  1  0  0  0  0
  8 34  1  0  0  0  0
  8 35  1  0  0  0  0
  9 10  1  0  0  0  0
  9 36  1  0  0  0  0
  9 37  1  0  0  0  0
 10 11  1  0  0  0  0
 10 38  1  0  0  0  0
 11 12  2  0  0  0  0
 11 13  1  0  0  0  0
 13 14  1  0  0  0  0
 13 39  1  0  0  0  0
 13 40  1  0  0  0  0
 14 19  1  0  0  0  0
 14 15  1  0  0  0  0
 15 16  2  0  0  0  0
 15 41  1  0  0  0  0
 16 17  1  0  0  0  0
 16 42  1  0  0  0  0
 17 18  2  0  0  0  0
 17 43  1  0  0  0  0
 18 19  1  0  0  0  0
 18 44  1  0  0  0  0
 19 20  2  0  0  0  0
 21 45  1  0  0  0  0
 21 46  1  0  0  0  0
M  CHG  1   7   1
M  END
> <s_m_source_file>
AV-unprocessed.smi

> <i_m_source_file_index>
1352

> <i_lp_mmshare_version>
43012

> <i_f3d_flags>
0

> <s_epik_input>
W0NIM11bQ0BASF0xW0NIMl1bQ0BASF0oW0NIM10pW0NIMl1OKFtDSDJdMSlbQ0gyXVtDSDJdW05IXUMoPU8pW0NIMl1uMltjSF1bY0hdW2NIXVtjSF1jMj1P

> <s_epik_cmdline>
J2VwaWtfcHl0aG9uJywgJy1waCcsICc3LjAnLCAnLXRuJywgJzgnLCAnLW1hJywgJzIwMCcsICctbWV0YWxfYmluZGluZycsICctaW1hZScsICc8aW5maWxlLm1hZT4nLCAnLW9tYWUnLCAnPG91dGZpbGUubWFlPic=

> <r_lp_tautomer_probability>
1

> <r_epik_Ionization_Penalty>
0.00156146

> <r_epik_Ionization_Penalty_Charging>
0.00156138

> <r_epik_Ionization_Penalty_Neutral>
8.12891e-08

> <r_epik_State_Penalty>
0.00104868

> <r_epik_Charging_Adjusted_Penalty>
0.00261006

> <i_epik_Tot_Q>
1

> <i_epik_Tot_abs_Q>
1

> <r_epik_Metal_State_Penalty>
-0

> <b_epik_Metal_Only>
0

> <s_lp_Force_Field>
OPLS_2005

> <r_lp_Energy>
27.9536

> <b_lp_Chiralities_Consistent>
1

> <s_lp_Variant>
AV-unprocessed.smi:1352-1

> <Gold.Version>
5.8.1

> <Gold.Id.Protein>
6NUR|6NUR_protein|mol2

> <Gold.PLP.Fitness>
45.4982

> <Gold.PLP.PLP>
-35.0957

> <Gold.PLP.part.hbond>
-3.0000

> <Gold.PLP.part.metal>
0.0000

> <Gold.PLP.part.buried>
-2.9177

> <Gold.PLP.part.nonpolar>
-30.4320

> <Gold.PLP.part.repulsive>
0.0000

> <Gold.PLP.ligand.clash>
0.0000

> <Gold.PLP.ligand.torsion>
0.2588

> <Gold.PLP.Chemscore.Hbond>
3.6320

> <Gold.PLP.Chemscore.CHOScore>
0.0000

> <Gold.PLP.Chemscore.Metal>
0.0000

> <Gold.Chemscore.Hbonds>
donor molecule, donor type, donor heavy atom, donor atom, acceptor molecule, acceptor atom, score
      L1  H     7    47       P1 10957  2.00
      P1  H  6931  6943       L1    20  0.82
      P1  H  6934  6947       L1    20  0.88

> <Gold.PLP.Chemscore.Internal.Correction>
0.0241

> <Gold.Rescore>
     Score         DG    S(hbond)    S(metal)    S(lipo)     H(rot)  DE(clash)    DE(int)     intcor
     18.99     -19.32       2.71        0.00      81.18       1.83       0.06       0.27       ----

> <Gold.Chemscore.Fitness>
18.9901

> <Gold.Chemscore.DG>
-19.3212

> <Gold.Chemscore.ZeroCoef>
-5.4800

> <Gold.Chemscore.Hbond>
2.7051

> <Gold.Chemscore.Metal>
0.0000

> <Gold.Chemscore.Lipo>
81.1817

> <Gold.Chemscore.Internal_Hbond>
0.0000

> <Gold.Chemscore.DEClash>
0.0582

> <Gold.Chemscore.DEInternal>
0.2729

> <Gold.Chemscore.Rot>
1.8329

> <Gold.Chemscore.Internal.Correction>
   9.000000E+99

> <Gold.Chemscore.Hbonds>
donor molecule, donor type, donor heavy atom, donor atom, acceptor molecule, acceptor atom, score
      L1  H     7    47       P1 10957  0.88
      P1  H  6931  6943       L1    20  0.78
      P1  H  6934  6947       L1    20  0.87

> <Gold.Chemscore.Hbond.Weighted>
-9.0351

> <Gold.Chemscore.Metal.Weighted>
-0.0000

> <Gold.Chemscore.Lipo.Weighted>
-9.4983

> <Gold.Chemscore.Internal_Hbond.Weighted>
0.0000

> <Gold.Chemscore.DEClash.Weighted>
0.0582

> <Gold.Chemscore.DEInternal.Weighted>
0.2729

> <Gold.Chemscore.Rot.Weighted>
4.6922

> <Gold.Chemscore.Internal.Correction.Weighted>
   9.000000E+99

> <Gold.Protein.RotatedTorsions>
[ 6907 6896 6895 6894 ] final  146.68 input  -60.11 | X-H torsion
[ 7974 7965 7964 7962 ] final   62.03 input  175.53 | X-H torsion
[ 8008 7997 7996 7995 ] final   57.95 input   59.86 | X-H torsion
[ 10167 10162 10161 10158 ] final   -7.95 input  -65.29 | X-H torsion
[ 10718 10713 10712 10709 ] final  -43.78 input   66.30 | X-H torsion
[ 10763 10752 10751 10750 ] final  -55.94 input  -60.55 | X-H torsion
[ 11005 11000 10999 10996 ] final  104.82 input  -57.11 | X-H torsion

> <Gold.Protein.ActiveResidues>
 VAL166  LYS551  ARG553  GLY616  TRP617  ASP618  TYR619  PRO620  LYS621  CYS622 
 ASP623  PHE694  ASN695  SER759  ASP760  ASP761  ALA762  ILE779  LEU786  VAL792 
 PHE793  MET794  SER795  GLU796  ALA797  LYS798  CYS799  TRP800  GLU811  SER814 

> <Gold.Protein.RotatedAtoms>
  152.1647  133.4604  159.4878 H   0  0  0  0  0  0  0  0  0  0  0  0  # atno 6907 bound_to 6896
  150.6911  134.2028  159.4338 H   0  0  0  0  0  0  0  0  0  0  0  0  # atno 6908 bound_to 6896
  151.9932  134.9968  160.0613 H   0  0  0  0  0  0  0  0  0  0  0  0  # atno 6909 bound_to 6896
  145.8781  139.3424  143.0723 H   0  0  0  0  0  0  0  0  0  0  0  0  # atno 7974 bound_to 7965
  155.5421  140.3484  155.4449 H   0  0  0  0  0  0  0  0  0  0  0  0  # atno 8008 bound_to 7997
  156.0644  140.1348  156.9930 H   0  0  0  0  0  0  0  0  0  0  0  0  # atno 8009 bound_to 7997
  154.4495  140.0978  156.6549 H   0  0  0  0  0  0  0  0  0  0  0  0  # atno 8010 bound_to 7997
  140.7044  143.6023  150.8785 H   0  0  0  0  0  0  0  0  0  0  0  0  # atno 10167 bound_to 10162
  156.2454  130.4183  149.8712 H   0  0  0  0  0  0  0  0  0  0  0  0  # atno 10718 bound_to 10713
  154.1987  135.6414  153.5081 H   0  0  0  0  0  0  0  0  0  0  0  0  # atno 10763 bound_to 10752
  153.0017  135.5446  154.6338 H   0  0  0  0  0  0  0  0  0  0  0  0  # atno 10764 bound_to 10752
  154.5745  135.2920  155.0767 H   0  0  0  0  0  0  0  0  0  0  0  0  # atno 10765 bound_to 10752
  139.8795  134.9314  156.5420 H   0  0  0  0  0  0  0  0  0  0  0  0  # atno 11005 bound_to 11000
  145.9057  140.9213  143.0480 LP  0  0  0  0  0  0  0  0  0  0  0  0  # atno 17320 bound_to 7965
  144.6726  140.1092  143.7456 LP  0  0  0  0  0  0  0  0  0  0  0  0  # atno 17321 bound_to 7965
  139.9747  143.6017  152.2962 LP  0  0  0  0  0  0  0  0  0  0  0  0  # atno 17342 bound_to 10162
  139.6617  144.7662  151.1951 LP  0  0  0  0  0  0  0  0  0  0  0  0  # atno 17343 bound_to 10162
  156.6279  130.8653  151.3489 LP  0  0  0  0  0  0  0  0  0  0  0  0  # atno 17370 bound_to 10713
  157.7193  130.9537  150.1374 LP  0  0  0  0  0  0  0  0  0  0  0  0  # atno 17371 bound_to 10713
  140.8304  133.8284  155.8978 LP  0  0  0  0  0  0  0  0  0  0  0  0  # atno 17394 bound_to 11000
  140.9334  134.1992  157.4848 LP  0  0  0  0  0  0  0  0  0  0  0  0  # atno 17395 bound_to 11000

$$$$
