#       Name:                AV-unprocessed.smi:661
#       Creating user name   scv26
#       Creation time:       Fri Mar 27 00:18:55 2020


#       File generated by GOLD software.
#

@<TRIPOS>MOLECULE
AV-unprocessed.smi:661
    34    35     1
SMALL
NO_CHARGES


@<TRIPOS>ATOM
      1 ****        -3.6752   1.5772   0.2408 C.3            1 S1                 0.0000
      2 ****        -2.2182   1.3594   0.2001 N.4            1 S1                 1.0000
      3 ****        -1.7557   0.6531  -1.0102 C.3            1 S1                 0.0000
      4 ****        -0.2721   0.5601  -0.8089 C.2            1 S1                 0.0000
      5 ****         0.5244   1.6064  -1.0325 N.2            1 S1                 0.0000
      6 ****         1.7750   1.1127  -0.7169 C.ar           1 S1                 0.0000
      7 ****         3.0420   1.7375  -0.7450 C.ar           1 S1                 0.0000
      8 ****         4.1981   1.0235  -0.3679 C.ar           1 S1                 0.0000
      9 ****         4.1035  -0.3219   0.0425 C.ar           1 S1                 0.0000
     10 ****         2.8504  -0.9635   0.0770 C.ar           1 S1                 0.0000
     11 ****         1.6990  -0.2471  -0.3020 C.ar           1 S1                 0.0000
     12 ****         0.3470  -0.5709  -0.3810 N.pl3          1 S1                 0.0000
     13 ****        -0.2397  -1.8640  -0.0596 C.3            1 S1                 0.0000
     14 ****        -0.8395  -1.8850   1.3534 C.3            1 S1                 0.0000
     15 ****        -1.3483  -3.1693   1.6379 O.3            1 S1                 0.0000
     16 ****        -3.9474   2.1082   1.1530 H              1 S1                 0.0000
     17 ****        -4.2085   0.6260   0.2273 H              1 S1                 0.0000
     18 ****        -4.0014   2.1727  -0.6126 H              1 S1                 0.0000
     19 ****        -1.7534   2.2556   0.2400 H              1 S1                 0.0000
     20 ****        -2.2259  -0.3243  -1.1047 H              1 S1                 0.0000
     21 ****        -1.9770   1.2324  -1.9075 H              1 S1                 0.0000
     22 ****         3.1260   2.7682  -1.0565 H              1 S1                 0.0000
     23 ****         5.1620   1.5104  -0.3926 H              1 S1                 0.0000
     24 ****         4.9939  -0.8615   0.3307 H              1 S1                 0.0000
     25 ****         2.7787  -1.9939   0.3920 H              1 S1                 0.0000
     26 ****        -0.9872  -2.1199  -0.8101 H              1 S1                 0.0000
     27 ****         0.5360  -2.6262  -0.1428 H              1 S1                 0.0000
     28 ****        -0.0823  -1.6331   2.0966 H              1 S1                 0.0000
     29 ****        -1.6459  -1.1584   1.4486 H              1 S1                 0.0000
     30 ****        -2.0115  -3.3836   0.9998 H              1 S1                 0.0000
     31 ****        -1.9481   0.8200   1.0100 H              1 S1                 0.0000
     32 ****         0.2772   2.5218  -1.3501 LP             1 S1                 0.0000
     33 ****        -1.7490  -3.1764   2.5541 LP             1 S1                 0.0000
     34 ****        -0.6089  -3.8411   1.5924 LP             1 S1                 0.0000
@<TRIPOS>BOND
    1    1    2 1     
    2    1   16 1     
    3    1   17 1     
    4    1   18 1     
    5    2    3 1     
    6    2   19 1     
    7    2   31 1     
    8    3    4 1     
    9    3   20 1     
   10    3   21 1     
   11    4   12 1     
   12    4    5 2     
   13    5    6 1     
   14    6   11 ar    
   15    6    7 ar    
   16    7    8 ar    
   17    7   22 1     
   18    8    9 ar    
   19    8   23 1     
   20    9   10 ar    
   21    9   24 1     
   22   10   11 ar    
   23   10   25 1     
   24   11   12 1     
   25   12   13 1     
   26   13   14 1     
   27   13   26 1     
   28   13   27 1     
   29   14   15 1     
   30   14   28 1     
   31   14   29 1     
   32   15   30 1     
   33    5   32 1     
   34   15   33 1     
   35   15   34 1     
@<TRIPOS>SUBSTRUCTURE
      1 S1             1
@<TRIPOS>SET
LONE_PAIRS      STATIC     ATOMS    <user>   **** ""
3 32 33 34
DONOR_HYDROGENS      STATIC     ATOMS    <user>   **** ""
3 19 31 30
ATOM$BLUE        STATIC     ATOMS    COLORGROUP SYSTEM
3 32 33 34
ATOM$RED        STATIC     ATOMS    COLORGROUP SYSTEM
3 19 31 30
