AV-unprocessed.smi:1449|AV-procd|sdf|5895|dock3
  -GOLD-   22720 5583D 1   1.00000     0.00000
 Structure written by MMmdl.
 34 35  0  0  0  0  0  0  0  0  1 V2000
  145.2549  132.9120  151.0962 C   0  0  0  0  0  0  0  0  0  0  0  0
  144.0692  133.0001  151.8784 O   0  0  0  0  0  0  0  0  0  0  0  0
  143.5962  134.2523  152.2133 C   0  0  0  0  0  0  0  0  0  0  0  0
  142.3847  134.3467  152.9260 C   0  0  0  0  0  0  0  0  0  0  0  0
  141.8951  135.6203  153.2736 C   0  0  0  0  0  0  0  0  0  0  0  0
  142.6322  136.7653  152.8873 C   0  0  0  0  0  0  0  0  0  0  0  0
  142.2595  138.1027  153.1906 N   0  0  0  0  0  0  0  0  0  0  0  0
  141.1278  138.5583  153.7635 C   0  0  0  0  0  0  0  0  0  0  0  0
  140.1740  137.8554  154.0895 O   0  0  0  0  0  0  0  0  0  0  0  0
  141.0948  139.8921  153.9351 N   0  0  0  0  0  0  0  0  0  0  0  0
  140.0288  140.7071  154.5199 C   0  0  2  0  0  0  0  0  0  0  0  0
  138.8026  140.7587  153.5893 C   0  0  0  0  0  0  0  0  0  0  0  0
  137.8757  141.8878  154.0563 C   0  0  0  0  0  0  0  0  0  0  0  0
  138.9627  143.1640  154.7975 S   0  0  0  0  0  0  0  0  0  0  0  0
  139.1138  144.2888  153.8621 O   0  0  0  0  0  0  0  0  0  0  0  0
  138.5512  143.3878  156.1916 O   0  0  0  0  0  0  0  0  0  0  0  0
  140.4898  142.1522  154.7694 C   0  0  0  0  0  0  0  0  0  0  0  0
  143.8387  136.5619  152.1861 C   0  0  0  0  0  0  0  0  0  0  0  0
  144.3139  135.3441  151.8504 N   0  0  0  0  0  0  0  0  0  0  0  0
  145.4929  131.8631  150.9205 H   0  0  0  0  0  0  0  0  0  0  0  0
  146.1063  133.3626  151.6084 H   0  0  0  0  0  0  0  0  0  0  0  0
  145.1274  133.3894  150.1236 H   0  0  0  0  0  0  0  0  0  0  0  0
  141.8415  133.4564  153.2066 H   0  0  0  0  0  0  0  0  0  0  0  0
  140.9779  135.6870  153.8370 H   0  0  0  0  0  0  0  0  0  0  0  0
  142.9201  138.8088  152.9007 H   0  0  0  0  0  0  0  0  0  0  0  0
  141.8978  140.4030  153.5973 H   0  0  0  0  0  0  0  0  0  0  0  0
  139.6997  140.2726  155.4656 H   0  0  0  0  0  0  0  0  0  0  0  0
  139.1325  140.9794  152.5730 H   0  0  0  0  0  0  0  0  0  0  0  0
  138.2802  139.8023  153.5526 H   0  0  0  0  0  0  0  0  0  0  0  0
  137.2868  142.3172  153.2456 H   0  0  0  0  0  0  0  0  0  0  0  0
  137.1954  141.5347  154.8316 H   0  0  0  0  0  0  0  0  0  0  0  0
  141.0383  142.2754  155.7036 H   0  0  0  0  0  0  0  0  0  0  0  0
  141.1122  142.5147  153.9505 H   0  0  0  0  0  0  0  0  0  0  0  0
  144.4434  137.4036  151.8811 H   0  0  0  0  0  0  0  0  0  0  0  0
  1  2  1  0  0  0  0
  1 20  1  0  0  0  0
  1 21  1  0  0  0  0
  1 22  1  0  0  0  0
  2  3  1  0  0  0  0
  3 19  1  0  0  0  0
  3  4  2  0  0  0  0
  4  5  1  0  0  0  0
  4 23  1  0  0  0  0
  5  6  2  0  0  0  0
  5 24  1  0  0  0  0
  6  7  1  0  0  0  0
  6 18  1  0  0  0  0
  7  8  1  0  0  0  0
  7 25  1  0  0  0  0
  8  9  2  0  0  0  0
  8 10  1  0  0  0  0
 10 11  1  0  0  0  0
 10 26  1  0  0  0  0
 11 17  1  0  0  0  0
 11 12  1  0  0  0  0
 11 27  1  0  0  0  0
 12 13  1  0  0  0  0
 12 28  1  0  0  0  0
 12 29  1  0  0  0  0
 13 14  1  0  0  0  0
 13 30  1  0  0  0  0
 13 31  1  0  0  0  0
 14 15  2  0  0  0  0
 14 16  2  0  0  0  0
 14 17  1  0  0  0  0
 17 32  1  0  0  0  0
 17 33  1  0  0  0  0
 18 19  2  0  0  0  0
 18 34  1  0  0  0  0
M  END
> <s_m_source_file>
AV-unprocessed.smi

> <i_m_source_file_index>
1449

> <i_lp_mmshare_version>
43012

> <i_f3d_flags>
0

> <s_epik_input>
W0NIM11PYzFbY0hdW2NIXWMoW2NIXW4xKVtOSF1DKD1PKVtOSF1bQ0BASF0oW0NIMl0yKVtDSDJdW0NIMl1TMig9Tyk9Tw==

> <s_epik_cmdline>
J2VwaWtfcHl0aG9uJywgJy1waCcsICc3LjAnLCAnLXRuJywgJzgnLCAnLW1hJywgJzIwMCcsICctbWV0YWxfYmluZGluZycsICctaW1hZScsICc8aW5maWxlLm1hZT4nLCAnLW9tYWUnLCAnPG91dGZpbGUubWFlPic=

> <r_lp_tautomer_probability>
1

> <r_epik_Ionization_Penalty>
7.6506e-05

> <r_epik_Ionization_Penalty_Charging>
0

> <r_epik_Ionization_Penalty_Neutral>
7.6506e-05

> <r_epik_State_Penalty>
-0

> <r_epik_Charging_Adjusted_Penalty>
0

> <i_epik_Tot_Q>
0

> <i_epik_Tot_abs_Q>
0

> <r_epik_Metal_State_Penalty>
-0

> <b_epik_Metal_Only>
0

> <s_lp_Force_Field>
OPLS_2005

> <r_lp_Energy>
18.5668

> <b_lp_Chiralities_Consistent>
1

> <s_lp_Variant>
AV-unprocessed.smi:1449-1

> <Gold.Version>
5.8.1

> <Gold.Id.Protein>
6NUR|6NUR_protein|mol2

> <Gold.PLP.Fitness>
37.3545

> <Gold.PLP.PLP>
-26.4843

> <Gold.PLP.part.hbond>
-3.6296

> <Gold.PLP.part.metal>
0.0000

> <Gold.PLP.part.buried>
-3.8755

> <Gold.PLP.part.nonpolar>
-18.8760

> <Gold.PLP.part.repulsive>
0.4635

> <Gold.PLP.ligand.clash>
0.0000

> <Gold.PLP.ligand.torsion>
0.1222

> <Gold.PLP.Chemscore.Hbond>
2.9500

> <Gold.PLP.Chemscore.CHOScore>
0.7540

> <Gold.PLP.Chemscore.Metal>
0.0000

> <Gold.Chemscore.Hbonds>
donor molecule, donor type, donor heavy atom, donor atom, acceptor molecule, acceptor atom, score
      L1  H     7    25       P1 10175  1.00
      L1  H    10    26       P1 10175  0.95
      P1  H 10162 10167       L1    15  1.00
      L1  C    18    34       P1 10171  0.77

> <Gold.PLP.Chemscore.Internal.Correction>
0.0029

> <Gold.Rescore>
     Score         DG    S(hbond)    S(metal)    S(lipo)     H(rot)  DE(clash)    DE(int)     intcor
     14.64     -15.89       2.49        0.00      46.54       1.31       0.01       1.24       ----

> <Gold.Chemscore.Fitness>
14.6395

> <Gold.Chemscore.DG>
-15.8876

> <Gold.Chemscore.ZeroCoef>
-5.4800

> <Gold.Chemscore.Hbond>
2.4905

> <Gold.Chemscore.Metal>
0.0000

> <Gold.Chemscore.Lipo>
46.5405

> <Gold.Chemscore.Internal_Hbond>
0.0000

> <Gold.Chemscore.DEClash>
0.0112

> <Gold.Chemscore.DEInternal>
1.2369

> <Gold.Chemscore.Rot>
1.3109

> <Gold.Chemscore.Internal.Correction>
   9.000000E+99

> <Gold.Chemscore.Hbonds>
donor molecule, donor type, donor heavy atom, donor atom, acceptor molecule, acceptor atom, score
      L1  H     7    25       P1 10175  1.00
      L1  H    10    26       P1 10175  0.19
      P1  H 10162 10167       L1    15  0.91

> <Gold.Chemscore.Hbond.Weighted>
-8.3183

> <Gold.Chemscore.Metal.Weighted>
-0.0000

> <Gold.Chemscore.Lipo.Weighted>
-5.4452

> <Gold.Chemscore.Internal_Hbond.Weighted>
0.0000

> <Gold.Chemscore.DEClash.Weighted>
0.0112

> <Gold.Chemscore.DEInternal.Weighted>
1.2369

> <Gold.Chemscore.Rot.Weighted>
3.3559

> <Gold.Chemscore.Internal.Correction.Weighted>
   9.000000E+99

> <Gold.Protein.RotatedTorsions>
[ 6907 6896 6895 6894 ] final -117.42 input  -60.11 | X-H torsion
[ 7974 7965 7964 7962 ] final  114.73 input  175.53 | X-H torsion
[ 8008 7997 7996 7995 ] final   62.61 input   59.86 | X-H torsion
[ 10167 10162 10161 10158 ] final -149.60 input  -65.29 | X-H torsion
[ 10718 10713 10712 10709 ] final  -92.32 input   66.30 | X-H torsion
[ 10763 10752 10751 10750 ] final -132.16 input  -60.55 | X-H torsion
[ 11005 11000 10999 10996 ] final  149.51 input  -57.11 | X-H torsion

> <Gold.Protein.ActiveResidues>
 VAL166  LYS551  ARG553  GLY616  TRP617  ASP618  TYR619  PRO620  LYS621  CYS622 
 ASP623  PHE694  ASN695  SER759  ASP760  ASP761  ALA762  ILE779  LEU786  VAL792 
 PHE793  MET794  SER795  GLU796  ALA797  LYS798  CYS799  TRP800  GLU811  SER814 

> <Gold.Protein.RotatedAtoms>
  150.8135  133.8379  159.3171 H   0  0  0  0  0  0  0  0  0  0  0  0  # atno 6907 bound_to 6896
  151.6158  135.1034  160.0100 H   0  0  0  0  0  0  0  0  0  0  0  0  # atno 6908 bound_to 6896
  152.4227  133.7102  159.6531 H   0  0  0  0  0  0  0  0  0  0  0  0  # atno 6909 bound_to 6896
  145.2008  139.2953  143.4319 H   0  0  0  0  0  0  0  0  0  0  0  0  # atno 7974 bound_to 7965
  155.6170  140.3495  155.4640 H   0  0  0  0  0  0  0  0  0  0  0  0  # atno 8008 bound_to 7997
  156.0109  140.1233  157.0479 H   0  0  0  0  0  0  0  0  0  0  0  0  # atno 8009 bound_to 7997
  154.4280  140.1082  156.5814 H   0  0  0  0  0  0  0  0  0  0  0  0  # atno 8010 bound_to 7997
  139.7428  143.8636  152.2567 H   0  0  0  0  0  0  0  0  0  0  0  0  # atno 10167 bound_to 10162
  156.0001  130.4982  150.5608 H   0  0  0  0  0  0  0  0  0  0  0  0  # atno 10718 bound_to 10713
  154.8745  135.3807  154.4364 H   0  0  0  0  0  0  0  0  0  0  0  0  # atno 10763 bound_to 10752
  153.5053  135.7030  153.5815 H   0  0  0  0  0  0  0  0  0  0  0  0  # atno 10764 bound_to 10752
  153.4128  135.3920  155.2028 H   0  0  0  0  0  0  0  0  0  0  0  0  # atno 10765 bound_to 10752
  140.1051  134.8959  157.1854 H   0  0  0  0  0  0  0  0  0  0  0  0  # atno 11005 bound_to 11000
  146.3418  140.2252  142.8592 LP  0  0  0  0  0  0  0  0  0  0  0  0  # atno 17320 bound_to 7965
  144.9950  140.8581  143.5316 LP  0  0  0  0  0  0  0  0  0  0  0  0  # atno 17321 bound_to 7965
  139.8592  144.7126  150.9120 LP  0  0  0  0  0  0  0  0  0  0  0  0  # atno 17342 bound_to 10162
  140.7788  143.3832  151.1439 LP  0  0  0  0  0  0  0  0  0  0  0  0  # atno 17343 bound_to 10162
  157.3517  131.0734  151.1708 LP  0  0  0  0  0  0  0  0  0  0  0  0  # atno 17370 bound_to 10713
  157.2522  130.6619  149.5936 LP  0  0  0  0  0  0  0  0  0  0  0  0  # atno 17371 bound_to 10713
  140.3167  134.2963  155.7255 LP  0  0  0  0  0  0  0  0  0  0  0  0  # atno 17394 bound_to 11000
  141.2116  133.7684  156.9853 LP  0  0  0  0  0  0  0  0  0  0  0  0  # atno 17395 bound_to 11000

$$$$
