AV-unprocessed.smi:1213|AV-procd|sdf|5089|dock6
  -GOLD-   22720 4143D 1   1.00000     0.00000
 Structure written by MMmdl.
 36 37  0  0  0  0  0  0  0  0  3 V2000
  147.2421  134.9551  153.4644 N   0  5  0  0  0  0  0  0  0  0  0  0
  147.4477  134.9987  154.7946 C   0  0  0  0  0  0  0  0  0  0  0  0
  146.6205  134.8497  155.6919 O   0  0  0  0  0  0  0  0  0  0  0  0
  148.9171  135.2462  155.1535 C   0  0  0  0  0  0  0  0  0  0  0  0
  149.3845  136.5219  154.5559 N   0  3  2  0  0  0  0  0  0  0  0  0
  150.8072  136.8041  154.8726 C   0  0  0  0  0  0  0  0  0  0  0  0
  151.3080  138.0494  154.1201 C   0  0  0  0  0  0  0  0  0  0  0  0
  150.4328  139.2865  154.4032 C   0  0  2  0  0  0  0  0  0  0  0  0
  150.6063  139.7763  155.7705 N   0  0  0  0  0  0  0  0  0  0  0  0
  151.7791  139.8834  156.4120 C   0  0  0  0  0  0  0  0  0  0  0  0
  152.8570  139.5619  155.9114 O   0  0  0  0  0  0  0  0  0  0  0  0
  151.6133  140.3786  157.6510 N   0  0  0  0  0  0  0  0  0  0  0  0
  152.6053  140.6293  158.6353 C   0  0  0  0  0  0  0  0  0  0  0  0
  153.6960  139.8756  158.8161 N   0  0  0  0  0  0  0  0  0  0  0  0
  154.4980  140.3551  159.8550 C   0  0  0  0  0  0  0  0  0  0  0  0
  153.9986  141.4821  160.4586 C   0  0  0  0  0  0  0  0  0  0  0  0
  152.4913  141.9885  159.7436 S   0  0  0  0  0  0  0  0  0  0  0  0
  148.9562  138.9476  154.1363 C   0  0  0  0  0  0  0  0  0  0  0  0
  148.5091  137.6791  154.8853 C   0  0  0  0  0  0  0  0  0  0  0  0
  148.0077  135.2195  152.8333 H   0  0  0  0  0  0  0  0  0  0  0  0
  149.0979  135.2433  156.2306 H   0  0  0  0  0  0  0  0  0  0  0  0
  149.4855  134.4115  154.7410 H   0  0  0  0  0  0  0  0  0  0  0  0
  150.9237  136.9363  155.9495 H   0  0  0  0  0  0  0  0  0  0  0  0
  151.4227  135.9490  154.5911 H   0  0  0  0  0  0  0  0  0  0  0  0
  152.3498  138.2464  154.3743 H   0  0  0  0  0  0  0  0  0  0  0  0
  151.2960  137.8435  153.0490 H   0  0  0  0  0  0  0  0  0  0  0  0
  150.7239  140.0876  153.7211 H   0  0  0  0  0  0  0  0  0  0  0  0
  149.7720  140.0678  156.2588 H   0  0  0  0  0  0  0  0  0  0  0  0
  150.6679  140.6045  157.9227 H   0  0  0  0  0  0  0  0  0  0  0  0
  155.4109  139.8314  160.0980 H   0  0  0  0  0  0  0  0  0  0  0  0
  154.4244  142.0423  161.2777 H   0  0  0  0  0  0  0  0  0  0  0  0
  148.3186  139.7895  154.4097 H   0  0  0  0  0  0  0  0  0  0  0  0
  148.8124  138.7950  153.0659 H   0  0  0  0  0  0  0  0  0  0  0  0
  147.4754  137.4586  154.6177 H   0  0  0  0  0  0  0  0  0  0  0  0
  148.5218  137.8507  155.9626 H   0  0  0  0  0  0  0  0  0  0  0  0
  149.3349  136.3900  153.5555 H   0  0  0  0  0  0  0  0  0  0  0  0
  1  2  1  0  0  0  0
  1 20  1  0  0  0  0
  2  3  2  0  0  0  0
  2  4  1  0  0  0  0
  4  5  1  0  0  0  0
  4 21  1  0  0  0  0
  4 22  1  0  0  0  0
  5 19  1  0  0  0  0
  5  6  1  0  0  0  0
  5 36  1  0  0  0  0
  6  7  1  0  0  0  0
  6 23  1  0  0  0  0
  6 24  1  0  0  0  0
  7  8  1  0  0  0  0
  7 25  1  0  0  0  0
  7 26  1  0  0  0  0
  8  9  1  0  0  0  0
  8 18  1  0  0  0  0
  8 27  1  0  0  0  0
  9 10  1  0  0  0  0
  9 28  1  0  0  0  0
 10 11  2  0  0  0  0
 10 12  1  0  0  0  0
 12 13  1  0  0  0  0
 12 29  1  0  0  0  0
 13 17  1  0  0  0  0
 13 14  2  0  0  0  0
 14 15  1  0  0  0  0
 15 16  2  0  0  0  0
 15 30  1  0  0  0  0
 16 17  1  0  0  0  0
 16 31  1  0  0  0  0
 18 19  1  0  0  0  0
 18 32  1  0  0  0  0
 18 33  1  0  0  0  0
 19 34  1  0  0  0  0
 19 35  1  0  0  0  0
M  CHG  1   1  -1
M  CHG  1   5   1
M  END
> <s_m_source_file>
AV-unprocessed.smi

> <i_m_source_file_index>
1213

> <i_lp_mmshare_version>
43012

> <i_f3d_flags>
0

> <s_epik_input>
W05IMl1DKD1PKVtDSDJdTjFbQ0gyXVtDSDJdW0NIXShbQ0gyXVtDSDJdMSlbTkhdQyg9TylbTkhdYzJuW2NIXVtjSF1zMg==

> <s_epik_cmdline>
J2VwaWtfcHl0aG9uJywgJy1waCcsICc3LjAnLCAnLXRuJywgJzgnLCAnLW1hJywgJzIwMCcsICctbWV0YWxfYmluZGluZycsICctaW1hZScsICc8aW5maWxlLm1hZT4nLCAnLW9tYWUnLCAnPG91dGZpbGUubWFlPic=

> <r_lp_tautomer_probability>
0.999

> <r_epik_Ionization_Penalty>
5.73166

> <r_epik_Ionization_Penalty_Charging>
5.73152

> <r_epik_Ionization_Penalty_Neutral>
0.000139308

> <r_epik_State_Penalty>
6.57436

> <r_epik_Charging_Adjusted_Penalty>
12.3059

> <i_epik_Tot_Q>
0

> <i_epik_Tot_abs_Q>
2

> <r_epik_Metal_State_Penalty>
2.57084

> <b_epik_Metal_Only>
1

> <s_lp_Force_Field>
OPLS_2005

> <r_lp_Energy>
6.02298

> <b_lp_Chiralities_Consistent>
1

> <s_lp_Variant>
AV-unprocessed.smi:1213-6

> <Gold.Version>
5.8.1

> <Gold.Id.Protein>
6NUR|6NUR_protein|mol2

> <Gold.PLP.Fitness>
41.9486

> <Gold.PLP.PLP>
-30.8710

> <Gold.PLP.part.hbond>
-4.0000

> <Gold.PLP.part.metal>
0.0000

> <Gold.PLP.part.buried>
-2.9492

> <Gold.PLP.part.nonpolar>
-23.0677

> <Gold.PLP.part.repulsive>
0.1704

> <Gold.PLP.ligand.clash>
0.0000

> <Gold.PLP.ligand.torsion>
0.4809

> <Gold.PLP.Chemscore.Hbond>
4.0059

> <Gold.PLP.Chemscore.CHOScore>
0.0000

> <Gold.PLP.Chemscore.Metal>
0.0000

> <Gold.Chemscore.Hbonds>
donor molecule, donor type, donor heavy atom, donor atom, acceptor molecule, acceptor atom, score
      L1  H     1    20       P1  7948  1.00
      L1  H     5    36       P1  7948  2.00
      P1  H  7997  8009       L1    11  1.00

> <Gold.PLP.Chemscore.Internal.Correction>
0.0218

> <Gold.Rescore>
     Score         DG    S(hbond)    S(metal)    S(lipo)     H(rot)  DE(clash)    DE(int)     intcor
     14.96     -17.62       2.99        0.00      63.09       2.04       0.03       2.63       ----

> <Gold.Chemscore.Fitness>
14.9567

> <Gold.Chemscore.DG>
-17.6229

> <Gold.Chemscore.ZeroCoef>
-5.4800

> <Gold.Chemscore.Hbond>
2.9854

> <Gold.Chemscore.Metal>
0.0000

> <Gold.Chemscore.Lipo>
63.0871

> <Gold.Chemscore.Internal_Hbond>
0.0000

> <Gold.Chemscore.DEClash>
0.0332

> <Gold.Chemscore.DEInternal>
2.6330

> <Gold.Chemscore.Rot>
2.0350

> <Gold.Chemscore.Internal.Correction>
   9.000000E+99

> <Gold.Chemscore.Hbonds>
donor molecule, donor type, donor heavy atom, donor atom, acceptor molecule, acceptor atom, score
      L1  H     1    20       P1  7948  0.98
      L1  H     5    36       P1  7948  0.85
      P1  H  7997  8009       L1    11  0.99

> <Gold.Chemscore.Hbond.Weighted>
-9.9714

> <Gold.Chemscore.Metal.Weighted>
-0.0000

> <Gold.Chemscore.Lipo.Weighted>
-7.3812

> <Gold.Chemscore.Internal_Hbond.Weighted>
0.0000

> <Gold.Chemscore.DEClash.Weighted>
0.0332

> <Gold.Chemscore.DEInternal.Weighted>
2.6330

> <Gold.Chemscore.Rot.Weighted>
5.2096

> <Gold.Chemscore.Internal.Correction.Weighted>
   9.000000E+99

> <Gold.Protein.RotatedTorsions>
[ 6907 6896 6895 6894 ] final -138.78 input  -60.11 | X-H torsion
[ 7974 7965 7964 7962 ] final  161.63 input  175.53 | X-H torsion
[ 8008 7997 7996 7995 ] final -151.37 input   59.86 | X-H torsion
[ 10167 10162 10161 10158 ] final -160.62 input  -65.29 | X-H torsion
[ 10718 10713 10712 10709 ] final  -32.02 input   66.30 | X-H torsion
[ 10763 10752 10751 10750 ] final -170.75 input  -60.55 | X-H torsion
[ 11005 11000 10999 10996 ] final   -9.49 input  -57.11 | X-H torsion

> <Gold.Protein.ActiveResidues>
 VAL166  LYS551  ARG553  GLY616  TRP617  ASP618  TYR619  PRO620  LYS621  CYS622 
 ASP623  PHE694  ASN695  SER759  ASP760  ASP761  ALA762  ILE779  LEU786  VAL792 
 PHE793  MET794  SER795  GLU796  ALA797  LYS798  CYS799  TRP800  GLU811  SER814 

> <Gold.Protein.RotatedAtoms>
  151.0394  133.5719  159.2652 H   0  0  0  0  0  0  0  0  0  0  0  0  # atno 6907 bound_to 6896
  151.2771  135.0702  159.9165 H   0  0  0  0  0  0  0  0  0  0  0  0  # atno 6908 bound_to 6896
  152.5361  134.0115  159.7994 H   0  0  0  0  0  0  0  0  0  0  0  0  # atno 6909 bound_to 6896
  144.7676  139.7926  143.6309 H   0  0  0  0  0  0  0  0  0  0  0  0  # atno 7974 bound_to 7965
  155.6384  140.0699  157.2626 H   0  0  0  0  0  0  0  0  0  0  0  0  # atno 8008 bound_to 7997
  154.4189  140.1755  156.1596 H   0  0  0  0  0  0  0  0  0  0  0  0  # atno 8009 bound_to 7997
  155.9876  140.3348  155.6725 H   0  0  0  0  0  0  0  0  0  0  0  0  # atno 8010 bound_to 7997
  139.6526  144.0057  152.2172 H   0  0  0  0  0  0  0  0  0  0  0  0  # atno 10167 bound_to 10162
  156.3801  130.4354  149.7476 H   0  0  0  0  0  0  0  0  0  0  0  0  # atno 10718 bound_to 10713
  154.6381  135.2895  155.0137 H   0  0  0  0  0  0  0  0  0  0  0  0  # atno 10763 bound_to 10752
  154.1273  135.6539  153.4919 H   0  0  0  0  0  0  0  0  0  0  0  0  # atno 10764 bound_to 10752
  153.0312  135.5302  154.7236 H   0  0  0  0  0  0  0  0  0  0  0  0  # atno 10765 bound_to 10752
  140.7347  133.8720  155.8920 H   0  0  0  0  0  0  0  0  0  0  0  0  # atno 11005 bound_to 11000
  146.1796  139.4983  142.9875 LP  0  0  0  0  0  0  0  0  0  0  0  0  # atno 17320 bound_to 7965
  145.6422  141.0282  143.1805 LP  0  0  0  0  0  0  0  0  0  0  0  0  # atno 17321 bound_to 7965
  139.9775  144.6451  150.7932 LP  0  0  0  0  0  0  0  0  0  0  0  0  # atno 17342 bound_to 10162
  140.7544  143.3027  151.3039 LP  0  0  0  0  0  0  0  0  0  0  0  0  # atno 17343 bound_to 10162
  156.4570  130.7934  151.2954 LP  0  0  0  0  0  0  0  0  0  0  0  0  # atno 17370 bound_to 10713
  157.7491  131.0077  150.3202 LP  0  0  0  0  0  0  0  0  0  0  0  0  # atno 17371 bound_to 10713
  140.9890  134.1304  157.4426 LP  0  0  0  0  0  0  0  0  0  0  0  0  # atno 17394 bound_to 11000
  139.8818  135.0034  156.6187 LP  0  0  0  0  0  0  0  0  0  0  0  0  # atno 17395 bound_to 11000

$$$$
