AV-unprocessed.smi:697|AV-procd|sdf|3396|dock6
  -GOLD-   22720 0373D 1   1.00000     0.00000
 Structure written by MMmdl.
 43 44  0  0  0  0  0  0  0  0  2 V2000
  147.8208  141.9756  154.1801 C   0  0  0  0  0  0  0  0  0  0  0  0
  149.0286  141.3085  153.8371 O   0  0  0  0  0  0  0  0  0  0  0  0
  149.5583  140.4138  154.8167 C   0  0  2  0  0  0  0  0  0  0  0  0
  150.0512  141.2040  156.0390 C   0  0  0  0  0  0  0  0  0  0  0  0
  150.5115  139.3753  154.1978 C   0  0  0  0  0  0  0  0  0  0  0  0
  149.8069  138.3380  155.0690 C   0  0  2  0  0  0  0  0  0  0  0  0
  149.6579  137.0501  154.4001 N   0  0  0  0  0  0  0  0  0  0  0  0
  150.0211  135.8747  154.9301 C   0  0  0  0  0  0  0  0  0  0  0  0
  150.5487  135.7724  156.0374 O   0  0  0  0  0  0  0  0  0  0  0  0
  149.7311  134.8637  154.0911 N   0  0  0  0  0  0  0  0  0  0  0  0
  149.8974  133.4780  154.2598 C   0  0  0  0  0  0  0  0  0  0  0  0
  150.8257  132.8935  155.0673 C   0  0  0  0  0  0  0  0  0  0  0  0
  150.9367  131.4474  155.2097 C   0  0  0  0  0  0  0  0  0  0  0  0
  152.0186  130.7628  156.0262 C   0  0  0  0  0  0  0  0  0  0  0  0
  152.7811  131.6551  156.6582 F   0  0  0  0  0  0  0  0  0  0  0  0
  151.4860  129.9457  156.9350 F   0  0  0  0  0  0  0  0  0  0  0  0
  152.8010  130.0402  155.2261 F   0  0  0  0  0  0  0  0  0  0  0  0
  150.0151  130.7717  154.4338 C   0  0  0  0  0  0  0  0  0  0  0  0
  149.0506  131.2711  153.6305 N   0  5  0  0  0  0  0  0  0  0  0  0
  148.9535  132.6250  153.5076 C   0  0  0  0  0  0  0  0  0  0  0  0
  148.0999  133.1460  152.7887 O   0  0  0  0  0  0  0  0  0  0  0  0
  148.5471  139.2410  155.0321 C   0  0  0  0  0  0  0  0  0  0  0  0
  147.7133  139.2747  156.3172 C   0  0  0  0  0  0  0  0  0  0  0  0
  147.5445  138.9903  153.8871 C   0  0  0  0  0  0  0  0  0  0  0  0
  147.5829  142.7026  153.4038 H   0  0  0  0  0  0  0  0  0  0  0  0
  147.9056  142.5167  155.1226 H   0  0  0  0  0  0  0  0  0  0  0  0
  146.9801  141.2857  154.2452 H   0  0  0  0  0  0  0  0  0  0  0  0
  150.3293  140.5468  156.8625 H   0  0  0  0  0  0  0  0  0  0  0  0
  149.2824  141.8829  156.4084 H   0  0  0  0  0  0  0  0  0  0  0  0
  150.9357  141.7974  155.8093 H   0  0  0  0  0  0  0  0  0  0  0  0
  150.3613  139.2246  153.1270 H   0  0  0  0  0  0  0  0  0  0  0  0
  151.5652  139.5230  154.4357 H   0  0  0  0  0  0  0  0  0  0  0  0
  150.2565  138.2707  156.0622 H   0  0  0  0  0  0  0  0  0  0  0  0
  149.2358  137.0533  153.4832 H   0  0  0  0  0  0  0  0  0  0  0  0
  149.3458  135.1246  153.1951 H   0  0  0  0  0  0  0  0  0  0  0  0
  151.5089  133.4866  155.6515 H   0  0  0  0  0  0  0  0  0  0  0  0
  150.0613  129.6622  154.4602 H   0  0  0  0  0  0  0  0  0  0  0  0
  147.0830  138.3895  156.4100 H   0  0  0  0  0  0  0  0  0  0  0  0
  147.0611  140.1479  156.3465 H   0  0  0  0  0  0  0  0  0  0  0  0
  148.3387  139.3050  157.2089 H   0  0  0  0  0  0  0  0  0  0  0  0
  147.0088  138.0497  154.0192 H   0  0  0  0  0  0  0  0  0  0  0  0
  148.0310  138.9452  152.9128 H   0  0  0  0  0  0  0  0  0  0  0  0
  146.7957  139.7812  153.8335 H   0  0  0  0  0  0  0  0  0  0  0  0
  1  2  1  0  0  0  0
  1 25  1  0  0  0  0
  1 26  1  0  0  0  0
  1 27  1  0  0  0  0
  2  3  1  0  0  0  0
  3 22  1  0  0  0  0
  3  4  1  0  0  0  0
  3  5  1  0  0  0  0
  4 28  1  0  0  0  0
  4 29  1  0  0  0  0
  4 30  1  0  0  0  0
  5  6  1  0  0  0  0
  5 31  1  0  0  0  0
  5 32  1  0  0  0  0
  6  7  1  0  0  0  0
  6 22  1  0  0  0  0
  6 33  1  0  0  0  0
  7  8  1  0  0  0  0
  7 34  1  0  0  0  0
  8  9  2  0  0  0  0
  8 10  1  0  0  0  0
 10 11  1  0  0  0  0
 10 35  1  0  0  0  0
 11 20  1  0  0  0  0
 11 12  2  0  0  0  0
 12 13  1  0  0  0  0
 12 36  1  0  0  0  0
 13 14  1  0  0  0  0
 13 18  2  0  0  0  0
 14 15  1  0  0  0  0
 14 16  1  0  0  0  0
 14 17  1  0  0  0  0
 18 19  1  0  0  0  0
 18 37  1  0  0  0  0
 19 20  1  0  0  0  0
 20 21  2  0  0  0  0
 22 23  1  0  0  0  0
 22 24  1  0  0  0  0
 23 38  1  0  0  0  0
 23 39  1  0  0  0  0
 23 40  1  0  0  0  0
 24 41  1  0  0  0  0
 24 42  1  0  0  0  0
 24 43  1  0  0  0  0
M  CHG  1  19  -1
M  END
> <s_m_source_file>
AV-unprocessed.smi

> <i_m_source_file_index>
697

> <i_lp_mmshare_version>
43012

> <i_f3d_flags>
0

> <s_epik_input>
W0NIM11PW0NAQF0xKFtDSDNdKVtDSDJdW0NASF0oQzEoW0NIM10pW0NIM10pW05IXUMoPU8pW05IXWMyW2NIXWMoQyhGKShGKUYpW2NIXVtuSF1jMj1P

> <s_epik_cmdline>
J2VwaWtfcHl0aG9uJywgJy1waCcsICc3LjAnLCAnLXRuJywgJzgnLCAnLW1hJywgJzIwMCcsICctbWV0YWxfYmluZGluZycsICctaW1hZScsICc8aW5maWxlLm1hZT4nLCAnLW9tYWUnLCAnPG91dGZpbGUubWFlPic=

> <r_lp_tautomer_probability>
1

> <r_epik_Ionization_Penalty>
3.20094

> <r_epik_Ionization_Penalty_Charging>
0.180017

> <r_epik_Ionization_Penalty_Neutral>
3.02092

> <r_epik_State_Penalty>
3.01726

> <r_epik_Charging_Adjusted_Penalty>
3.19727

> <i_epik_Tot_Q>
-1

> <i_epik_Tot_abs_Q>
1

> <r_epik_Metal_State_Penalty>
0.455096

> <b_epik_Metal_Only>
1

> <s_lp_Force_Field>
OPLS_2005

> <r_lp_Energy>
36.1222

> <b_lp_Chiralities_Consistent>
1

> <s_lp_Variant>
AV-unprocessed.smi:697-8

> <Gold.Version>
5.8.1

> <Gold.Id.Protein>
6NUR|6NUR_protein|mol2

> <Gold.PLP.Fitness>
43.3344

> <Gold.PLP.PLP>
-35.4365

> <Gold.PLP.part.hbond>
-3.6911

> <Gold.PLP.part.metal>
0.0000

> <Gold.PLP.part.buried>
-2.7881

> <Gold.PLP.part.nonpolar>
-30.0835

> <Gold.PLP.part.repulsive>
1.5729

> <Gold.PLP.ligand.clash>
0.0000

> <Gold.PLP.ligand.torsion>
0.4244

> <Gold.PLP.Chemscore.Hbond>
2.7760

> <Gold.PLP.Chemscore.CHOScore>
0.0000

> <Gold.PLP.Chemscore.Metal>
0.0000

> <Gold.Chemscore.Hbonds>
donor molecule, donor type, donor heavy atom, donor atom, acceptor molecule, acceptor atom, score
      L1  H     7    34       P1  7948  0.98
      L1  H    10    35       P1  7948  0.60
      P1  H  8011  8017       L1     2  0.82

> <Gold.PLP.Chemscore.Internal.Correction>
0.4188

> <Gold.Rescore>
     Score         DG    S(hbond)    S(metal)    S(lipo)     H(rot)  DE(clash)    DE(int)     intcor
     14.55     -15.49       1.65        0.00      66.75       1.30       0.44       0.50       ----

> <Gold.Chemscore.Fitness>
14.5520

> <Gold.Chemscore.DG>
-15.4922

> <Gold.Chemscore.ZeroCoef>
-5.4800

> <Gold.Chemscore.Hbond>
1.6536

> <Gold.Chemscore.Metal>
0.0000

> <Gold.Chemscore.Lipo>
66.7542

> <Gold.Chemscore.Internal_Hbond>
0.0000

> <Gold.Chemscore.DEClash>
0.4370

> <Gold.Chemscore.DEInternal>
0.5032

> <Gold.Chemscore.Rot>
1.2973

> <Gold.Chemscore.Internal.Correction>
   9.000000E+99

> <Gold.Chemscore.Hbonds>
donor molecule, donor type, donor heavy atom, donor atom, acceptor molecule, acceptor atom, score
      L1  H     7    34       P1  7948  0.92
      L1  H    10    35       P1  7948  0.04
      P1  H  8011  8017       L1     2  0.34

> <Gold.Chemscore.Hbond.Weighted>
-5.5229

> <Gold.Chemscore.Metal.Weighted>
-0.0000

> <Gold.Chemscore.Lipo.Weighted>
-7.8102

> <Gold.Chemscore.Internal_Hbond.Weighted>
0.0000

> <Gold.Chemscore.DEClash.Weighted>
0.4370

> <Gold.Chemscore.DEInternal.Weighted>
0.5032

> <Gold.Chemscore.Rot.Weighted>
3.3210

> <Gold.Chemscore.Internal.Correction.Weighted>
   9.000000E+99

> <Gold.Protein.RotatedTorsions>
[ 6907 6896 6895 6894 ] final   67.57 input  -60.11 | X-H torsion
[ 7974 7965 7964 7962 ] final  -19.44 input  175.53 | X-H torsion
[ 8008 7997 7996 7995 ] final   36.51 input   59.86 | X-H torsion
[ 10167 10162 10161 10158 ] final  -45.99 input  -65.29 | X-H torsion
[ 10718 10713 10712 10709 ] final -166.34 input   66.30 | X-H torsion
[ 10763 10752 10751 10750 ] final  133.67 input  -60.55 | X-H torsion
[ 11005 11000 10999 10996 ] final -168.67 input  -57.11 | X-H torsion

> <Gold.Protein.ActiveResidues>
 VAL166  LYS551  ARG553  GLY616  TRP617  ASP618  TYR619  PRO620  LYS621  CYS622 
 ASP623  PHE694  ASN695  SER759  ASP760  ASP761  ALA762  ILE779  LEU786  VAL792 
 PHE793  MET794  SER795  GLU796  ALA797  LYS798  CYS799  TRP800  GLU811  SER814 

> <Gold.Protein.RotatedAtoms>
  152.4561  134.5289  159.9804 H   0  0  0  0  0  0  0  0  0  0  0  0  # atno 6907 bound_to 6896
  151.5350  133.3437  159.2933 H   0  0  0  0  0  0  0  0  0  0  0  0  # atno 6908 bound_to 6896
  150.8505  134.7859  159.7068 H   0  0  0  0  0  0  0  0  0  0  0  0  # atno 6909 bound_to 6896
  146.1841  140.4062  142.8483 H   0  0  0  0  0  0  0  0  0  0  0  0  # atno 7974 bound_to 7965
  155.1885  140.3306  155.4362 H   0  0  0  0  0  0  0  0  0  0  0  0  # atno 8008 bound_to 7997
  156.2451  140.1914  156.6930 H   0  0  0  0  0  0  0  0  0  0  0  0  # atno 8009 bound_to 7997
  154.6222  140.0594  156.9615 H   0  0  0  0  0  0  0  0  0  0  0  0  # atno 8010 bound_to 7997
  140.6836  143.2852  151.3718 H   0  0  0  0  0  0  0  0  0  0  0  0  # atno 10167 bound_to 10162
  156.6665  130.9067  151.3037 H   0  0  0  0  0  0  0  0  0  0  0  0  # atno 10718 bound_to 10713
  153.8110  135.3129  155.3400 H   0  0  0  0  0  0  0  0  0  0  0  0  # atno 10763 bound_to 10752
  154.8051  135.4702  154.0375 H   0  0  0  0  0  0  0  0  0  0  0  0  # atno 10764 bound_to 10752
  153.1754  135.6885  153.8639 H   0  0  0  0  0  0  0  0  0  0  0  0  # atno 10765 bound_to 10752
  140.5394  134.5537  157.5096 H   0  0  0  0  0  0  0  0  0  0  0  0  # atno 11005 bound_to 11000
  144.8366  140.6791  143.6256 LP  0  0  0  0  0  0  0  0  0  0  0  0  # atno 17320 bound_to 7965
  145.3991  139.1601  143.4187 LP  0  0  0  0  0  0  0  0  0  0  0  0  # atno 17321 bound_to 7965
  139.6176  144.0971  152.2361 LP  0  0  0  0  0  0  0  0  0  0  0  0  # atno 17342 bound_to 10162
  140.0405  144.6011  150.7415 LP  0  0  0  0  0  0  0  0  0  0  0  0  # atno 17343 bound_to 10162
  157.7092  130.9420  150.1031 LP  0  0  0  0  0  0  0  0  0  0  0  0  # atno 17370 bound_to 10713
  156.1971  130.3658  149.8835 LP  0  0  0  0  0  0  0  0  0  0  0  0  # atno 17371 bound_to 10713
  139.9512  134.7614  156.0445 LP  0  0  0  0  0  0  0  0  0  0  0  0  # atno 17394 bound_to 11000
  141.1236  133.6605  156.3278 LP  0  0  0  0  0  0  0  0  0  0  0  0  # atno 17395 bound_to 11000

$$$$
