#       Name:                AV-unprocessed.smi:98
#       Creating user name   scv26
#       Creation time:       Thu Mar 26 17:31:12 2020


#       File generated by GOLD software.
#

@<TRIPOS>MOLECULE
AV-unprocessed.smi:98
    66    69     1
SMALL
NO_CHARGES


@<TRIPOS>ATOM
      1 ****         0.6983   0.1899  -1.6122 O.2            1 S1                 0.0000
      2 ****         1.2770  -0.5548  -0.8202 C.2            1 S1                 0.0000
      3 ****         2.7887  -0.4135  -0.5796 C.3            1 S1                 0.0000
      4 ****         3.4561   0.5092  -1.5244 N.am           1 S1                 0.0000
      5 ****         3.9041  -0.0044  -2.7670 C.2            1 S1                 0.0000
      6 ****         3.7654  -1.1946  -3.0531 O.2            1 S1                 0.0000
      7 ****         4.5166   0.9667  -3.6659 C.2            1 S1                 0.0000
      8 ****         4.9553   0.5727  -4.8734 F              1 S1                 0.0000
      9 ****         4.6463   2.2601  -3.3059 C.2            1 S1                 0.0000
     10 ****         4.2276   2.7438  -2.0822 N.am           1 S1                 0.0000
     11 ****         4.3736   4.2178  -1.7826 C.3            1 S1                 0.0000
     12 ****         5.1921   4.5102  -0.5109 C.3            1 S1                 0.0000
     13 ****         4.2194   5.3064   0.3437 C.3            1 S1                 0.0000
     14 ****         3.2207   5.8345  -0.6802 C.3            1 S1                 0.0000
     15 ****         3.1033   4.7647  -1.6050 O.3            1 S1                 0.0000
     16 ****         3.5871   1.8736  -1.1698 C.2            1 S1                 0.0000
     17 ****         3.1471   2.2907  -0.0974 O.2            1 S1                 0.0000
     18 ****         0.6796  -1.5377  -0.1217 N.am           1 S1                 0.0000
     19 ****        -0.6855  -1.9338  -0.1287 C.ar           1 S1                 0.0000
     20 ****        -0.9736  -3.2536   0.2800 C.ar           1 S1                 0.0000
     21 ****        -2.3020  -3.7188   0.3154 C.ar           1 S1                 0.0000
     22 ****        -3.3527  -2.8527  -0.0443 C.ar           1 S1                 0.0000
     23 ****        -5.0436  -3.4395  -0.0039 S.o2           1 S1                 0.0000
     24 ****        -5.8354  -2.6333  -0.9463 O.2            1 S1                 0.0000
     25 ****        -5.0278  -4.9057  -0.1270 O.2            1 S1                 0.0000
     26 ****        -5.5733  -3.0468   1.6063 N.pl3          1 S1                 0.0000
     27 ****        -5.8733  -1.6468   1.9539 C.3            1 S1                 0.0000
     28 ****        -4.7222  -1.0169   2.7583 C.3            1 S1                 0.0000
     29 ****        -4.4212  -1.8212   3.8897 O.3            1 S1                 0.0000
     30 ****        -3.9833  -3.1189   3.5135 C.3            1 S1                 0.0000
     31 ****        -5.0990  -3.8506   2.7463 C.3            1 S1                 0.0000
     32 ****        -3.0812  -1.5311  -0.4478 C.ar           1 S1                 0.0000
     33 ****        -1.7515  -1.0691  -0.4811 C.ar           1 S1                 0.0000
     34 ****         2.9425  -0.1012   0.4544 H              1 S1                 0.0000
     35 ****         3.2452  -1.4038  -0.6254 H              1 S1                 0.0000
     36 ****         5.1016   2.9400  -4.0112 H              1 S1                 0.0000
     37 ****         4.8335   4.6606  -2.6673 H              1 S1                 0.0000
     38 ****         5.5459   3.6025  -0.0211 H              1 S1                 0.0000
     39 ****         6.0577   5.1134  -0.7866 H              1 S1                 0.0000
     40 ****         3.7134   4.6477   1.0499 H              1 S1                 0.0000
     41 ****         4.7035   6.1005   0.9124 H              1 S1                 0.0000
     42 ****         2.2586   6.0925  -0.2372 H              1 S1                 0.0000
     43 ****         3.6148   6.7155  -1.1893 H              1 S1                 0.0000
     44 ****         1.2950  -2.1200   0.4275 H              1 S1                 0.0000
     45 ****        -0.1719  -3.9199   0.5644 H              1 S1                 0.0000
     46 ****        -2.5082  -4.7323   0.6263 H              1 S1                 0.0000
     47 ****        -6.0800  -1.0633   1.0571 H              1 S1                 0.0000
     48 ****        -6.7843  -1.6297   2.5528 H              1 S1                 0.0000
     49 ****        -3.8304  -0.8904   2.1447 H              1 S1                 0.0000
     50 ****        -5.0091  -0.0226   3.1007 H              1 S1                 0.0000
     51 ****        -3.0731  -3.0468   2.9182 H              1 S1                 0.0000
     52 ****        -3.7248  -3.6761   4.4140 H              1 S1                 0.0000
     53 ****        -5.9418  -4.0270   3.4153 H              1 S1                 0.0000
     54 ****        -4.7577  -4.8297   2.4114 H              1 S1                 0.0000
     55 ****        -3.8872  -0.8649  -0.7182 H              1 S1                 0.0000
     56 ****        -1.5764  -0.0439  -0.7677 H              1 S1                 0.0000
     57 ****         1.2120   0.8928  -2.1042 LP             1 S1                 0.0000
     58 ****        -0.2853   0.0918  -1.7633 LP             1 S1                 0.0000
     59 ****         3.3300  -1.8176  -2.4033 LP             1 S1                 0.0000
     60 ****         4.0883  -1.5377  -3.9352 LP             1 S1                 0.0000
     61 ****         2.4805   4.0700  -1.2452 LP             1 S1                 0.0000
     62 ****         2.7540   5.1056  -2.4778 LP             1 S1                 0.0000
     63 ****         2.6913   1.6634   0.5339 LP             1 S1                 0.0000
     64 ****         3.2458   3.2567   0.1417 LP             1 S1                 0.0000
     65 ****        -5.2428  -1.9076   4.4531 LP             1 S1                 0.0000
     66 ****        -3.6989  -1.3769   4.4196 LP             1 S1                 0.0000
@<TRIPOS>BOND
    1    1    2 2     
    2    2    3 1     
    3    2   18 am    
    4    3    4 1     
    5    3   34 1     
    6    3   35 1     
    7    4   16 am    
    8    4    5 am    
    9    5    6 2     
   10    5    7 1     
   11    7    8 1     
   12    7    9 2     
   13    9   10 1     
   14    9   36 1     
   15   10   11 1     
   16   10   16 am    
   17   11   15 1     
   18   11   12 1     
   19   11   37 1     
   20   12   13 1     
   21   12   38 1     
   22   12   39 1     
   23   13   14 1     
   24   13   40 1     
   25   13   41 1     
   26   14   15 1     
   27   14   42 1     
   28   14   43 1     
   29   16   17 2     
   30   18   19 1     
   31   18   44 1     
   32   19   33 ar    
   33   19   20 ar    
   34   20   21 ar    
   35   20   45 1     
   36   21   22 ar    
   37   21   46 1     
   38   22   23 1     
   39   22   32 ar    
   40   23   24 2     
   41   23   25 2     
   42   23   26 1     
   43   26   31 1     
   44   26   27 1     
   45   27   28 1     
   46   27   47 1     
   47   27   48 1     
   48   28   29 1     
   49   28   49 1     
   50   28   50 1     
   51   29   30 1     
   52   30   31 1     
   53   30   51 1     
   54   30   52 1     
   55   31   53 1     
   56   31   54 1     
   57   32   33 ar    
   58   32   55 1     
   59   33   56 1     
   60    1   57 1     
   61    1   58 1     
   62    6   59 1     
   63    6   60 1     
   64   15   61 1     
   65   15   62 1     
   66   17   63 1     
   67   17   64 1     
   68   29   65 1     
   69   29   66 1     
@<TRIPOS>SUBSTRUCTURE
      1 S1             1
@<TRIPOS>SET
LONE_PAIRS      STATIC     ATOMS    <user>   **** ""
12 57 58 59 60 61 62 63 64 24 25 65 66
DONOR_HYDROGENS      STATIC     ATOMS    <user>   **** ""
1 44
ATOM$BLUE        STATIC     ATOMS    COLORGROUP SYSTEM
12 57 58 59 60 61 62 63 64 24 25 65 66
ATOM$RED        STATIC     ATOMS    COLORGROUP SYSTEM
1 44
