AV-unprocessed.smi:3117|AV-procd|sdf|11883|dock8
  -GOLD-   2272017273D 1   1.00000     0.00000
 Structure written by MMmdl.
 36 36  0  0  0  0  0  0  0  0  1 V2000
  152.3285  139.5699  158.7348 C   0  0  0  0  0  0  0  0  0  0  0  0
  151.8374  140.2677  157.4457 C   0  0  1  0  0  0  0  0  0  0  0  0
  151.1511  139.3166  156.5627 N   0  0  0  0  0  0  0  0  0  0  0  0
  152.0041  138.3410  155.8802 C   0  0  0  0  0  0  0  0  0  0  0  0
  151.2229  137.5045  154.8430 C   0  0  0  0  0  0  0  0  0  0  0  0
  150.4200  136.3515  155.4763 C   0  0  0  0  0  0  0  0  0  0  0  0
  150.2870  138.4191  154.0354 C   0  0  0  0  0  0  0  0  0  0  0  0
  152.1486  136.9648  153.9194 O   0  0  0  0  0  0  0  0  0  0  0  0
  150.8957  141.4697  157.7325 C   0  0  2  0  0  0  0  0  0  0  0  0
  150.1104  141.9103  156.4814 C   0  0  0  0  0  0  0  0  0  0  0  0
  151.6003  142.6106  158.3057 N   0  0  0  0  0  0  0  0  0  0  0  0
  151.6442  143.9076  157.8371 C   0  0  0  0  0  0  0  0  0  0  0  0
  152.4222  144.6278  158.6976 C   0  0  0  0  0  0  0  0  0  0  0  0
  152.8151  143.6737  159.6768 C   0  0  0  0  0  0  0  0  0  0  0  0
  152.3219  142.4689  159.4413 N   0  0  0  0  0  0  0  0  0  0  0  0
  152.8650  140.2569  159.3889 H   0  0  0  0  0  0  0  0  0  0  0  0
  153.0233  138.7582  158.5233 H   0  0  0  0  0  0  0  0  0  0  0  0
  151.4943  139.1567  159.3025 H   0  0  0  0  0  0  0  0  0  0  0  0
  152.7170  140.6541  156.9290 H   0  0  0  0  0  0  0  0  0  0  0  0
  150.4284  138.8256  157.0796 H   0  0  0  0  0  0  0  0  0  0  0  0
  152.8174  138.8655  155.3774 H   0  0  0  0  0  0  0  0  0  0  0  0
  152.4694  137.6662  156.5982 H   0  0  0  0  0  0  0  0  0  0  0  0
  149.7132  136.7273  156.2169 H   0  0  0  0  0  0  0  0  0  0  0  0
  151.0667  135.6288  155.9750 H   0  0  0  0  0  0  0  0  0  0  0  0
  149.8493  135.8063  154.7237 H   0  0  0  0  0  0  0  0  0  0  0  0
  149.5337  138.8757  154.6784 H   0  0  0  0  0  0  0  0  0  0  0  0
  149.7612  137.8662  153.2562 H   0  0  0  0  0  0  0  0  0  0  0  0
  150.8384  139.2265  153.5514 H   0  0  0  0  0  0  0  0  0  0  0  0
  151.6697  136.6217  153.1807 H   0  0  0  0  0  0  0  0  0  0  0  0
  150.1669  141.1527  158.4807 H   0  0  0  0  0  0  0  0  0  0  0  0
  149.4654  141.1126  156.1123 H   0  0  0  0  0  0  0  0  0  0  0  0
  150.7792  142.1949  155.6685 H   0  0  0  0  0  0  0  0  0  0  0  0
  149.4717  142.7663  156.7017 H   0  0  0  0  0  0  0  0  0  0  0  0
  151.1230  144.2075  156.9400 H   0  0  0  0  0  0  0  0  0  0  0  0
  152.6722  145.6765  158.6370 H   0  0  0  0  0  0  0  0  0  0  0  0
  153.4396  143.8196  160.5456 H   0  0  0  0  0  0  0  0  0  0  0  0
  1  2  1  0  0  0  0
  1 16  1  0  0  0  0
  1 17  1  0  0  0  0
  1 18  1  0  0  0  0
  2  3  1  0  0  0  0
  2  9  1  0  0  0  0
  2 19  1  0  0  0  0
  3  4  1  0  0  0  0
  3 20  1  0  0  0  0
  4  5  1  0  0  0  0
  4 21  1  0  0  0  0
  4 22  1  0  0  0  0
  5  6  1  0  0  0  0
  5  7  1  0  0  0  0
  5  8  1  0  0  0  0
  6 23  1  0  0  0  0
  6 24  1  0  0  0  0
  6 25  1  0  0  0  0
  7 26  1  0  0  0  0
  7 27  1  0  0  0  0
  7 28  1  0  0  0  0
  8 29  1  0  0  0  0
  9 10  1  0  0  0  0
  9 11  1  0  0  0  0
  9 30  1  0  0  0  0
 10 31  1  0  0  0  0
 10 32  1  0  0  0  0
 10 33  1  0  0  0  0
 11 15  1  0  0  0  0
 11 12  1  0  0  0  0
 12 13  2  0  0  0  0
 12 34  1  0  0  0  0
 13 14  1  0  0  0  0
 13 35  1  0  0  0  0
 14 15  2  0  0  0  0
 14 36  1  0  0  0  0
M  END
> <s_m_source_file>
AV-unprocessed.smi

> <i_m_source_file_index>
3117

> <i_lp_mmshare_version>
43012

> <i_f3d_flags>
0

> <s_epik_input>
W0NIM11DKFtDSDNdKShbT0hdKVtDSDJdW05IXVtDQEBIXShbQ0gzXSlbQ0BIXShbQ0gzXSluMVtjSF1bY0hdW2NIXW4x

> <s_epik_cmdline>
J2VwaWtfcHl0aG9uJywgJy1waCcsICc3LjAnLCAnLXRuJywgJzgnLCAnLW1hJywgJzIwMCcsICctbWV0YWxfYmluZGluZycsICctaW1hZScsICc8aW5maWxlLm1hZT4nLCAnLW9tYWUnLCAnPG91dGZpbGUubWFlPic=

> <r_lp_tautomer_probability>
1

> <r_epik_Ionization_Penalty>
2.13419

> <r_epik_Ionization_Penalty_Charging>
0

> <r_epik_Ionization_Penalty_Neutral>
2.13419

> <r_epik_State_Penalty>
2.27148

> <r_epik_Charging_Adjusted_Penalty>
2.27148

> <i_epik_Tot_Q>
0

> <i_epik_Tot_abs_Q>
0

> <r_epik_Metal_State_Penalty>
2.27029

> <b_epik_Metal_Only>
0

> <s_lp_Force_Field>
OPLS_2005

> <r_lp_Energy>
18.8486

> <b_lp_Chiralities_Consistent>
1

> <s_lp_Variant>
AV-unprocessed.smi:3117-6

> <Gold.Version>
5.8.1

> <Gold.Id.Protein>
6NUR|6NUR_protein|mol2

> <Gold.PLP.Fitness>
41.2671

> <Gold.PLP.PLP>
-33.5717

> <Gold.PLP.part.hbond>
-2.0000

> <Gold.PLP.part.metal>
0.0000

> <Gold.PLP.part.buried>
-3.9902

> <Gold.PLP.part.nonpolar>
-29.3856

> <Gold.PLP.part.repulsive>
0.0000

> <Gold.PLP.ligand.clash>
0.0000

> <Gold.PLP.ligand.torsion>
0.6464

> <Gold.PLP.Chemscore.Hbond>
1.9600

> <Gold.PLP.Chemscore.CHOScore>
1.0000

> <Gold.PLP.Chemscore.Metal>
0.0000

> <Gold.Chemscore.Hbonds>
donor molecule, donor type, donor heavy atom, donor atom, acceptor molecule, acceptor atom, score
      L1  H     8    29       P1  7949  1.00
      P1  H 10752 10764       L1     8  0.86
      L1  C    12    34       P1  8028  0.83

> <Gold.PLP.Chemscore.Internal.Correction>
0.1082

> <Gold.Rescore>
     Score         DG    S(hbond)    S(metal)    S(lipo)     H(rot)  DE(clash)    DE(int)     intcor
     14.19     -16.07       1.69        0.00      90.02       2.19       0.14       1.75       ----

> <Gold.Chemscore.Fitness>
14.1880

> <Gold.Chemscore.DG>
-16.0683

> <Gold.Chemscore.ZeroCoef>
-5.4800

> <Gold.Chemscore.Hbond>
1.6938

> <Gold.Chemscore.Metal>
0.0000

> <Gold.Chemscore.Lipo>
90.0231

> <Gold.Chemscore.Internal_Hbond>
0.0000

> <Gold.Chemscore.DEClash>
0.1351

> <Gold.Chemscore.DEInternal>
1.7452

> <Gold.Chemscore.Rot>
2.1882

> <Gold.Chemscore.Internal.Correction>
   9.000000E+99

> <Gold.Chemscore.Hbonds>
donor molecule, donor type, donor heavy atom, donor atom, acceptor molecule, acceptor atom, score
      L1  H     8    29       P1  7949  0.98
      P1  H 10752 10764       L1     8  0.16

> <Gold.Chemscore.Hbond.Weighted>
-5.6574

> <Gold.Chemscore.Metal.Weighted>
-0.0000

> <Gold.Chemscore.Lipo.Weighted>
-10.5327

> <Gold.Chemscore.Internal_Hbond.Weighted>
0.0000

> <Gold.Chemscore.DEClash.Weighted>
0.1351

> <Gold.Chemscore.DEInternal.Weighted>
1.7452

> <Gold.Chemscore.Rot.Weighted>
5.6018

> <Gold.Chemscore.Internal.Correction.Weighted>
   9.000000E+99

> <Gold.Protein.RotatedTorsions>
[ 6907 6896 6895 6894 ] final   33.73 input  -60.11 | X-H torsion
[ 7974 7965 7964 7962 ] final   95.62 input  175.53 | X-H torsion
[ 8008 7997 7996 7995 ] final   53.22 input   59.86 | X-H torsion
[ 10167 10162 10161 10158 ] final  154.16 input  -65.29 | X-H torsion
[ 10718 10713 10712 10709 ] final   60.76 input   66.30 | X-H torsion
[ 10763 10752 10751 10750 ] final  -78.30 input  -60.55 | X-H torsion
[ 11005 11000 10999 10996 ] final  -51.69 input  -57.11 | X-H torsion

> <Gold.Protein.ActiveResidues>
 VAL166  LYS551  ARG553  GLY616  TRP617  ASP618  TYR619  PRO620  LYS621  CYS622 
 ASP623  PHE694  ASN695  SER759  ASP760  ASP761  ALA762  ILE779  LEU786  VAL792 
 PHE793  MET794  SER795  GLU796  ALA797  LYS798  CYS799  TRP800  GLU811  SER814 

> <Gold.Protein.RotatedAtoms>
  152.0925  134.9397  160.0571 H   0  0  0  0  0  0  0  0  0  0  0  0  # atno 6907 bound_to 6896
  152.0643  133.4072  159.4440 H   0  0  0  0  0  0  0  0  0  0  0  0  # atno 6908 bound_to 6896
  150.6837  134.3084  159.4779 H   0  0  0  0  0  0  0  0  0  0  0  0  # atno 6909 bound_to 6896
  145.4498  139.2294  143.3046 H   0  0  0  0  0  0  0  0  0  0  0  0  # atno 7974 bound_to 7965
  155.4647  140.3463  155.4317 H   0  0  0  0  0  0  0  0  0  0  0  0  # atno 8008 bound_to 7997
  156.1139  140.1468  156.9330 H   0  0  0  0  0  0  0  0  0  0  0  0  # atno 8009 bound_to 7997
  154.4775  140.0880  156.7276 H   0  0  0  0  0  0  0  0  0  0  0  0  # atno 8010 bound_to 7997
  139.4824  144.5210  151.7875 H   0  0  0  0  0  0  0  0  0  0  0  0  # atno 10167 bound_to 10162
  157.5777  130.8957  149.9376 H   0  0  0  0  0  0  0  0  0  0  0  0  # atno 10718 bound_to 10713
  154.5241  135.5734  153.6705 H   0  0  0  0  0  0  0  0  0  0  0  0  # atno 10763 bound_to 10752
  152.9924  135.6189  154.2715 H   0  0  0  0  0  0  0  0  0  0  0  0  # atno 10764 bound_to 10752
  154.2638  135.2855  155.2746 H   0  0  0  0  0  0  0  0  0  0  0  0  # atno 10765 bound_to 10752
  141.0885  133.6637  156.3915 H   0  0  0  0  0  0  0  0  0  0  0  0  # atno 11005 bound_to 11000
  146.2511  140.5255  142.8893 LP  0  0  0  0  0  0  0  0  0  0  0  0  # atno 17320 bound_to 7965
  144.8069  140.6315  143.6441 LP  0  0  0  0  0  0  0  0  0  0  0  0  # atno 17321 bound_to 7965
  140.4724  144.1567  150.5920 LP  0  0  0  0  0  0  0  0  0  0  0  0  # atno 17342 bound_to 10162
  140.4367  143.2544  151.9526 LP  0  0  0  0  0  0  0  0  0  0  0  0  # atno 17343 bound_to 10162
  156.0822  130.3672  150.0558 LP  0  0  0  0  0  0  0  0  0  0  0  0  # atno 17370 bound_to 10713
  156.8702  130.9521  151.3610 LP  0  0  0  0  0  0  0  0  0  0  0  0  # atno 17371 bound_to 10713
  140.5308  134.6214  157.5349 LP  0  0  0  0  0  0  0  0  0  0  0  0  # atno 17394 bound_to 11000
  139.9706  134.7299  156.0049 LP  0  0  0  0  0  0  0  0  0  0  0  0  # atno 17395 bound_to 11000

$$$$
