#       Name:                AV-unprocessed.smi:1644
#       Creating user name   scv26
#       Creation time:       Fri Mar 27 07:30:10 2020


#       File generated by GOLD software.
#

@<TRIPOS>MOLECULE
AV-unprocessed.smi:1644
    56    58     1
SMALL
NO_CHARGES


@<TRIPOS>ATOM
      1 ****        -6.3450   3.9938   3.3290 C.3            1 S1                 0.0000
      2 ****        -4.9940   3.8922   2.6122 C.3            1 S1                 0.0000
      3 ****        -4.4229   2.4649   2.6320 C.3            1 S1                 0.0000
      4 ****        -3.0521   2.3467   1.9319 C.3            1 S1                 0.0000
      5 ****        -3.1811   2.4369   0.4919 N.pl3          1 S1                -1.0000
      6 ****        -2.6985   1.2996  -0.0598 C.2            1 S1                 0.0000
      7 ****        -2.6352   1.0355  -1.2600 O.2            1 S1                 0.0000
      8 ****        -2.2656   0.4473   0.8893 N.am           1 S1                 0.0000
      9 ****        -1.6816  -0.8764   0.6424 C.3            1 S1                 0.0000
     10 ****        -0.1410  -0.8673   0.7177 C.3            1 S1                 0.0000
     11 ****         0.3062  -2.2025   0.5902 O.3            1 S1                 0.0000
     12 ****         0.5200   0.0241  -0.3552 C.3            1 S1                 0.0000
     13 ****         1.9875  -0.0362  -0.3266 N.pl3          1 S1                 0.0000
     14 ****         2.8690   0.6552   0.4446 C.2            1 S1                 0.0000
     15 ****         4.1225   0.2521   0.0968 N.pl3          1 S1                 1.0000
     16 ****         4.0392  -0.7113  -0.9110 C.ar           1 S1                 0.0000
     17 ****         5.0325  -1.4119  -1.5851 C.ar           1 S1                 0.0000
     18 ****         4.6153  -2.3378  -2.5681 C.ar           1 S1                 0.0000
     19 ****         5.6755  -3.1196  -3.3251 C.3            1 S1                 0.0000
     20 ****         3.2380  -2.5381  -2.8444 C.ar           1 S1                 0.0000
     21 ****         2.7998  -3.5393  -3.8995 C.3            1 S1                 0.0000
     22 ****         2.2435  -1.8150  -2.1484 C.ar           1 S1                 0.0000
     23 ****         2.6715  -0.9035  -1.1860 C.ar           1 S1                 0.0000
     24 ****        -2.4365   0.9731   2.1062 C.2            1 S1                 0.0000
     25 ****        -2.1492   0.4667   3.1914 O.2            1 S1                 0.0000
     26 ****        -6.7233   5.0158   3.3015 H              1 S1                 0.0000
     27 ****        -6.2591   3.6982   4.3749 H              1 S1                 0.0000
     28 ****        -7.0890   3.3509   2.8579 H              1 S1                 0.0000
     29 ****        -5.1114   4.2296   1.5818 H              1 S1                 0.0000
     30 ****        -4.2853   4.5756   3.0810 H              1 S1                 0.0000
     31 ****        -4.3241   2.1501   3.6720 H              1 S1                 0.0000
     32 ****        -5.1381   1.7769   2.1774 H              1 S1                 0.0000
     33 ****        -2.3595   3.0861   2.3362 H              1 S1                 0.0000
     34 ****        -2.0814  -1.5757   1.3791 H              1 S1                 0.0000
     35 ****        -2.0053  -1.2628  -0.3256 H              1 S1                 0.0000
     36 ****         0.1691  -0.5216   1.7046 H              1 S1                 0.0000
     37 ****        -0.0878  -2.7155   1.2794 H              1 S1                 0.0000
     38 ****         0.1666  -0.2316  -1.3541 H              1 S1                 0.0000
     39 ****         0.2473   1.0678  -0.1958 H              1 S1                 0.0000
     40 ****         2.6184   1.3909   1.1952 H              1 S1                 0.0000
     41 ****         6.0789  -1.2561  -1.3674 H              1 S1                 0.0000
     42 ****         5.5923  -2.9395  -4.3972 H              1 S1                 0.0000
     43 ****         5.5649  -4.1890  -3.1436 H              1 S1                 0.0000
     44 ****         6.6810  -2.8308  -3.0171 H              1 S1                 0.0000
     45 ****         1.7130  -3.5873  -3.9764 H              1 S1                 0.0000
     46 ****         3.1603  -4.5385  -3.6536 H              1 S1                 0.0000
     47 ****         3.1909  -3.2595  -4.8780 H              1 S1                 0.0000
     48 ****         1.1950  -1.9717  -2.3550 H              1 S1                 0.0000
     49 ****         4.9699   0.6100   0.5183 H              1 S1                 0.0000
     50 ****        -3.5637   3.2117  -0.0114 LP             1 S1                 0.0000
     51 ****        -2.9612   1.6970  -1.9354 LP             1 S1                 0.0000
     52 ****        -2.2578   0.1594  -1.5600 LP             1 S1                 0.0000
     53 ****         1.3023  -2.2346   0.6723 LP             1 S1                 0.0000
     54 ****         0.0333  -2.5667  -0.3003 LP             1 S1                 0.0000
     55 ****        -2.3206   0.9693   4.0387 LP             1 S1                 0.0000
     56 ****        -1.7445  -0.4472   3.2252 LP             1 S1                 0.0000
@<TRIPOS>BOND
    1    1    2 1     
    2    1   26 1     
    3    1   27 1     
    4    1   28 1     
    5    2    3 1     
    6    2   29 1     
    7    2   30 1     
    8    3    4 1     
    9    3   31 1     
   10    3   32 1     
   11    4   24 1     
   12    4    5 1     
   13    4   33 1     
   14    5    6 1     
   15    6    7 2     
   16    6    8 am    
   17    8    9 1     
   18    8   24 am    
   19    9   10 1     
   20    9   34 1     
   21    9   35 1     
   22   10   11 1     
   23   10   12 1     
   24   10   36 1     
   25   11   37 1     
   26   12   13 1     
   27   12   38 1     
   28   12   39 1     
   29   13   23 1     
   30   13   14 1     
   31   14   15 2     
   32   14   40 1     
   33   15   16 1     
   34   15   49 1     
   35   16   23 ar    
   36   16   17 ar    
   37   17   18 ar    
   38   17   41 1     
   39   18   19 1     
   40   18   20 ar    
   41   19   42 1     
   42   19   43 1     
   43   19   44 1     
   44   20   21 1     
   45   20   22 ar    
   46   21   45 1     
   47   21   46 1     
   48   21   47 1     
   49   22   23 ar    
   50   22   48 1     
   51   24   25 2     
   52    5   50 1     
   53    7   51 1     
   54    7   52 1     
   55   11   53 1     
   56   11   54 1     
   57   25   55 1     
   58   25   56 1     
@<TRIPOS>SUBSTRUCTURE
      1 S1             1
@<TRIPOS>SET
LONE_PAIRS      STATIC     ATOMS    <user>   **** ""
7 50 51 52 53 54 55 56
DONOR_HYDROGENS      STATIC     ATOMS    <user>   **** ""
2 37 49
ATOM$BLUE        STATIC     ATOMS    COLORGROUP SYSTEM
7 50 51 52 53 54 55 56
ATOM$RED        STATIC     ATOMS    COLORGROUP SYSTEM
2 37 49
