AV-unprocessed.smi:1703|AV-procd|sdf|6857|dock8
  -GOLD-   22720 8 43D 1   1.00000     0.00000
 Structure written by MMmdl.
 48 50  0  0  0  0  0  0  0  0  1 V2000
  146.2773  138.2588  152.5503 C   0  0  0  0  0  0  0  0  0  0  0  0
  146.9912  138.9694  153.7049 C   0  0  1  0  0  0  0  0  0  0  0  0
  148.4882  138.6168  153.7658 C   0  0  0  0  0  0  0  0  0  0  0  0
  149.1783  139.3553  154.8153 N   0  0  0  0  0  0  0  0  0  0  0  0
  150.5878  138.9728  154.8920 C   0  0  0  0  0  0  0  0  0  0  0  0
  151.4114  139.7269  155.9579 C   0  0  2  0  0  0  0  0  0  0  0  0
  152.7891  139.5401  155.6949 O   0  0  0  0  0  0  0  0  0  0  0  0
  151.1019  139.2272  157.3841 C   0  0  0  0  0  0  0  0  0  0  0  0
  151.9240  139.8710  158.4010 N   0  0  0  0  0  0  0  0  0  0  0  0
  152.7576  139.2821  159.2956 C   0  0  0  0  0  0  0  0  0  0  0  0
  152.9400  137.7906  159.3305 C   0  0  0  0  0  0  0  0  0  0  0  0
  151.7488  137.0707  159.5774 O   0  0  0  0  0  0  0  0  0  0  0  0
  153.3994  140.1143  160.1192 N   0  0  0  0  0  0  0  0  0  0  0  0
  152.9407  141.3544  159.7215 C   0  0  0  0  0  0  0  0  0  0  0  0
  153.2479  142.6457  160.2067 C   0  0  0  0  0  0  0  0  0  0  0  0
  152.6468  143.7854  159.6332 C   0  0  0  0  0  0  0  0  0  0  0  0
  151.7331  143.6504  158.5680 C   0  0  0  0  0  0  0  0  0  0  0  0
  151.4138  142.3728  158.0692 C   0  0  0  0  0  0  0  0  0  0  0  0
  152.0158  141.2381  158.6458 C   0  0  0  0  0  0  0  0  0  0  0  0
  148.9975  140.7873  154.5877 C   0  0  0  0  0  0  0  0  0  0  0  0
  147.5132  141.1909  154.4832 C   0  0  2  0  0  0  0  0  0  0  0  0
  146.7855  141.1871  155.8385 C   0  0  0  0  0  0  0  0  0  0  0  0
  146.8439  140.3759  153.5195 O   0  0  0  0  0  0  0  0  0  0  0  0
  146.3443  137.1757  152.6552 H   0  0  0  0  0  0  0  0  0  0  0  0
  146.7136  138.5301  151.5883 H   0  0  0  0  0  0  0  0  0  0  0  0
  145.2204  138.5248  152.5239 H   0  0  0  0  0  0  0  0  0  0  0  0
  146.5097  138.6746  154.6378 H   0  0  0  0  0  0  0  0  0  0  0  0
  148.5956  137.5451  153.9381 H   0  0  0  0  0  0  0  0  0  0  0  0
  148.9530  138.8253  152.8006 H   0  0  0  0  0  0  0  0  0  0  0  0
  150.6238  137.9115  155.1419 H   0  0  0  0  0  0  0  0  0  0  0  0
  151.0612  139.0518  153.9116 H   0  0  0  0  0  0  0  0  0  0  0  0
  151.1933  140.7938  155.9026 H   0  0  0  0  0  0  0  0  0  0  0  0
  152.9061  138.6963  155.2865 H   0  0  0  0  0  0  0  0  0  0  0  0
  150.0530  139.3999  157.6257 H   0  0  0  0  0  0  0  0  0  0  0  0
  151.2498  138.1483  157.4479 H   0  0  0  0  0  0  0  0  0  0  0  0
  153.3499  137.4521  158.3795 H   0  0  0  0  0  0  0  0  0  0  0  0
  153.6636  137.5398  160.1066 H   0  0  0  0  0  0  0  0  0  0  0  0
  151.0133  137.6309  159.3831 H   0  0  0  0  0  0  0  0  0  0  0  0
  153.9468  142.7593  161.0222 H   0  0  0  0  0  0  0  0  0  0  0  0
  152.8882  144.7676  160.0125 H   0  0  0  0  0  0  0  0  0  0  0  0
  151.2768  144.5282  158.1342 H   0  0  0  0  0  0  0  0  0  0  0  0
  150.7131  142.2672  157.2547 H   0  0  0  0  0  0  0  0  0  0  0  0
  149.4641  141.3623  155.3873 H   0  0  0  0  0  0  0  0  0  0  0  0
  149.5069  141.0733  153.6661 H   0  0  0  0  0  0  0  0  0  0  0  0
  147.4706  142.2120  154.1032 H   0  0  0  0  0  0  0  0  0  0  0  0
  147.2427  141.8998  156.5250 H   0  0  0  0  0  0  0  0  0  0  0  0
  146.8163  140.2091  156.3183 H   0  0  0  0  0  0  0  0  0  0  0  0
  145.7391  141.4684  155.7192 H   0  0  0  0  0  0  0  0  0  0  0  0
  1  2  1  0  0  0  0
  1 24  1  0  0  0  0
  1 25  1  0  0  0  0
  1 26  1  0  0  0  0
  2 23  1  0  0  0  0
  2  3  1  0  0  0  0
  2 27  1  0  0  0  0
  3  4  1  0  0  0  0
  3 28  1  0  0  0  0
  3 29  1  0  0  0  0
  4  5  1  0  0  0  0
  4 20  1  0  0  0  0
  5  6  1  0  0  0  0
  5 30  1  0  0  0  0
  5 31  1  0  0  0  0
  6  7  1  0  0  0  0
  6  8  1  0  0  0  0
  6 32  1  0  0  0  0
  7 33  1  0  0  0  0
  8  9  1  0  0  0  0
  8 34  1  0  0  0  0
  8 35  1  0  0  0  0
  9 19  1  0  0  0  0
  9 10  1  0  0  0  0
 10 11  1  0  0  0  0
 10 13  2  0  0  0  0
 11 12  1  0  0  0  0
 11 36  1  0  0  0  0
 11 37  1  0  0  0  0
 12 38  1  0  0  0  0
 13 14  1  0  0  0  0
 14 19  2  0  0  0  0
 14 15  1  0  0  0  0
 15 16  2  0  0  0  0
 15 39  1  0  0  0  0
 16 17  1  0  0  0  0
 16 40  1  0  0  0  0
 17 18  2  0  0  0  0
 17 41  1  0  0  0  0
 18 19  1  0  0  0  0
 18 42  1  0  0  0  0
 20 21  1  0  0  0  0
 20 43  1  0  0  0  0
 20 44  1  0  0  0  0
 21 22  1  0  0  0  0
 21 23  1  0  0  0  0
 21 45  1  0  0  0  0
 22 46  1  0  0  0  0
 22 47  1  0  0  0  0
 22 48  1  0  0  0  0
M  END
> <s_m_source_file>
AV-unprocessed.smi

> <i_m_source_file_index>
1703

> <i_lp_mmshare_version>
43012

> <i_f3d_flags>
0

> <s_epik_input>
W0NIM11bQ0BASF0xW0NIMl1OKFtDSDJdW0NASF0oTzEpW0NIM10pW0NIMl1bQ0BIXShbT0hdKVtDSDJdbihjKG4yKVtDSDJdW09IXSljKGMyMylbY0hdW2NIXVtjSF1bY0hdMw==

> <s_epik_cmdline>
J2VwaWtfcHl0aG9uJywgJy1waCcsICc3LjAnLCAnLXRuJywgJzgnLCAnLW1hJywgJzIwMCcsICctbWV0YWxfYmluZGluZycsICctaW1hZScsICc8aW5maWxlLm1hZT4nLCAnLW9tYWUnLCAnPG91dGZpbGUubWFlPic=

> <r_epik_Ionization_Penalty>
0.307685

> <r_epik_Ionization_Penalty_Charging>
0

> <r_epik_Ionization_Penalty_Neutral>
0.307685

> <r_epik_State_Penalty>
0.277856

> <r_epik_Charging_Adjusted_Penalty>
0.277856

> <i_epik_Tot_Q>
0

> <i_epik_Tot_abs_Q>
0

> <r_epik_Metal_State_Penalty>
0.238959

> <b_epik_Metal_Only>
0

> <s_lp_Force_Field>
OPLS_2005

> <r_lp_Energy>
32.6891

> <b_lp_Chiralities_Consistent>
1

> <s_lp_Variant>
AV-unprocessed.smi:1703-5

> <Gold.Version>
5.8.1

> <Gold.Id.Protein>
6NUR|6NUR_protein|mol2

> <Gold.PLP.Fitness>
51.8765

> <Gold.PLP.PLP>
-46.1834

> <Gold.PLP.part.hbond>
-1.9757

> <Gold.PLP.part.metal>
0.0000

> <Gold.PLP.part.buried>
-3.1334

> <Gold.PLP.part.nonpolar>
-42.8731

> <Gold.PLP.part.repulsive>
0.2853

> <Gold.PLP.ligand.clash>
0.0000

> <Gold.PLP.ligand.torsion>
0.1328

> <Gold.PLP.Chemscore.Hbond>
1.9588

> <Gold.PLP.Chemscore.CHOScore>
0.0000

> <Gold.PLP.Chemscore.Metal>
0.0000

> <Gold.Chemscore.Hbonds>
donor molecule, donor type, donor heavy atom, donor atom, acceptor molecule, acceptor atom, score
      P1  H  6896  6909       L1    12  1.00
      P1  H  7997  8008       L1     7  1.00

> <Gold.PLP.Chemscore.Internal.Correction>
0.0825

> <Gold.Rescore>
     Score         DG    S(hbond)    S(metal)    S(lipo)     H(rot)  DE(clash)    DE(int)     intcor
     18.53     -18.66       1.93        0.00     120.41       2.88       0.04       0.09       ----

> <Gold.Chemscore.Fitness>
18.5317

> <Gold.Chemscore.DG>
-18.6580

> <Gold.Chemscore.ZeroCoef>
-5.4800

> <Gold.Chemscore.Hbond>
1.9334

> <Gold.Chemscore.Metal>
0.0000

> <Gold.Chemscore.Lipo>
120.4061

> <Gold.Chemscore.Internal_Hbond>
0.0000

> <Gold.Chemscore.DEClash>
0.0402

> <Gold.Chemscore.DEInternal>
0.0861

> <Gold.Chemscore.Rot>
2.8778

> <Gold.Chemscore.Internal.Correction>
   9.000000E+99

> <Gold.Chemscore.Hbonds>
donor molecule, donor type, donor heavy atom, donor atom, acceptor molecule, acceptor atom, score
      P1  H  6896  6909       L1    12  0.95
      P1  H  7997  8008       L1     7  0.74

> <Gold.Chemscore.Hbond.Weighted>
-6.4576

> <Gold.Chemscore.Metal.Weighted>
-0.0000

> <Gold.Chemscore.Lipo.Weighted>
-14.0875

> <Gold.Chemscore.Internal_Hbond.Weighted>
0.0000

> <Gold.Chemscore.DEClash.Weighted>
0.0402

> <Gold.Chemscore.DEInternal.Weighted>
0.0861

> <Gold.Chemscore.Rot.Weighted>
7.3671

> <Gold.Chemscore.Internal.Correction.Weighted>
   9.000000E+99

> <Gold.Protein.RotatedTorsions>
[ 6907 6896 6895 6894 ] final  110.32 input  -60.11 | X-H torsion
[ 7974 7965 7964 7962 ] final  178.46 input  175.53 | X-H torsion
[ 8008 7997 7996 7995 ] final  -41.06 input   59.86 | X-H torsion
[ 10167 10162 10161 10158 ] final   89.94 input  -65.29 | X-H torsion
[ 10718 10713 10712 10709 ] final  -18.51 input   66.30 | X-H torsion
[ 10763 10752 10751 10750 ] final    4.14 input  -60.55 | X-H torsion
[ 11005 11000 10999 10996 ] final   35.03 input  -57.11 | X-H torsion

> <Gold.Protein.ActiveResidues>
 VAL166  LYS551  ARG553  GLY616  TRP617  ASP618  TYR619  PRO620  LYS621  CYS622 
 ASP623  PHE694  ASN695  SER759  ASP760  ASP761  ALA762  ILE779  LEU786  VAL792 
 PHE793  MET794  SER795  GLU796  ALA797  LYS798  CYS799  TRP800  GLU811  SER814 

> <Gold.Protein.RotatedAtoms>
  152.5025  133.8817  159.7349 H   0  0  0  0  0  0  0  0  0  0  0  0  # atno 6907 bound_to 6896
  150.9278  133.6794  159.2824 H   0  0  0  0  0  0  0  0  0  0  0  0  # atno 6908 bound_to 6896
  151.4149  135.0994  159.9649 H   0  0  0  0  0  0  0  0  0  0  0  0  # atno 6909 bound_to 6896
  144.7156  140.0401  143.6437 H   0  0  0  0  0  0  0  0  0  0  0  0  # atno 7974 bound_to 7965
  154.4007  140.1509  156.3128 H   0  0  0  0  0  0  0  0  0  0  0  0  # atno 8008 bound_to 7997
  155.8600  140.3454  155.5728 H   0  0  0  0  0  0  0  0  0  0  0  0  # atno 8009 bound_to 7997
  155.7891  140.0854  157.2009 H   0  0  0  0  0  0  0  0  0  0  0  0  # atno 8010 bound_to 7997
  139.8522  144.6587  150.9156 H   0  0  0  0  0  0  0  0  0  0  0  0  # atno 10167 bound_to 10162
  156.5586  130.4719  149.6417 H   0  0  0  0  0  0  0  0  0  0  0  0  # atno 10718 bound_to 10713
  153.2748  135.6935  153.7444 H   0  0  0  0  0  0  0  0  0  0  0  0  # atno 10763 bound_to 10752
  153.6454  135.3386  155.3085 H   0  0  0  0  0  0  0  0  0  0  0  0  # atno 10764 bound_to 10752
  154.8476  135.4441  154.1782 H   0  0  0  0  0  0  0  0  0  0  0  0  # atno 10765 bound_to 10752
  140.2468  134.3349  155.7905 H   0  0  0  0  0  0  0  0  0  0  0  0  # atno 11005 bound_to 11000
  146.0031  139.3107  143.0916 LP  0  0  0  0  0  0  0  0  0  0  0  0  # atno 17320 bound_to 7965
  145.8770  140.9386  143.0621 LP  0  0  0  0  0  0  0  0  0  0  0  0  # atno 17321 bound_to 7965
  140.7786  143.3817  151.1465 LP  0  0  0  0  0  0  0  0  0  0  0  0  # atno 17342 bound_to 10162
  139.7454  143.8860  152.3062 LP  0  0  0  0  0  0  0  0  0  0  0  0  # atno 17343 bound_to 10162
  156.2819  130.7076  151.1902 LP  0  0  0  0  0  0  0  0  0  0  0  0  # atno 17370 bound_to 10713
  157.7373  131.0553  150.5363 LP  0  0  0  0  0  0  0  0  0  0  0  0  # atno 17371 bound_to 10713
  141.2205  133.7330  156.8974 LP  0  0  0  0  0  0  0  0  0  0  0  0  # atno 17394 bound_to 11000
  140.1597  134.9174  157.2699 LP  0  0  0  0  0  0  0  0  0  0  0  0  # atno 17395 bound_to 11000

$$$$
