#       Name:                AV-unprocessed.smi:2691
#       Creating user name   scv26
#       Creation time:       Fri Mar 27 14:42:25 2020


#       File generated by GOLD software.
#

@<TRIPOS>MOLECULE
AV-unprocessed.smi:2691
    55    57     1
SMALL
NO_CHARGES


@<TRIPOS>ATOM
      1 ****        -0.7732  -5.5054   0.7593 C.3            1 S1                 0.0000
      2 ****        -0.9171  -4.3046  -0.1588 C.ar           1 S1                 0.0000
      3 ****        -0.1078  -4.2222  -1.3141 C.ar           1 S1                 0.0000
      4 ****        -0.2071  -3.1202  -2.1911 C.ar           1 S1                 0.0000
      5 ****         0.4762  -2.8397  -3.3620 N.2            1 S1                 0.0000
      6 ****        -0.0568  -1.6721  -3.7092 C.2            1 S1                 0.0000
      7 ****        -0.9993  -1.1573  -2.8961 N.pl3          1 S1                 0.0000
      8 ****        -1.7059   0.1008  -3.0591 C.3            1 S1                 0.0000
      9 ****        -1.2925   1.1484  -2.0059 C.3            1 S1                 0.0000
     10 ****        -2.0859   2.2953  -2.2322 O.3            1 S1                 0.0000
     11 ****         0.2000   1.5554  -2.0836 C.3            1 S1                 0.0000
     12 ****         0.7510   1.8662  -0.7557 N.am           1 S1                 0.0000
     13 ****         0.8079   3.2279  -0.4049 C.2            1 S1                 0.0000
     14 ****         1.2636   3.6171   0.7429 N.2            1 S1                 0.0000
     15 ****         1.7137   2.6697   1.6710 C.2            1 S1                 0.0000
     16 ****         2.2332   3.1811   3.0084 C.3            1 S1                 0.0000
     17 ****         1.1682   3.9985   3.7573 C.3            1 S1                 0.0000
     18 ****         3.5353   3.9774   2.8328 C.3            1 S1                 0.0000
     19 ****         1.6721   1.3473   1.3810 C.2            1 S1                 0.0000
     20 ****         1.1625   0.8785   0.0924 C.2            1 S1                 0.0000
     21 ****         1.1039  -0.3152  -0.2031 O.2            1 S1                 0.0000
     22 ****        -1.1446  -2.0931  -1.8776 C.ar           1 S1                 0.0000
     23 ****        -1.9597  -2.1664  -0.7342 C.ar           1 S1                 0.0000
     24 ****        -1.8480  -3.2748   0.1311 C.ar           1 S1                 0.0000
     25 ****        -2.7298  -3.3426   1.3653 C.3            1 S1                 0.0000
     26 ****         0.0066  -6.1827   0.4096 H              1 S1                 0.0000
     27 ****        -1.7074  -6.0655   0.8049 H              1 S1                 0.0000
     28 ****        -0.5098  -5.1860   1.7677 H              1 S1                 0.0000
     29 ****         0.6003  -5.0068  -1.5363 H              1 S1                 0.0000
     30 ****         0.2647  -1.1545  -4.6011 H              1 S1                 0.0000
     31 ****        -1.5227   0.4791  -4.0661 H              1 S1                 0.0000
     32 ****        -2.7752  -0.1044  -2.9905 H              1 S1                 0.0000
     33 ****        -1.5355   0.7621  -1.0153 H              1 S1                 0.0000
     34 ****        -1.9148   2.9201  -1.5441 H              1 S1                 0.0000
     35 ****         0.7970   0.7482  -2.5089 H              1 S1                 0.0000
     36 ****         0.3408   2.3753  -2.7913 H              1 S1                 0.0000
     37 ****         0.4401   3.9232  -1.1614 H              1 S1                 0.0000
     38 ****         2.4661   2.3135   3.6273 H              1 S1                 0.0000
     39 ****         0.2561   3.4180   3.8987 H              1 S1                 0.0000
     40 ****         0.9046   4.9077   3.2159 H              1 S1                 0.0000
     41 ****         1.5253   4.2949   4.7439 H              1 S1                 0.0000
     42 ****         4.2936   3.3815   2.3239 H              1 S1                 0.0000
     43 ****         3.9447   4.2752   3.7984 H              1 S1                 0.0000
     44 ****         3.3753   4.8833   2.2471 H              1 S1                 0.0000
     45 ****         2.0168   0.6216   2.1032 H              1 S1                 0.0000
     46 ****        -2.6621  -1.3739  -0.5231 H              1 S1                 0.0000
     47 ****        -3.4258  -2.5041   1.4032 H              1 S1                 0.0000
     48 ****        -2.1215  -3.3153   2.2696 H              1 S1                 0.0000
     49 ****        -3.3157  -4.2621   1.3686 H              1 S1                 0.0000
     50 ****         1.1837  -3.3740  -3.8244 LP             1 S1                 0.0000
     51 ****        -3.0534   2.0426  -2.2250 LP             1 S1                 0.0000
     52 ****        -1.8529   2.6970  -3.1178 LP             1 S1                 0.0000
     53 ****         1.2940   4.5914   0.9661 LP             1 S1                 0.0000
     54 ****         0.7441  -0.5927  -1.0939 LP             1 S1                 0.0000
     55 ****         1.4160  -1.0073   0.4478 LP             1 S1                 0.0000
@<TRIPOS>BOND
    1    1    2 1     
    2    1   26 1     
    3    1   27 1     
    4    1   28 1     
    5    2   24 ar    
    6    2    3 ar    
    7    3    4 ar    
    8    3   29 1     
    9    4   22 ar    
   10    4    5 1     
   11    5    6 2     
   12    6    7 1     
   13    6   30 1     
   14    7    8 1     
   15    7   22 1     
   16    8    9 1     
   17    8   31 1     
   18    8   32 1     
   19    9   10 1     
   20    9   11 1     
   21    9   33 1     
   22   10   34 1     
   23   11   12 1     
   24   11   35 1     
   25   11   36 1     
   26   12   20 am    
   27   12   13 1     
   28   13   14 2     
   29   13   37 1     
   30   14   15 1     
   31   15   16 1     
   32   15   19 2     
   33   16   17 1     
   34   16   18 1     
   35   16   38 1     
   36   17   39 1     
   37   17   40 1     
   38   17   41 1     
   39   18   42 1     
   40   18   43 1     
   41   18   44 1     
   42   19   20 1     
   43   19   45 1     
   44   20   21 2     
   45   22   23 ar    
   46   23   24 ar    
   47   23   46 1     
   48   24   25 1     
   49   25   47 1     
   50   25   48 1     
   51   25   49 1     
   52    5   50 1     
   53   10   51 1     
   54   10   52 1     
   55   14   53 1     
   56   21   54 1     
   57   21   55 1     
@<TRIPOS>SUBSTRUCTURE
      1 S1             1
@<TRIPOS>SET
LONE_PAIRS      STATIC     ATOMS    <user>   **** ""
6 50 51 52 53 54 55
DONOR_HYDROGENS      STATIC     ATOMS    <user>   **** ""
1 34
ATOM$BLUE        STATIC     ATOMS    COLORGROUP SYSTEM
6 50 51 52 53 54 55
ATOM$RED        STATIC     ATOMS    COLORGROUP SYSTEM
1 34
