AV-unprocessed.smi:3041|AV-procd|sdf|11597|dock1
  -GOLD-   2272016573D 1   1.00000     0.00000
 Structure written by MMmdl.
 38 39  0  0  0  0  0  0  0  0  1 V2000
  150.9035  141.5028  156.3544 C   0  0  0  0  0  0  0  0  0  0  0  0
  150.7993  140.2231  155.6866 N   0  0  0  0  0  0  0  0  0  0  0  0
  151.1648  138.9773  156.1500 C   0  0  0  0  0  0  0  0  0  0  0  0
  150.8765  138.0737  155.1662 C   0  0  0  0  0  0  0  0  0  0  0  0
  151.0776  136.5840  155.1651 C   0  0  0  0  0  0  0  0  0  0  0  0
  149.7829  135.8404  155.5312 C   0  0  0  0  0  0  0  0  0  0  0  0
  149.1434  135.2636  154.3544 N   0  0  0  0  0  0  0  0  0  0  0  0
  148.3661  134.1716  154.3625 C   0  0  0  0  0  0  0  0  0  0  0  0
  148.0976  133.5230  155.3739 O   0  0  0  0  0  0  0  0  0  0  0  0
  147.9136  133.8730  153.1370 N   0  0  0  0  0  0  0  0  0  0  0  0
  147.0448  132.7453  152.8166 C   0  0  0  0  0  0  0  0  0  0  0  0
  145.7326  133.1938  152.1448 C   0  0  2  0  0  0  0  0  0  0  0  0
  144.8979  132.0518  151.6035 C   0  0  0  0  0  0  0  0  0  0  0  0
  143.9722  132.7742  150.6300 C   0  0  0  0  0  0  0  0  0  0  0  0
  144.7227  133.8750  150.1249 O   0  0  0  0  0  0  0  0  0  0  0  0
  145.9125  134.0490  150.8892 C   0  0  0  0  0  0  0  0  0  0  0  0
  150.3306  138.8795  154.1269 C   0  0  0  0  0  0  0  0  0  0  0  0
  150.2868  140.1642  154.4404 N   0  0  0  0  0  0  0  0  0  0  0  0
  151.2185  141.3610  157.3885 H   0  0  0  0  0  0  0  0  0  0  0  0
  149.9357  142.0056  156.3455 H   0  0  0  0  0  0  0  0  0  0  0  0
  151.6362  142.1269  155.8422 H   0  0  0  0  0  0  0  0  0  0  0  0
  151.5936  138.8372  157.1314 H   0  0  0  0  0  0  0  0  0  0  0  0
  151.4239  136.2515  154.1857 H   0  0  0  0  0  0  0  0  0  0  0  0
  151.8649  136.3050  155.8666 H   0  0  0  0  0  0  0  0  0  0  0  0
  150.0034  135.0305  156.2273 H   0  0  0  0  0  0  0  0  0  0  0  0
  149.0890  136.5094  156.0434 H   0  0  0  0  0  0  0  0  0  0  0  0
  149.3048  135.7289  153.4729 H   0  0  0  0  0  0  0  0  0  0  0  0
  148.1912  134.4662  152.3686 H   0  0  0  0  0  0  0  0  0  0  0  0
  147.5952  132.0757  152.1553 H   0  0  0  0  0  0  0  0  0  0  0  0
  146.8291  132.1749  153.7216 H   0  0  0  0  0  0  0  0  0  0  0  0
  145.1254  133.7500  152.8611 H   0  0  0  0  0  0  0  0  0  0  0  0
  145.5259  131.3415  151.0635 H   0  0  0  0  0  0  0  0  0  0  0  0
  144.3574  131.5088  152.3793 H   0  0  0  0  0  0  0  0  0  0  0  0
  143.6254  132.1252  149.8257 H   0  0  0  0  0  0  0  0  0  0  0  0
  143.0974  133.1613  151.1540 H   0  0  0  0  0  0  0  0  0  0  0  0
  146.0840  135.1001  151.1226 H   0  0  0  0  0  0  0  0  0  0  0  0
  146.7559  133.6932  150.2960 H   0  0  0  0  0  0  0  0  0  0  0  0
  149.9659  138.5690  153.1590 H   0  0  0  0  0  0  0  0  0  0  0  0
  1  2  1  0  0  0  0
  1 19  1  0  0  0  0
  1 20  1  0  0  0  0
  1 21  1  0  0  0  0
  2 18  1  0  0  0  0
  2  3  1  0  0  0  0
  3  4  2  0  0  0  0
  3 22  1  0  0  0  0
  4  5  1  0  0  0  0
  4 17  1  0  0  0  0
  5  6  1  0  0  0  0
  5 23  1  0  0  0  0
  5 24  1  0  0  0  0
  6  7  1  0  0  0  0
  6 25  1  0  0  0  0
  6 26  1  0  0  0  0
  7  8  1  0  0  0  0
  7 27  1  0  0  0  0
  8  9  2  0  0  0  0
  8 10  1  0  0  0  0
 10 11  1  0  0  0  0
 10 28  1  0  0  0  0
 11 12  1  0  0  0  0
 11 29  1  0  0  0  0
 11 30  1  0  0  0  0
 12 16  1  0  0  0  0
 12 13  1  0  0  0  0
 12 31  1  0  0  0  0
 13 14  1  0  0  0  0
 13 32  1  0  0  0  0
 13 33  1  0  0  0  0
 14 15  1  0  0  0  0
 14 34  1  0  0  0  0
 14 35  1  0  0  0  0
 15 16  1  0  0  0  0
 16 36  1  0  0  0  0
 16 37  1  0  0  0  0
 17 18  2  0  0  0  0
 17 38  1  0  0  0  0
M  END
> <s_m_source_file>
AV-unprocessed.smi

> <i_m_source_file_index>
3041

> <i_lp_mmshare_version>
43012

> <i_f3d_flags>
0

> <s_epik_input>
W0NIM11uMVtjSF1jKFtjSF1uMSlbQ0gyXVtDSDJdW05IXUMoPU8pW05IXVtDSDJdW0NAQEhdMltDSDJdW0NIMl1PW0NIMl0y

> <s_epik_cmdline>
J2VwaWtfcHl0aG9uJywgJy1waCcsICc3LjAnLCAnLXRuJywgJzgnLCAnLW1hJywgJzIwMCcsICctbWV0YWxfYmluZGluZycsICctaW1hZScsICc8aW5maWxlLm1hZT4nLCAnLW9tYWUnLCAnPG91dGZpbGUubWFlPic=

> <r_lp_tautomer_probability>
1

> <r_epik_Ionization_Penalty>
0.000557811

> <r_epik_Ionization_Penalty_Charging>
0

> <r_epik_Ionization_Penalty_Neutral>
0.000557811

> <r_epik_State_Penalty>
-0

> <r_epik_Charging_Adjusted_Penalty>
0

> <i_epik_Tot_Q>
0

> <i_epik_Tot_abs_Q>
0

> <r_epik_Metal_State_Penalty>
-0

> <b_epik_Metal_Only>
0

> <s_lp_Force_Field>
OPLS_2005

> <r_lp_Energy>
13.0487

> <b_lp_Chiralities_Consistent>
1

> <s_lp_Variant>
AV-unprocessed.smi:3041-1

> <Gold.Version>
5.8.1

> <Gold.Id.Protein>
6NUR|6NUR_protein|mol2

> <Gold.PLP.Fitness>
41.9103

> <Gold.PLP.PLP>
-30.8884

> <Gold.PLP.part.hbond>
-3.0000

> <Gold.PLP.part.metal>
0.0000

> <Gold.PLP.part.buried>
-4.6406

> <Gold.PLP.part.nonpolar>
-23.7029

> <Gold.PLP.part.repulsive>
0.4835

> <Gold.PLP.ligand.clash>
0.0000

> <Gold.PLP.ligand.torsion>
0.8387

> <Gold.PLP.Chemscore.Hbond>
2.9440

> <Gold.PLP.Chemscore.CHOScore>
1.2497

> <Gold.PLP.Chemscore.Metal>
0.0000

> <Gold.Chemscore.Hbonds>
donor molecule, donor type, donor heavy atom, donor atom, acceptor molecule, acceptor atom, score
      L1  H     7    27       P1  7948  1.00
      L1  H    10    28       P1  7948  0.84
      P1  H  7989  7998       L1    18  1.00
      L1  C    17    38       P1  7948  0.30
      L1  C    17    38       P1  7957  0.94

> <Gold.PLP.Chemscore.Internal.Correction>
0.1181

> <Gold.Rescore>
     Score         DG    S(hbond)    S(metal)    S(lipo)     H(rot)  DE(clash)    DE(int)     intcor
     14.81     -15.73       2.26        0.00      63.52       1.85       0.02       0.90       ----

> <Gold.Chemscore.Fitness>
14.8073

> <Gold.Chemscore.DG>
-15.7251

> <Gold.Chemscore.ZeroCoef>
-5.4800

> <Gold.Chemscore.Hbond>
2.2625

> <Gold.Chemscore.Metal>
0.0000

> <Gold.Chemscore.Lipo>
63.5194

> <Gold.Chemscore.Internal_Hbond>
0.0000

> <Gold.Chemscore.DEClash>
0.0183

> <Gold.Chemscore.DEInternal>
0.8996

> <Gold.Chemscore.Rot>
1.8528

> <Gold.Chemscore.Internal.Correction>
   9.000000E+99

> <Gold.Chemscore.Hbonds>
donor molecule, donor type, donor heavy atom, donor atom, acceptor molecule, acceptor atom, score
      L1  H     7    27       P1  7948  0.50
      L1  H    10    28       P1  7948  0.16
      P1  H  7989  7998       L1    18  0.13

> <Gold.Chemscore.Hbond.Weighted>
-7.5567

> <Gold.Chemscore.Metal.Weighted>
-0.0000

> <Gold.Chemscore.Lipo.Weighted>
-7.4318

> <Gold.Chemscore.Internal_Hbond.Weighted>
0.0000

> <Gold.Chemscore.DEClash.Weighted>
0.0183

> <Gold.Chemscore.DEInternal.Weighted>
0.8996

> <Gold.Chemscore.Rot.Weighted>
4.7433

> <Gold.Chemscore.Internal.Correction.Weighted>
   9.000000E+99

> <Gold.Protein.RotatedTorsions>
[ 6907 6896 6895 6894 ] final -147.03 input  -60.11 | X-H torsion
[ 7974 7965 7964 7962 ] final -168.88 input  175.53 | X-H torsion
[ 8008 7997 7996 7995 ] final   60.55 input   59.86 | X-H torsion
[ 10167 10162 10161 10158 ] final -102.91 input  -65.29 | X-H torsion
[ 10718 10713 10712 10709 ] final -164.62 input   66.30 | X-H torsion
[ 10763 10752 10751 10750 ] final   17.95 input  -60.55 | X-H torsion
[ 11005 11000 10999 10996 ] final  -52.14 input  -57.11 | X-H torsion

> <Gold.Protein.ActiveResidues>
 VAL166  LYS551  ARG553  GLY616  TRP617  ASP618  TYR619  PRO620  LYS621  CYS622 
 ASP623  PHE694  ASN695  SER759  ASP760  ASP761  ALA762  ILE779  LEU786  VAL792 
 PHE793  MET794  SER795  GLU796  ALA797  LYS798  CYS799  TRP800  GLU811  SER814 

> <Gold.Protein.RotatedAtoms>
  151.1500  133.4914  159.2595 H   0  0  0  0  0  0  0  0  0  0  0  0  # atno 6907 bound_to 6896
  151.1564  135.0252  159.8701 H   0  0  0  0  0  0  0  0  0  0  0  0  # atno 6908 bound_to 6896
  152.5463  134.1378  159.8519 H   0  0  0  0  0  0  0  0  0  0  0  0  # atno 6909 bound_to 6896
  144.7195  140.2305  143.6305 H   0  0  0  0  0  0  0  0  0  0  0  0  # atno 7974 bound_to 7965
  155.5841  140.3492  155.4548 H   0  0  0  0  0  0  0  0  0  0  0  0  # atno 8008 bound_to 7997
  156.0351  140.1283  157.0241 H   0  0  0  0  0  0  0  0  0  0  0  0  # atno 8009 bound_to 7997
  154.4368  140.1035  156.6142 H   0  0  0  0  0  0  0  0  0  0  0  0  # atno 8010 bound_to 7997
  140.2257  143.3643  152.0931 H   0  0  0  0  0  0  0  0  0  0  0  0  # atno 10167 bound_to 10162
  156.6416  130.8971  151.2997 H   0  0  0  0  0  0  0  0  0  0  0  0  # atno 10718 bound_to 10713
  153.1293  135.6736  153.9205 H   0  0  0  0  0  0  0  0  0  0  0  0  # atno 10763 bound_to 10752
  153.8696  135.3071  155.3442 H   0  0  0  0  0  0  0  0  0  0  0  0  # atno 10764 bound_to 10752
  154.7693  135.4948  153.9698 H   0  0  0  0  0  0  0  0  0  0  0  0  # atno 10765 bound_to 10752
  141.0909  133.6633  156.3981 H   0  0  0  0  0  0  0  0  0  0  0  0  # atno 11005 bound_to 11000
  145.8415  139.2132  143.1824 LP  0  0  0  0  0  0  0  0  0  0  0  0  # atno 17320 bound_to 7965
  146.0342  140.8229  142.9861 LP  0  0  0  0  0  0  0  0  0  0  0  0  # atno 17321 bound_to 7965
  139.5128  144.6922  151.5727 LP  0  0  0  0  0  0  0  0  0  0  0  0  # atno 17342 bound_to 10162
  140.6222  143.9236  150.6536 LP  0  0  0  0  0  0  0  0  0  0  0  0  # atno 17343 bound_to 10162
  157.7169  130.9508  150.1289 LP  0  0  0  0  0  0  0  0  0  0  0  0  # atno 17370 bound_to 10713
  156.2154  130.3670  149.8619 LP  0  0  0  0  0  0  0  0  0  0  0  0  # atno 17371 bound_to 10713
  140.5255  134.6263  157.5332 LP  0  0  0  0  0  0  0  0  0  0  0  0  # atno 17394 bound_to 11000
  139.9734  134.7254  155.9996 LP  0  0  0  0  0  0  0  0  0  0  0  0  # atno 17395 bound_to 11000

$$$$
