AV-unprocessed.smi:3303|AV-procd|sdf|12686|dock2
  -GOLD-   2272019 23D 1   1.00000     0.00000
 Structure written by MMmdl.
 44 45  0  0  0  0  0  0  0  0  2 V2000
  147.7520  138.7726  153.7833 C   0  0  0  0  0  0  0  0  0  0  0  0
  148.4303  138.6543  155.1644 C   0  0  1  0  0  0  0  0  0  0  0  0
  148.7399  137.1825  155.5070 C   0  0  0  0  0  0  0  0  0  0  0  0
  149.8651  136.6549  154.6921 N   0  3  2  0  0  0  0  0  0  0  0  0
  150.0415  135.1922  154.8359 C   0  0  0  0  0  0  0  0  0  0  0  0
  151.1253  137.4398  154.8348 C   0  0  2  0  0  0  0  0  0  0  0  0
  151.8122  137.2643  156.2067 C   0  0  0  0  0  0  0  0  0  0  0  0
  150.8688  138.9217  154.4939 C   0  0  0  0  0  0  0  0  0  0  0  0
  149.7126  139.5140  155.3217 C   0  0  1  0  0  0  0  0  0  0  0  0
  149.5216  140.9061  154.9278 N   0  0  0  0  0  0  0  0  0  0  0  0
  150.3494  141.8166  155.7058 C   0  0  0  0  0  0  0  0  0  0  0  0
  150.1315  141.5581  157.2025 C   0  0  0  0  0  0  0  0  0  0  0  0
  150.8376  142.5865  158.0654 C   0  0  0  0  0  0  0  0  0  0  0  0
  151.2753  143.8100  157.5145 C   0  0  0  0  0  0  0  0  0  0  0  0
  151.9166  144.7352  158.3605 C   0  0  0  0  0  0  0  0  0  0  0  0
  152.0939  144.4040  159.7175 C   0  0  0  0  0  0  0  0  0  0  0  0
  151.6192  143.1567  160.1703 C   0  0  0  0  0  0  0  0  0  0  0  0
  151.0023  142.2625  159.3679 N   0  0  0  0  0  0  0  0  0  0  0  0
  148.4052  138.4423  152.9761 H   0  0  0  0  0  0  0  0  0  0  0  0
  147.4540  139.7991  153.5692 H   0  0  0  0  0  0  0  0  0  0  0  0
  146.8483  138.1645  153.7413 H   0  0  0  0  0  0  0  0  0  0  0  0
  147.7002  138.9933  155.8997 H   0  0  0  0  0  0  0  0  0  0  0  0
  148.9754  137.0849  156.5671 H   0  0  0  0  0  0  0  0  0  0  0  0
  147.8508  136.5730  155.3383 H   0  0  0  0  0  0  0  0  0  0  0  0
  150.2437  134.9133  155.8703 H   0  0  0  0  0  0  0  0  0  0  0  0
  150.8641  134.8372  154.2143 H   0  0  0  0  0  0  0  0  0  0  0  0
  149.1384  134.6699  154.5191 H   0  0  0  0  0  0  0  0  0  0  0  0
  151.8199  137.0601  154.0843 H   0  0  0  0  0  0  0  0  0  0  0  0
  152.7223  137.8622  156.2588 H   0  0  0  0  0  0  0  0  0  0  0  0
  152.1064  136.2298  156.3828 H   0  0  0  0  0  0  0  0  0  0  0  0
  151.1757  137.5748  157.0346 H   0  0  0  0  0  0  0  0  0  0  0  0
  151.7801  139.4998  154.6536 H   0  0  0  0  0  0  0  0  0  0  0  0
  150.6451  139.0104  153.4299 H   0  0  0  0  0  0  0  0  0  0  0  0
  150.0160  139.5040  156.3694 H   0  0  0  0  0  0  0  0  0  0  0  0
  149.7562  141.0112  153.9505 H   0  0  0  0  0  0  0  0  0  0  0  0
  151.4020  141.6751  155.4624 H   0  0  0  0  0  0  0  0  0  0  0  0
  150.0901  142.8483  155.4639 H   0  0  0  0  0  0  0  0  0  0  0  0
  149.0658  141.5718  157.4371 H   0  0  0  0  0  0  0  0  0  0  0  0
  150.4915  140.5627  157.4670 H   0  0  0  0  0  0  0  0  0  0  0  0
  151.1224  144.0369  156.4696 H   0  0  0  0  0  0  0  0  0  0  0  0
  152.2654  145.6819  157.9750 H   0  0  0  0  0  0  0  0  0  0  0  0
  152.5809  145.0893  160.3952 H   0  0  0  0  0  0  0  0  0  0  0  0
  151.7375  142.8699  161.2046 H   0  0  0  0  0  0  0  0  0  0  0  0
  149.5813  136.7923  153.7323 H   0  0  0  0  0  0  0  0  0  0  0  0
  1  2  1  0  0  0  0
  1 19  1  0  0  0  0
  1 20  1  0  0  0  0
  1 21  1  0  0  0  0
  2  9  1  0  0  0  0
  2  3  1  0  0  0  0
  2 22  1  0  0  0  0
  3  4  1  0  0  0  0
  3 23  1  0  0  0  0
  3 24  1  0  0  0  0
  4  5  1  0  0  0  0
  4  6  1  0  0  0  0
  4 44  1  0  0  0  0
  5 25  1  0  0  0  0
  5 26  1  0  0  0  0
  5 27  1  0  0  0  0
  6  7  1  0  0  0  0
  6  8  1  0  0  0  0
  6 28  1  0  0  0  0
  7 29  1  0  0  0  0
  7 30  1  0  0  0  0
  7 31  1  0  0  0  0
  8  9  1  0  0  0  0
  8 32  1  0  0  0  0
  8 33  1  0  0  0  0
  9 10  1  0  0  0  0
  9 34  1  0  0  0  0
 10 11  1  0  0  0  0
 10 35  1  0  0  0  0
 11 12  1  0  0  0  0
 11 36  1  0  0  0  0
 11 37  1  0  0  0  0
 12 13  1  0  0  0  0
 12 38  1  0  0  0  0
 12 39  1  0  0  0  0
 13 18  1  0  0  0  0
 13 14  2  0  0  0  0
 14 15  1  0  0  0  0
 14 40  1  0  0  0  0
 15 16  2  0  0  0  0
 15 41  1  0  0  0  0
 16 17  1  0  0  0  0
 16 42  1  0  0  0  0
 17 18  2  0  0  0  0
 17 43  1  0  0  0  0
M  CHG  1   4   1
M  END
> <s_m_source_file>
AV-unprocessed.smi

> <i_m_source_file_index>
3303

> <i_lp_mmshare_version>
43012

> <i_f3d_flags>
0

> <s_epik_input>
W0NIM11bQ0BASF0xW0NIMl1OKFtDSDNdKVtDQEBIXShbQ0gzXSlbQ0gyXVtDQEhdMVtOSF1bQ0gyXVtDSDJdYzJbY0hdW2NIXVtjSF1bY0hdbjI=

> <s_epik_cmdline>
J2VwaWtfcHl0aG9uJywgJy1waCcsICc3LjAnLCAnLXRuJywgJzgnLCAnLW1hJywgJzIwMCcsICctbWV0YWxfYmluZGluZycsICctaW1hZScsICc8aW5maWxlLm1hZT4nLCAnLW9tYWUnLCAnPG91dGZpbGUubWFlPic=

> <r_epik_Ionization_Penalty>
2.31085

> <r_epik_Ionization_Penalty_Charging>
0.000313057

> <r_epik_Ionization_Penalty_Neutral>
2.31054

> <r_epik_State_Penalty>
2.4087

> <r_epik_Charging_Adjusted_Penalty>
2.40902

> <i_epik_Tot_Q>
1

> <i_epik_Tot_abs_Q>
1

> <r_epik_Metal_State_Penalty>
2.30979

> <b_epik_Metal_Only>
0

> <s_lp_Force_Field>
OPLS_2005

> <r_lp_Energy>
26.3275

> <b_lp_Chiralities_Consistent>
1

> <s_lp_Variant>
AV-unprocessed.smi:3303-30

> <Gold.Version>
5.8.1

> <Gold.Id.Protein>
6NUR|6NUR_protein|mol2

> <Gold.PLP.Fitness>
40.3268

> <Gold.PLP.PLP>
-35.5804

> <Gold.PLP.part.hbond>
-1.4764

> <Gold.PLP.part.metal>
0.0000

> <Gold.PLP.part.buried>
-3.8795

> <Gold.PLP.part.nonpolar>
-30.2073

> <Gold.PLP.part.repulsive>
0.0397

> <Gold.PLP.ligand.clash>
0.0000

> <Gold.PLP.ligand.torsion>
0.6332

> <Gold.PLP.Chemscore.Hbond>
2.0000

> <Gold.PLP.Chemscore.CHOScore>
0.0000

> <Gold.PLP.Chemscore.Metal>
0.0000

> <Gold.Chemscore.Hbonds>
donor molecule, donor type, donor heavy atom, donor atom, acceptor molecule, acceptor atom, score
      L1  H     4    44       P1  7948  2.00

> <Gold.PLP.Chemscore.Internal.Correction>
0.0129

> <Gold.Rescore>
     Score         DG    S(hbond)    S(metal)    S(lipo)     H(rot)  DE(clash)    DE(int)     intcor
     17.49     -18.33       0.89        0.00     113.32       1.33       0.14       0.69       ----

> <Gold.Chemscore.Fitness>
17.4914

> <Gold.Chemscore.DG>
-18.3291

> <Gold.Chemscore.ZeroCoef>
-5.4800

> <Gold.Chemscore.Hbond>
0.8947

> <Gold.Chemscore.Metal>
0.0000

> <Gold.Chemscore.Lipo>
113.3210

> <Gold.Chemscore.Internal_Hbond>
0.0000

> <Gold.Chemscore.DEClash>
0.1444

> <Gold.Chemscore.DEInternal>
0.6933

> <Gold.Chemscore.Rot>
1.3272

> <Gold.Chemscore.Internal.Correction>
   9.000000E+99

> <Gold.Chemscore.Hbonds>
donor molecule, donor type, donor heavy atom, donor atom, acceptor molecule, acceptor atom, score
      L1  H     4    44       P1  7948  0.73

> <Gold.Chemscore.Hbond.Weighted>
-2.9882

> <Gold.Chemscore.Metal.Weighted>
-0.0000

> <Gold.Chemscore.Lipo.Weighted>
-13.2586

> <Gold.Chemscore.Internal_Hbond.Weighted>
0.0000

> <Gold.Chemscore.DEClash.Weighted>
0.1444

> <Gold.Chemscore.DEInternal.Weighted>
0.6933

> <Gold.Chemscore.Rot.Weighted>
3.3976

> <Gold.Chemscore.Internal.Correction.Weighted>
   9.000000E+99

> <Gold.Protein.RotatedTorsions>
[ 6907 6896 6895 6894 ] final   -7.48 input  -60.11 | X-H torsion
[ 7974 7965 7964 7962 ] final  143.37 input  175.53 | X-H torsion
[ 8008 7997 7996 7995 ] final -120.38 input   59.86 | X-H torsion
[ 10167 10162 10161 10158 ] final   40.58 input  -65.29 | X-H torsion
[ 10718 10713 10712 10709 ] final   44.66 input   66.30 | X-H torsion
[ 10763 10752 10751 10750 ] final   54.59 input  -60.55 | X-H torsion
[ 11005 11000 10999 10996 ] final   59.10 input  -57.11 | X-H torsion

> <Gold.Protein.ActiveResidues>
 VAL166  LYS551  ARG553  GLY616  TRP617  ASP618  TYR619  PRO620  LYS621  CYS622 
 ASP623  PHE694  ASN695  SER759  ASP760  ASP761  ALA762  ILE779  LEU786  VAL792 
 PHE793  MET794  SER795  GLU796  ALA797  LYS798  CYS799  TRP800  GLU811  SER814 

> <Gold.Protein.RotatedAtoms>
  151.4490  135.1028  159.9691 H   0  0  0  0  0  0  0  0  0  0  0  0  # atno 6907 bound_to 6896
  152.4895  133.8458  159.7186 H   0  0  0  0  0  0  0  0  0  0  0  0  # atno 6908 bound_to 6896
  150.9035  133.7028  159.2900 H   0  0  0  0  0  0  0  0  0  0  0  0  # atno 6909 bound_to 6896
  144.8927  139.5535  143.5791 H   0  0  0  0  0  0  0  0  0  0  0  0  # atno 7974 bound_to 7965
  155.1310  140.0400  157.2774 H   0  0  0  0  0  0  0  0  0  0  0  0  # atno 8008 bound_to 7997
  154.6543  140.2576  155.7153 H   0  0  0  0  0  0  0  0  0  0  0  0  # atno 8009 bound_to 7997
  156.2591  140.2830  156.0989 H   0  0  0  0  0  0  0  0  0  0  0  0  # atno 8010 bound_to 7997
  140.3728  144.2082  150.6132 H   0  0  0  0  0  0  0  0  0  0  0  0  # atno 10167 bound_to 10162
  157.4292  130.8014  149.7587 H   0  0  0  0  0  0  0  0  0  0  0  0  # atno 10718 bound_to 10713
  152.9806  135.5739  154.4929 H   0  0  0  0  0  0  0  0  0  0  0  0  # atno 10763 bound_to 10752
  154.4461  135.2777  155.1816 H   0  0  0  0  0  0  0  0  0  0  0  0  # atno 10764 bound_to 10752
  154.3463  135.6218  153.5674 H   0  0  0  0  0  0  0  0  0  0  0  0  # atno 10765 bound_to 10752
  140.0329  134.5986  155.9483 H   0  0  0  0  0  0  0  0  0  0  0  0  # atno 11005 bound_to 11000
  146.3063  139.7591  142.9054 LP  0  0  0  0  0  0  0  0  0  0  0  0  # atno 17320 bound_to 7965
  145.3755  141.0350  143.3207 LP  0  0  0  0  0  0  0  0  0  0  0  0  # atno 17321 bound_to 7965
  140.5016  143.2316  151.8670 LP  0  0  0  0  0  0  0  0  0  0  0  0  # atno 17342 bound_to 10162
  139.4802  144.5053  151.9006 LP  0  0  0  0  0  0  0  0  0  0  0  0  # atno 17343 bound_to 10162
  155.9907  130.3943  150.3016 LP  0  0  0  0  0  0  0  0  0  0  0  0  # atno 17370 bound_to 10713
  157.1172  131.0237  151.3024 LP  0  0  0  0  0  0  0  0  0  0  0  0  # atno 17371 bound_to 10713
  141.1841  133.6552  156.5143 LP  0  0  0  0  0  0  0  0  0  0  0  0  # atno 17394 bound_to 11000
  140.4196  134.7199  157.4882 LP  0  0  0  0  0  0  0  0  0  0  0  0  # atno 17395 bound_to 11000

$$$$
