#       Name:                AV-unprocessed.smi:580
#       Creating user name   scv26
#       Creation time:       Thu Mar 26 23:49:28 2020


#       File generated by GOLD software.
#

@<TRIPOS>MOLECULE
AV-unprocessed.smi:580
    41    42     1
SMALL
NO_CHARGES


@<TRIPOS>ATOM
      1 ****        -6.8370  -2.4619  -0.9511 C.3            1 S1                 0.0000
      2 ****        -5.5473  -1.7513  -0.7212 C.2            1 S1                 0.0000
      3 ****        -4.2876  -2.1843  -0.4157 C.2            1 S1                 0.0000
      4 ****        -3.5435  -0.9768  -0.3421 C.2            1 S1                 0.0000
      5 ****        -2.1576  -0.9925  -0.0405 N.am           1 S1                 0.0000
      6 ****        -1.3236   0.0592   0.0282 C.2            1 S1                 0.0000
      7 ****        -1.6436   1.2319  -0.1690 O.2            1 S1                 0.0000
      8 ****        -0.0764  -0.3266   0.3359 N.am           1 S1                 0.0000
      9 ****         1.0712   0.5661   0.4692 C.3            1 S1                 0.0000
     10 ****         1.7005   0.8490  -0.9093 C.3            1 S1                 0.0000
     11 ****         2.9549   1.7288  -0.7854 C.3            1 S1                 0.0000
     12 ****         3.9939   1.1083   0.1681 C.3            1 S1                 0.0000
     13 ****         5.2397   1.9967   0.2948 C.3            1 S1                 0.0000
     14 ****         3.3591   0.8277   1.5438 C.3            1 S1                 0.0000
     15 ****         2.1084  -0.0578   1.4203 C.3            1 S1                 0.0000
     16 ****        -4.2825   0.0962  -0.5791 N.2            1 S1                 0.0000
     17 ****        -5.5706  -0.3946  -0.8229 O.3            1 S1                 0.0000
     18 ****        -6.6766  -3.5343  -1.0623 H              1 S1                 0.0000
     19 ****        -7.3241  -2.0981  -1.8561 H              1 S1                 0.0000
     20 ****        -7.5177  -2.3061  -0.1140 H              1 S1                 0.0000
     21 ****        -3.9552  -3.2014  -0.2706 H              1 S1                 0.0000
     22 ****        -1.7573  -1.9023   0.1352 H              1 S1                 0.0000
     23 ****         0.0956  -1.3107   0.4811 H              1 S1                 0.0000
     24 ****         0.7392   1.5103   0.9059 H              1 S1                 0.0000
     25 ****         1.9653  -0.0912  -1.3951 H              1 S1                 0.0000
     26 ****         0.9760   1.3390  -1.5609 H              1 S1                 0.0000
     27 ****         3.3950   1.8749  -1.7724 H              1 S1                 0.0000
     28 ****         2.6683   2.7182  -0.4264 H              1 S1                 0.0000
     29 ****         4.3123   0.1548  -0.2558 H              1 S1                 0.0000
     30 ****         4.9900   2.9726   0.7123 H              1 S1                 0.0000
     31 ****         5.7057   2.1599  -0.6774 H              1 S1                 0.0000
     32 ****         5.9852   1.5371   0.9445 H              1 S1                 0.0000
     33 ****         4.0851   0.3439   2.1983 H              1 S1                 0.0000
     34 ****         3.0899   1.7690   2.0249 H              1 S1                 0.0000
     35 ****         1.6677  -0.2084   2.4066 H              1 S1                 0.0000
     36 ****         2.3993  -1.0450   1.0575 H              1 S1                 0.0000
     37 ****        -2.5893   1.4599  -0.4008 LP             1 S1                 0.0000
     38 ****        -0.9579   1.9561  -0.0973 LP             1 S1                 0.0000
     39 ****        -3.9848   1.0508  -0.5830 LP             1 S1                 0.0000
     40 ****        -6.2073  -0.0177  -0.1501 LP             1 S1                 0.0000
     41 ****        -5.8627  -0.1311  -1.7423 LP             1 S1                 0.0000
@<TRIPOS>BOND
    1    1    2 1     
    2    1   18 1     
    3    1   19 1     
    4    1   20 1     
    5    2   17 1     
    6    2    3 2     
    7    3    4 1     
    8    3   21 1     
    9    4    5 1     
   10    4   16 2     
   11    5    6 am    
   12    5   22 1     
   13    6    7 2     
   14    6    8 am    
   15    8    9 1     
   16    8   23 1     
   17    9   15 1     
   18    9   10 1     
   19    9   24 1     
   20   10   11 1     
   21   10   25 1     
   22   10   26 1     
   23   11   12 1     
   24   11   27 1     
   25   11   28 1     
   26   12   13 1     
   27   12   14 1     
   28   12   29 1     
   29   13   30 1     
   30   13   31 1     
   31   13   32 1     
   32   14   15 1     
   33   14   33 1     
   34   14   34 1     
   35   15   35 1     
   36   15   36 1     
   37   16   17 1     
   38    7   37 1     
   39    7   38 1     
   40   16   39 1     
   41   17   40 1     
   42   17   41 1     
@<TRIPOS>SUBSTRUCTURE
      1 S1             1
@<TRIPOS>SET
LONE_PAIRS      STATIC     ATOMS    <user>   **** ""
5 37 38 39 40 41
DONOR_HYDROGENS      STATIC     ATOMS    <user>   **** ""
2 22 23
ATOM$BLUE        STATIC     ATOMS    COLORGROUP SYSTEM
5 37 38 39 40 41
ATOM$RED        STATIC     ATOMS    COLORGROUP SYSTEM
2 22 23
