AV-unprocessed.smi:2109|AV-procd|sdf|8606|dock10
  -GOLD-   2272011343D 1   1.00000     0.00000
 Structure written by MMmdl.
 45 46  0  0  0  0  0  0  0  0  1 V2000
  147.1492  133.2831  151.5608 C   0  0  0  0  0  0  0  0  0  0  0  0
  145.6774  133.5699  151.2175 C   0  0  0  0  0  0  0  0  0  0  0  0
  145.1840  132.6284  150.1090 C   0  0  0  0  0  0  0  0  0  0  0  0
  145.4395  135.0443  150.8251 C   0  0  0  0  0  0  0  0  0  0  0  0
  146.2271  135.9812  151.6204 N   0  0  0  0  0  0  0  0  0  0  0  0
  145.7170  136.9151  152.4356 C   0  0  0  0  0  0  0  0  0  0  0  0
  144.5122  137.0776  152.6304 O   0  0  0  0  0  0  0  0  0  0  0  0
  146.6761  137.6529  153.0112 N   0  0  0  0  0  0  0  0  0  0  0  0
  146.4305  138.7301  153.9627 C   0  0  0  0  0  0  0  0  0  0  0  0
  147.6742  139.5486  154.2633 C   0  0  0  0  0  0  0  0  0  0  0  0
  147.7125  140.9269  153.9770 C   0  0  0  0  0  0  0  0  0  0  0  0
  148.8873  141.6387  154.2812 C   0  0  0  0  0  0  0  0  0  0  0  0
  149.9818  141.0643  154.8228 N   0  0  0  0  0  0  0  0  0  0  0  0
  149.9617  139.7348  155.0905 C   0  0  0  0  0  0  0  0  0  0  0  0
  151.1197  139.1442  155.6421 N   0  0  0  0  0  0  0  0  0  0  0  0
  151.4675  139.4813  157.0216 C   0  0  0  0  0  0  0  0  0  0  0  0
  152.5786  138.5518  157.5381 C   0  0  0  0  0  0  0  0  0  0  0  0
  153.6982  138.6095  156.6607 O   0  0  0  0  0  0  0  0  0  0  0  0
  153.3645  138.1704  155.3483 C   0  0  0  0  0  0  0  0  0  0  0  0
  152.2781  139.0829  154.7534 C   0  0  0  0  0  0  0  0  0  0  0  0
  148.8166  138.9446  154.8297 C   0  0  0  0  0  0  0  0  0  0  0  0
  147.8027  133.4995  150.7152 H   0  0  0  0  0  0  0  0  0  0  0  0
  147.2902  132.2361  151.8299 H   0  0  0  0  0  0  0  0  0  0  0  0
  147.4878  133.8814  152.4068 H   0  0  0  0  0  0  0  0  0  0  0  0
  145.0844  133.3537  152.1070 H   0  0  0  0  0  0  0  0  0  0  0  0
  145.7349  132.7848  149.1808 H   0  0  0  0  0  0  0  0  0  0  0  0
  144.1260  132.7887  149.8994 H   0  0  0  0  0  0  0  0  0  0  0  0
  145.3056  131.5838  150.3968 H   0  0  0  0  0  0  0  0  0  0  0  0
  145.6974  135.1953  149.7763 H   0  0  0  0  0  0  0  0  0  0  0  0
  144.3812  135.2947  150.9179 H   0  0  0  0  0  0  0  0  0  0  0  0
  147.2309  135.9223  151.5309 H   0  0  0  0  0  0  0  0  0  0  0  0
  147.6392  137.4470  152.7905 H   0  0  0  0  0  0  0  0  0  0  0  0
  145.6766  139.3940  153.5395 H   0  0  0  0  0  0  0  0  0  0  0  0
  146.0049  138.3304  154.8850 H   0  0  0  0  0  0  0  0  0  0  0  0
  146.8621  141.4323  153.5433 H   0  0  0  0  0  0  0  0  0  0  0  0
  148.9510  142.6983  154.0821 H   0  0  0  0  0  0  0  0  0  0  0  0
  151.7990  140.5196  157.0679 H   0  0  0  0  0  0  0  0  0  0  0  0
  150.5915  139.3885  157.6650 H   0  0  0  0  0  0  0  0  0  0  0  0
  152.8927  138.8609  158.5350 H   0  0  0  0  0  0  0  0  0  0  0  0
  152.2196  137.5247  157.6215 H   0  0  0  0  0  0  0  0  0  0  0  0
  154.2598  138.1995  154.7269 H   0  0  0  0  0  0  0  0  0  0  0  0
  153.0290  137.1322  155.3739 H   0  0  0  0  0  0  0  0  0  0  0  0
  152.0105  138.7137  153.7645 H   0  0  0  0  0  0  0  0  0  0  0  0
  152.6713  140.0914  154.6191 H   0  0  0  0  0  0  0  0  0  0  0  0
  148.8014  137.8911  155.0656 H   0  0  0  0  0  0  0  0  0  0  0  0
  1  2  1  0  0  0  0
  1 22  1  0  0  0  0
  1 23  1  0  0  0  0
  1 24  1  0  0  0  0
  2  3  1  0  0  0  0
  2  4  1  0  0  0  0
  2 25  1  0  0  0  0
  3 26  1  0  0  0  0
  3 27  1  0  0  0  0
  3 28  1  0  0  0  0
  4  5  1  0  0  0  0
  4 29  1  0  0  0  0
  4 30  1  0  0  0  0
  5  6  1  0  0  0  0
  5 31  1  0  0  0  0
  6  7  2  0  0  0  0
  6  8  1  0  0  0  0
  8  9  1  0  0  0  0
  8 32  1  0  0  0  0
  9 10  1  0  0  0  0
  9 33  1  0  0  0  0
  9 34  1  0  0  0  0
 10 21  1  0  0  0  0
 10 11  2  0  0  0  0
 11 12  1  0  0  0  0
 11 35  1  0  0  0  0
 12 13  2  0  0  0  0
 12 36  1  0  0  0  0
 13 14  1  0  0  0  0
 14 15  1  0  0  0  0
 14 21  2  0  0  0  0
 15 20  1  0  0  0  0
 15 16  1  0  0  0  0
 16 17  1  0  0  0  0
 16 37  1  0  0  0  0
 16 38  1  0  0  0  0
 17 18  1  0  0  0  0
 17 39  1  0  0  0  0
 17 40  1  0  0  0  0
 18 19  1  0  0  0  0
 19 20  1  0  0  0  0
 19 41  1  0  0  0  0
 19 42  1  0  0  0  0
 20 43  1  0  0  0  0
 20 44  1  0  0  0  0
 21 45  1  0  0  0  0
M  END
> <s_m_source_file>
AV-unprocessed.smi

> <i_m_source_file_index>
2109

> <i_lp_mmshare_version>
43012

> <i_f3d_flags>
0

> <s_epik_input>
W0NIM11bQ0hdKFtDSDNdKVtDSDJdW05IXUMoPU8pW05IXVtDSDJdYzFbY0hdW2NIXW5jKFtjSF0xKU4yW0NIMl1bQ0gyXU9bQ0gyXVtDSDJdMg==

> <s_epik_cmdline>
J2VwaWtfcHl0aG9uJywgJy1waCcsICc3LjAnLCAnLXRuJywgJzgnLCAnLW1hJywgJzIwMCcsICctbWV0YWxfYmluZGluZycsICctaW1hZScsICc8aW5maWxlLm1hZT4nLCAnLW9tYWUnLCAnPG91dGZpbGUubWFlPic=

> <r_lp_tautomer_probability>
1

> <r_epik_Ionization_Penalty>
0.012582

> <r_epik_Ionization_Penalty_Charging>
0

> <r_epik_Ionization_Penalty_Neutral>
0.012582

> <r_epik_State_Penalty>
0.00970236

> <r_epik_Charging_Adjusted_Penalty>
0.00970236

> <i_epik_Tot_Q>
0

> <i_epik_Tot_abs_Q>
0

> <r_epik_Metal_State_Penalty>
0.00950075

> <b_epik_Metal_Only>
0

> <s_lp_Force_Field>
OPLS_2005

> <r_lp_Energy>
12.0327

> <b_lp_Chiralities_Consistent>
1

> <s_lp_Variant>
AV-unprocessed.smi:2109-1

> <Gold.Version>
5.8.1

> <Gold.Id.Protein>
6NUR|6NUR_protein|mol2

> <Gold.PLP.Fitness>
44.7207

> <Gold.PLP.PLP>
-32.6510

> <Gold.PLP.part.hbond>
-4.0000

> <Gold.PLP.part.metal>
0.0000

> <Gold.PLP.part.buried>
-2.1937

> <Gold.PLP.part.nonpolar>
-27.1224

> <Gold.PLP.part.repulsive>
0.4214

> <Gold.PLP.ligand.clash>
0.0000

> <Gold.PLP.ligand.torsion>
0.3948

> <Gold.PLP.Chemscore.Hbond>
3.1918

> <Gold.PLP.Chemscore.CHOScore>
0.9804

> <Gold.PLP.Chemscore.Metal>
0.0000

> <Gold.Chemscore.Hbonds>
donor molecule, donor type, donor heavy atom, donor atom, acceptor molecule, acceptor atom, score
      L1  H     5    31       P1  7948  1.00
      L1  H     8    32       P1  7948  0.96
      P1  H  7989  7998       L1    13  0.36
      P1  H  7997  8010       L1    18  0.82
      L1  C    12    36       P1  8028  0.98

> <Gold.PLP.Chemscore.Internal.Correction>
0.3429

> <Gold.Rescore>
     Score         DG    S(hbond)    S(metal)    S(lipo)     H(rot)  DE(clash)    DE(int)     intcor
     18.63     -19.26       2.62        0.00      81.50       1.77       0.18       0.45       ----

> <Gold.Chemscore.Fitness>
18.6303

> <Gold.Chemscore.DG>
-19.2573

> <Gold.Chemscore.ZeroCoef>
-5.4800

> <Gold.Chemscore.Hbond>
2.6237

> <Gold.Chemscore.Metal>
0.0000

> <Gold.Chemscore.Lipo>
81.4989

> <Gold.Chemscore.Internal_Hbond>
0.0000

> <Gold.Chemscore.DEClash>
0.1797

> <Gold.Chemscore.DEInternal>
0.4473

> <Gold.Chemscore.Rot>
1.7662

> <Gold.Chemscore.Internal.Correction>
   9.000000E+99

> <Gold.Chemscore.Hbonds>
donor molecule, donor type, donor heavy atom, donor atom, acceptor molecule, acceptor atom, score
      L1  H     5    31       P1  7948  1.00
      L1  H     8    32       P1  7948  0.88
      P1  H  7989  7998       L1    13  0.03
      P1  H  7997  8010       L1    18  0.58

> <Gold.Chemscore.Hbond.Weighted>
-8.7633

> <Gold.Chemscore.Metal.Weighted>
-0.0000

> <Gold.Chemscore.Lipo.Weighted>
-9.5354

> <Gold.Chemscore.Internal_Hbond.Weighted>
0.0000

> <Gold.Chemscore.DEClash.Weighted>
0.1797

> <Gold.Chemscore.DEInternal.Weighted>
0.4473

> <Gold.Chemscore.Rot.Weighted>
4.5214

> <Gold.Chemscore.Internal.Correction.Weighted>
   9.000000E+99

> <Gold.Protein.RotatedTorsions>
[ 6907 6896 6895 6894 ] final   17.48 input  -60.11 | X-H torsion
[ 7974 7965 7964 7962 ] final  172.22 input  175.53 | X-H torsion
[ 8008 7997 7996 7995 ] final   56.99 input   59.86 | X-H torsion
[ 10167 10162 10161 10158 ] final  105.76 input  -65.29 | X-H torsion
[ 10718 10713 10712 10709 ] final  -99.80 input   66.30 | X-H torsion
[ 10763 10752 10751 10750 ] final  149.83 input  -60.55 | X-H torsion
[ 11005 11000 10999 10996 ] final  107.60 input  -57.11 | X-H torsion

> <Gold.Protein.ActiveResidues>
 VAL166  LYS551  ARG553  GLY616  TRP617  ASP618  TYR619  PRO620  LYS621  CYS622 
 ASP623  PHE694  ASN695  SER759  ASP760  ASP761  ALA762  ILE779  LEU786  VAL792 
 PHE793  MET794  SER795  GLU796  ALA797  LYS798  CYS799  TRP800  GLU811  SER814 

> <Gold.Protein.RotatedAtoms>
  151.8503  135.0560  160.0457 H   0  0  0  0  0  0  0  0  0  0  0  0  # atno 6907 bound_to 6896
  152.2741  133.5405  159.5466 H   0  0  0  0  0  0  0  0  0  0  0  0  # atno 6908 bound_to 6896
  150.7163  134.0572  159.3861 H   0  0  0  0  0  0  0  0  0  0  0  0  # atno 6909 bound_to 6896
  144.7274  139.9466  143.6430 H   0  0  0  0  0  0  0  0  0  0  0  0  # atno 7974 bound_to 7965
  155.5265  140.3481  155.4417 H   0  0  0  0  0  0  0  0  0  0  0  0  # atno 8008 bound_to 7997
  156.0748  140.1372  156.9811 H   0  0  0  0  0  0  0  0  0  0  0  0  # atno 8009 bound_to 7997
  154.4547  140.0958  156.6699 H   0  0  0  0  0  0  0  0  0  0  0  0  # atno 8010 bound_to 7997
  139.7065  144.7085  151.1097 H   0  0  0  0  0  0  0  0  0  0  0  0  # atno 10167 bound_to 10162
  156.0144  130.5299  150.6723 H   0  0  0  0  0  0  0  0  0  0  0  0  # atno 10718 bound_to 10713
  154.0776  135.2862  155.3296 H   0  0  0  0  0  0  0  0  0  0  0  0  # atno 10763 bound_to 10752
  154.6705  135.5301  153.8135 H   0  0  0  0  0  0  0  0  0  0  0  0  # atno 10764 bound_to 10752
  153.0461  135.6556  154.0953 H   0  0  0  0  0  0  0  0  0  0  0  0  # atno 10765 bound_to 10752
  139.8830  134.9405  156.5844 H   0  0  0  0  0  0  0  0  0  0  0  0  # atno 11005 bound_to 11000
  146.0744  139.3732  143.0503 LP  0  0  0  0  0  0  0  0  0  0  0  0  # atno 17320 bound_to 7965
  145.7925  140.9808  143.1041 LP  0  0  0  0  0  0  0  0  0  0  0  0  # atno 17321 bound_to 7965
  140.7723  143.5351  150.9378 LP  0  0  0  0  0  0  0  0  0  0  0  0  # atno 17342 bound_to 10162
  139.9034  143.6807  152.3127 LP  0  0  0  0  0  0  0  0  0  0  0  0  # atno 17343 bound_to 10162
  157.4443  131.0865  151.0912 LP  0  0  0  0  0  0  0  0  0  0  0  0  # atno 17370 bound_to 10713
  157.1446  130.6158  149.5565 LP  0  0  0  0  0  0  0  0  0  0  0  0  # atno 17371 bound_to 10713
  140.8003  133.8511  155.8721 LP  0  0  0  0  0  0  0  0  0  0  0  0  # atno 17394 bound_to 11000
  140.9598  134.1670  157.4662 LP  0  0  0  0  0  0  0  0  0  0  0  0  # atno 17395 bound_to 11000

$$$$
