#       Name:                AV-unprocessed.smi:2865
#       Creating user name   scv26
#       Creation time:       Fri Mar 27 15:47:50 2020


#       File generated by GOLD software.
#

@<TRIPOS>MOLECULE
AV-unprocessed.smi:2865
    44    47     1
SMALL
NO_CHARGES


@<TRIPOS>ATOM
      1 ****        -0.5526   2.7751   0.5658 O.2            1 S1                 0.0000
      2 ****        -0.8827   1.5959   0.4641 C.2            1 S1                 0.0000
      3 ****        -0.0251   0.5669   0.3188 N.am           1 S1                 0.0000
      4 ****         1.3955   0.5834   0.3205 C.ar           1 S1                 0.0000
      5 ****         2.2025   1.6587   0.7682 C.ar           1 S1                 0.0000
      6 ****         3.5513   1.5866   0.7544 N.ar           1 S1                 0.0000
      7 ****         4.0943   0.4566   0.2932 C.ar           1 S1                 0.0000
      8 ****         5.5891   0.3694   0.3187 C.3            1 S1                 0.0000
      9 ****         6.4394   1.4138  -0.3753 C.3            1 S1                 0.0000
     10 ****         6.3675   0.0199  -0.9334 C.3            1 S1                 0.0000
     11 ****         3.4373  -0.6256  -0.1327 N.ar           1 S1                 0.0000
     12 ****         2.0886  -0.5626  -0.1221 C.ar           1 S1                 0.0000
     13 ****        -2.1781   1.2351   0.4604 N.am           1 S1                 0.0000
     14 ****        -3.3543   2.0961   0.5956 C.3            1 S1                 0.0000
     15 ****        -3.6438   2.4879   2.0506 C.3            1 S1                 0.0000
     16 ****        -5.0653   1.9449   2.2476 C.3            1 S1                 0.0000
     17 ****        -6.1055   2.7385   1.4430 C.3            1 S1                 0.0000
     18 ****        -5.8158   2.2801   0.0135 C.3            1 S1                 0.0000
     19 ****        -4.6342   1.3254   0.2284 C.3            1 S1                 0.0000
     20 ****        -4.9905   0.7585   1.4785 O.3            1 S1                 0.0000
     21 ****        -0.4462  -0.3378   0.1668 H              1 S1                 0.0000
     22 ****         1.7933   2.5763   1.1600 H              1 S1                 0.0000
     23 ****         5.9464  -0.0274   1.2671 H              1 S1                 0.0000
     24 ****         5.9287   2.2006  -0.9273 H              1 S1                 0.0000
     25 ****         7.3639   1.7125   0.1147 H              1 S1                 0.0000
     26 ****         7.2440  -0.6143  -0.8178 H              1 S1                 0.0000
     27 ****         5.8090  -0.1202  -1.8569 H              1 S1                 0.0000
     28 ****         1.5589  -1.4379  -0.4687 H              1 S1                 0.0000
     29 ****        -2.3711   0.2532   0.3241 H              1 S1                 0.0000
     30 ****        -3.2485   2.9717  -0.0476 H              1 S1                 0.0000
     31 ****        -2.9549   2.0011   2.7428 H              1 S1                 0.0000
     32 ****        -3.5838   3.5640   2.2171 H              1 S1                 0.0000
     33 ****        -5.3376   1.7879   3.2916 H              1 S1                 0.0000
     34 ****        -7.1186   2.4597   1.7345 H              1 S1                 0.0000
     35 ****        -5.9956   3.8154   1.5737 H              1 S1                 0.0000
     36 ****        -6.6736   1.7472  -0.3984 H              1 S1                 0.0000
     37 ****        -5.5722   3.1051  -0.6570 H              1 S1                 0.0000
     38 ****        -4.5093   0.6001  -0.5766 H              1 S1                 0.0000
     39 ****         0.4148   3.0272   0.5433 LP             1 S1                 0.0000
     40 ****        -1.2514   3.4826   0.6711 LP             1 S1                 0.0000
     41 ****         4.1181   2.3454   1.0752 LP             1 S1                 0.0000
     42 ****         3.9211  -1.4434  -0.4444 LP             1 S1                 0.0000
     43 ****        -5.8690   0.2824   1.4374 LP             1 S1                 0.0000
     44 ****        -4.2885   0.1338   1.8205 LP             1 S1                 0.0000
@<TRIPOS>BOND
    1    1    2 2     
    2    2    3 am    
    3    2   13 am    
    4    3    4 1     
    5    3   21 1     
    6    4   12 ar    
    7    4    5 ar    
    8    5    6 ar    
    9    5   22 1     
   10    6    7 ar    
   11    7    8 1     
   12    7   11 ar    
   13    8   10 1     
   14    8    9 1     
   15    8   23 1     
   16    9   10 1     
   17    9   24 1     
   18    9   25 1     
   19   10   26 1     
   20   10   27 1     
   21   11   12 ar    
   22   12   28 1     
   23   13   14 1     
   24   13   29 1     
   25   14   19 1     
   26   14   15 1     
   27   14   30 1     
   28   15   16 1     
   29   15   31 1     
   30   15   32 1     
   31   16   20 1     
   32   16   17 1     
   33   16   33 1     
   34   17   18 1     
   35   17   34 1     
   36   17   35 1     
   37   18   19 1     
   38   18   36 1     
   39   18   37 1     
   40   19   20 1     
   41   19   38 1     
   42    1   39 1     
   43    1   40 1     
   44    6   41 1     
   45   11   42 1     
   46   20   43 1     
   47   20   44 1     
@<TRIPOS>SUBSTRUCTURE
      1 S1             1
@<TRIPOS>SET
LONE_PAIRS      STATIC     ATOMS    <user>   **** ""
6 39 40 41 42 43 44
DONOR_HYDROGENS      STATIC     ATOMS    <user>   **** ""
2 21 29
ATOM$BLUE        STATIC     ATOMS    COLORGROUP SYSTEM
6 39 40 41 42 43 44
ATOM$RED        STATIC     ATOMS    COLORGROUP SYSTEM
2 21 29
