AV-unprocessed.smi:1132|AV-procd|sdf|4854|dock3
  -GOLD-   22720 3423D 1   1.00000     0.00000
 Structure written by MMmdl.
 50 51  0  0  0  0  0  0  0  0  2 V2000
  152.0452  143.1278  160.9941 C   0  0  0  0  0  0  0  0  0  0  0  0
  151.7186  143.1826  159.5844 N   0  0  0  0  0  0  0  0  0  0  0  0
  151.7842  144.4246  158.9078 C   0  0  0  0  0  0  0  0  0  0  0  0
  152.1030  145.4722  159.4704 O   0  0  0  0  0  0  0  0  0  0  0  0
  151.4579  144.3553  157.4885 C   0  0  0  0  0  0  0  0  0  0  0  0
  151.1417  143.1787  156.9051 C   0  0  0  0  0  0  0  0  0  0  0  0
  151.0998  141.9759  157.5866 N   0  0  0  0  0  0  0  0  0  0  0  0
  150.7997  140.7367  156.8511 C   0  0  0  0  0  0  0  0  0  0  0  0
  149.9935  140.9418  155.5559 C   0  0  0  0  0  0  0  0  0  0  0  0
  150.3822  140.4173  154.5136 O   0  0  0  0  0  0  0  0  0  0  0  0
  148.8762  141.6842  155.6251 N   0  0  0  0  0  0  0  0  0  0  0  0
  147.9644  141.9923  154.5307 C   0  0  0  0  0  0  0  0  0  0  0  0
  146.5873  142.4316  155.0516 C   0  0  0  0  0  0  0  0  0  0  0  0
  145.6852  141.2857  155.5796 C   0  0  0  0  0  0  0  0  0  0  0  0
  146.0650  140.8419  157.0107 C   0  0  0  0  0  0  0  0  0  0  0  0
  144.2415  141.8189  155.6572 C   0  0  0  0  0  0  0  0  0  0  0  0
  145.6667  140.1331  154.6346 N   0  3  0  0  0  0  0  0  0  0  0  0
  146.9361  139.6511  154.0189 C   0  0  0  0  0  0  0  0  0  0  0  0
  147.7027  138.7021  154.9671 C   0  0  0  0  0  0  0  0  0  0  0  0
  146.5409  138.8143  152.7865 C   0  0  0  0  0  0  0  0  0  0  0  0
  147.8122  140.8335  153.5299 C   0  0  0  0  0  0  0  0  0  0  0  0
  151.3835  141.9568  158.9697 C   0  0  0  0  0  0  0  0  0  0  0  0
  151.3619  140.8980  159.6018 O   0  0  0  0  0  0  0  0  0  0  0  0
  152.1911  144.1256  161.4066 H   0  0  0  0  0  0  0  0  0  0  0  0
  152.9611  142.5415  161.0867 H   0  0  0  0  0  0  0  0  0  0  0  0
  151.2099  142.6466  161.5063 H   0  0  0  0  0  0  0  0  0  0  0  0
  151.4775  145.2577  156.8951 H   0  0  0  0  0  0  0  0  0  0  0  0
  150.9193  143.1794  155.8476 H   0  0  0  0  0  0  0  0  0  0  0  0
  151.7235  140.2098  156.6069 H   0  0  0  0  0  0  0  0  0  0  0  0
  150.2409  140.0562  157.4954 H   0  0  0  0  0  0  0  0  0  0  0  0
  148.6461  142.0798  156.5252 H   0  0  0  0  0  0  0  0  0  0  0  0
  148.3901  142.8437  153.9960 H   0  0  0  0  0  0  0  0  0  0  0  0
  146.7023  143.2053  155.8126 H   0  0  0  0  0  0  0  0  0  0  0  0
  146.0766  142.9203  154.2202 H   0  0  0  0  0  0  0  0  0  0  0  0
  145.9395  141.6622  157.7186 H   0  0  0  0  0  0  0  0  0  0  0  0
  147.0936  140.5146  157.1114 H   0  0  0  0  0  0  0  0  0  0  0  0
  145.4324  140.0222  157.3529 H   0  0  0  0  0  0  0  0  0  0  0  0
  144.1708  142.6831  156.3192 H   0  0  0  0  0  0  0  0  0  0  0  0
  143.5544  141.0605  156.0352 H   0  0  0  0  0  0  0  0  0  0  0  0
  143.8742  142.1290  154.6779 H   0  0  0  0  0  0  0  0  0  0  0  0
  145.1977  139.3542  155.0747 H   0  0  0  0  0  0  0  0  0  0  0  0
  148.5398  138.2315  154.4501 H   0  0  0  0  0  0  0  0  0  0  0  0
  147.0583  137.9016  155.3326 H   0  0  0  0  0  0  0  0  0  0  0  0
  148.1271  139.1960  155.8339 H   0  0  0  0  0  0  0  0  0  0  0  0
  147.4201  138.4392  152.2610 H   0  0  0  0  0  0  0  0  0  0  0  0
  145.9610  139.4003  152.0723 H   0  0  0  0  0  0  0  0  0  0  0  0
  145.9344  137.9516  153.0659 H   0  0  0  0  0  0  0  0  0  0  0  0
  147.3573  141.2531  152.6310 H   0  0  0  0  0  0  0  0  0  0  0  0
  148.7919  140.4741  153.2116 H   0  0  0  0  0  0  0  0  0  0  0  0
  145.0936  140.4345  153.8595 H   0  0  0  0  0  0  0  0  0  0  0  0
  1  2  1  0  0  0  0
  1 24  1  0  0  0  0
  1 25  1  0  0  0  0
  1 26  1  0  0  0  0
  2 22  1  0  0  0  0
  2  3  1  0  0  0  0
  3  4  2  0  0  0  0
  3  5  1  0  0  0  0
  5  6  2  0  0  0  0
  5 27  1  0  0  0  0
  6  7  1  0  0  0  0
  6 28  1  0  0  0  0
  7  8  1  0  0  0  0
  7 22  1  0  0  0  0
  8  9  1  0  0  0  0
  8 29  1  0  0  0  0
  8 30  1  0  0  0  0
  9 10  2  0  0  0  0
  9 11  1  0  0  0  0
 11 12  1  0  0  0  0
 11 31  1  0  0  0  0
 12 21  1  0  0  0  0
 12 13  1  0  0  0  0
 12 32  1  0  0  0  0
 13 14  1  0  0  0  0
 13 33  1  0  0  0  0
 13 34  1  0  0  0  0
 14 15  1  0  0  0  0
 14 16  1  0  0  0  0
 14 17  1  0  0  0  0
 15 35  1  0  0  0  0
 15 36  1  0  0  0  0
 15 37  1  0  0  0  0
 16 38  1  0  0  0  0
 16 39  1  0  0  0  0
 16 40  1  0  0  0  0
 17 18  1  0  0  0  0
 17 41  1  0  0  0  0
 17 50  1  0  0  0  0
 18 19  1  0  0  0  0
 18 20  1  0  0  0  0
 18 21  1  0  0  0  0
 19 42  1  0  0  0  0
 19 43  1  0  0  0  0
 19 44  1  0  0  0  0
 20 45  1  0  0  0  0
 20 46  1  0  0  0  0
 20 47  1  0  0  0  0
 21 48  1  0  0  0  0
 21 49  1  0  0  0  0
 22 23  2  0  0  0  0
M  CHG  1  17   1
M  END
> <s_m_source_file>
AV-unprocessed.smi

> <i_m_source_file_index>
1132

> <i_lp_mmshare_version>
43012

> <i_f3d_flags>
0

> <s_epik_input>
W0NIM11uMWMoPU8pW2NIXVtjSF1uKGMxPU8pW0NIMl1DKD1PKVtOSF1bQ0hdKFtDSDJdQzIoW0NIM10pW0NIM10pW0NIMl1DKFtOSF0yKShbQ0gzXSlbQ0gzXQ==

> <s_epik_cmdline>
J2VwaWtfcHl0aG9uJywgJy1waCcsICc3LjAnLCAnLXRuJywgJzgnLCAnLW1hJywgJzIwMCcsICctbWV0YWxfYmluZGluZycsICctaW1hZScsICc8aW5maWxlLm1hZT4nLCAnLW9tYWUnLCAnPG91dGZpbGUubWFlPic=

> <r_lp_tautomer_probability>
1

> <r_epik_Ionization_Penalty>
0.000184799

> <r_epik_Ionization_Penalty_Charging>
0.00018476

> <r_epik_Ionization_Penalty_Neutral>
3.8997e-08

> <r_epik_State_Penalty>
-0

> <r_epik_Charging_Adjusted_Penalty>
0.00018476

> <i_epik_Tot_Q>
1

> <i_epik_Tot_abs_Q>
1

> <r_epik_Metal_State_Penalty>
-0

> <b_epik_Metal_Only>
0

> <s_lp_Force_Field>
OPLS_2005

> <r_lp_Energy>
31.5781

> <b_lp_Chiralities_Consistent>
1

> <s_lp_Variant>
AV-unprocessed.smi:1132-1

> <Gold.Version>
5.8.1

> <Gold.Id.Protein>
6NUR|6NUR_protein|mol2

> <Gold.PLP.Fitness>
49.4102

> <Gold.PLP.PLP>
-40.5391

> <Gold.PLP.part.hbond>
-3.0694

> <Gold.PLP.part.metal>
0.0000

> <Gold.PLP.part.buried>
0.0716

> <Gold.PLP.part.nonpolar>
-37.3025

> <Gold.PLP.part.repulsive>
0.3091

> <Gold.PLP.ligand.clash>
0.0000

> <Gold.PLP.ligand.torsion>
0.7432

> <Gold.PLP.Chemscore.Hbond>
2.9920

> <Gold.PLP.Chemscore.CHOScore>
0.4548

> <Gold.PLP.Chemscore.Metal>
0.0000

> <Gold.Chemscore.Hbonds>
donor molecule, donor type, donor heavy atom, donor atom, acceptor molecule, acceptor atom, score
      L1  H    17    50       P1 10175  2.00
      P1  H  7989  7998       L1    10  1.00
      L1  C     6    28       P1  8028  0.46

> <Gold.PLP.Chemscore.Internal.Correction>
0.0171

> <Gold.Rescore>
     Score         DG    S(hbond)    S(metal)    S(lipo)     H(rot)  DE(clash)    DE(int)     intcor
     13.72     -17.11       1.91        0.00      79.59       1.59       1.25       2.13       ----

> <Gold.Chemscore.Fitness>
13.7236

> <Gold.Chemscore.DG>
-17.1121

> <Gold.Chemscore.ZeroCoef>
-5.4800

> <Gold.Chemscore.Hbond>
1.9128

> <Gold.Chemscore.Metal>
0.0000

> <Gold.Chemscore.Lipo>
79.5888

> <Gold.Chemscore.Internal_Hbond>
0.0000

> <Gold.Chemscore.DEClash>
1.2544

> <Gold.Chemscore.DEInternal>
2.1341

> <Gold.Chemscore.Rot>
1.5892

> <Gold.Chemscore.Internal.Correction>
   9.000000E+99

> <Gold.Chemscore.Hbonds>
donor molecule, donor type, donor heavy atom, donor atom, acceptor molecule, acceptor atom, score
      L1  H    17    50       P1 10175  0.98
      P1  H  7989  7998       L1    10  0.95

> <Gold.Chemscore.Hbond.Weighted>
-6.3887

> <Gold.Chemscore.Metal.Weighted>
-0.0000

> <Gold.Chemscore.Lipo.Weighted>
-9.3119

> <Gold.Chemscore.Internal_Hbond.Weighted>
0.0000

> <Gold.Chemscore.DEClash.Weighted>
1.2544

> <Gold.Chemscore.DEInternal.Weighted>
2.1341

> <Gold.Chemscore.Rot.Weighted>
4.0685

> <Gold.Chemscore.Internal.Correction.Weighted>
   9.000000E+99

> <Gold.Protein.RotatedTorsions>
[ 6907 6896 6895 6894 ] final  -52.98 input  -60.11 | X-H torsion
[ 7974 7965 7964 7962 ] final  -80.05 input  175.53 | X-H torsion
[ 8008 7997 7996 7995 ] final  -91.82 input   59.86 | X-H torsion
[ 10167 10162 10161 10158 ] final  -58.14 input  -65.29 | X-H torsion
[ 10718 10713 10712 10709 ] final  -52.11 input   66.30 | X-H torsion
[ 10763 10752 10751 10750 ] final  104.97 input  -60.55 | X-H torsion
[ 11005 11000 10999 10996 ] final -146.53 input  -57.11 | X-H torsion

> <Gold.Protein.ActiveResidues>
 VAL166  LYS551  ARG553  GLY616  TRP617  ASP618  TYR619  PRO620  LYS621  CYS622 
 ASP623  PHE694  ASN695  SER759  ASP760  ASP761  ALA762  ILE779  LEU786  VAL792 
 PHE793  MET794  SER795  GLU796  ALA797  LYS798  CYS799  TRP800  GLU811  SER814 

> <Gold.Protein.RotatedAtoms>
  150.8468  134.7779  159.6976 H   0  0  0  0  0  0  0  0  0  0  0  0  # atno 6907 bound_to 6896
  152.4543  134.5323  159.9824 H   0  0  0  0  0  0  0  0  0  0  0  0  # atno 6908 bound_to 6896
  151.5452  133.3388  159.2978 H   0  0  0  0  0  0  0  0  0  0  0  0  # atno 6909 bound_to 6896
  145.5651  140.9475  143.1426 H   0  0  0  0  0  0  0  0  0  0  0  0  # atno 7974 bound_to 7965
  154.7155  140.0515  157.0590 H   0  0  0  0  0  0  0  0  0  0  0  0  # atno 8008 bound_to 7997
  155.0498  140.3178  155.4677 H   0  0  0  0  0  0  0  0  0  0  0  0  # atno 8009 bound_to 7997
  156.2801  140.2118  156.5623 H   0  0  0  0  0  0  0  0  0  0  0  0  # atno 8010 bound_to 7997
  140.6215  143.2421  151.5468 H   0  0  0  0  0  0  0  0  0  0  0  0  # atno 10167 bound_to 10162
  156.1650  130.4149  149.9734 H   0  0  0  0  0  0  0  0  0  0  0  0  # atno 10718 bound_to 10713
  153.3731  135.3925  155.1803 H   0  0  0  0  0  0  0  0  0  0  0  0  # atno 10763 bound_to 10752
  154.8697  135.3707  154.4952 H   0  0  0  0  0  0  0  0  0  0  0  0  # atno 10764 bound_to 10752
  153.5422  135.7084  153.5692 H   0  0  0  0  0  0  0  0  0  0  0  0  # atno 10765 bound_to 10752
  140.7810  134.3079  157.5045 H   0  0  0  0  0  0  0  0  0  0  0  0  # atno 11005 bound_to 11000
  144.7464  139.7309  143.7290 LP  0  0  0  0  0  0  0  0  0  0  0  0  # atno 17320 bound_to 7965
  146.1824  139.5022  142.9858 LP  0  0  0  0  0  0  0  0  0  0  0  0  # atno 17321 bound_to 7965
  139.5443  144.2563  152.1412 LP  0  0  0  0  0  0  0  0  0  0  0  0  # atno 17342 bound_to 10162
  140.1784  144.4868  150.6541 LP  0  0  0  0  0  0  0  0  0  0  0  0  # atno 17343 bound_to 10162
  156.7552  130.9130  151.3639 LP  0  0  0  0  0  0  0  0  0  0  0  0  # atno 17370 bound_to 10713
  157.6761  130.9096  150.0153 LP  0  0  0  0  0  0  0  0  0  0  0  0  # atno 17371 bound_to 10713
  139.8742  134.9318  156.3538 LP  0  0  0  0  0  0  0  0  0  0  0  0  # atno 17394 bound_to 11000
  140.9482  133.7468  156.0237 LP  0  0  0  0  0  0  0  0  0  0  0  0  # atno 17395 bound_to 11000

$$$$
