AV-unprocessed.smi:835|AV-procd|sdf|3888|dock1
  -GOLD-   22720 1343D 1   1.00000     0.00000
 Structure written by MMmdl.
 41 43  0  0  0  0  0  0  0  0  2 V2000
  150.6887  139.6239  154.5980 C   0  0  0  0  0  0  0  0  0  0  0  0
  149.2679  139.7941  154.1473 C   0  0  0  0  0  0  0  0  0  0  0  0
  148.3807  138.7968  153.6474 C   0  0  0  0  0  0  0  0  0  0  0  0
  147.2386  139.5076  153.3980 C   0  0  0  0  0  0  0  0  0  0  0  0
  146.0492  139.0704  152.9048 N   0  0  0  0  0  0  0  0  0  0  0  0
  145.6298  137.8061  152.7222 C   0  0  0  0  0  0  0  0  0  0  0  0
  146.2798  136.7921  152.9765 O   0  0  0  0  0  0  0  0  0  0  0  0
  144.3888  137.7739  152.2161 N   0  0  0  0  0  0  0  0  0  0  0  0
  143.6535  136.5524  151.9060 C   0  0  2  0  0  0  0  0  0  0  0  0
  143.6624  135.5069  153.0246 C   0  0  0  0  0  0  0  0  0  0  0  0
  143.5618  134.1574  152.2929 C   0  0  0  0  0  0  0  0  0  0  0  0
  143.7021  134.4425  150.8458 N   0  3  2  0  0  0  0  0  0  0  0  0
  144.4406  133.4097  150.0892 C   0  0  0  0  0  0  0  0  0  0  0  0
  143.6598  132.8368  148.9306 C   0  0  0  0  0  0  0  0  0  0  0  0
  143.8340  132.0313  150.2001 C   0  0  0  0  0  0  0  0  0  0  0  0
  144.2751  135.7953  150.7370 C   0  0  0  0  0  0  0  0  0  0  0  0
  147.4533  140.8262  153.7326 N   0  0  0  0  0  0  0  0  0  0  0  0
  146.5503  141.9573  153.6464 C   0  0  0  0  0  0  0  0  0  0  0  0
  148.7107  140.9989  154.1942 N   0  0  0  0  0  0  0  0  0  0  0  0
  150.9630  138.5698  154.6463 H   0  0  0  0  0  0  0  0  0  0  0  0
  150.8422  140.0511  155.5894 H   0  0  0  0  0  0  0  0  0  0  0  0
  151.3786  140.1152  153.9116 H   0  0  0  0  0  0  0  0  0  0  0  0
  148.5722  137.7441  153.5045 H   0  0  0  0  0  0  0  0  0  0  0  0
  145.3997  139.7980  152.6455 H   0  0  0  0  0  0  0  0  0  0  0  0
  143.9230  138.6514  152.0356 H   0  0  0  0  0  0  0  0  0  0  0  0
  142.6207  136.7998  151.6508 H   0  0  0  0  0  0  0  0  0  0  0  0
  144.6005  135.5505  153.5802 H   0  0  0  0  0  0  0  0  0  0  0  0
  142.8498  135.6576  153.7361 H   0  0  0  0  0  0  0  0  0  0  0  0
  144.3450  133.4826  152.6416 H   0  0  0  0  0  0  0  0  0  0  0  0
  142.6021  133.6724  152.4735 H   0  0  0  0  0  0  0  0  0  0  0  0
  145.5202  133.5343  150.0216 H   0  0  0  0  0  0  0  0  0  0  0  0
  142.6707  133.2422  148.7242 H   0  0  0  0  0  0  0  0  0  0  0  0
  144.2221  132.5156  148.0561 H   0  0  0  0  0  0  0  0  0  0  0  0
  144.5109  131.1800  150.1606 H   0  0  0  0  0  0  0  0  0  0  0  0
  142.9614  131.9019  150.8379 H   0  0  0  0  0  0  0  0  0  0  0  0
  144.0478  136.2509  149.7726 H   0  0  0  0  0  0  0  0  0  0  0  0
  145.3604  135.7459  150.8451 H   0  0  0  0  0  0  0  0  0  0  0  0
  146.3364  142.1749  152.6000 H   0  0  0  0  0  0  0  0  0  0  0  0
  146.9945  142.8397  154.1089 H   0  0  0  0  0  0  0  0  0  0  0  0
  145.6179  141.7228  154.1602 H   0  0  0  0  0  0  0  0  0  0  0  0
  142.7662  134.4947  150.4694 H   0  0  0  0  0  0  0  0  0  0  0  0
  1  2  1  0  0  0  0
  1 20  1  0  0  0  0
  1 21  1  0  0  0  0
  1 22  1  0  0  0  0
  2 19  2  0  0  0  0
  2  3  1  0  0  0  0
  3  4  2  0  0  0  0
  3 23  1  0  0  0  0
  4  5  1  0  0  0  0
  4 17  1  0  0  0  0
  5  6  1  0  0  0  0
  5 24  1  0  0  0  0
  6  7  2  0  0  0  0
  6  8  1  0  0  0  0
  8  9  1  0  0  0  0
  8 25  1  0  0  0  0
  9 16  1  0  0  0  0
  9 10  1  0  0  0  0
  9 26  1  0  0  0  0
 10 11  1  0  0  0  0
 10 27  1  0  0  0  0
 10 28  1  0  0  0  0
 11 12  1  0  0  0  0
 11 29  1  0  0  0  0
 11 30  1  0  0  0  0
 12 13  1  0  0  0  0
 12 16  1  0  0  0  0
 12 41  1  0  0  0  0
 13 15  1  0  0  0  0
 13 14  1  0  0  0  0
 13 31  1  0  0  0  0
 14 15  1  0  0  0  0
 14 32  1  0  0  0  0
 14 33  1  0  0  0  0
 15 34  1  0  0  0  0
 15 35  1  0  0  0  0
 16 36  1  0  0  0  0
 16 37  1  0  0  0  0
 17 18  1  0  0  0  0
 17 19  1  0  0  0  0
 18 38  1  0  0  0  0
 18 39  1  0  0  0  0
 18 40  1  0  0  0  0
M  CHG  1  12   1
M  END
> <s_m_source_file>
AV-unprocessed.smi

> <i_m_source_file_index>
835

> <i_lp_mmshare_version>
43012

> <i_f3d_flags>
0

> <s_epik_input>
W0NIM11jMVtjSF1jKG4objEpW0NIM10pW05IXUMoPU8pW05IXVtDQEBIXTJbQ0gyXVtDSDJdTihbQ0gyXTIpW0NIXTNbQ0gyXVtDSDJdMw==

> <s_epik_cmdline>
J2VwaWtfcHl0aG9uJywgJy1waCcsICc3LjAnLCAnLXRuJywgJzgnLCAnLW1hJywgJzIwMCcsICctbWV0YWxfYmluZGluZycsICctaW1hZScsICc8aW5maWxlLm1hZT4nLCAnLW9tYWUnLCAnPG91dGZpbGUubWFlPic=

> <r_lp_tautomer_probability>
1

> <r_epik_Ionization_Penalty>
0.000700689

> <r_epik_Ionization_Penalty_Charging>
0.000627528

> <r_epik_Ionization_Penalty_Neutral>
7.31611e-05

> <r_epik_State_Penalty>
0.00039643

> <r_epik_Charging_Adjusted_Penalty>
0.00102396

> <i_epik_Tot_Q>
1

> <i_epik_Tot_abs_Q>
1

> <r_epik_Metal_State_Penalty>
-0

> <b_epik_Metal_Only>
0

> <s_lp_Force_Field>
OPLS_2005

> <r_lp_Energy>
38.0167

> <b_lp_Chiralities_Consistent>
1

> <s_lp_Variant>
AV-unprocessed.smi:835-3

> <Gold.Version>
5.8.1

> <Gold.Id.Protein>
6NUR|6NUR_protein|mol2

> <Gold.PLP.Fitness>
46.7388

> <Gold.PLP.PLP>
-35.3072

> <Gold.PLP.part.hbond>
-3.9480

> <Gold.PLP.part.metal>
0.0000

> <Gold.PLP.part.buried>
-2.2548

> <Gold.PLP.part.nonpolar>
-30.2455

> <Gold.PLP.part.repulsive>
0.7784

> <Gold.PLP.ligand.clash>
0.0000

> <Gold.PLP.ligand.torsion>
0.8564

> <Gold.PLP.Chemscore.Hbond>
3.9585

> <Gold.PLP.Chemscore.CHOScore>
0.0000

> <Gold.PLP.Chemscore.Metal>
0.0000

> <Gold.Chemscore.Hbonds>
donor molecule, donor type, donor heavy atom, donor atom, acceptor molecule, acceptor atom, score
      L1  H     5    24       P1 10175  1.00
      L1  H     8    25       P1 10175  1.00
      L1  H    12    41       P1 10186  2.00

> <Gold.PLP.Chemscore.Internal.Correction>
1.2689

> <Gold.Rescore>
     Score         DG    S(hbond)    S(metal)    S(lipo)     H(rot)  DE(clash)    DE(int)     intcor
     16.37     -19.93       2.61        0.00      75.78       1.22       0.24       3.31       ----

> <Gold.Chemscore.Fitness>
16.3702

> <Gold.Chemscore.DG>
-19.9262

> <Gold.Chemscore.ZeroCoef>
-5.4800

> <Gold.Chemscore.Hbond>
2.6053

> <Gold.Chemscore.Metal>
0.0000

> <Gold.Chemscore.Lipo>
75.7848

> <Gold.Chemscore.Internal_Hbond>
0.0000

> <Gold.Chemscore.DEClash>
0.2435

> <Gold.Chemscore.DEInternal>
3.3124

> <Gold.Chemscore.Rot>
1.2196

> <Gold.Chemscore.Internal.Correction>
   9.000000E+99

> <Gold.Chemscore.Hbonds>
donor molecule, donor type, donor heavy atom, donor atom, acceptor molecule, acceptor atom, score
      L1  H     5    24       P1 10175  0.96
      L1  H     8    25       P1 10175  0.95
      L1  H    12    41       P1 10186  0.49

> <Gold.Chemscore.Hbond.Weighted>
-8.7017

> <Gold.Chemscore.Metal.Weighted>
-0.0000

> <Gold.Chemscore.Lipo.Weighted>
-8.8668

> <Gold.Chemscore.Internal_Hbond.Weighted>
0.0000

> <Gold.Chemscore.DEClash.Weighted>
0.2435

> <Gold.Chemscore.DEInternal.Weighted>
3.3124

> <Gold.Chemscore.Rot.Weighted>
3.1223

> <Gold.Chemscore.Internal.Correction.Weighted>
   9.000000E+99

> <Gold.Protein.RotatedTorsions>
[ 6907 6896 6895 6894 ] final -107.75 input  -60.11 | X-H torsion
[ 7974 7965 7964 7962 ] final -143.96 input  175.53 | X-H torsion
[ 8008 7997 7996 7995 ] final -111.35 input   59.86 | X-H torsion
[ 10167 10162 10161 10158 ] final -120.70 input  -65.29 | X-H torsion
[ 10718 10713 10712 10709 ] final  -32.05 input   66.30 | X-H torsion
[ 10763 10752 10751 10750 ] final  -83.39 input  -60.55 | X-H torsion
[ 11005 11000 10999 10996 ] final -145.47 input  -57.11 | X-H torsion

> <Gold.Protein.ActiveResidues>
 VAL166  LYS551  ARG553  GLY616  TRP617  ASP618  TYR619  PRO620  LYS621  CYS622 
 ASP623  PHE694  ASN695  SER759  ASP760  ASP761  ALA762  ILE779  LEU786  VAL792 
 PHE793  MET794  SER795  GLU796  ALA797  LYS798  CYS799  TRP800  GLU811  SER814 

> <Gold.Protein.RotatedAtoms>
  150.7462  133.9780  159.3566 H   0  0  0  0  0  0  0  0  0  0  0  0  # atno 6907 bound_to 6896
  151.7719  135.0782  160.0370 H   0  0  0  0  0  0  0  0  0  0  0  0  # atno 6908 bound_to 6896
  152.3333  133.5946  159.5861 H   0  0  0  0  0  0  0  0  0  0  0  0  # atno 6909 bound_to 6896
  144.8331  140.5769  143.5502 H   0  0  0  0  0  0  0  0  0  0  0  0  # atno 7974 bound_to 7965
  154.9885  140.0395  157.2309 H   0  0  0  0  0  0  0  0  0  0  0  0  # atno 8008 bound_to 7997
  154.7650  140.2791  155.6161 H   0  0  0  0  0  0  0  0  0  0  0  0  # atno 8009 bound_to 7997
  156.2911  140.2621  156.2438 H   0  0  0  0  0  0  0  0  0  0  0  0  # atno 8010 bound_to 7997
  140.0330  143.5229  152.2167 H   0  0  0  0  0  0  0  0  0  0  0  0  # atno 10167 bound_to 10162
  156.3797  130.4354  149.7478 H   0  0  0  0  0  0  0  0  0  0  0  0  # atno 10718 bound_to 10713
  154.5872  135.5557  153.7243 H   0  0  0  0  0  0  0  0  0  0  0  0  # atno 10763 bound_to 10752
  153.0103  135.6334  154.1900 H   0  0  0  0  0  0  0  0  0  0  0  0  # atno 10764 bound_to 10752
  154.1841  135.2885  155.3023 H   0  0  0  0  0  0  0  0  0  0  0  0  # atno 10765 bound_to 10752
  140.7919  134.2959  157.5010 H   0  0  0  0  0  0  0  0  0  0  0  0  # atno 11005 bound_to 11000
  145.4852  139.1492  143.3740 LP  0  0  0  0  0  0  0  0  0  0  0  0  # atno 17320 bound_to 7965
  146.2633  140.4989  142.8844 LP  0  0  0  0  0  0  0  0  0  0  0  0  # atno 17321 bound_to 7965
  139.6063  144.7597  151.3054 LP  0  0  0  0  0  0  0  0  0  0  0  0  # atno 17342 bound_to 10162
  140.7293  143.6910  150.7922 LP  0  0  0  0  0  0  0  0  0  0  0  0  # atno 17343 bound_to 10162
  156.4574  130.7935  151.2956 LP  0  0  0  0  0  0  0  0  0  0  0  0  # atno 17370 bound_to 10713
  157.7491  131.0076  150.3198 LP  0  0  0  0  0  0  0  0  0  0  0  0  # atno 17371 bound_to 10713
  139.8730  134.9379  156.3700 LP  0  0  0  0  0  0  0  0  0  0  0  0  # atno 17394 bound_to 11000
  140.9381  133.7533  156.0111 LP  0  0  0  0  0  0  0  0  0  0  0  0  # atno 17395 bound_to 11000

$$$$
