#       Name:                AV-unprocessed.smi:3135
#       Creating user name   scv26
#       Creation time:       Fri Mar 27 17:34:06 2020


#       File generated by GOLD software.
#

@<TRIPOS>MOLECULE
AV-unprocessed.smi:3135
    41    42     1
SMALL
NO_CHARGES


@<TRIPOS>ATOM
      1 ****        -4.8731   2.0180   3.6557 C.3            1 S1                 0.0000
      2 ****        -4.3785   1.8251   2.2513 C.2            1 S1                 0.0000
      3 ****        -4.5747   2.6831   1.1322 C.2            1 S1                 0.0000
      4 ****        -4.0079   2.2259   0.0277 N.2            1 S1                 0.0000
      5 ****        -3.4261   1.0660   0.4008 N.pl3          1 S1                 0.0000
      6 ****        -2.7003   0.2731  -0.5766 C.3            1 S1                 0.0000
      7 ****        -1.1935   0.3001  -0.3089 C.2            1 S1                 0.0000
      8 ****        -0.5770   1.3647  -0.3540 O.2            1 S1                 0.0000
      9 ****        -0.6135  -0.8776  -0.0296 N.am           1 S1                 0.0000
     10 ****         0.8024  -1.0663   0.2608 C.3            1 S1                 0.0000
     11 ****         1.6437  -1.0701  -1.0302 C.3            1 S1                 0.0000
     12 ****         3.0735  -1.1864  -0.7518 N.3            1 S1                 0.0000
     13 ****         3.4220  -2.5459  -0.3554 C.3            1 S1                 0.0000
     14 ****         3.8090  -0.8707  -1.9662 C.3            1 S1                 0.0000
     15 ****         5.2176  -0.3423  -1.8150 C.3            1 S1                 0.0000
     16 ****         4.1070   0.5855  -2.2440 C.3            1 S1                 0.0000
     17 ****        -3.6396   0.7973   1.7371 C.2            1 S1                 0.0000
     18 ****        -4.7224   3.0420   3.9977 H              1 S1                 0.0000
     19 ****        -4.3578   1.3659   4.3611 H              1 S1                 0.0000
     20 ****        -5.9387   1.8041   3.7386 H              1 S1                 0.0000
     21 ****        -5.1108   3.6197   1.0904 H              1 S1                 0.0000
     22 ****        -3.0823  -0.7483  -0.5455 H              1 S1                 0.0000
     23 ****        -2.8947   0.6577  -1.5791 H              1 S1                 0.0000
     24 ****        -1.1959  -1.7023  -0.0141 H              1 S1                 0.0000
     25 ****         1.1495  -0.2880   0.9427 H              1 S1                 0.0000
     26 ****         0.8988  -2.0126   0.7917 H              1 S1                 0.0000
     27 ****         1.3209  -1.8658  -1.7037 H              1 S1                 0.0000
     28 ****         1.4698  -0.1291  -1.5544 H              1 S1                 0.0000
     29 ****         4.4981  -2.6318  -0.2001 H              1 S1                 0.0000
     30 ****         3.1320  -3.2697  -1.1185 H              1 S1                 0.0000
     31 ****         2.9400  -2.8232   0.5813 H              1 S1                 0.0000
     32 ****         3.6372  -1.4834  -2.8499 H              1 S1                 0.0000
     33 ****         5.6117  -0.2196  -0.8079 H              1 S1                 0.0000
     34 ****         5.9460  -0.6368  -2.5676 H              1 S1                 0.0000
     35 ****         4.0949   0.9101  -3.2824 H              1 S1                 0.0000
     36 ****         3.7625   1.3232  -1.5213 H              1 S1                 0.0000
     37 ****        -3.2484  -0.0931   2.2071 H              1 S1                 0.0000
     38 ****        -4.0099   2.6454  -0.8801 LP             1 S1                 0.0000
     39 ****        -1.0607   2.2140  -0.5658 LP             1 S1                 0.0000
     40 ****         0.4074   1.3803  -0.1788 LP             1 S1                 0.0000
     41 ****         3.3042  -0.5591  -0.0080 LP             1 S1                 0.0000
@<TRIPOS>BOND
    1    1    2 1     
    2    1   18 1     
    3    1   19 1     
    4    1   20 1     
    5    2   17 2     
    6    2    3 1     
    7    3    4 2     
    8    3   21 1     
    9    4    5 1     
   10    5    6 1     
   11    5   17 1     
   12    6    7 1     
   13    6   22 1     
   14    6   23 1     
   15    7    8 2     
   16    7    9 am    
   17    9   10 1     
   18    9   24 1     
   19   10   11 1     
   20   10   25 1     
   21   10   26 1     
   22   11   12 1     
   23   11   27 1     
   24   11   28 1     
   25   12   13 1     
   26   12   14 1     
   27   13   29 1     
   28   13   30 1     
   29   13   31 1     
   30   14   16 1     
   31   14   15 1     
   32   14   32 1     
   33   15   16 1     
   34   15   33 1     
   35   15   34 1     
   36   16   35 1     
   37   16   36 1     
   38   17   37 1     
   39    4   38 1     
   40    8   39 1     
   41    8   40 1     
   42   12   41 1     
@<TRIPOS>SUBSTRUCTURE
      1 S1             1
@<TRIPOS>SET
LONE_PAIRS      STATIC     ATOMS    <user>   **** ""
4 38 39 40 41
DONOR_HYDROGENS      STATIC     ATOMS    <user>   **** ""
1 24
ATOM$BLUE        STATIC     ATOMS    COLORGROUP SYSTEM
4 38 39 40 41
ATOM$RED        STATIC     ATOMS    COLORGROUP SYSTEM
1 24
