AV-unprocessed.smi:2074|AV-procd|sdf|8452|dock4
  -GOLD-   2272011143D 1   1.00000     0.00000
 Structure written by MMmdl.
 43 44  0  0  0  0  0  0  0  0  1 V2000
  141.8378  146.1261  156.2766 C   0  0  0  0  0  0  0  0  0  0  0  0
  142.9267  145.9707  155.2545 C   0  0  0  0  0  0  0  0  0  0  0  0
  143.4449  147.0471  154.6876 N   0  0  0  0  0  0  0  0  0  0  0  0
  144.4069  146.5798  153.7872 O   0  0  0  0  0  0  0  0  0  0  0  0
  144.4282  145.2240  153.8465 C   0  0  0  0  0  0  0  0  0  0  0  0
  145.3922  144.5300  152.9454 C   0  0  0  0  0  0  0  0  0  0  0  0
  143.5172  144.7713  154.7606 C   0  0  0  0  0  0  0  0  0  0  0  0
  143.2033  143.3477  155.1495 C   0  0  0  0  0  0  0  0  0  0  0  0
  144.4775  142.6272  155.5980 C   0  0  0  0  0  0  0  0  0  0  0  0
  145.1483  143.0738  156.5291 O   0  0  0  0  0  0  0  0  0  0  0  0
  144.8088  141.5195  154.9169 N   0  0  0  0  0  0  0  0  0  0  0  0
  146.0225  140.7363  155.1320 C   0  0  0  0  0  0  0  0  0  0  0  0
  147.2892  141.6242  155.3030 C   0  0  2  0  0  0  0  0  0  0  0  0
  147.3785  142.5956  154.0985 C   0  0  0  0  0  0  0  0  0  0  0  0
  148.5353  140.8478  155.5006 N   0  0  0  0  0  0  0  0  0  0  0  0
  149.6985  141.7003  155.7735 C   0  0  0  0  0  0  0  0  0  0  0  0
  150.9998  140.8974  155.9447 C   0  0  0  0  0  0  0  0  0  0  0  0
  151.2346  140.1109  154.7849 O   0  0  0  0  0  0  0  0  0  0  0  0
  150.1650  139.2130  154.5247 C   0  0  0  0  0  0  0  0  0  0  0  0
  148.8578  140.0036  154.3438 C   0  0  0  0  0  0  0  0  0  0  0  0
  141.9198  145.3684  157.0558 H   0  0  0  0  0  0  0  0  0  0  0  0
  140.8561  146.0228  155.8140 H   0  0  0  0  0  0  0  0  0  0  0  0
  141.8767  147.1023  156.7610 H   0  0  0  0  0  0  0  0  0  0  0  0
  144.9423  143.6358  152.5140 H   0  0  0  0  0  0  0  0  0  0  0  0
  146.2846  144.2295  153.4941 H   0  0  0  0  0  0  0  0  0  0  0  0
  145.7006  145.1796  152.1259 H   0  0  0  0  0  0  0  0  0  0  0  0
  142.4829  143.3068  155.9667 H   0  0  0  0  0  0  0  0  0  0  0  0
  142.7459  142.8110  154.3171 H   0  0  0  0  0  0  0  0  0  0  0  0
  144.1979  141.2182  154.1717 H   0  0  0  0  0  0  0  0  0  0  0  0
  145.8404  140.1007  155.9970 H   0  0  0  0  0  0  0  0  0  0  0  0
  146.1516  140.0650  154.2825 H   0  0  0  0  0  0  0  0  0  0  0  0
  147.1333  142.2350  156.1938 H   0  0  0  0  0  0  0  0  0  0  0  0
  146.4353  143.1004  153.8957 H   0  0  0  0  0  0  0  0  0  0  0  0
  147.6663  142.0687  153.1881 H   0  0  0  0  0  0  0  0  0  0  0  0
  148.0987  143.3950  154.2687 H   0  0  0  0  0  0  0  0  0  0  0  0
  149.8236  142.4253  154.9677 H   0  0  0  0  0  0  0  0  0  0  0  0
  149.5577  142.2665  156.6915 H   0  0  0  0  0  0  0  0  0  0  0  0
  151.8433  141.5715  156.0936 H   0  0  0  0  0  0  0  0  0  0  0  0
  150.9439  140.2552  156.8250 H   0  0  0  0  0  0  0  0  0  0  0  0
  150.3908  138.6443  153.6225 H   0  0  0  0  0  0  0  0  0  0  0  0
  150.0735  138.4949  155.3412 H   0  0  0  0  0  0  0  0  0  0  0  0
  148.0676  139.2761  154.1669 H   0  0  0  0  0  0  0  0  0  0  0  0
  148.9289  140.6191  153.4456 H   0  0  0  0  0  0  0  0  0  0  0  0
  1  2  1  0  0  0  0
  1 21  1  0  0  0  0
  1 22  1  0  0  0  0
  1 23  1  0  0  0  0
  2  7  1  0  0  0  0
  2  3  2  0  0  0  0
  3  4  1  0  0  0  0
  4  5  1  0  0  0  0
  5  6  1  0  0  0  0
  5  7  2  0  0  0  0
  6 24  1  0  0  0  0
  6 25  1  0  0  0  0
  6 26  1  0  0  0  0
  7  8  1  0  0  0  0
  8  9  1  0  0  0  0
  8 27  1  0  0  0  0
  8 28  1  0  0  0  0
  9 10  2  0  0  0  0
  9 11  1  0  0  0  0
 11 12  1  0  0  0  0
 11 29  1  0  0  0  0
 12 13  1  0  0  0  0
 12 30  1  0  0  0  0
 12 31  1  0  0  0  0
 13 14  1  0  0  0  0
 13 15  1  0  0  0  0
 13 32  1  0  0  0  0
 14 33  1  0  0  0  0
 14 34  1  0  0  0  0
 14 35  1  0  0  0  0
 15 20  1  0  0  0  0
 15 16  1  0  0  0  0
 16 17  1  0  0  0  0
 16 36  1  0  0  0  0
 16 37  1  0  0  0  0
 17 18  1  0  0  0  0
 17 38  1  0  0  0  0
 17 39  1  0  0  0  0
 18 19  1  0  0  0  0
 19 20  1  0  0  0  0
 19 40  1  0  0  0  0
 19 41  1  0  0  0  0
 20 42  1  0  0  0  0
 20 43  1  0  0  0  0
M  END
> <s_m_source_file>
AV-unprocessed.smi

> <i_m_source_file_index>
2074

> <i_lp_mmshare_version>
43012

> <i_f3d_flags>
0

> <s_epik_input>
W0NIM11jMW5vYyhbQ0gzXSljMVtDSDJdQyg9TylbTkhdW0NIMl1bQ0BIXShbQ0gzXSlOMltDSDJdW0NIMl1PW0NIMl1bQ0gyXTI=

> <s_epik_cmdline>
J2VwaWtfcHl0aG9uJywgJy1waCcsICc3LjAnLCAnLXRuJywgJzgnLCAnLW1hJywgJzIwMCcsICctbWV0YWxfYmluZGluZycsICctaW1hZScsICc8aW5maWxlLm1hZT4nLCAnLW9tYWUnLCAnPG91dGZpbGUubWFlPic=

> <r_epik_Ionization_Penalty>
0.234179

> <r_epik_Ionization_Penalty_Charging>
0

> <r_epik_Ionization_Penalty_Neutral>
0.234179

> <r_epik_State_Penalty>
0.224936

> <r_epik_Charging_Adjusted_Penalty>
0.224936

> <i_epik_Tot_Q>
0

> <i_epik_Tot_abs_Q>
0

> <r_epik_Metal_State_Penalty>
0.224936

> <b_epik_Metal_Only>
0

> <s_lp_Force_Field>
OPLS_2005

> <r_lp_Energy>
22.7236

> <b_lp_Chiralities_Consistent>
1

> <s_lp_Variant>
AV-unprocessed.smi:2074-1

> <Gold.Version>
5.8.1

> <Gold.Id.Protein>
6NUR|6NUR_protein|mol2

> <Gold.PLP.Fitness>
38.4038

> <Gold.PLP.PLP>
-32.6714

> <Gold.PLP.part.hbond>
-3.6216

> <Gold.PLP.part.metal>
0.0000

> <Gold.PLP.part.buried>
-2.8800

> <Gold.PLP.part.nonpolar>
-26.3952

> <Gold.PLP.part.repulsive>
0.2847

> <Gold.PLP.ligand.clash>
0.0000

> <Gold.PLP.ligand.torsion>
0.1583

> <Gold.PLP.Chemscore.Hbond>
2.0000

> <Gold.PLP.Chemscore.CHOScore>
0.0000

> <Gold.PLP.Chemscore.Metal>
0.0000

> <Gold.Chemscore.Hbonds>
donor molecule, donor type, donor heavy atom, donor atom, acceptor molecule, acceptor atom, score
      L1  H    11    29       P1 10175  1.00
      P1  H  7989  7998       L1    18  1.00

> <Gold.PLP.Chemscore.Internal.Correction>
0.0490

> <Gold.Rescore>
     Score         DG    S(hbond)    S(metal)    S(lipo)     H(rot)  DE(clash)    DE(int)     intcor
     12.70     -15.36       1.70        0.00      73.66       1.72       1.48       1.18       ----

> <Gold.Chemscore.Fitness>
12.7015

> <Gold.Chemscore.DG>
-15.3633

> <Gold.Chemscore.ZeroCoef>
-5.4800

> <Gold.Chemscore.Hbond>
1.6966

> <Gold.Chemscore.Metal>
0.0000

> <Gold.Chemscore.Lipo>
73.6634

> <Gold.Chemscore.Internal_Hbond>
0.0000

> <Gold.Chemscore.DEClash>
1.4771

> <Gold.Chemscore.DEInternal>
1.1847

> <Gold.Chemscore.Rot>
1.7195

> <Gold.Chemscore.Internal.Correction>
   9.000000E+99

> <Gold.Chemscore.Hbonds>
donor molecule, donor type, donor heavy atom, donor atom, acceptor molecule, acceptor atom, score
      L1  H    11    29       P1 10175  0.60
      P1  H  7989  7998       L1    18  0.70

> <Gold.Chemscore.Hbond.Weighted>
-5.6665

> <Gold.Chemscore.Metal.Weighted>
-0.0000

> <Gold.Chemscore.Lipo.Weighted>
-8.6186

> <Gold.Chemscore.Internal_Hbond.Weighted>
0.0000

> <Gold.Chemscore.DEClash.Weighted>
1.4771

> <Gold.Chemscore.DEInternal.Weighted>
1.1847

> <Gold.Chemscore.Rot.Weighted>
4.4018

> <Gold.Chemscore.Internal.Correction.Weighted>
   9.000000E+99

> <Gold.Protein.RotatedTorsions>
[ 6907 6896 6895 6894 ] final  109.21 input  -60.11 | X-H torsion
[ 7974 7965 7964 7962 ] final   44.75 input  175.53 | X-H torsion
[ 8008 7997 7996 7995 ] final  135.87 input   59.86 | X-H torsion
[ 10167 10162 10161 10158 ] final  145.36 input  -65.29 | X-H torsion
[ 10718 10713 10712 10709 ] final  -96.11 input   66.30 | X-H torsion
[ 10763 10752 10751 10750 ] final   67.41 input  -60.55 | X-H torsion
[ 11005 11000 10999 10996 ] final   35.84 input  -57.11 | X-H torsion

> <Gold.Protein.ActiveResidues>
 VAL166  LYS551  ARG553  GLY616  TRP617  ASP618  TYR619  PRO620  LYS621  CYS622 
 ASP623  PHE694  ASN695  SER759  ASP760  ASP761  ALA762  ILE779  LEU786  VAL792 
 PHE793  MET794  SER795  GLU796  ALA797  LYS798  CYS799  TRP800  GLU811  SER814 

> <Gold.Protein.RotatedAtoms>
  152.5077  133.8976  159.7424 H   0  0  0  0  0  0  0  0  0  0  0  0  # atno 6907 bound_to 6896
  150.9400  133.6659  159.2799 H   0  0  0  0  0  0  0  0  0  0  0  0  # atno 6908 bound_to 6896
  151.3974  135.0970  159.9598 H   0  0  0  0  0  0  0  0  0  0  0  0  # atno 6909 bound_to 6896
  146.0541  139.5040  142.9700 H   0  0  0  0  0  0  0  0  0  0  0  0  # atno 7974 bound_to 7965
  156.3003  140.2459  156.3652 H   0  0  0  0  0  0  0  0  0  0  0  0  # atno 8008 bound_to 7997
  154.8840  140.0411  157.1818 H   0  0  0  0  0  0  0  0  0  0  0  0  # atno 8009 bound_to 7997
  154.8666  140.2929  155.5510 H   0  0  0  0  0  0  0  0  0  0  0  0  # atno 8010 bound_to 7997
  139.4928  144.5907  151.6687 H   0  0  0  0  0  0  0  0  0  0  0  0  # atno 10167 bound_to 10162
  156.0056  130.5137  150.6177 H   0  0  0  0  0  0  0  0  0  0  0  0  # atno 10718 bound_to 10713
  153.0185  135.5285  154.6975 H   0  0  0  0  0  0  0  0  0  0  0  0  # atno 10763 bound_to 10752
  154.6093  135.2876  155.0452 H   0  0  0  0  0  0  0  0  0  0  0  0  # atno 10764 bound_to 10752
  154.1480  135.6567  153.5009 H   0  0  0  0  0  0  0  0  0  0  0  0  # atno 10765 bound_to 10752
  140.2386  134.3442  155.7934 H   0  0  0  0  0  0  0  0  0  0  0  0  # atno 11005 bound_to 11000
  145.6674  141.0225  143.1676 LP  0  0  0  0  0  0  0  0  0  0  0  0  # atno 17320 bound_to 7965
  144.7138  139.8270  143.7405 LP  0  0  0  0  0  0  0  0  0  0  0  0  # atno 17321 bound_to 7965
  140.5533  144.0389  150.6136 LP  0  0  0  0  0  0  0  0  0  0  0  0  # atno 17342 bound_to 10162
  140.3451  143.2996  152.0547 LP  0  0  0  0  0  0  0  0  0  0  0  0  # atno 17343 bound_to 10162
  157.3998  131.0808  151.1318 LP  0  0  0  0  0  0  0  0  0  0  0  0  # atno 17370 bound_to 10713
  157.1983  130.6383  149.5729 LP  0  0  0  0  0  0  0  0  0  0  0  0  # atno 17371 bound_to 10713
  141.2212  133.7286  156.8848 LP  0  0  0  0  0  0  0  0  0  0  0  0  # atno 17394 bound_to 11000
  140.1676  134.9122  157.2794 LP  0  0  0  0  0  0  0  0  0  0  0  0  # atno 17395 bound_to 11000

$$$$
