AV-unprocessed.smi:227|AV-procd|sdf|1728|dock1
  -GOLD-   2262020213D 1   1.00000     0.00000
 Structure written by MMmdl.
 54 58  0  0  0  0  0  0  0  0  1 V2000
  150.3236  137.0686  154.1730 O   0  0  0  0  0  0  0  0  0  0  0  0
  149.9481  137.9322  155.2263 C   0  0  0  0  0  0  0  0  0  0  0  0
  148.5428  138.5431  154.9901 C   0  0  1  0  0  0  0  0  0  0  0  0
  147.4223  137.5909  155.5046 C   0  0  0  0  0  0  0  0  0  0  0  0
  147.2384  136.3925  154.6987 N   0  0  0  0  0  0  0  0  0  0  0  0
  147.9858  135.2391  154.7564 C   0  0  0  0  0  0  0  0  0  0  0  0
  147.6194  134.2982  153.9314 N   0  0  0  0  0  0  0  0  0  0  0  0
  146.5456  134.8427  153.2359 C   0  0  0  0  0  0  0  0  0  0  0  0
  145.6751  134.3751  152.2054 C   0  0  0  0  0  0  0  0  0  0  0  0
  145.7272  133.1357  151.6409 N   0  0  0  0  0  0  0  0  0  0  0  0
  144.6987  132.1376  151.8981 C   0  0  2  0  0  0  0  0  0  0  0  0
  145.2734  130.8864  151.2121 C   0  0  0  0  0  0  0  0  0  0  0  0
  145.9876  131.5068  150.0034 C   0  0  0  0  0  0  0  0  0  0  0  0
  145.6570  132.9992  150.1909 C   0  0  1  0  0  0  0  0  0  0  0  0
  144.1665  133.2960  149.8808 C   0  0  1  0  0  0  0  0  0  0  0  0
  143.6512  132.8448  148.5021 C   0  0  0  0  0  0  0  0  0  0  0  0
  143.5347  133.9607  147.6456 O   0  0  0  0  0  0  0  0  0  0  0  0
  143.4809  132.6319  151.0905 C   0  0  0  0  0  0  0  0  0  0  0  0
  144.7357  135.2448  151.7470 N   0  0  0  0  0  0  0  0  0  0  0  0
  144.6300  136.4701  152.2663 C   0  0  0  0  0  0  0  0  0  0  0  0
  145.3536  137.0275  153.2366 N   0  0  0  0  0  0  0  0  0  0  0  0
  146.3085  136.1707  153.6969 C   0  0  0  0  0  0  0  0  0  0  0  0
  148.4276  139.9822  155.5858 C   0  0  2  0  0  0  0  0  0  0  0  0
  147.2246  140.7706  155.0733 C   0  0  0  0  0  0  0  0  0  0  0  0
  147.7299  141.4353  153.7910 C   0  0  0  0  0  0  0  0  0  0  0  0
  149.1503  141.3890  153.8586 O   0  0  0  0  0  0  0  0  0  0  0  0
  149.5321  140.9582  155.1553 C   0  0  0  0  0  0  0  0  0  0  0  0
  149.6280  137.0548  153.5331 H   0  0  0  0  0  0  0  0  0  0  0  0
  149.9921  137.3931  156.1723 H   0  0  0  0  0  0  0  0  0  0  0  0
  150.7172  138.7001  155.2674 H   0  0  0  0  0  0  0  0  0  0  0  0
  148.4142  138.6242  153.9099 H   0  0  0  0  0  0  0  0  0  0  0  0
  147.6082  137.2866  156.5333 H   0  0  0  0  0  0  0  0  0  0  0  0
  146.4665  138.1137  155.5467 H   0  0  0  0  0  0  0  0  0  0  0  0
  148.8128  135.1128  155.4402 H   0  0  0  0  0  0  0  0  0  0  0  0
  144.4760  131.9447  152.9456 H   0  0  0  0  0  0  0  0  0  0  0  0
  145.9890  130.3791  151.8602 H   0  0  0  0  0  0  0  0  0  0  0  0
  144.5031  130.1680  150.9291 H   0  0  0  0  0  0  0  0  0  0  0  0
  147.0636  131.3446  150.0790 H   0  0  0  0  0  0  0  0  0  0  0  0
  145.6622  131.0947  149.0493 H   0  0  0  0  0  0  0  0  0  0  0  0
  146.3440  133.6415  149.6388 H   0  0  0  0  0  0  0  0  0  0  0  0
  144.0238  134.3760  149.9504 H   0  0  0  0  0  0  0  0  0  0  0  0
  144.3434  132.1327  148.0522 H   0  0  0  0  0  0  0  0  0  0  0  0
  142.6784  132.3587  148.5731 H   0  0  0  0  0  0  0  0  0  0  0  0
  144.4028  134.2681  147.4342 H   0  0  0  0  0  0  0  0  0  0  0  0
  142.8074  131.8186  150.8173 H   0  0  0  0  0  0  0  0  0  0  0  0
  142.9057  133.3671  151.6549 H   0  0  0  0  0  0  0  0  0  0  0  0
  143.8533  137.0916  151.8455 H   0  0  0  0  0  0  0  0  0  0  0  0
  148.4069  139.9154  156.6742 H   0  0  0  0  0  0  0  0  0  0  0  0
  146.3220  140.1870  154.9063 H   0  0  0  0  0  0  0  0  0  0  0  0
  146.9696  141.5427  155.8007 H   0  0  0  0  0  0  0  0  0  0  0  0
  147.3999  140.8909  152.9057 H   0  0  0  0  0  0  0  0  0  0  0  0
  147.3775  142.4637  153.7084 H   0  0  0  0  0  0  0  0  0  0  0  0
  149.5355  141.8272  155.8157 H   0  0  0  0  0  0  0  0  0  0  0  0
  150.5431  140.5581  155.1659 H   0  0  0  0  0  0  0  0  0  0  0  0
  1  2  1  0  0  0  0
  1 28  1  0  0  0  0
  2  3  1  0  0  0  0
  2 29  1  0  0  0  0
  2 30  1  0  0  0  0
  3  4  1  0  0  0  0
  3 23  1  0  0  0  0
  3 31  1  0  0  0  0
  4  5  1  0  0  0  0
  4 32  1  0  0  0  0
  4 33  1  0  0  0  0
  5 22  1  0  0  0  0
  5  6  1  0  0  0  0
  6  7  2  0  0  0  0
  6 34  1  0  0  0  0
  7  8  1  0  0  0  0
  8 22  2  0  0  0  0
  8  9  1  0  0  0  0
  9 10  1  0  0  0  0
  9 19  2  0  0  0  0
 10 14  1  0  0  0  0
 10 11  1  0  0  0  0
 11 18  1  0  0  0  0
 11 12  1  0  0  0  0
 11 35  1  0  0  0  0
 12 13  1  0  0  0  0
 12 36  1  0  0  0  0
 12 37  1  0  0  0  0
 13 14  1  0  0  0  0
 13 38  1  0  0  0  0
 13 39  1  0  0  0  0
 14 15  1  0  0  0  0
 14 40  1  0  0  0  0
 15 16  1  0  0  0  0
 15 18  1  0  0  0  0
 15 41  1  0  0  0  0
 16 17  1  0  0  0  0
 16 42  1  0  0  0  0
 16 43  1  0  0  0  0
 17 44  1  0  0  0  0
 18 45  1  0  0  0  0
 18 46  1  0  0  0  0
 19 20  1  0  0  0  0
 20 21  2  0  0  0  0
 20 47  1  0  0  0  0
 21 22  1  0  0  0  0
 23 27  1  0  0  0  0
 23 24  1  0  0  0  0
 23 48  1  0  0  0  0
 24 25  1  0  0  0  0
 24 49  1  0  0  0  0
 24 50  1  0  0  0  0
 25 26  1  0  0  0  0
 25 51  1  0  0  0  0
 25 52  1  0  0  0  0
 26 27  1  0  0  0  0
 27 53  1  0  0  0  0
 27 54  1  0  0  0  0
M  END
> <s_m_source_file>
AV-unprocessed.smi

> <i_m_source_file_index>
227

> <i_lp_mmshare_version>
43012

> <i_f3d_flags>
0

> <s_epik_input>
W0NIMl0xT1tDSDJdW0NIMl1bQ0BIXTFbQ0BIXShbQ0gyXVtPSF0pW0NIMl1uKFtjSF1uMiljKGMyMyluW2NIXW5jM04oW0NASF00NSlbQ0BASF0oW0NIMl1bQ0gyXTQpW0NASF0oW0NIMl01KVtDSDJdW09IXQ==

> <s_epik_cmdline>
J2VwaWtfcHl0aG9uJywgJy1waCcsICc3LjAnLCAnLXRuJywgJzgnLCAnLW1hJywgJzIwMCcsICctbWV0YWxfYmluZGluZycsICctaW1hZScsICc8aW5maWxlLm1hZT4nLCAnLW9tYWUnLCAnPG91dGZpbGUubWFlPic=

> <r_lp_tautomer_probability>
1

> <r_epik_Ionization_Penalty>
0.0055791

> <r_epik_Ionization_Penalty_Charging>
0

> <r_epik_Ionization_Penalty_Neutral>
0.0055791

> <r_epik_State_Penalty>
0.00401299

> <r_epik_Charging_Adjusted_Penalty>
0.00401299

> <i_epik_Tot_Q>
0

> <i_epik_Tot_abs_Q>
0

> <r_epik_Metal_State_Penalty>
-0

> <b_epik_Metal_Only>
0

> <s_lp_Force_Field>
OPLS_2005

> <r_lp_Energy>
90.5153

> <b_lp_Chiralities_Consistent>
1

> <s_lp_Variant>
AV-unprocessed.smi:227-2

> <Gold.Version>
5.8.1

> <Gold.Id.Protein>
6NUR|6NUR_protein|mol2

> <Gold.PLP.Fitness>
52.4884

> <Gold.PLP.PLP>
-41.1824

> <Gold.PLP.part.hbond>
-7.7009

> <Gold.PLP.part.metal>
0.0000

> <Gold.PLP.part.buried>
-2.6334

> <Gold.PLP.part.nonpolar>
-31.8997

> <Gold.PLP.part.repulsive>
1.9750

> <Gold.PLP.ligand.clash>
0.0000

> <Gold.PLP.ligand.torsion>
1.7771

> <Gold.PLP.Chemscore.Hbond>
3.6960

> <Gold.PLP.Chemscore.CHOScore>
1.0000

> <Gold.PLP.Chemscore.Metal>
0.0000

> <Gold.Chemscore.Hbonds>
donor molecule, donor type, donor heavy atom, donor atom, acceptor molecule, acceptor atom, score
      L1  H     1    28       P1  7948  0.90
      L1  H    17    44       P1  7921  1.00
      P1  H  8011  8017       L1    26  0.78
      P1  H 10192 10197       L1    17  1.00
      L1  C    20    47       P1 10171  1.00

> <Gold.PLP.Chemscore.Internal.Correction>
0.7722

> <Gold.Rescore>
     Score         DG    S(hbond)    S(metal)    S(lipo)     H(rot)  DE(clash)    DE(int)     intcor
     14.29     -18.75       3.26        0.00      99.12       3.61       0.08       4.38       ----

> <Gold.Chemscore.Fitness>
14.2946

> <Gold.Chemscore.DG>
-18.7471

> <Gold.Chemscore.ZeroCoef>
-5.4800

> <Gold.Chemscore.Hbond>
3.2648

> <Gold.Chemscore.Metal>
0.0000

> <Gold.Chemscore.Lipo>
99.1191

> <Gold.Chemscore.Internal_Hbond>
0.0000

> <Gold.Chemscore.DEClash>
0.0752

> <Gold.Chemscore.DEInternal>
4.3773

> <Gold.Chemscore.Rot>
3.6071

> <Gold.Chemscore.Internal.Correction>
   9.000000E+99

> <Gold.Chemscore.Hbonds>
donor molecule, donor type, donor heavy atom, donor atom, acceptor molecule, acceptor atom, score
      L1  H     1    28       P1  7948  0.68
      L1  H    17    44       P1  7921  1.00
      P1  H  8011  8017       L1    26  0.42
      P1  H 10192 10197       L1    17  0.90

> <Gold.Chemscore.Hbond.Weighted>
-10.9044

> <Gold.Chemscore.Metal.Weighted>
-0.0000

> <Gold.Chemscore.Lipo.Weighted>
-11.5969

> <Gold.Chemscore.Internal_Hbond.Weighted>
0.0000

> <Gold.Chemscore.DEClash.Weighted>
0.0752

> <Gold.Chemscore.DEInternal.Weighted>
4.3773

> <Gold.Chemscore.Rot.Weighted>
9.2342

> <Gold.Chemscore.Internal.Correction.Weighted>
   9.000000E+99

> <Gold.Protein.RotatedTorsions>
[ 6907 6896 6895 6894 ] final   -7.76 input  -60.11 | X-H torsion
[ 7974 7965 7964 7962 ] final   22.10 input  175.53 | X-H torsion
[ 8008 7997 7996 7995 ] final   19.16 input   59.86 | X-H torsion
[ 10167 10162 10161 10158 ] final  -64.09 input  -65.29 | X-H torsion
[ 10718 10713 10712 10709 ] final  -14.86 input   66.30 | X-H torsion
[ 10763 10752 10751 10750 ] final  167.08 input  -60.55 | X-H torsion
[ 11005 11000 10999 10996 ] final  104.23 input  -57.11 | X-H torsion

> <Gold.Protein.ActiveResidues>
 VAL166  LYS551  ARG553  GLY616  TRP617  ASP618  TYR619  PRO620  LYS621  CYS622 
 ASP623  PHE694  ASN695  SER759  ASP760  ASP761  ALA762  ILE779  LEU786  VAL792 
 PHE793  MET794  SER795  GLU796  ALA797  LYS798  CYS799  TRP800  GLU811  SER814 

> <Gold.Protein.RotatedAtoms>
  151.4444  135.1023  159.9679 H   0  0  0  0  0  0  0  0  0  0  0  0  # atno 6907 bound_to 6896
  152.4911  133.8498  159.7206 H   0  0  0  0  0  0  0  0  0  0  0  0  # atno 6908 bound_to 6896
  150.9065  133.6992  159.2893 H   0  0  0  0  0  0  0  0  0  0  0  0  # atno 6909 bound_to 6896
  146.2043  139.7933  142.8738 H   0  0  0  0  0  0  0  0  0  0  0  0  # atno 7974 bound_to 7965
  154.9167  140.3021  155.5238 H   0  0  0  0  0  0  0  0  0  0  0  0  # atno 8008 bound_to 7997
  156.3012  140.2379  156.4148 H   0  0  0  0  0  0  0  0  0  0  0  0  # atno 8009 bound_to 7997
  154.8372  140.0415  157.1505 H   0  0  0  0  0  0  0  0  0  0  0  0  # atno 8010 bound_to 7997
  140.5825  143.2329  151.6312 H   0  0  0  0  0  0  0  0  0  0  0  0  # atno 10167 bound_to 10162
  156.6100  130.4847  149.6205 H   0  0  0  0  0  0  0  0  0  0  0  0  # atno 10718 bound_to 10713
  154.3485  135.2753  155.2384 H   0  0  0  0  0  0  0  0  0  0  0  0  # atno 10763 bound_to 10752
  154.4624  135.5904  153.6268 H   0  0  0  0  0  0  0  0  0  0  0  0  # atno 10764 bound_to 10752
  152.9851  135.6068  154.3693 H   0  0  0  0  0  0  0  0  0  0  0  0  # atno 10765 bound_to 10752
  139.8790  134.9293  156.5330 H   0  0  0  0  0  0  0  0  0  0  0  0  # atno 11005 bound_to 11000
  145.3374  141.0280  143.3412 LP  0  0  0  0  0  0  0  0  0  0  0  0  # atno 17320 bound_to 7965
  144.8756  139.4976  143.6747 LP  0  0  0  0  0  0  0  0  0  0  0  0  # atno 17321 bound_to 7965
  139.5178  144.3303  152.0832 LP  0  0  0  0  0  0  0  0  0  0  0  0  # atno 17342 bound_to 10162
  140.2456  144.4224  150.6242 LP  0  0  0  0  0  0  0  0  0  0  0  0  # atno 17343 bound_to 10162
  156.2398  130.6844  151.1544 LP  0  0  0  0  0  0  0  0  0  0  0  0  # atno 17370 bound_to 10713
  157.7257  131.0651  150.5943 LP  0  0  0  0  0  0  0  0  0  0  0  0  # atno 17371 bound_to 10713
  140.8366  133.8237  155.9035 LP  0  0  0  0  0  0  0  0  0  0  0  0  # atno 17394 bound_to 11000
  140.9277  134.2061  157.4884 LP  0  0  0  0  0  0  0  0  0  0  0  0  # atno 17395 bound_to 11000

$$$$
