AV-unprocessed.smi:1552|AV-procd|sdf|6235|dock6
  -GOLD-   22720 6413D 1   1.00000     0.00000
 Structure written by MMmdl.
 50 51  0  0  0  0  0  0  0  0  2 V2000
  151.6343  139.2021  155.9615 C   0  0  0  0  0  0  0  0  0  0  0  0
  151.3394  140.4540  156.7026 N   0  3  0  0  0  0  0  0  0  0  0  0
  150.3785  141.3033  155.9616 C   0  0  0  0  0  0  0  0  0  0  0  0
  150.9830  140.3004  158.1490 C   0  0  1  0  0  0  0  0  0  0  0  0
  151.4852  138.9730  158.7742 C   0  0  0  0  0  0  0  0  0  0  0  0
  152.9396  138.9446  158.8778 N   0  0  0  0  0  0  0  0  0  0  0  0
  153.7274  137.8823  159.1147 C   0  0  0  0  0  0  0  0  0  0  0  0
  153.2353  136.7639  159.2472 O   0  0  0  0  0  0  0  0  0  0  0  0
  155.2578  138.0449  159.1905 C   0  0  0  0  0  0  0  0  0  0  0  0
  155.6446  138.9906  160.2460 N   0  0  0  0  0  0  0  0  0  0  0  0
  155.7054  138.5599  161.5639 C   0  0  0  0  0  0  0  0  0  0  0  0
  156.0653  139.3593  162.5956 C   0  0  0  0  0  0  0  0  0  0  0  0
  156.4174  140.7551  162.3596 C   0  0  0  0  0  0  0  0  0  0  0  0
  156.7538  141.5579  163.2272 O   0  0  0  0  0  0  0  0  0  0  0  0
  156.3477  141.1507  161.0213 N   0  0  0  0  0  0  0  0  0  0  0  0
  155.9796  140.3313  159.9528 C   0  0  0  0  0  0  0  0  0  0  0  0
  155.9576  140.7836  158.8089 O   0  0  0  0  0  0  0  0  0  0  0  0
  151.3447  141.5730  158.9702 C   0  0  0  0  0  0  0  0  0  0  0  0
  150.4924  142.7967  158.5662 C   0  0  0  0  0  0  0  0  0  0  0  0
  150.7712  144.0039  159.4773 C   0  0  0  0  0  0  0  0  0  0  0  0
  152.2661  144.3594  159.4960 C   0  0  0  0  0  0  0  0  0  0  0  0
  153.1203  143.1458  159.8936 C   0  0  0  0  0  0  0  0  0  0  0  0
  152.8445  141.9467  158.9726 C   0  0  0  0  0  0  0  0  0  0  0  0
  156.5859  142.1084  160.8082 H   0  0  0  0  0  0  0  0  0  0  0  0
  150.7294  138.6182  155.7889 H   0  0  0  0  0  0  0  0  0  0  0  0
  152.3491  138.5719  156.4875 H   0  0  0  0  0  0  0  0  0  0  0  0
  152.0656  139.4367  154.9878 H   0  0  0  0  0  0  0  0  0  0  0  0
  149.3894  140.8441  155.9363 H   0  0  0  0  0  0  0  0  0  0  0  0
  150.7101  141.4571  154.9342 H   0  0  0  0  0  0  0  0  0  0  0  0
  150.2902  142.2863  156.4258 H   0  0  0  0  0  0  0  0  0  0  0  0
  149.8938  140.2460  158.1998 H   0  0  0  0  0  0  0  0  0  0  0  0
  151.0644  138.8435  159.7723 H   0  0  0  0  0  0  0  0  0  0  0  0
  151.1593  138.1267  158.1702 H   0  0  0  0  0  0  0  0  0  0  0  0
  153.4106  139.8232  158.7158 H   0  0  0  0  0  0  0  0  0  0  0  0
  155.6892  137.0587  159.3691 H   0  0  0  0  0  0  0  0  0  0  0  0
  155.7050  138.3585  158.2486 H   0  0  0  0  0  0  0  0  0  0  0  0
  155.4561  137.5314  161.7835 H   0  0  0  0  0  0  0  0  0  0  0  0
  156.0938  138.9639  163.6007 H   0  0  0  0  0  0  0  0  0  0  0  0
  151.0793  141.3622  160.0070 H   0  0  0  0  0  0  0  0  0  0  0  0
  150.6983  143.0749  157.5319 H   0  0  0  0  0  0  0  0  0  0  0  0
  149.4317  142.5478  158.6131 H   0  0  0  0  0  0  0  0  0  0  0  0
  150.1895  144.8636  159.1441 H   0  0  0  0  0  0  0  0  0  0  0  0
  150.4372  143.7807  160.4916 H   0  0  0  0  0  0  0  0  0  0  0  0
  152.5706  144.7141  158.5105 H   0  0  0  0  0  0  0  0  0  0  0  0
  152.4440  145.1825  160.1888 H   0  0  0  0  0  0  0  0  0  0  0  0
  154.1781  143.4083  159.8551 H   0  0  0  0  0  0  0  0  0  0  0  0
  152.9084  142.8708  160.9276 H   0  0  0  0  0  0  0  0  0  0  0  0
  153.4522  141.1025  159.2977 H   0  0  0  0  0  0  0  0  0  0  0  0
  153.1702  142.2030  157.9650 H   0  0  0  0  0  0  0  0  0  0  0  0
  152.2018  140.9801  156.7031 H   0  0  0  0  0  0  0  0  0  0  0  0
  1  2  1  0  0  0  0
  1 25  1  0  0  0  0
  1 26  1  0  0  0  0
  1 27  1  0  0  0  0
  2  3  1  0  0  0  0
  2  4  1  0  0  0  0
  2 50  1  0  0  0  0
  3 28  1  0  0  0  0
  3 29  1  0  0  0  0
  3 30  1  0  0  0  0
  4  5  1  0  0  0  0
  4 18  1  0  0  0  0
  4 31  1  0  0  0  0
  5  6  1  0  0  0  0
  5 32  1  0  0  0  0
  5 33  1  0  0  0  0
  6  7  1  0  0  0  0
  6 34  1  0  0  0  0
  7  8  2  0  0  0  0
  7  9  1  0  0  0  0
  9 10  1  0  0  0  0
  9 35  1  0  0  0  0
  9 36  1  0  0  0  0
 10 16  1  0  0  0  0
 10 11  1  0  0  0  0
 11 12  2  0  0  0  0
 11 37  1  0  0  0  0
 12 13  1  0  0  0  0
 12 38  1  0  0  0  0
 13 14  2  0  0  0  0
 13 15  1  0  0  0  0
 15 24  1  0  0  0  0
 15 16  1  0  0  0  0
 16 17  2  0  0  0  0
 18 23  1  0  0  0  0
 18 19  1  0  0  0  0
 18 39  1  0  0  0  0
 19 20  1  0  0  0  0
 19 40  1  0  0  0  0
 19 41  1  0  0  0  0
 20 21  1  0  0  0  0
 20 42  1  0  0  0  0
 20 43  1  0  0  0  0
 21 22  1  0  0  0  0
 21 44  1  0  0  0  0
 21 45  1  0  0  0  0
 22 23  1  0  0  0  0
 22 46  1  0  0  0  0
 22 47  1  0  0  0  0
 23 48  1  0  0  0  0
 23 49  1  0  0  0  0
M  CHG  1   2   1
M  END
> <s_m_source_file>
AV-unprocessed.smi

> <i_m_source_file_index>
1552

> <i_lp_mmshare_version>
43012

> <i_f3d_flags>
0

> <s_epik_input>
W0NIMl0xW0NIMl1bQ0gyXVtDSDJdW0NIMl1bQ0hdMVtDQEhdKE4oW0NIM10pW0NIM10pW0NIMl1bTkhdQyg9TylbQ0gyXW4yW2NIXVtjSF1jKD1PKVtuSF1jMj1P

> <s_epik_cmdline>
J2VwaWtfcHl0aG9uJywgJy1waCcsICc3LjAnLCAnLXRuJywgJzgnLCAnLW1hJywgJzIwMCcsICctbWV0YWxfYmluZGluZycsICctaW1hZScsICc8aW5maWxlLm1hZT4nLCAnLW9tYWUnLCAnPG91dGZpbGUubWFlPic=

> <r_lp_tautomer_probability>
1

> <r_epik_Ionization_Penalty>
0.00705217

> <r_epik_Ionization_Penalty_Charging>
0.00705209

> <r_epik_Ionization_Penalty_Neutral>
7.66101e-08

> <r_epik_State_Penalty>
-0

> <r_epik_Charging_Adjusted_Penalty>
0.00705209

> <i_epik_Tot_Q>
1

> <i_epik_Tot_abs_Q>
1

> <r_epik_Metal_State_Penalty>
0.375122

> <b_epik_Metal_Only>
0

> <s_lp_Force_Field>
OPLS_2005

> <r_lp_Energy>
31.5593

> <b_lp_Chiralities_Consistent>
1

> <s_lp_Variant>
AV-unprocessed.smi:1552-2

> <Gold.Version>
5.8.1

> <Gold.Id.Protein>
6NUR|6NUR_protein|mol2

> <Gold.PLP.Fitness>
41.8914

> <Gold.PLP.PLP>
-37.8640

> <Gold.PLP.part.hbond>
-4.0000

> <Gold.PLP.part.metal>
0.0000

> <Gold.PLP.part.buried>
-4.3186

> <Gold.PLP.part.nonpolar>
-29.2355

> <Gold.PLP.part.repulsive>
0.2017

> <Gold.PLP.ligand.clash>
0.0000

> <Gold.PLP.ligand.torsion>
1.1611

> <Gold.PLP.Chemscore.Hbond>
1.9760

> <Gold.PLP.Chemscore.CHOScore>
0.0000

> <Gold.PLP.Chemscore.Metal>
0.0000

> <Gold.Chemscore.Hbonds>
donor molecule, donor type, donor heavy atom, donor atom, acceptor molecule, acceptor atom, score
      P1  H  6896  6909       L1     8  0.15
      P1  H  7997  8009       L1    17  0.54

> <Gold.PLP.Chemscore.Internal.Correction>
0.4216

> <Gold.Rescore>
     Score         DG    S(hbond)    S(metal)    S(lipo)     H(rot)  DE(clash)    DE(int)     intcor
     15.37     -16.99       1.96        0.00      96.97       2.50       0.02       1.60       ----

> <Gold.Chemscore.Fitness>
15.3726

> <Gold.Chemscore.DG>
-16.9925

> <Gold.Chemscore.ZeroCoef>
-5.4800

> <Gold.Chemscore.Hbond>
1.9638

> <Gold.Chemscore.Metal>
0.0000

> <Gold.Chemscore.Lipo>
96.9678

> <Gold.Chemscore.Internal_Hbond>
0.0000

> <Gold.Chemscore.DEClash>
0.0162

> <Gold.Chemscore.DEInternal>
1.6037

> <Gold.Chemscore.Rot>
2.4968

> <Gold.Chemscore.Internal.Correction>
   9.000000E+99

> <Gold.Chemscore.Hbonds>
donor molecule, donor type, donor heavy atom, donor atom, acceptor molecule, acceptor atom, score
      P1  H  6896  6909       L1     8  0.16
      P1  H  7997  8009       L1    17  0.54

> <Gold.Chemscore.Hbond.Weighted>
-6.5590

> <Gold.Chemscore.Metal.Weighted>
-0.0000

> <Gold.Chemscore.Lipo.Weighted>
-11.3452

> <Gold.Chemscore.Internal_Hbond.Weighted>
0.0000

> <Gold.Chemscore.DEClash.Weighted>
0.0162

> <Gold.Chemscore.DEInternal.Weighted>
1.6037

> <Gold.Chemscore.Rot.Weighted>
6.3917

> <Gold.Chemscore.Internal.Correction.Weighted>
   9.000000E+99

> <Gold.Protein.RotatedTorsions>
[ 6907 6896 6895 6894 ] final  125.23 input  -60.11 | X-H torsion
[ 7974 7965 7964 7962 ] final  -25.37 input  175.53 | X-H torsion
[ 8008 7997 7996 7995 ] final   96.94 input   59.86 | X-H torsion
[ 10167 10162 10161 10158 ] final -128.75 input  -65.29 | X-H torsion
[ 10718 10713 10712 10709 ] final -114.31 input   66.30 | X-H torsion
[ 10763 10752 10751 10750 ] final   64.90 input  -60.55 | X-H torsion
[ 11005 11000 10999 10996 ] final  117.30 input  -57.11 | X-H torsion

> <Gold.Protein.ActiveResidues>
 VAL166  LYS551  ARG553  GLY616  TRP617  ASP618  TYR619  PRO620  LYS621  CYS622 
 ASP623  PHE694  ASN695  SER759  ASP760  ASP761  ALA762  ILE779  LEU786  VAL792 
 PHE793  MET794  SER795  GLU796  ALA797  LYS798  CYS799  TRP800  GLU811  SER814 

> <Gold.Protein.RotatedAtoms>
  152.4010  133.6817  159.6315 H   0  0  0  0  0  0  0  0  0  0  0  0  # atno 6907 bound_to 6896
  150.7901  133.8791  159.3289 H   0  0  0  0  0  0  0  0  0  0  0  0  # atno 6908 bound_to 6896
  151.6557  135.0997  160.0221 H   0  0  0  0  0  0  0  0  0  0  0  0  # atno 6909 bound_to 6896
  146.1495  140.4877  142.8617 H   0  0  0  0  0  0  0  0  0  0  0  0  # atno 7974 bound_to 7965
  156.0849  140.3265  155.7741 H   0  0  0  0  0  0  0  0  0  0  0  0  # atno 8008 bound_to 7997
  155.5092  140.0575  157.2943 H   0  0  0  0  0  0  0  0  0  0  0  0  # atno 8009 bound_to 7997
  154.4603  140.1963  156.0279 H   0  0  0  0  0  0  0  0  0  0  0  0  # atno 8010 bound_to 7997
  139.9470  143.6099  152.2487 H   0  0  0  0  0  0  0  0  0  0  0  0  # atno 10167 bound_to 10162
  156.0822  130.6020  150.8758 H   0  0  0  0  0  0  0  0  0  0  0  0  # atno 10718 bound_to 10713
  153.0074  135.5376  154.6583 H   0  0  0  0  0  0  0  0  0  0  0  0  # atno 10763 bound_to 10752
  154.5798  135.2849  155.0746 H   0  0  0  0  0  0  0  0  0  0  0  0  # atno 10764 bound_to 10752
  154.1880  135.6505  153.5104 H   0  0  0  0  0  0  0  0  0  0  0  0  # atno 10765 bound_to 10752
  139.9070  134.9608  156.7330 H   0  0  0  0  0  0  0  0  0  0  0  0  # atno 11005 bound_to 11000
  144.7887  140.5988  143.6556 LP  0  0  0  0  0  0  0  0  0  0  0  0  # atno 17320 bound_to 7965
  145.4857  139.1492  143.3737 LP  0  0  0  0  0  0  0  0  0  0  0  0  # atno 17321 bound_to 7965
  139.6659  144.7662  151.1875 LP  0  0  0  0  0  0  0  0  0  0  0  0  # atno 17342 bound_to 10162
  140.7594  143.5939  150.8768 LP  0  0  0  0  0  0  0  0  0  0  0  0  # atno 17343 bound_to 10162
  157.5943  131.0943  150.9067 LP  0  0  0  0  0  0  0  0  0  0  0  0  # atno 17370 bound_to 10713
  156.9237  130.5324  149.5279 LP  0  0  0  0  0  0  0  0  0  0  0  0  # atno 17371 bound_to 10713
  140.6910  133.9390  155.7966 LP  0  0  0  0  0  0  0  0  0  0  0  0  # atno 17394 bound_to 11000
  141.0442  134.0578  157.3865 LP  0  0  0  0  0  0  0  0  0  0  0  0  # atno 17395 bound_to 11000

$$$$
