AV-unprocessed.smi:1983|AV-procd|sdf|8034|dock7
  -GOLD-   2272010233D 1   1.00000     0.00000
 Structure written by MMmdl.
 50 51  0  0  0  0  0  0  0  0  2 V2000
  146.0263  134.0454  153.1822 C   0  0  0  0  0  0  0  0  0  0  0  0
  145.5226  135.2052  152.3057 C   0  0  2  0  0  0  0  0  0  0  0  0
  145.3309  134.7878  150.8372 C   0  0  0  0  0  0  0  0  0  0  0  0
  145.0372  135.9139  150.0380 O   0  0  0  0  0  0  0  0  0  0  0  0
  146.4541  136.3285  152.3672 N   0  0  0  0  0  0  0  0  0  0  0  0
  146.1391  137.5757  152.7443 C   0  0  0  0  0  0  0  0  0  0  0  0
  145.0173  137.9254  153.1118 O   0  0  0  0  0  0  0  0  0  0  0  0
  147.1936  138.4001  152.6733 N   0  0  0  0  0  0  0  0  0  0  0  0
  147.1551  139.8213  152.9982 C   0  0  0  0  0  0  0  0  0  0  0  0
  148.1836  140.2249  154.0408 C   0  0  0  0  0  0  0  0  0  0  0  0
  148.8590  139.2494  154.8060 C   0  0  0  0  0  0  0  0  0  0  0  0
  149.8101  139.6559  155.7645 C   0  0  0  0  0  0  0  0  0  0  0  0
  150.0695  141.0352  155.9426 C   0  0  0  0  0  0  0  0  0  0  0  0
  150.9919  141.5389  156.8697 N   0  0  0  0  0  0  0  0  0  0  0  0
  150.4754  142.6783  157.6150 C   0  0  0  0  0  0  0  0  0  0  0  0
  151.5817  143.2753  158.5065 C   0  0  1  0  0  0  0  0  0  0  0  0
  151.0554  144.4026  159.4012 C   0  0  0  0  0  0  0  0  0  0  0  0
  152.1122  142.2496  159.3438 O   0  0  0  0  0  0  0  0  0  0  0  0
  152.6909  141.1778  158.6024 C   0  0  1  0  0  0  0  0  0  0  0  0
  153.3045  140.1807  159.5909 C   0  0  0  0  0  0  0  0  0  0  0  0
  151.5986  140.5320  157.7305 C   0  0  0  0  0  0  0  0  0  0  0  0
  149.3910  141.9351  155.1962 N   0  3  0  0  0  0  0  0  0  0  0  0
  148.4761  141.5865  154.2658 C   0  0  0  0  0  0  0  0  0  0  0  0
  145.3296  133.2069  153.1623 H   0  0  0  0  0  0  0  0  0  0  0  0
  146.1333  134.3530  154.2229 H   0  0  0  0  0  0  0  0  0  0  0  0
  146.9954  133.6803  152.8410 H   0  0  0  0  0  0  0  0  0  0  0  0
  144.5564  135.5404  152.6886 H   0  0  0  0  0  0  0  0  0  0  0  0
  146.2435  134.3350  150.4473 H   0  0  0  0  0  0  0  0  0  0  0  0
  144.5360  134.0478  150.7378 H   0  0  0  0  0  0  0  0  0  0  0  0
  145.1880  135.6884  149.1329 H   0  0  0  0  0  0  0  0  0  0  0  0
  147.4060  136.1428  152.0865 H   0  0  0  0  0  0  0  0  0  0  0  0
  148.0756  138.0250  152.3553 H   0  0  0  0  0  0  0  0  0  0  0  0
  147.3462  140.3861  152.0854 H   0  0  0  0  0  0  0  0  0  0  0  0
  146.1521  140.0993  153.3274 H   0  0  0  0  0  0  0  0  0  0  0  0
  148.6507  138.1993  154.6606 H   0  0  0  0  0  0  0  0  0  0  0  0
  150.3248  138.9129  156.3557 H   0  0  0  0  0  0  0  0  0  0  0  0
  150.1030  143.4347  156.9227 H   0  0  0  0  0  0  0  0  0  0  0  0
  149.6315  142.3575  158.2278 H   0  0  0  0  0  0  0  0  0  0  0  0
  152.3824  143.6735  157.8808 H   0  0  0  0  0  0  0  0  0  0  0  0
  150.6490  145.2202  158.8055 H   0  0  0  0  0  0  0  0  0  0  0  0
  151.8520  144.8103  160.0241 H   0  0  0  0  0  0  0  0  0  0  0  0
  150.2659  144.0454  160.0630 H   0  0  0  0  0  0  0  0  0  0  0  0
  153.4869  141.5703  157.9668 H   0  0  0  0  0  0  0  0  0  0  0  0
  153.7692  139.3445  159.0673 H   0  0  0  0  0  0  0  0  0  0  0  0
  152.5487  139.7760  160.2646 H   0  0  0  0  0  0  0  0  0  0  0  0
  154.0724  140.6584  160.1999 H   0  0  0  0  0  0  0  0  0  0  0  0
  150.8392  140.0786  158.3688 H   0  0  0  0  0  0  0  0  0  0  0  0
  152.0265  139.7369  157.1184 H   0  0  0  0  0  0  0  0  0  0  0  0
  148.0059  142.4032  153.7373 H   0  0  0  0  0  0  0  0  0  0  0  0
  149.5827  142.9271  155.3389 H   0  0  0  0  0  0  0  0  0  0  0  0
  1  2  1  0  0  0  0
  1 24  1  0  0  0  0
  1 25  1  0  0  0  0
  1 26  1  0  0  0  0
  2  3  1  0  0  0  0
  2  5  1  0  0  0  0
  2 27  1  0  0  0  0
  3  4  1  0  0  0  0
  3 28  1  0  0  0  0
  3 29  1  0  0  0  0
  4 30  1  0  0  0  0
  5  6  1  0  0  0  0
  5 31  1  0  0  0  0
  6  7  2  0  0  0  0
  6  8  1  0  0  0  0
  8  9  1  0  0  0  0
  8 32  1  0  0  0  0
  9 10  1  0  0  0  0
  9 33  1  0  0  0  0
  9 34  1  0  0  0  0
 10 23  1  0  0  0  0
 10 11  2  0  0  0  0
 11 12  1  0  0  0  0
 11 35  1  0  0  0  0
 12 13  2  0  0  0  0
 12 36  1  0  0  0  0
 13 14  1  0  0  0  0
 13 22  1  0  0  0  0
 14 21  1  0  0  0  0
 14 15  1  0  0  0  0
 15 16  1  0  0  0  0
 15 37  1  0  0  0  0
 15 38  1  0  0  0  0
 16 17  1  0  0  0  0
 16 18  1  0  0  0  0
 16 39  1  0  0  0  0
 17 40  1  0  0  0  0
 17 41  1  0  0  0  0
 17 42  1  0  0  0  0
 18 19  1  0  0  0  0
 19 20  1  0  0  0  0
 19 21  1  0  0  0  0
 19 43  1  0  0  0  0
 20 44  1  0  0  0  0
 20 45  1  0  0  0  0
 20 46  1  0  0  0  0
 21 47  1  0  0  0  0
 21 48  1  0  0  0  0
 22 23  2  0  0  0  0
 22 50  1  0  0  0  0
 23 49  1  0  0  0  0
M  CHG  1  22   1
M  END
> <s_m_source_file>
AV-unprocessed.smi

> <i_m_source_file_index>
1983

> <i_lp_mmshare_version>
43012

> <i_f3d_flags>
0

> <s_epik_input>
W09IXVtDSDJdW0NAQEhdKFtDSDNdKVtOSF1DKD1PKVtOSF1bQ0gyXWMxW2NIXVtjSF1jKG5bY0hdMSlOMltDSDJdW0NAQEhdKFtDSDNdKU9bQ0BASF0oW0NIM10pW0NIMl0y

> <s_epik_cmdline>
J2VwaWtfcHl0aG9uJywgJy1waCcsICc3LjAnLCAnLXRuJywgJzgnLCAnLW1hJywgJzIwMCcsICctbWV0YWxfYmluZGluZycsICctaW1hZScsICc8aW5maWxlLm1hZT4nLCAnLW9tYWUnLCAnPG91dGZpbGUubWFlPic=

> <r_lp_tautomer_probability>
0.999994

> <r_epik_Ionization_Penalty>
2.55677

> <r_epik_Ionization_Penalty_Charging>
2.55673

> <r_epik_Ionization_Penalty_Neutral>
3.71772e-05

> <r_epik_State_Penalty>
2.72571

> <r_epik_Charging_Adjusted_Penalty>
5.28244

> <i_epik_Tot_Q>
1

> <i_epik_Tot_abs_Q>
1

> <r_epik_Metal_State_Penalty>
2.73364

> <b_epik_Metal_Only>
0

> <s_lp_Force_Field>
OPLS_2005

> <r_lp_Energy>
19.4893

> <b_lp_Chiralities_Consistent>
1

> <s_lp_Variant>
AV-unprocessed.smi:1983-7

> <Gold.Version>
5.8.1

> <Gold.Id.Protein>
6NUR|6NUR_protein|mol2

> <Gold.PLP.Fitness>
50.1702

> <Gold.PLP.PLP>
-36.5997

> <Gold.PLP.part.hbond>
-5.2327

> <Gold.PLP.part.metal>
0.0000

> <Gold.PLP.part.buried>
-5.2815

> <Gold.PLP.part.nonpolar>
-28.5403

> <Gold.PLP.part.repulsive>
1.7284

> <Gold.PLP.ligand.clash>
0.0000

> <Gold.PLP.ligand.torsion>
0.4745

> <Gold.PLP.Chemscore.Hbond>
4.7840

> <Gold.PLP.Chemscore.CHOScore>
0.0000

> <Gold.PLP.Chemscore.Metal>
0.0000

> <Gold.Chemscore.Hbonds>
donor molecule, donor type, donor heavy atom, donor atom, acceptor molecule, acceptor atom, score
      L1  H     4    30       P1  7921  1.00
      L1  H     5    31       P1  7948  1.00
      L1  H     8    32       P1  7948  0.82
      L1  H    22    50       P1  8028  1.92

> <Gold.PLP.Chemscore.Internal.Correction>
0.1675

> <Gold.Rescore>
     Score         DG    S(hbond)    S(metal)    S(lipo)     H(rot)  DE(clash)    DE(int)     intcor
     21.31     -22.04       3.86        0.00      89.58       2.66       0.39       0.33       ----

> <Gold.Chemscore.Fitness>
21.3123

> <Gold.Chemscore.DG>
-22.0398

> <Gold.Chemscore.ZeroCoef>
-5.4800

> <Gold.Chemscore.Hbond>
3.8615

> <Gold.Chemscore.Metal>
0.0000

> <Gold.Chemscore.Lipo>
89.5847

> <Gold.Chemscore.Internal_Hbond>
0.0000

> <Gold.Chemscore.DEClash>
0.3948

> <Gold.Chemscore.DEInternal>
0.3327

> <Gold.Chemscore.Rot>
2.6637

> <Gold.Chemscore.Internal.Correction>
   9.000000E+99

> <Gold.Chemscore.Hbonds>
donor molecule, donor type, donor heavy atom, donor atom, acceptor molecule, acceptor atom, score
      L1  H     4    30       P1  7921  0.97
      L1  H     5    31       P1  7948  0.94
      L1  H     8    32       P1  7948  0.77
      L1  H    22    50       P1  8028  0.91

> <Gold.Chemscore.Hbond.Weighted>
-12.8975

> <Gold.Chemscore.Metal.Weighted>
-0.0000

> <Gold.Chemscore.Lipo.Weighted>
-10.4814

> <Gold.Chemscore.Internal_Hbond.Weighted>
0.0000

> <Gold.Chemscore.DEClash.Weighted>
0.3948

> <Gold.Chemscore.DEInternal.Weighted>
0.3327

> <Gold.Chemscore.Rot.Weighted>
6.8191

> <Gold.Chemscore.Internal.Correction.Weighted>
   9.000000E+99

> <Gold.Protein.RotatedTorsions>
[ 6907 6896 6895 6894 ] final   60.66 input  -60.11 | X-H torsion
[ 7974 7965 7964 7962 ] final  129.00 input  175.53 | X-H torsion
[ 8008 7997 7996 7995 ] final   70.55 input   59.86 | X-H torsion
[ 10167 10162 10161 10158 ] final  130.05 input  -65.29 | X-H torsion
[ 10718 10713 10712 10709 ] final  166.78 input   66.30 | X-H torsion
[ 10763 10752 10751 10750 ] final  107.61 input  -60.55 | X-H torsion
[ 11005 11000 10999 10996 ] final  134.62 input  -57.11 | X-H torsion

> <Gold.Protein.ActiveResidues>
 VAL166  LYS551  ARG553  GLY616  TRP617  ASP618  TYR619  PRO620  LYS621  CYS622 
 ASP623  PHE694  ASN695  SER759  ASP760  ASP761  ALA762  ILE779  LEU786  VAL792 
 PHE793  MET794  SER795  GLU796  ALA797  LYS798  CYS799  TRP800  GLU811  SER814 

> <Gold.Protein.RotatedAtoms>
  152.4022  134.6267  160.0064 H   0  0  0  0  0  0  0  0  0  0  0  0  # atno 6907 bound_to 6896
  151.6469  133.3317  159.3151 H   0  0  0  0  0  0  0  0  0  0  0  0  # atno 6908 bound_to 6896
  150.7921  134.6995  159.6587 H   0  0  0  0  0  0  0  0  0  0  0  0  # atno 6909 bound_to 6896
  145.0334  139.4026  143.5138 H   0  0  0  0  0  0  0  0  0  0  0  0  # atno 7974 bound_to 7965
  155.7405  140.3490  155.5102 H   0  0  0  0  0  0  0  0  0  0  0  0  # atno 8008 bound_to 7997
  155.9099  140.1048  157.1308 H   0  0  0  0  0  0  0  0  0  0  0  0  # atno 8009 bound_to 7997
  154.4054  140.1270  156.4530 H   0  0  0  0  0  0  0  0  0  0  0  0  # atno 8010 bound_to 7997
  139.5448  144.6764  151.4507 H   0  0  0  0  0  0  0  0  0  0  0  0  # atno 10167 bound_to 10162
  157.0610  131.0340  151.2647 H   0  0  0  0  0  0  0  0  0  0  0  0  # atno 10718 bound_to 10713
  153.4091  135.3839  155.2038 H   0  0  0  0  0  0  0  0  0  0  0  0  # atno 10763 bound_to 10752
  154.8736  135.3790  154.4523 H   0  0  0  0  0  0  0  0  0  0  0  0  # atno 10764 bound_to 10752
  153.5030  135.7088  153.5884 H   0  0  0  0  0  0  0  0  0  0  0  0  # atno 10765 bound_to 10752
  139.9927  134.9509  156.9892 H   0  0  0  0  0  0  0  0  0  0  0  0  # atno 11005 bound_to 11000
  146.3501  139.9896  142.8687 LP  0  0  0  0  0  0  0  0  0  0  0  0  # atno 17320 bound_to 7965
  145.1741  140.9735  143.4304 LP  0  0  0  0  0  0  0  0  0  0  0  0  # atno 17321 bound_to 7965
  140.6693  143.8330  150.6979 LP  0  0  0  0  0  0  0  0  0  0  0  0  # atno 17342 bound_to 10162
  140.1749  143.4163  152.1975 LP  0  0  0  0  0  0  0  0  0  0  0  0  # atno 17343 bound_to 10162
  157.4955  130.7848  149.7550 LP  0  0  0  0  0  0  0  0  0  0  0  0  # atno 17370 bound_to 10713
  155.9978  130.3897  150.2725 LP  0  0  0  0  0  0  0  0  0  0  0  0  # atno 17371 bound_to 10713
  140.4878  134.1224  155.7227 LP  0  0  0  0  0  0  0  0  0  0  0  0  # atno 17394 bound_to 11000
  141.1579  133.8849  157.1928 LP  0  0  0  0  0  0  0  0  0  0  0  0  # atno 17395 bound_to 11000

$$$$
