AV-unprocessed.smi:876|AV-procd|sdf|4026|dock5
  -GOLD-   22720 1513D 1   1.00000     0.00000
 Structure written by MMmdl.
 40 41  0  0  0  0  0  0  0  0  1 V2000
  151.5818  140.8905  158.3686 C   0  0  0  0  0  0  0  0  0  0  0  0
  150.9849  141.2213  157.0804 N   0  0  0  0  0  0  0  0  0  0  0  0
  151.1491  142.5609  156.5250 C   0  0  0  0  0  0  0  0  0  0  0  0
  150.2654  140.2427  156.3568 C   0  0  0  0  0  0  0  0  0  0  0  0
  149.4655  139.2751  157.0140 C   0  0  0  0  0  0  0  0  0  0  0  0
  148.7682  138.3193  156.2502 C   0  0  0  0  0  0  0  0  0  0  0  0
  148.8772  138.3544  154.8408 C   0  0  0  0  0  0  0  0  0  0  0  0
  148.2410  137.4402  153.9569 N   0  0  0  0  0  0  0  0  0  0  0  0
  147.0033  136.9201  154.0268 C   0  0  0  0  0  0  0  0  0  0  0  0
  146.1708  137.1681  154.8986 O   0  0  0  0  0  0  0  0  0  0  0  0
  146.7696  136.0910  152.9997 N   0  0  0  0  0  0  0  0  0  0  0  0
  145.5165  135.3794  152.7719 C   0  0  1  0  0  0  0  0  0  0  0  0
  144.8820  135.8249  151.4829 C   0  0  0  0  0  0  0  0  0  0  0  0
  144.6179  134.8104  150.6626 C   0  0  0  0  0  0  0  0  0  0  0  0
  145.0284  133.4764  151.2320 C   0  0  1  0  0  0  0  0  0  0  0  0
  145.9377  132.6725  150.2864 C   0  0  0  0  0  0  0  0  0  0  0  0
  146.2690  131.4236  150.8571 O   0  0  0  0  0  0  0  0  0  0  0  0
  145.7167  133.8542  152.5687 C   0  0  0  0  0  0  0  0  0  0  0  0
  149.7036  139.3464  154.2779 C   0  0  0  0  0  0  0  0  0  0  0  0
  150.3739  140.2632  155.0058 N   0  0  0  0  0  0  0  0  0  0  0  0
  144.8144  135.5763  153.5838 H   0  0  0  0  0  0  0  0  0  0  0  0
  144.1200  132.9086  151.4391 H   0  0  0  0  0  0  0  0  0  0  0  0
  152.3193  140.0952  158.2567 H   0  0  0  0  0  0  0  0  0  0  0  0
  150.8168  140.5619  159.0728 H   0  0  0  0  0  0  0  0  0  0  0  0
  152.0861  141.7525  158.8054 H   0  0  0  0  0  0  0  0  0  0  0  0
  150.1794  143.0384  156.3814 H   0  0  0  0  0  0  0  0  0  0  0  0
  151.6594  142.5163  155.5622 H   0  0  0  0  0  0  0  0  0  0  0  0
  151.7394  143.1963  157.1853 H   0  0  0  0  0  0  0  0  0  0  0  0
  149.3763  139.2416  158.0893 H   0  0  0  0  0  0  0  0  0  0  0  0
  148.1792  137.5766  156.7643 H   0  0  0  0  0  0  0  0  0  0  0  0
  148.7795  137.1867  153.1416 H   0  0  0  0  0  0  0  0  0  0  0  0
  147.5063  135.9447  152.3254 H   0  0  0  0  0  0  0  0  0  0  0  0
  144.6590  136.8619  151.2786 H   0  0  0  0  0  0  0  0  0  0  0  0
  144.1491  134.9025  149.6939 H   0  0  0  0  0  0  0  0  0  0  0  0
  145.4520  132.5103  149.3234 H   0  0  0  0  0  0  0  0  0  0  0  0
  146.8608  133.2201  150.0948 H   0  0  0  0  0  0  0  0  0  0  0  0
  147.1844  131.2529  150.6963 H   0  0  0  0  0  0  0  0  0  0  0  0
  146.7787  133.6050  152.5324 H   0  0  0  0  0  0  0  0  0  0  0  0
  145.2937  133.2905  153.4010 H   0  0  0  0  0  0  0  0  0  0  0  0
  149.8305  139.4111  153.2070 H   0  0  0  0  0  0  0  0  0  0  0  0
  1  2  1  0  0  0  0
  1 23  1  0  0  0  0
  1 24  1  0  0  0  0
  1 25  1  0  0  0  0
  2  3  1  0  0  0  0
  2  4  1  0  0  0  0
  3 26  1  0  0  0  0
  3 27  1  0  0  0  0
  3 28  1  0  0  0  0
  4 20  1  0  0  0  0
  4  5  2  0  0  0  0
  5  6  1  0  0  0  0
  5 29  1  0  0  0  0
  6  7  2  0  0  0  0
  6 30  1  0  0  0  0
  7  8  1  0  0  0  0
  7 19  1  0  0  0  0
  8  9  1  0  0  0  0
  8 31  1  0  0  0  0
  9 10  2  0  0  0  0
  9 11  1  0  0  0  0
 11 12  1  0  0  0  0
 11 32  1  0  0  0  0
 12 21  1  0  0  0  0
 12 18  1  0  0  0  0
 12 13  1  0  0  0  0
 13 14  2  0  0  0  0
 13 33  1  0  0  0  0
 14 15  1  0  0  0  0
 14 34  1  0  0  0  0
 15 22  1  0  0  0  0
 15 16  1  0  0  0  0
 15 18  1  0  0  0  0
 16 17  1  0  0  0  0
 16 35  1  0  0  0  0
 16 36  1  0  0  0  0
 17 37  1  0  0  0  0
 18 38  1  0  0  0  0
 18 39  1  0  0  0  0
 19 20  2  0  0  0  0
 19 40  1  0  0  0  0
M  END
> <s_m_source_file>
AV-unprocessed.smi

> <i_m_source_file_index>
876

> <i_lp_mmshare_version>
43012

> <i_f3d_flags>
0

> <s_epik_input>
W0NIM11OKFtDSDNdKWMxW2NIXVtjSF1jKFtjSF1uMSlbTkhdQyg9TylbTkhdW0NAQEhdMltDSF09W0NIXVtDQEBIXShbQ0gyXTIpW0NIMl1bT0hd

> <s_epik_cmdline>
J2VwaWtfcHl0aG9uJywgJy1waCcsICc3LjAnLCAnLXRuJywgJzgnLCAnLW1hJywgJzIwMCcsICctbWV0YWxfYmluZGluZycsICctaW1hZScsICc8aW5maWxlLm1hZT4nLCAnLW9tYWUnLCAnPG91dGZpbGUubWFlPic=

> <r_lp_tautomer_probability>
1

> <r_epik_Ionization_Penalty>
0.617998

> <r_epik_Ionization_Penalty_Charging>
0

> <r_epik_Ionization_Penalty_Neutral>
0.617998

> <r_epik_State_Penalty>
0.632637

> <r_epik_Charging_Adjusted_Penalty>
0.632637

> <i_epik_Tot_Q>
0

> <i_epik_Tot_abs_Q>
0

> <r_epik_Metal_State_Penalty>
0.305596

> <b_epik_Metal_Only>
0

> <s_lp_Force_Field>
OPLS_2005

> <r_lp_Energy>
21.5566

> <b_lp_Chiralities_Consistent>
1

> <s_lp_Variant>
AV-unprocessed.smi:876-8

> <Gold.Version>
5.8.1

> <Gold.Id.Protein>
6NUR|6NUR_protein|mol2

> <Gold.PLP.Fitness>
39.7969

> <Gold.PLP.PLP>
-26.9876

> <Gold.PLP.part.hbond>
-3.6423

> <Gold.PLP.part.metal>
0.0000

> <Gold.PLP.part.buried>
-3.4728

> <Gold.PLP.part.nonpolar>
-20.1092

> <Gold.PLP.part.repulsive>
0.1256

> <Gold.PLP.ligand.clash>
0.0000

> <Gold.PLP.ligand.torsion>
0.8452

> <Gold.PLP.Chemscore.Hbond>
3.8258

> <Gold.PLP.Chemscore.CHOScore>
1.0000

> <Gold.PLP.Chemscore.Metal>
0.0000

> <Gold.Chemscore.Hbonds>
donor molecule, donor type, donor heavy atom, donor atom, acceptor molecule, acceptor atom, score
      L1  H     8    31       P1  7948  0.99
      L1  H    11    32       P1  7948  1.00
      L1  H    17    37       P1 10747  1.00
      P1  H  7989  7998       L1    20  0.75
      L1  C    19    40       P1  7957  1.00

> <Gold.PLP.Chemscore.Internal.Correction>
0.0221

> <Gold.Rescore>
     Score         DG    S(hbond)    S(metal)    S(lipo)     H(rot)  DE(clash)    DE(int)     intcor
     16.82     -18.06       3.00        0.00      61.40       1.80       0.47       0.78       ----

> <Gold.Chemscore.Fitness>
16.8169

> <Gold.Chemscore.DG>
-18.0647

> <Gold.Chemscore.ZeroCoef>
-5.4800

> <Gold.Chemscore.Hbond>
2.9952

> <Gold.Chemscore.Metal>
0.0000

> <Gold.Chemscore.Lipo>
61.3985

> <Gold.Chemscore.Internal_Hbond>
0.0000

> <Gold.Chemscore.DEClash>
0.4727

> <Gold.Chemscore.DEInternal>
0.7752

> <Gold.Chemscore.Rot>
1.7980

> <Gold.Chemscore.Internal.Correction>
   9.000000E+99

> <Gold.Chemscore.Hbonds>
donor molecule, donor type, donor heavy atom, donor atom, acceptor molecule, acceptor atom, score
      L1  H     8    31       P1  7948  0.93
      L1  H    11    32       P1  7948  0.89
      L1  H    17    37       P1 10747  1.00
      P1  H  7989  7998       L1    20  0.10

> <Gold.Chemscore.Hbond.Weighted>
-10.0040

> <Gold.Chemscore.Metal.Weighted>
-0.0000

> <Gold.Chemscore.Lipo.Weighted>
-7.1836

> <Gold.Chemscore.Internal_Hbond.Weighted>
0.0000

> <Gold.Chemscore.DEClash.Weighted>
0.4727

> <Gold.Chemscore.DEInternal.Weighted>
0.7752

> <Gold.Chemscore.Rot.Weighted>
4.6029

> <Gold.Chemscore.Internal.Correction.Weighted>
   9.000000E+99

> <Gold.Protein.RotatedTorsions>
[ 6907 6896 6895 6894 ] final  -79.03 input  -60.11 | X-H torsion
[ 7974 7965 7964 7962 ] final  113.79 input  175.53 | X-H torsion
[ 8008 7997 7996 7995 ] final  -35.46 input   59.86 | X-H torsion
[ 10167 10162 10161 10158 ] final  -74.76 input  -65.29 | X-H torsion
[ 10718 10713 10712 10709 ] final  -65.18 input   66.30 | X-H torsion
[ 10763 10752 10751 10750 ] final   79.19 input  -60.55 | X-H torsion
[ 11005 11000 10999 10996 ] final  -87.66 input  -57.11 | X-H torsion

> <Gold.Protein.ActiveResidues>
 VAL166  LYS551  ARG553  GLY616  TRP617  ASP618  TYR619  PRO620  LYS621  CYS622 
 ASP623  PHE694  ASN695  SER759  ASP760  ASP761  ALA762  ILE779  LEU786  VAL792 
 PHE793  MET794  SER795  GLU796  ALA797  LYS798  CYS799  TRP800  GLU811  SER814 

> <Gold.Protein.RotatedAtoms>
  150.6959  134.4183  159.5192 H   0  0  0  0  0  0  0  0  0  0  0  0  # atno 6907 bound_to 6896
  152.1930  134.8652  160.0525 H   0  0  0  0  0  0  0  0  0  0  0  0  # atno 6908 bound_to 6896
  151.9601  133.3657  159.4069 H   0  0  0  0  0  0  0  0  0  0  0  0  # atno 6909 bound_to 6896
  145.2126  139.2899  143.4260 H   0  0  0  0  0  0  0  0  0  0  0  0  # atno 7974 bound_to 7965
  154.4095  140.1656  156.2216 H   0  0  0  0  0  0  0  0  0  0  0  0  # atno 8008 bound_to 7997
  155.9359  140.3411  155.6264 H   0  0  0  0  0  0  0  0  0  0  0  0  # atno 8009 bound_to 7997
  155.7049  140.0749  157.2385 H   0  0  0  0  0  0  0  0  0  0  0  0  # atno 8010 bound_to 7997
  140.5000  143.2363  151.7767 H   0  0  0  0  0  0  0  0  0  0  0  0  # atno 10167 bound_to 10162
  156.0685  130.4243  150.1526 H   0  0  0  0  0  0  0  0  0  0  0  0  # atno 10718 bound_to 10713
  153.0933  135.4849  154.8731 H   0  0  0  0  0  0  0  0  0  0  0  0  # atno 10763 bound_to 10752
  154.7295  135.3057  154.8917 H   0  0  0  0  0  0  0  0  0  0  0  0  # atno 10764 bound_to 10752
  153.9557  135.6818  153.4798 H   0  0  0  0  0  0  0  0  0  0  0  0  # atno 10765 bound_to 10752
  141.1613  133.7524  156.9339 H   0  0  0  0  0  0  0  0  0  0  0  0  # atno 11005 bound_to 11000
  146.3394  140.2406  142.8595 LP  0  0  0  0  0  0  0  0  0  0  0  0  # atno 17320 bound_to 7965
  144.9841  140.8487  143.5379 LP  0  0  0  0  0  0  0  0  0  0  0  0  # atno 17321 bound_to 7965
  139.4870  144.4535  151.9626 LP  0  0  0  0  0  0  0  0  0  0  0  0  # atno 17342 bound_to 10162
  140.3623  144.2957  150.5931 LP  0  0  0  0  0  0  0  0  0  0  0  0  # atno 17343 bound_to 10162
  156.9582  130.9796  151.3484 LP  0  0  0  0  0  0  0  0  0  0  0  0  # atno 17370 bound_to 10713
  157.5741  130.8331  149.8432 LP  0  0  0  0  0  0  0  0  0  0  0  0  # atno 17371 bound_to 10713
  140.1368  134.9320  157.2412 LP  0  0  0  0  0  0  0  0  0  0  0  0  # atno 17394 bound_to 11000
  140.2886  134.3267  155.7322 LP  0  0  0  0  0  0  0  0  0  0  0  0  # atno 17395 bound_to 11000

$$$$
