AV-unprocessed.smi:1066|AV-procd|sdf|4670|dock5
  -GOLD-   22720 3183D 1   1.00000     0.00000
 Structure written by MMmdl.
 38 40  0  0  0  0  0  0  0  0  2 V2000
  149.4725  134.6209  156.3069 C   0  0  0  0  0  0  0  0  0  0  0  0
  149.9786  133.2101  156.2124 C   0  0  0  0  0  0  0  0  0  0  0  0
  150.6216  132.6817  157.2454 N   0  0  0  0  0  0  0  0  0  0  0  0
  150.9715  131.3799  156.8691 O   0  0  0  0  0  0  0  0  0  0  0  0
  150.5099  131.1942  155.6116 C   0  0  0  0  0  0  0  0  0  0  0  0
  150.7439  129.7227  154.7536 Cl  0  0  0  0  0  0  0  0  0  0  0  0
  149.8720  132.2975  155.1219 C   0  0  0  0  0  0  0  0  0  0  0  0
  149.2250  132.5138  153.7764 C   0  0  0  0  0  0  0  0  0  0  0  0
  147.7052  132.4081  153.9075 C   0  0  0  0  0  0  0  0  0  0  0  0
  147.1893  132.2729  155.0162 O   0  0  0  0  0  0  0  0  0  0  0  0
  146.9996  132.4756  152.7682 N   0  0  0  0  0  0  0  0  0  0  0  0
  145.5451  132.4379  152.6828 C   0  0  2  0  0  0  0  0  0  0  0  0
  145.0011  132.3142  151.2578 C   0  0  0  0  0  0  0  0  0  0  0  0
  143.6497  133.0498  151.2961 C   0  0  0  0  0  0  0  0  0  0  0  0
  143.5542  133.7030  152.6228 N   0  3  2  0  0  0  0  0  0  0  0  0
  142.8719  135.0138  152.6117 C   0  0  0  0  0  0  0  0  0  0  0  0
  142.5648  135.5446  153.9917 C   0  0  0  0  0  0  0  0  0  0  0  0
  141.4579  134.9629  153.1388 C   0  0  0  0  0  0  0  0  0  0  0  0
  144.9205  133.7402  153.1711 C   0  0  0  0  0  0  0  0  0  0  0  0
  149.2975  135.0473  155.3190 H   0  0  0  0  0  0  0  0  0  0  0  0
  150.1873  135.2656  156.8192 H   0  0  0  0  0  0  0  0  0  0  0  0
  148.5324  134.6616  156.8572 H   0  0  0  0  0  0  0  0  0  0  0  0
  149.4761  133.4907  153.3618 H   0  0  0  0  0  0  0  0  0  0  0  0
  149.5740  131.7801  153.0489 H   0  0  0  0  0  0  0  0  0  0  0  0
  147.5093  132.5810  151.9025 H   0  0  0  0  0  0  0  0  0  0  0  0
  145.1546  131.6188  153.2907 H   0  0  0  0  0  0  0  0  0  0  0  0
  145.6666  132.8104  150.5493 H   0  0  0  0  0  0  0  0  0  0  0  0
  144.9016  131.2741  150.9450 H   0  0  0  0  0  0  0  0  0  0  0  0
  143.6005  133.7838  150.4900 H   0  0  0  0  0  0  0  0  0  0  0  0
  142.8127  132.3625  151.1700 H   0  0  0  0  0  0  0  0  0  0  0  0
  143.1376  135.6941  151.8042 H   0  0  0  0  0  0  0  0  0  0  0  0
  142.8940  134.9646  154.8523 H   0  0  0  0  0  0  0  0  0  0  0  0
  142.5732  136.6241  154.1281 H   0  0  0  0  0  0  0  0  0  0  0  0
  140.7379  135.6601  152.7149 H   0  0  0  0  0  0  0  0  0  0  0  0
  141.0519  133.9965  153.4319 H   0  0  0  0  0  0  0  0  0  0  0  0
  144.9153  133.8208  154.2587 H   0  0  0  0  0  0  0  0  0  0  0  0
  145.4579  134.6005  152.7666 H   0  0  0  0  0  0  0  0  0  0  0  0
  143.0230  133.0802  153.2148 H   0  0  0  0  0  0  0  0  0  0  0  0
  1  2  1  0  0  0  0
  1 20  1  0  0  0  0
  1 21  1  0  0  0  0
  1 22  1  0  0  0  0
  2  7  1  0  0  0  0
  2  3  2  0  0  0  0
  3  4  1  0  0  0  0
  4  5  1  0  0  0  0
  5  6  1  0  0  0  0
  5  7  2  0  0  0  0
  7  8  1  0  0  0  0
  8  9  1  0  0  0  0
  8 23  1  0  0  0  0
  8 24  1  0  0  0  0
  9 10  2  0  0  0  0
  9 11  1  0  0  0  0
 11 12  1  0  0  0  0
 11 25  1  0  0  0  0
 12 19  1  0  0  0  0
 12 13  1  0  0  0  0
 12 26  1  0  0  0  0
 13 14  1  0  0  0  0
 13 27  1  0  0  0  0
 13 28  1  0  0  0  0
 14 15  1  0  0  0  0
 14 29  1  0  0  0  0
 14 30  1  0  0  0  0
 15 16  1  0  0  0  0
 15 19  1  0  0  0  0
 15 38  1  0  0  0  0
 16 18  1  0  0  0  0
 16 17  1  0  0  0  0
 16 31  1  0  0  0  0
 17 18  1  0  0  0  0
 17 32  1  0  0  0  0
 17 33  1  0  0  0  0
 18 34  1  0  0  0  0
 18 35  1  0  0  0  0
 19 36  1  0  0  0  0
 19 37  1  0  0  0  0
M  CHG  1  15   1
M  END
> <s_m_source_file>
AV-unprocessed.smi

> <i_m_source_file_index>
1066

> <i_lp_mmshare_version>
43012

> <i_f3d_flags>
0

> <s_epik_input>
W0NIM11jMW5vYyhDbCljMVtDSDJdQyg9TylbTkhdW0NAQEhdMltDSDJdW0NIMl1OKFtDSDJdMilbQ0hdM1tDSDJdW0NIMl0z

> <s_epik_cmdline>
J2VwaWtfcHl0aG9uJywgJy1waCcsICc3LjAnLCAnLXRuJywgJzgnLCAnLW1hJywgJzIwMCcsICctbWV0YWxfYmluZGluZycsICctaW1hZScsICc8aW5maWxlLm1hZT4nLCAnLW9tYWUnLCAnPG91dGZpbGUubWFlPic=

> <r_epik_Ionization_Penalty>
0.00108138

> <r_epik_Ionization_Penalty_Charging>
0.00108128

> <r_epik_Ionization_Penalty_Neutral>
9.66632e-08

> <r_epik_State_Penalty>
0.000708577

> <r_epik_Charging_Adjusted_Penalty>
0.00178986

> <i_epik_Tot_Q>
1

> <i_epik_Tot_abs_Q>
1

> <r_epik_Metal_State_Penalty>
-0

> <b_epik_Metal_Only>
0

> <s_lp_Force_Field>
OPLS_2005

> <r_lp_Energy>
30.9378

> <b_lp_Chiralities_Consistent>
1

> <s_lp_Variant>
AV-unprocessed.smi:1066-3

> <Gold.Version>
5.8.1

> <Gold.Id.Protein>
6NUR|6NUR_protein|mol2

> <Gold.PLP.Fitness>
39.6467

> <Gold.PLP.PLP>
-31.5461

> <Gold.PLP.part.hbond>
-2.0000

> <Gold.PLP.part.metal>
0.0000

> <Gold.PLP.part.buried>
-6.2439

> <Gold.PLP.part.nonpolar>
-23.1873

> <Gold.PLP.part.repulsive>
0.0055

> <Gold.PLP.ligand.clash>
0.0000

> <Gold.PLP.ligand.torsion>
1.0470

> <Gold.PLP.Chemscore.Hbond>
2.9760

> <Gold.PLP.Chemscore.CHOScore>
0.0000

> <Gold.PLP.Chemscore.Metal>
0.0000

> <Gold.Chemscore.Hbonds>
donor molecule, donor type, donor heavy atom, donor atom, acceptor molecule, acceptor atom, score
      L1  H    15    38       P1 10957  1.82
      P1  H  6896  6908       L1     3  0.63

> <Gold.PLP.Chemscore.Internal.Correction>
1.2665

> <Gold.Rescore>
     Score         DG    S(hbond)    S(metal)    S(lipo)     H(rot)  DE(clash)    DE(int)     intcor
     14.34     -15.48       1.94        0.00      64.42       1.57       0.00       1.14       ----

> <Gold.Chemscore.Fitness>
14.3421

> <Gold.Chemscore.DG>
-15.4843

> <Gold.Chemscore.ZeroCoef>
-5.4800

> <Gold.Chemscore.Hbond>
1.9429

> <Gold.Chemscore.Metal>
0.0000

> <Gold.Chemscore.Lipo>
64.4185

> <Gold.Chemscore.Internal_Hbond>
0.0000

> <Gold.Chemscore.DEClash>
0.0000

> <Gold.Chemscore.DEInternal>
1.1422

> <Gold.Chemscore.Rot>
1.5711

> <Gold.Chemscore.Internal.Correction>
   9.000000E+99

> <Gold.Chemscore.Hbonds>
donor molecule, donor type, donor heavy atom, donor atom, acceptor molecule, acceptor atom, score
      L1  H    15    38       P1 10957  0.68
      P1  H  6896  6908       L1     3  0.59

> <Gold.Chemscore.Hbond.Weighted>
-6.4894

> <Gold.Chemscore.Metal.Weighted>
-0.0000

> <Gold.Chemscore.Lipo.Weighted>
-7.5370

> <Gold.Chemscore.Internal_Hbond.Weighted>
0.0000

> <Gold.Chemscore.DEClash.Weighted>
0.0000

> <Gold.Chemscore.DEInternal.Weighted>
1.1422

> <Gold.Chemscore.Rot.Weighted>
4.0221

> <Gold.Chemscore.Internal.Correction.Weighted>
   9.000000E+99

> <Gold.Protein.RotatedTorsions>
[ 6907 6896 6895 6894 ] final   83.45 input  -60.11 | X-H torsion
[ 7974 7965 7964 7962 ] final   12.26 input  175.53 | X-H torsion
[ 8008 7997 7996 7995 ] final  108.55 input   59.86 | X-H torsion
[ 10167 10162 10161 10158 ] final   37.72 input  -65.29 | X-H torsion
[ 10718 10713 10712 10709 ] final  -33.34 input   66.30 | X-H torsion
[ 10763 10752 10751 10750 ] final  -90.12 input  -60.55 | X-H torsion
[ 11005 11000 10999 10996 ] final   82.61 input  -57.11 | X-H torsion

> <Gold.Protein.ActiveResidues>
 VAL166  LYS551  ARG553  GLY616  TRP617  ASP618  TYR619  PRO620  LYS621  CYS622 
 ASP623  PHE694  ASN695  SER759  ASP760  ASP761  ALA762  ILE779  LEU786  VAL792 
 PHE793  MET794  SER795  GLU796  ALA797  LYS798  CYS799  TRP800  GLU811  SER814 

> <Gold.Protein.RotatedAtoms>
  152.5327  134.2893  159.9036 H   0  0  0  0  0  0  0  0  0  0  0  0  # atno 6907 bound_to 6896
  151.2845  133.4187  159.2636 H   0  0  0  0  0  0  0  0  0  0  0  0  # atno 6908 bound_to 6896
  151.0254  134.9516  159.8139 H   0  0  0  0  0  0  0  0  0  0  0  0  # atno 6909 bound_to 6896
  146.2355  139.9363  142.8489 H   0  0  0  0  0  0  0  0  0  0  0  0  # atno 7974 bound_to 7965
  156.1912  140.3074  155.9335 H   0  0  0  0  0  0  0  0  0  0  0  0  # atno 8008 bound_to 7997
  155.3170  140.0454  157.3054 H   0  0  0  0  0  0  0  0  0  0  0  0  # atno 8009 bound_to 7997
  154.5454  140.2275  155.8581 H   0  0  0  0  0  0  0  0  0  0  0  0  # atno 8010 bound_to 7997
  140.4005  144.1729  150.6133 H   0  0  0  0  0  0  0  0  0  0  0  0  # atno 10167 bound_to 10162
  156.3638  130.4328  149.7601 H   0  0  0  0  0  0  0  0  0  0  0  0  # atno 10718 bound_to 10713
  154.6625  135.5316  153.8036 H   0  0  0  0  0  0  0  0  0  0  0  0  # atno 10763 bound_to 10752
  153.0451  135.6509  154.0850 H   0  0  0  0  0  0  0  0  0  0  0  0  # atno 10764 bound_to 10752
  154.0757  135.2951  155.3280 H   0  0  0  0  0  0  0  0  0  0  0  0  # atno 10765 bound_to 10752
  139.9058  134.8084  156.2197 H   0  0  0  0  0  0  0  0  0  0  0  0  # atno 11005 bound_to 11000
  145.1995  140.9848  143.4164 LP  0  0  0  0  0  0  0  0  0  0  0  0  # atno 17320 bound_to 7965
  144.9786  139.3807  143.6273 LP  0  0  0  0  0  0  0  0  0  0  0  0  # atno 17321 bound_to 7965
  140.4744  143.2401  151.9043 LP  0  0  0  0  0  0  0  0  0  0  0  0  # atno 17342 bound_to 10162
  139.4785  144.5336  151.8631 LP  0  0  0  0  0  0  0  0  0  0  0  0  # atno 17343 bound_to 10162
  156.4755  130.8016  151.3033 LP  0  0  0  0  0  0  0  0  0  0  0  0  # atno 17370 bound_to 10713
  157.7476  131.0022  150.2993 LP  0  0  0  0  0  0  0  0  0  0  0  0  # atno 17371 bound_to 10713
  141.0413  133.6936  156.1603 LP  0  0  0  0  0  0  0  0  0  0  0  0  # atno 17394 bound_to 11000
  140.6951  134.4624  157.5588 LP  0  0  0  0  0  0  0  0  0  0  0  0  # atno 17395 bound_to 11000

$$$$
