AV-unprocessed.smi:2401|AV-procd|sdf|9504|dock8
  -GOLD-   2272013133D 1   1.00000     0.00000
 Structure written by MMmdl.
 34 35  0  0  0  0  0  0  0  0  1 V2000
  153.6704  142.6111  163.1192 C   0  0  0  0  0  0  0  0  0  0  0  0
  153.2318  142.3160  161.6956 C   0  0  0  0  0  0  0  0  0  0  0  0
  152.3033  143.2086  161.1525 N   0  0  0  0  0  0  0  0  0  0  0  0
  151.8690  143.0336  159.9473 C   0  0  0  0  0  0  0  0  0  0  0  0
  152.3073  141.9608  159.1539 N   0  0  0  0  0  0  0  0  0  0  0  0
  151.7259  141.8669  157.8040 C   0  0  0  0  0  0  0  0  0  0  0  0
  150.3203  142.5034  157.7274 C   0  0  1  0  0  0  0  0  0  0  0  0
  150.4619  143.8800  157.4358 O   0  0  0  0  0  0  0  0  0  0  0  0
  149.4602  141.8031  156.6864 C   0  0  0  0  0  0  0  0  0  0  0  0
  148.2071  141.2530  157.0365 C   0  0  0  0  0  0  0  0  0  0  0  0
  147.4163  140.6117  156.0635 C   0  0  0  0  0  0  0  0  0  0  0  0
  147.8715  140.5193  154.7340 C   0  0  0  0  0  0  0  0  0  0  0  0
  146.9033  139.7329  153.5422 Cl  0  0  0  0  0  0  0  0  0  0  0  0
  149.1174  141.0711  154.3781 C   0  0  0  0  0  0  0  0  0  0  0  0
  149.9085  141.7124  155.3510 C   0  0  0  0  0  0  0  0  0  0  0  0
  153.2088  141.0423  159.6071 C   0  0  0  0  0  0  0  0  0  0  0  0
  153.5779  140.0979  158.9060 O   0  0  0  0  0  0  0  0  0  0  0  0
  153.6962  141.2561  160.9792 C   0  0  0  0  0  0  0  0  0  0  0  0
  154.7072  140.2515  161.5177 C   0  0  0  0  0  0  0  0  0  0  0  0
  154.7490  142.7647  163.1638 H   0  0  0  0  0  0  0  0  0  0  0  0
  153.4076  141.7832  163.7784 H   0  0  0  0  0  0  0  0  0  0  0  0
  153.1889  143.5104  163.5051 H   0  0  0  0  0  0  0  0  0  0  0  0
  151.1404  143.6977  159.4790 H   0  0  0  0  0  0  0  0  0  0  0  0
  152.3801  142.2868  157.0365 H   0  0  0  0  0  0  0  0  0  0  0  0
  151.6546  140.8087  157.5445 H   0  0  0  0  0  0  0  0  0  0  0  0
  149.8166  142.4232  158.6917 H   0  0  0  0  0  0  0  0  0  0  0  0
  149.8914  144.0924  156.7128 H   0  0  0  0  0  0  0  0  0  0  0  0
  147.8473  141.3224  158.0528 H   0  0  0  0  0  0  0  0  0  0  0  0
  146.4600  140.1918  156.3388 H   0  0  0  0  0  0  0  0  0  0  0  0
  149.4680  141.0043  153.3586 H   0  0  0  0  0  0  0  0  0  0  0  0
  150.8612  142.1354  155.0670 H   0  0  0  0  0  0  0  0  0  0  0  0
  154.2776  139.2492  161.5166 H   0  0  0  0  0  0  0  0  0  0  0  0
  155.0296  140.4687  162.5346 H   0  0  0  0  0  0  0  0  0  0  0  0
  155.5970  140.2397  160.8875 H   0  0  0  0  0  0  0  0  0  0  0  0
  1  2  1  0  0  0  0
  1 20  1  0  0  0  0
  1 21  1  0  0  0  0
  1 22  1  0  0  0  0
  2 18  2  0  0  0  0
  2  3  1  0  0  0  0
  3  4  2  0  0  0  0
  4  5  1  0  0  0  0
  4 23  1  0  0  0  0
  5  6  1  0  0  0  0
  5 16  1  0  0  0  0
  6  7  1  0  0  0  0
  6 24  1  0  0  0  0
  6 25  1  0  0  0  0
  7  8  1  0  0  0  0
  7  9  1  0  0  0  0
  7 26  1  0  0  0  0
  8 27  1  0  0  0  0
  9 15  1  0  0  0  0
  9 10  2  0  0  0  0
 10 11  1  0  0  0  0
 10 28  1  0  0  0  0
 11 12  2  0  0  0  0
 11 29  1  0  0  0  0
 12 13  1  0  0  0  0
 12 14  1  0  0  0  0
 14 15  2  0  0  0  0
 14 30  1  0  0  0  0
 15 31  1  0  0  0  0
 16 17  2  0  0  0  0
 16 18  1  0  0  0  0
 18 19  1  0  0  0  0
 19 32  1  0  0  0  0
 19 33  1  0  0  0  0
 19 34  1  0  0  0  0
M  END
> <s_m_source_file>
AV-unprocessed.smi

> <i_m_source_file_index>
2401

> <i_lp_mmshare_version>
43012

> <i_f3d_flags>
0

> <s_epik_input>
W0NIM11jMW5bY0hdbihjKD1PKWMxW0NIM10pW0NIMl1bQ0BIXShbT0hdKWMyW2NIXVtjSF1jKENsKVtjSF1bY0hdMg==

> <s_epik_cmdline>
J2VwaWtfcHl0aG9uJywgJy1waCcsICc3LjAnLCAnLXRuJywgJzgnLCAnLW1hJywgJzIwMCcsICctbWV0YWxfYmluZGluZycsICctaW1hZScsICc8aW5maWxlLm1hZT4nLCAnLW9tYWUnLCAnPG91dGZpbGUubWFlPic=

> <r_lp_tautomer_probability>
1

> <r_epik_Ionization_Penalty>
5.07713e-05

> <r_epik_Ionization_Penalty_Charging>
7.56727e-08

> <r_epik_Ionization_Penalty_Neutral>
5.06957e-05

> <r_epik_State_Penalty>
-0

> <r_epik_Charging_Adjusted_Penalty>
7.56727e-08

> <i_epik_Tot_Q>
0

> <i_epik_Tot_abs_Q>
0

> <r_epik_Metal_State_Penalty>
-0

> <b_epik_Metal_Only>
0

> <s_lp_Force_Field>
OPLS_2005

> <r_lp_Energy>
18.5783

> <b_lp_Chiralities_Consistent>
1

> <s_lp_Variant>
AV-unprocessed.smi:2401-2

> <Gold.Version>
5.8.1

> <Gold.Id.Protein>
6NUR|6NUR_protein|mol2

> <Gold.PLP.Fitness>
44.2718

> <Gold.PLP.PLP>
-39.9179

> <Gold.PLP.part.hbond>
-2.0402

> <Gold.PLP.part.metal>
0.0000

> <Gold.PLP.part.buried>
-3.4159

> <Gold.PLP.part.nonpolar>
-33.0824

> <Gold.PLP.part.repulsive>
0.0970

> <Gold.PLP.ligand.clash>
0.0000

> <Gold.PLP.ligand.torsion>
0.7669

> <Gold.PLP.Chemscore.Hbond>
1.9600

> <Gold.PLP.Chemscore.CHOScore>
0.0000

> <Gold.PLP.Chemscore.Metal>
0.0000

> <Gold.Chemscore.Hbonds>
donor molecule, donor type, donor heavy atom, donor atom, acceptor molecule, acceptor atom, score
      L1  H     8    27       P1  8028  1.00
      P1  H  7997  8008       L1    17  0.81

> <Gold.PLP.Chemscore.Internal.Correction>
0.0077

> <Gold.Rescore>
     Score         DG    S(hbond)    S(metal)    S(lipo)     H(rot)  DE(clash)    DE(int)     intcor
     16.19     -17.72       1.95        0.00      91.21       1.93       0.06       1.46       ----

> <Gold.Chemscore.Fitness>
16.1947

> <Gold.Chemscore.DG>
-17.7158

> <Gold.Chemscore.ZeroCoef>
-5.4800

> <Gold.Chemscore.Hbond>
1.9450

> <Gold.Chemscore.Metal>
0.0000

> <Gold.Chemscore.Lipo>
91.2065

> <Gold.Chemscore.Internal_Hbond>
0.0000

> <Gold.Chemscore.DEClash>
0.0642

> <Gold.Chemscore.DEInternal>
1.4569

> <Gold.Chemscore.Rot>
1.9265

> <Gold.Chemscore.Internal.Correction>
   9.000000E+99

> <Gold.Chemscore.Hbonds>
donor molecule, donor type, donor heavy atom, donor atom, acceptor molecule, acceptor atom, score
      L1  H     8    27       P1  8028  0.95
      P1  H  7997  8008       L1    17  0.77

> <Gold.Chemscore.Hbond.Weighted>
-6.4964

> <Gold.Chemscore.Metal.Weighted>
-0.0000

> <Gold.Chemscore.Lipo.Weighted>
-10.6712

> <Gold.Chemscore.Internal_Hbond.Weighted>
0.0000

> <Gold.Chemscore.DEClash.Weighted>
0.0642

> <Gold.Chemscore.DEInternal.Weighted>
1.4569

> <Gold.Chemscore.Rot.Weighted>
4.9317

> <Gold.Chemscore.Internal.Correction.Weighted>
   9.000000E+99

> <Gold.Protein.RotatedTorsions>
[ 6907 6896 6895 6894 ] final  154.53 input  -60.11 | X-H torsion
[ 7974 7965 7964 7962 ] final -123.50 input  175.53 | X-H torsion
[ 8008 7997 7996 7995 ] final -104.38 input   59.86 | X-H torsion
[ 10167 10162 10161 10158 ] final   94.27 input  -65.29 | X-H torsion
[ 10718 10713 10712 10709 ] final -111.72 input   66.30 | X-H torsion
[ 10763 10752 10751 10750 ] final   42.14 input  -60.55 | X-H torsion
[ 11005 11000 10999 10996 ] final  -71.14 input  -57.11 | X-H torsion

> <Gold.Protein.ActiveResidues>
 VAL166  LYS551  ARG553  GLY616  TRP617  ASP618  TYR619  PRO620  LYS621  CYS622 
 ASP623  PHE694  ASN695  SER759  ASP760  ASP761  ALA762  ILE779  LEU786  VAL792 
 PHE793  MET794  SER795  GLU796  ALA797  LYS798  CYS799  TRP800  GLU811  SER814 

> <Gold.Protein.RotatedAtoms>
  152.0572  133.4045  159.4401 H   0  0  0  0  0  0  0  0  0  0  0  0  # atno 6907 bound_to 6896
  150.6867  134.3241  159.4808 H   0  0  0  0  0  0  0  0  0  0  0  0  # atno 6908 bound_to 6896
  152.1058  134.9309  160.0619 H   0  0  0  0  0  0  0  0  0  0  0  0  # atno 6909 bound_to 6896
  145.0180  140.7964  143.4398 H   0  0  0  0  0  0  0  0  0  0  0  0  # atno 7974 bound_to 7965
  154.8845  140.0418  157.1802 H   0  0  0  0  0  0  0  0  0  0  0  0  # atno 8008 bound_to 7997
  154.8605  140.2943  155.5521 H   0  0  0  0  0  0  0  0  0  0  0  0  # atno 8009 bound_to 7997
  156.2998  140.2448  156.3578 H   0  0  0  0  0  0  0  0  0  0  0  0  # atno 8010 bound_to 7997
  139.8100  144.6777  150.9653 H   0  0  0  0  0  0  0  0  0  0  0  0  # atno 10167 bound_to 10162
  156.0663  130.5882  150.8411 H   0  0  0  0  0  0  0  0  0  0  0  0  # atno 10718 bound_to 10713
  152.9890  135.6141  154.2900 H   0  0  0  0  0  0  0  0  0  0  0  0  # atno 10763 bound_to 10752
  154.2626  135.2782  155.2773 H   0  0  0  0  0  0  0  0  0  0  0  0  # atno 10764 bound_to 10752
  154.5192  135.5819  153.6724 H   0  0  0  0  0  0  0  0  0  0  0  0  # atno 10765 bound_to 10752
  141.1587  133.6809  156.6860 H   0  0  0  0  0  0  0  0  0  0  0  0  # atno 11005 bound_to 11000
  145.1933  139.2289  143.5231 LP  0  0  0  0  0  0  0  0  0  0  0  0  # atno 17320 bound_to 7965
  146.3481  140.1734  142.8589 LP  0  0  0  0  0  0  0  0  0  0  0  0  # atno 17321 bound_to 7965
  140.7818  143.4195  151.0864 LP  0  0  0  0  0  0  0  0  0  0  0  0  # atno 17342 bound_to 10162
  139.7862  143.8284  152.3145 LP  0  0  0  0  0  0  0  0  0  0  0  0  # atno 17343 bound_to 10162
  157.5707  131.0946  150.9422 LP  0  0  0  0  0  0  0  0  0  0  0  0  # atno 17370 bound_to 10713
  156.9639  130.5465  149.5287 LP  0  0  0  0  0  0  0  0  0  0  0  0  # atno 17371 bound_to 10713
  140.3066  134.8120  157.4142 LP  0  0  0  0  0  0  0  0  0  0  0  0  # atno 17394 bound_to 11000
  140.1215  134.5213  155.8180 LP  0  0  0  0  0  0  0  0  0  0  0  0  # atno 17395 bound_to 11000

$$$$
