AV-unprocessed.smi:1073|AV-procd|sdf|4690|dock2
  -GOLD-   22720 3213D 1   1.00000     0.00000
 Structure written by MMmdl.
 44 44  0  0  0  0  0  0  0  0  1 V2000
  154.1781  135.9982  158.4041 C   0  0  0  0  0  0  0  0  0  0  0  0
  153.0458  136.8978  158.2466 N   0  0  0  0  0  0  0  0  0  0  0  0
  152.1401  136.8068  157.2623 C   0  0  0  0  0  0  0  0  0  0  0  0
  152.1881  135.9464  156.3816 O   0  0  0  0  0  0  0  0  0  0  0  0
  151.0207  137.8621  157.2684 C   0  0  1  0  0  0  0  0  0  0  0  0
  150.9457  138.4844  155.8534 C   0  0  0  0  0  0  0  0  0  0  0  0
  150.1181  139.7863  155.7448 C   0  0  0  0  0  0  0  0  0  0  0  0
  149.5090  139.9204  154.3409 C   0  0  0  0  0  0  0  0  0  0  0  0
  150.9382  141.0391  156.0948 C   0  0  0  0  0  0  0  0  0  0  0  0
  149.7358  137.2338  157.5764 N   0  0  0  0  0  0  0  0  0  0  0  0
  149.3913  136.7159  158.7656 C   0  0  0  0  0  0  0  0  0  0  0  0
  150.1474  136.7021  159.7380 O   0  0  0  0  0  0  0  0  0  0  0  0
  147.9810  136.1149  158.8509 C   0  0  0  0  0  0  0  0  0  0  0  0
  147.7508  135.3318  160.0767 N   0  0  0  0  0  0  0  0  0  0  0  0
  147.8710  133.9318  159.9751 C   0  0  0  0  0  0  0  0  0  0  0  0
  147.6777  133.1019  161.0183 C   0  0  0  0  0  0  0  0  0  0  0  0
  147.8716  131.5985  160.8950 C   0  0  0  0  0  0  0  0  0  0  0  0
  148.2691  131.2666  159.6665 F   0  0  0  0  0  0  0  0  0  0  0  0
  148.8032  131.1906  161.7558 F   0  0  0  0  0  0  0  0  0  0  0  0
  146.7426  130.9408  161.1618 F   0  0  0  0  0  0  0  0  0  0  0  0
  147.3662  133.7255  162.2894 C   0  0  0  0  0  0  0  0  0  0  0  0
  147.2592  135.0635  162.4067 C   0  0  0  0  0  0  0  0  0  0  0  0
  147.4516  135.9515  161.2578 C   0  0  0  0  0  0  0  0  0  0  0  0
  147.3520  137.1752  161.3512 O   0  0  0  0  0  0  0  0  0  0  0  0
  154.7426  136.2643  159.2976 H   0  0  0  0  0  0  0  0  0  0  0  0
  154.8476  136.0638  157.5457 H   0  0  0  0  0  0  0  0  0  0  0  0
  153.8432  134.9654  158.5075 H   0  0  0  0  0  0  0  0  0  0  0  0
  152.9385  137.6317  158.9319 H   0  0  0  0  0  0  0  0  0  0  0  0
  151.2506  138.6302  158.0087 H   0  0  0  0  0  0  0  0  0  0  0  0
  151.9563  138.6852  155.4930 H   0  0  0  0  0  0  0  0  0  0  0  0
  150.5273  137.7495  155.1628 H   0  0  0  0  0  0  0  0  0  0  0  0
  149.2845  139.7295  156.4455 H   0  0  0  0  0  0  0  0  0  0  0  0
  150.2841  139.9883  153.5769 H   0  0  0  0  0  0  0  0  0  0  0  0
  148.8876  140.8132  154.2642 H   0  0  0  0  0  0  0  0  0  0  0  0
  148.8797  139.0628  154.1008 H   0  0  0  0  0  0  0  0  0  0  0  0
  151.8194  141.1274  155.4585 H   0  0  0  0  0  0  0  0  0  0  0  0
  151.2724  141.0245  157.1319 H   0  0  0  0  0  0  0  0  0  0  0  0
  150.3435  141.9438  155.9653 H   0  0  0  0  0  0  0  0  0  0  0  0
  149.0611  137.1908  156.8265 H   0  0  0  0  0  0  0  0  0  0  0  0
  147.2442  136.9167  158.7757 H   0  0  0  0  0  0  0  0  0  0  0  0
  147.8207  135.4978  157.9659 H   0  0  0  0  0  0  0  0  0  0  0  0
  148.1410  133.5746  158.9919 H   0  0  0  0  0  0  0  0  0  0  0  0
  147.2138  133.1089  163.1629 H   0  0  0  0  0  0  0  0  0  0  0  0
  147.0258  135.4930  163.3699 H   0  0  0  0  0  0  0  0  0  0  0  0
  1  2  1  0  0  0  0
  1 25  1  0  0  0  0
  1 26  1  0  0  0  0
  1 27  1  0  0  0  0
  2  3  1  0  0  0  0
  2 28  1  0  0  0  0
  3  4  2  0  0  0  0
  3  5  1  0  0  0  0
  5  6  1  0  0  0  0
  5 10  1  0  0  0  0
  5 29  1  0  0  0  0
  6  7  1  0  0  0  0
  6 30  1  0  0  0  0
  6 31  1  0  0  0  0
  7  8  1  0  0  0  0
  7  9  1  0  0  0  0
  7 32  1  0  0  0  0
  8 33  1  0  0  0  0
  8 34  1  0  0  0  0
  8 35  1  0  0  0  0
  9 36  1  0  0  0  0
  9 37  1  0  0  0  0
  9 38  1  0  0  0  0
 10 11  1  0  0  0  0
 10 39  1  0  0  0  0
 11 12  2  0  0  0  0
 11 13  1  0  0  0  0
 13 14  1  0  0  0  0
 13 40  1  0  0  0  0
 13 41  1  0  0  0  0
 14 23  1  0  0  0  0
 14 15  1  0  0  0  0
 15 16  2  0  0  0  0
 15 42  1  0  0  0  0
 16 17  1  0  0  0  0
 16 21  1  0  0  0  0
 17 18  1  0  0  0  0
 17 19  1  0  0  0  0
 17 20  1  0  0  0  0
 21 22  2  0  0  0  0
 21 43  1  0  0  0  0
 22 23  1  0  0  0  0
 22 44  1  0  0  0  0
 23 24  2  0  0  0  0
M  END
> <s_m_source_file>
AV-unprocessed.smi

> <i_m_source_file_index>
1073

> <i_lp_mmshare_version>
43012

> <i_f3d_flags>
0

> <s_epik_input>
W0NIM11bTkhdQyg9TylbQ0BIXShbQ0gyXVtDSF0oW0NIM10pW0NIM10pW05IXUMoPU8pW0NIMl1uMVtjSF1jKEMoRikoRilGKVtjSF1bY0hdYzE9Tw==

> <s_epik_cmdline>
J2VwaWtfcHl0aG9uJywgJy1waCcsICc3LjAnLCAnLXRuJywgJzgnLCAnLW1hJywgJzIwMCcsICctbWV0YWxfYmluZGluZycsICctaW1hZScsICc8aW5maWxlLm1hZT4nLCAnLW9tYWUnLCAnPG91dGZpbGUubWFlPic=

> <r_lp_tautomer_probability>
1

> <r_epik_Ionization_Penalty>
7.02352e-08

> <r_epik_Ionization_Penalty_Charging>
1.57869e-08

> <r_epik_Ionization_Penalty_Neutral>
5.44484e-08

> <r_epik_State_Penalty>
-0

> <r_epik_Charging_Adjusted_Penalty>
1.57869e-08

> <i_epik_Tot_Q>
0

> <i_epik_Tot_abs_Q>
0

> <r_epik_Metal_State_Penalty>
-0

> <b_epik_Metal_Only>
0

> <s_lp_Force_Field>
OPLS_2005

> <r_lp_Energy>
17.6469

> <b_lp_Chiralities_Consistent>
1

> <s_lp_Variant>
AV-unprocessed.smi:1073-2

> <Gold.Version>
5.8.1

> <Gold.Id.Protein>
6NUR|6NUR_protein|mol2

> <Gold.PLP.Fitness>
46.8058

> <Gold.PLP.PLP>
-38.8350

> <Gold.PLP.part.hbond>
-4.4644

> <Gold.PLP.part.metal>
0.0000

> <Gold.PLP.part.buried>
-4.0064

> <Gold.PLP.part.nonpolar>
-30.4047

> <Gold.PLP.part.repulsive>
0.1800

> <Gold.PLP.ligand.clash>
1.3604

> <Gold.PLP.ligand.torsion>
1.0850

> <Gold.PLP.Chemscore.Hbond>
3.7120

> <Gold.PLP.Chemscore.CHOScore>
0.0000

> <Gold.PLP.Chemscore.Metal>
0.0000

> <Gold.Chemscore.Hbonds>
donor molecule, donor type, donor heavy atom, donor atom, acceptor molecule, acceptor atom, score
      P1  H  6896  6909       L1    12  1.00
      P1  H  6931  6943       L1    24  0.82
      P1  H  6934  6947       L1    24  0.98
      P1  H 10752 10765       L1     4  1.00

> <Gold.PLP.Chemscore.Internal.Correction>
0.3653

> <Gold.Rescore>
     Score         DG    S(hbond)    S(metal)    S(lipo)     H(rot)  DE(clash)    DE(int)     intcor
     17.66     -19.16       3.63        0.00      68.22       2.51       0.17       1.33       ----

> <Gold.Chemscore.Fitness>
17.6602

> <Gold.Chemscore.DG>
-19.1596

> <Gold.Chemscore.ZeroCoef>
-5.4800

> <Gold.Chemscore.Hbond>
3.6336

> <Gold.Chemscore.Metal>
0.0000

> <Gold.Chemscore.Lipo>
68.2168

> <Gold.Chemscore.Internal_Hbond>
0.0000

> <Gold.Chemscore.DEClash>
0.1652

> <Gold.Chemscore.DEInternal>
1.3342

> <Gold.Chemscore.Rot>
2.5149

> <Gold.Chemscore.Internal.Correction>
   9.000000E+99

> <Gold.Chemscore.Hbonds>
donor molecule, donor type, donor heavy atom, donor atom, acceptor molecule, acceptor atom, score
      P1  H  6896  6909       L1    12  0.78
      P1  H  6931  6943       L1    24  0.73
      P1  H  6934  6947       L1    24  0.93
      P1  H 10752 10765       L1     4  1.00

> <Gold.Chemscore.Hbond.Weighted>
-12.1364

> <Gold.Chemscore.Metal.Weighted>
-0.0000

> <Gold.Chemscore.Lipo.Weighted>
-7.9814

> <Gold.Chemscore.Internal_Hbond.Weighted>
0.0000

> <Gold.Chemscore.DEClash.Weighted>
0.1652

> <Gold.Chemscore.DEInternal.Weighted>
1.3342

> <Gold.Chemscore.Rot.Weighted>
6.4381

> <Gold.Chemscore.Internal.Correction.Weighted>
   9.000000E+99

> <Gold.Protein.RotatedTorsions>
[ 6907 6896 6895 6894 ] final   90.02 input  -60.11 | X-H torsion
[ 7974 7965 7964 7962 ] final -127.72 input  175.53 | X-H torsion
[ 8008 7997 7996 7995 ] final  -45.03 input   59.86 | X-H torsion
[ 10167 10162 10161 10158 ] final -172.76 input  -65.29 | X-H torsion
[ 10718 10713 10712 10709 ] final   43.41 input   66.30 | X-H torsion
[ 10763 10752 10751 10750 ] final -149.32 input  -60.55 | X-H torsion
[ 11005 11000 10999 10996 ] final -123.68 input  -57.11 | X-H torsion

> <Gold.Protein.ActiveResidues>
 VAL166  LYS551  ARG553  GLY616  TRP617  ASP618  TYR619  PRO620  LYS621  CYS622 
 ASP623  PHE694  ASN695  SER759  ASP760  ASP761  ALA762  ILE779  LEU786  VAL792 
 PHE793  MET794  SER795  GLU796  ALA797  LYS798  CYS799  TRP800  GLU811  SER814 

> <Gold.Protein.RotatedAtoms>
  152.5441  134.1876  159.8660 H   0  0  0  0  0  0  0  0  0  0  0  0  # atno 6907 bound_to 6896
  151.1874  133.4681  159.2602 H   0  0  0  0  0  0  0  0  0  0  0  0  # atno 6908 bound_to 6896
  151.1117  135.0042  159.8552 H   0  0  0  0  0  0  0  0  0  0  0  0  # atno 6909 bound_to 6896
  144.9742  140.7576  143.4652 H   0  0  0  0  0  0  0  0  0  0  0  0  # atno 7974 bound_to 7965
  154.3999  140.1407  156.3780 H   0  0  0  0  0  0  0  0  0  0  0  0  # atno 8008 bound_to 7997
  155.8031  140.3475  155.5393 H   0  0  0  0  0  0  0  0  0  0  0  0  # atno 8009 bound_to 7997
  155.8463  140.0934  157.1693 H   0  0  0  0  0  0  0  0  0  0  0  0  # atno 8010 bound_to 7997
  139.5726  144.1606  152.1406 H   0  0  0  0  0  0  0  0  0  0  0  0  # atno 10167 bound_to 10162
  157.4156  130.7939  149.7469 H   0  0  0  0  0  0  0  0  0  0  0  0  # atno 10718 bound_to 10713
  154.8184  135.3312  154.7110 H   0  0  0  0  0  0  0  0  0  0  0  0  # atno 10763 bound_to 10752
  153.7747  135.6923  153.4904 H   0  0  0  0  0  0  0  0  0  0  0  0  # atno 10764 bound_to 10752
  153.2021  135.4512  155.0226 H   0  0  0  0  0  0  0  0  0  0  0  0  # atno 10765 bound_to 10752
  140.9900  134.0552  157.3666 H   0  0  0  0  0  0  0  0  0  0  0  0  # atno 11005 bound_to 11000
  145.2514  139.2030  143.4940 LP  0  0  0  0  0  0  0  0  0  0  0  0  # atno 17320 bound_to 7965
  146.3390  140.2428  142.8596 LP  0  0  0  0  0  0  0  0  0  0  0  0  # atno 17321 bound_to 7965
  140.1142  144.5431  150.6905 LP  0  0  0  0  0  0  0  0  0  0  0  0  # atno 17342 bound_to 10162
  140.7010  143.2435  151.4863 LP  0  0  0  0  0  0  0  0  0  0  0  0  # atno 17343 bound_to 10162
  155.9864  130.3975  150.3213 LP  0  0  0  0  0  0  0  0  0  0  0  0  # atno 17370 bound_to 10713
  157.1356  131.0283  151.2950 LP  0  0  0  0  0  0  0  0  0  0  0  0  # atno 17371 bound_to 10713
  139.8988  135.0156  156.7165 LP  0  0  0  0  0  0  0  0  0  0  0  0  # atno 17394 bound_to 11000
  140.7055  133.9269  155.8051 LP  0  0  0  0  0  0  0  0  0  0  0  0  # atno 17395 bound_to 11000

$$$$
