#       Name:                AV-unprocessed.smi:2746
#       Creating user name   scv26
#       Creation time:       Fri Mar 27 15:02:43 2020


#       File generated by GOLD software.
#

@<TRIPOS>MOLECULE
AV-unprocessed.smi:2746
    44    45     1
SMALL
NO_CHARGES


@<TRIPOS>ATOM
      1 ****        -3.5969  -1.7025  -0.5709 C.2            1 S1                 0.0000
      2 ****        -4.2621  -1.0249   0.3808 C.2            1 S1                 0.0000
      3 ****        -3.6610  -0.1122   1.4425 C.3            1 S1                 0.0000
      4 ****        -4.2419   1.3042   1.3421 C.3            1 S1                 0.0000
      5 ****        -2.2019  -0.0440   1.3653 N.am           1 S1                 0.0000
      6 ****        -1.3397  -0.7089   2.1525 C.2            1 S1                 0.0000
      7 ****        -1.6805  -1.4313   3.0893 O.2            1 S1                 0.0000
      8 ****         0.1125  -0.4751   1.8584 C.ar           1 S1                 0.0000
      9 ****         0.5873  -0.2071   0.5526 C.ar           1 S1                 0.0000
     10 ****         1.9742  -0.0290   0.3353 C.ar           1 S1                 0.0000
     11 ****         2.4953   0.2370  -0.9381 N.3            1 S1                 0.0000
     12 ****         2.1142   1.5447  -1.4568 C.3            1 S1                 0.0000
     13 ****         2.8275   1.8079  -2.7944 C.3            1 S1                 0.0000
     14 ****         2.5320   0.7545  -3.7071 O.3            1 S1                 0.0000
     15 ****         2.9773  -0.5108  -3.2265 C.3            1 S1                 0.0000
     16 ****         2.2690  -0.8354  -1.8998 C.3            1 S1                 0.0000
     17 ****         2.8541  -0.1261   1.4339 C.ar           1 S1                 0.0000
     18 ****         2.3323  -0.4056   2.7121 C.ar           1 S1                 0.0000
     19 ****         1.0020  -0.5717   2.8734 N.pl3          1 S1                 1.0000
     20 ****        -2.5226  -1.6546  -0.6694 H              1 S1                 0.0000
     21 ****        -4.1314  -2.3238  -1.2744 H              1 S1                 0.0000
     22 ****        -5.3375  -1.1237   0.4156 H              1 S1                 0.0000
     23 ****        -3.9601  -0.5210   2.4091 H              1 S1                 0.0000
     24 ****        -5.3285   1.2908   1.4346 H              1 S1                 0.0000
     25 ****        -3.9955   1.7689   0.3867 H              1 S1                 0.0000
     26 ****        -3.8534   1.9449   2.1344 H              1 S1                 0.0000
     27 ****        -1.8193   0.5473   0.6419 H              1 S1                 0.0000
     28 ****        -0.1005  -0.1447  -0.2784 H              1 S1                 0.0000
     29 ****         1.0337   1.5856  -1.6016 H              1 S1                 0.0000
     30 ****         2.3741   2.3202  -0.7351 H              1 S1                 0.0000
     31 ****         2.4913   2.7532  -3.2206 H              1 S1                 0.0000
     32 ****         3.9063   1.8875  -2.6515 H              1 S1                 0.0000
     33 ****         2.7500  -1.2740  -3.9709 H              1 S1                 0.0000
     34 ****         4.0609  -0.5023  -3.0982 H              1 S1                 0.0000
     35 ****         2.6419  -1.7782  -1.4975 H              1 S1                 0.0000
     36 ****         1.1998  -0.9592  -2.0766 H              1 S1                 0.0000
     37 ****         3.9181   0.0050   1.2987 H              1 S1                 0.0000
     38 ****         2.9345  -0.5048   3.6033 H              1 S1                 0.0000
     39 ****         0.6460  -0.7807   3.8069 H              1 S1                 0.0000
     40 ****        -2.6504  -1.5502   3.3018 LP             1 S1                 0.0000
     41 ****        -0.9875  -1.8992   3.6377 LP             1 S1                 0.0000
     42 ****         3.4856   0.2723  -0.8041 LP             1 S1                 0.0000
     43 ****         2.9842   0.9461  -4.5782 LP             1 S1                 0.0000
     44 ****         1.5425   0.7166  -3.8466 LP             1 S1                 0.0000
@<TRIPOS>BOND
    1    1    2 2     
    2    1   20 1     
    3    1   21 1     
    4    2    3 1     
    5    2   22 1     
    6    3    4 1     
    7    3    5 1     
    8    3   23 1     
    9    4   24 1     
   10    4   25 1     
   11    4   26 1     
   12    5    6 am    
   13    5   27 1     
   14    6    7 2     
   15    6    8 1     
   16    8   19 ar    
   17    8    9 ar    
   18    9   10 ar    
   19    9   28 1     
   20   10   11 1     
   21   10   17 ar    
   22   11   16 1     
   23   11   12 1     
   24   12   13 1     
   25   12   29 1     
   26   12   30 1     
   27   13   14 1     
   28   13   31 1     
   29   13   32 1     
   30   14   15 1     
   31   15   16 1     
   32   15   33 1     
   33   15   34 1     
   34   16   35 1     
   35   16   36 1     
   36   17   18 ar    
   37   17   37 1     
   38   18   19 ar    
   39   18   38 1     
   40   19   39 1     
   41    7   40 1     
   42    7   41 1     
   43   11   42 1     
   44   14   43 1     
   45   14   44 1     
@<TRIPOS>SUBSTRUCTURE
      1 S1             1
@<TRIPOS>SET
LONE_PAIRS      STATIC     ATOMS    <user>   **** ""
5 40 41 42 43 44
DONOR_HYDROGENS      STATIC     ATOMS    <user>   **** ""
2 27 39
ATOM$BLUE        STATIC     ATOMS    COLORGROUP SYSTEM
5 40 41 42 43 44
ATOM$RED        STATIC     ATOMS    COLORGROUP SYSTEM
2 27 39
