AV-unprocessed.smi:2288|AV-procd|sdf|9207|dock9
  -GOLD-   2272012423D 1   1.00000     0.00000
 Structure written by MMmdl.
 40 41  0  0  0  0  0  0  0  0  1 V2000
  151.6617  145.6208  159.8163 C   0  0  0  0  0  0  0  0  0  0  0  0
  151.9254  144.1918  159.3884 C   0  0  0  0  0  0  0  0  0  0  0  0
  152.8199  143.3817  160.1175 C   0  0  0  0  0  0  0  0  0  0  0  0
  153.0655  142.0545  159.7118 C   0  0  0  0  0  0  0  0  0  0  0  0
  154.0307  141.1917  160.4983 C   0  0  0  0  0  0  0  0  0  0  0  0
  152.4095  141.5361  158.5765 C   0  0  0  0  0  0  0  0  0  0  0  0
  151.5089  142.3381  157.8442 C   0  0  0  0  0  0  0  0  0  0  0  0
  150.8199  141.7675  156.6134 C   0  0  1  0  0  0  0  0  0  0  0  0
  151.3777  140.5234  156.2373 O   0  0  0  0  0  0  0  0  0  0  0  0
  149.3085  141.5762  156.8682 C   0  0  0  0  0  0  0  0  0  0  0  0
  148.6419  140.8548  155.7708 N   0  0  0  0  0  0  0  0  0  0  0  0
  148.6134  141.5044  154.5260 C   0  0  0  0  0  0  0  0  0  0  0  0
  148.0597  140.9636  153.4902 N   0  0  0  0  0  0  0  0  0  0  0  0
  147.4670  139.7019  153.5955 C   0  0  0  0  0  0  0  0  0  0  0  0
  146.8496  139.1587  152.3190 C   0  0  0  0  0  0  0  0  0  0  0  0
  147.4544  139.0228  154.7750 C   0  0  0  0  0  0  0  0  0  0  0  0
  146.8230  137.6471  154.9495 C   0  0  0  0  0  0  0  0  0  0  0  0
  148.0773  139.6276  155.9635 C   0  0  0  0  0  0  0  0  0  0  0  0
  148.0931  139.0739  157.0648 O   0  0  0  0  0  0  0  0  0  0  0  0
  151.2740  143.6692  158.2531 C   0  0  0  0  0  0  0  0  0  0  0  0
  152.2071  145.8716  160.7266 H   0  0  0  0  0  0  0  0  0  0  0  0
  150.5983  145.7682  160.0056 H   0  0  0  0  0  0  0  0  0  0  0  0
  151.9708  146.3126  159.0324 H   0  0  0  0  0  0  0  0  0  0  0  0
  153.3217  143.7773  160.9887 H   0  0  0  0  0  0  0  0  0  0  0  0
  154.2824  140.2807  159.9544 H   0  0  0  0  0  0  0  0  0  0  0  0
  153.5899  140.9094  161.4545 H   0  0  0  0  0  0  0  0  0  0  0  0
  154.9556  141.7352  160.6931 H   0  0  0  0  0  0  0  0  0  0  0  0
  152.6000  140.5196  158.2636 H   0  0  0  0  0  0  0  0  0  0  0  0
  150.9794  142.4599  155.7858 H   0  0  0  0  0  0  0  0  0  0  0  0
  150.8205  140.1328  155.5812 H   0  0  0  0  0  0  0  0  0  0  0  0
  149.1397  141.1076  157.8401 H   0  0  0  0  0  0  0  0  0  0  0  0
  148.8346  142.5557  156.9588 H   0  0  0  0  0  0  0  0  0  0  0  0
  149.0841  142.4887  154.4983 H   0  0  0  0  0  0  0  0  0  0  0  0
  147.3326  138.2254  152.0281 H   0  0  0  0  0  0  0  0  0  0  0  0
  146.9590  139.8632  151.4936 H   0  0  0  0  0  0  0  0  0  0  0  0
  145.7847  138.9723  152.4592 H   0  0  0  0  0  0  0  0  0  0  0  0
  146.0236  137.6921  155.6899 H   0  0  0  0  0  0  0  0  0  0  0  0
  147.5688  136.9326  155.2994 H   0  0  0  0  0  0  0  0  0  0  0  0
  146.3967  137.2502  154.0298 H   0  0  0  0  0  0  0  0  0  0  0  0
  150.5936  144.2949  157.6935 H   0  0  0  0  0  0  0  0  0  0  0  0
  1  2  1  0  0  0  0
  1 21  1  0  0  0  0
  1 22  1  0  0  0  0
  1 23  1  0  0  0  0
  2 20  1  0  0  0  0
  2  3  2  0  0  0  0
  3  4  1  0  0  0  0
  3 24  1  0  0  0  0
  4  5  1  0  0  0  0
  4  6  2  0  0  0  0
  5 25  1  0  0  0  0
  5 26  1  0  0  0  0
  5 27  1  0  0  0  0
  6  7  1  0  0  0  0
  6 28  1  0  0  0  0
  7  8  1  0  0  0  0
  7 20  2  0  0  0  0
  8  9  1  0  0  0  0
  8 10  1  0  0  0  0
  8 29  1  0  0  0  0
  9 30  1  0  0  0  0
 10 11  1  0  0  0  0
 10 31  1  0  0  0  0
 10 32  1  0  0  0  0
 11 18  1  0  0  0  0
 11 12  1  0  0  0  0
 12 13  2  0  0  0  0
 12 33  1  0  0  0  0
 13 14  1  0  0  0  0
 14 15  1  0  0  0  0
 14 16  2  0  0  0  0
 15 34  1  0  0  0  0
 15 35  1  0  0  0  0
 15 36  1  0  0  0  0
 16 17  1  0  0  0  0
 16 18  1  0  0  0  0
 17 37  1  0  0  0  0
 17 38  1  0  0  0  0
 17 39  1  0  0  0  0
 18 19  2  0  0  0  0
 20 40  1  0  0  0  0
M  END
> <s_m_source_file>
AV-unprocessed.smi

> <i_m_source_file_index>
2288

> <i_lp_mmshare_version>
43012

> <i_f3d_flags>
0

> <s_epik_input>
W0NIM11jMVtjSF1jKFtDSDNdKVtjSF1jKFtjSF0xKVtDQEhdKFtPSF0pW0NIMl1uMltjSF1uYyhbQ0gzXSljKFtDSDNdKWMyPU8=

> <s_epik_cmdline>
J2VwaWtfcHl0aG9uJywgJy1waCcsICc3LjAnLCAnLXRuJywgJzgnLCAnLW1hJywgJzIwMCcsICctbWV0YWxfYmluZGluZycsICctaW1hZScsICc8aW5maWxlLm1hZT4nLCAnLW9tYWUnLCAnPG91dGZpbGUubWFlPic=

> <r_lp_tautomer_probability>
1

> <r_epik_Ionization_Penalty>
5.07027e-05

> <r_epik_Ionization_Penalty_Charging>
7.56727e-08

> <r_epik_Ionization_Penalty_Neutral>
5.06271e-05

> <r_epik_State_Penalty>
-0

> <r_epik_Charging_Adjusted_Penalty>
7.56727e-08

> <i_epik_Tot_Q>
0

> <i_epik_Tot_abs_Q>
0

> <r_epik_Metal_State_Penalty>
-0

> <b_epik_Metal_Only>
0

> <s_lp_Force_Field>
OPLS_2005

> <r_lp_Energy>
19.2499

> <b_lp_Chiralities_Consistent>
1

> <s_lp_Variant>
AV-unprocessed.smi:2288-2

> <Gold.Version>
5.8.1

> <Gold.Id.Protein>
6NUR|6NUR_protein|mol2

> <Gold.PLP.Fitness>
43.2097

> <Gold.PLP.PLP>
-40.7164

> <Gold.PLP.part.hbond>
0.0000

> <Gold.PLP.part.metal>
0.0000

> <Gold.PLP.part.buried>
-4.8755

> <Gold.PLP.part.nonpolar>
-36.9444

> <Gold.PLP.part.repulsive>
0.9863

> <Gold.PLP.ligand.clash>
0.0039

> <Gold.PLP.ligand.torsion>
0.2539

> <Gold.PLP.Chemscore.Hbond>
0.0000

> <Gold.PLP.Chemscore.CHOScore>
1.0000

> <Gold.PLP.Chemscore.Metal>
0.0000

> <Gold.Chemscore.Hbonds>
donor molecule, donor type, donor heavy atom, donor atom, acceptor molecule, acceptor atom, score
      L1  C    12    33       P1  8028  1.00

> <Gold.PLP.Chemscore.Internal.Correction>
0.0050

> <Gold.Rescore>
     Score         DG    S(hbond)    S(metal)    S(lipo)     H(rot)  DE(clash)    DE(int)     intcor
     14.20     -14.65       0.00        0.00     119.78       1.89       0.36       0.09       ----

> <Gold.Chemscore.Fitness>
14.1988

> <Gold.Chemscore.DG>
-14.6546

> <Gold.Chemscore.ZeroCoef>
-5.4800

> <Gold.Chemscore.Hbond>
0.0000

> <Gold.Chemscore.Metal>
0.0000

> <Gold.Chemscore.Lipo>
119.7830

> <Gold.Chemscore.Internal_Hbond>
0.0000

> <Gold.Chemscore.DEClash>
0.3633

> <Gold.Chemscore.DEInternal>
0.0925

> <Gold.Chemscore.Rot>
1.8907

> <Gold.Chemscore.Internal.Correction>
   9.000000E+99

> <Gold.Chemscore.Hbond.Weighted>
-0.0000

> <Gold.Chemscore.Metal.Weighted>
-0.0000

> <Gold.Chemscore.Lipo.Weighted>
-14.0146

> <Gold.Chemscore.Internal_Hbond.Weighted>
0.0000

> <Gold.Chemscore.DEClash.Weighted>
0.3633

> <Gold.Chemscore.DEInternal.Weighted>
0.0925

> <Gold.Chemscore.Rot.Weighted>
4.8401

> <Gold.Chemscore.Internal.Correction.Weighted>
   9.000000E+99

> <Gold.Protein.RotatedTorsions>
[ 6907 6896 6895 6894 ] final   33.31 input  -60.11 | X-H torsion
[ 7974 7965 7964 7962 ] final -167.15 input  175.53 | X-H torsion
[ 8008 7997 7996 7995 ] final   39.69 input   59.86 | X-H torsion
[ 10167 10162 10161 10158 ] final -157.55 input  -65.29 | X-H torsion
[ 10718 10713 10712 10709 ] final -131.74 input   66.30 | X-H torsion
[ 10763 10752 10751 10750 ] final  -97.78 input  -60.55 | X-H torsion
[ 11005 11000 10999 10996 ] final   -9.26 input  -57.11 | X-H torsion

> <Gold.Protein.ActiveResidues>
 VAL166  LYS551  ARG553  GLY616  TRP617  ASP618  TYR619  PRO620  LYS621  CYS622 
 ASP623  PHE694  ASN695  SER759  ASP760  ASP761  ALA762  ILE779  LEU786  VAL792 
 PHE793  MET794  SER795  GLU796  ALA797  LYS798  CYS799  TRP800  GLU811  SER814 

> <Gold.Protein.RotatedAtoms>
  152.0867  134.9435  160.0572 H   0  0  0  0  0  0  0  0  0  0  0  0  # atno 6907 bound_to 6896
  152.0702  133.4098  159.4464 H   0  0  0  0  0  0  0  0  0  0  0  0  # atno 6908 bound_to 6896
  150.6836  134.3020  159.4754 H   0  0  0  0  0  0  0  0  0  0  0  0  # atno 6909 bound_to 6896
  144.7229  140.2561  143.6271 H   0  0  0  0  0  0  0  0  0  0  0  0  # atno 7974 bound_to 7965
  155.2407  140.3345  155.4292 H   0  0  0  0  0  0  0  0  0  0  0  0  # atno 8008 bound_to 7997
  156.2257  140.1828  156.7414 H   0  0  0  0  0  0  0  0  0  0  0  0  # atno 8009 bound_to 7997
  154.5895  140.0640  156.9203 H   0  0  0  0  0  0  0  0  0  0  0  0  # atno 8010 bound_to 7997
  139.6762  143.9660  152.2311 H   0  0  0  0  0  0  0  0  0  0  0  0  # atno 10167 bound_to 10162
  156.2274  130.7016  151.0822 H   0  0  0  0  0  0  0  0  0  0  0  0  # atno 10718 bound_to 10713
  154.7357  135.5034  153.9038 H   0  0  0  0  0  0  0  0  0  0  0  0  # atno 10763 bound_to 10752
  153.0993  135.6681  153.9711 H   0  0  0  0  0  0  0  0  0  0  0  0  # atno 10764 bound_to 10752
  153.9501  135.3058  155.3418 H   0  0  0  0  0  0  0  0  0  0  0  0  # atno 10765 bound_to 10752
  140.7323  133.8739  155.8902 H   0  0  0  0  0  0  0  0  0  0  0  0  # atno 11005 bound_to 11000
  145.8181  139.2032  143.1954 LP  0  0  0  0  0  0  0  0  0  0  0  0  # atno 17320 bound_to 7965
  146.0537  140.8042  142.9769 LP  0  0  0  0  0  0  0  0  0  0  0  0  # atno 17321 bound_to 7965
  139.9437  144.6665  150.8240 LP  0  0  0  0  0  0  0  0  0  0  0  0  # atno 17342 bound_to 10162
  140.7636  143.3227  151.2585 LP  0  0  0  0  0  0  0  0  0  0  0  0  # atno 17343 bound_to 10162
  157.7117  131.0731  150.6476 LP  0  0  0  0  0  0  0  0  0  0  0  0  # atno 17370 bound_to 10713
  156.6542  130.4494  149.5709 LP  0  0  0  0  0  0  0  0  0  0  0  0  # atno 17371 bound_to 10713
  140.9910  134.1278  157.4408 LP  0  0  0  0  0  0  0  0  0  0  0  0  # atno 17394 bound_to 11000
  139.8823  135.0040  156.6224 LP  0  0  0  0  0  0  0  0  0  0  0  0  # atno 17395 bound_to 11000

$$$$
