#       Name:                AV-unprocessed.smi:265
#       Creating user name   scv26
#       Creation time:       Thu Mar 26 21:22:10 2020


#       File generated by GOLD software.
#

@<TRIPOS>MOLECULE
AV-unprocessed.smi:265
    64    68     1
SMALL
NO_CHARGES


@<TRIPOS>ATOM
      1 ****        -2.1624  -4.1231   4.7456 C.3            1 S1                 0.0000
      2 ****        -3.1413  -3.3069   3.8867 C.3            1 S1                 0.0000
      3 ****        -4.0809  -4.2145   3.3169 O.3            1 S1                 0.0000
      4 ****        -4.5238  -3.6943   2.0765 C.3            1 S1                 0.0000
      5 ****        -3.2397  -3.1370   1.4821 C.3            1 S1                 0.0000
      6 ****        -2.5381  -2.5185   2.6891 C.3            1 S1                 0.0000
      7 ****        -2.9691  -1.1723   2.7978 O.3            1 S1                 0.0000
      8 ****        -0.9909  -2.5196   2.5739 C.3            1 S1                 0.0000
      9 ****        -0.4936  -1.7838   1.4207 N.pl3          1 S1                 0.0000
     10 ****        -0.3211  -2.2662   0.1419 C.2            1 S1                 0.0000
     11 ****         0.1425  -1.4048  -0.7226 N.2            1 S1                 0.0000
     12 ****         0.3131  -0.2444   0.0208 C.ar           1 S1                 0.0000
     13 ****         0.7857   1.0590  -0.2812 C.ar           1 S1                 0.0000
     14 ****         1.1834   1.4042  -1.5245 N.3            1 S1                 0.0000
     15 ****         0.2137   2.2450  -2.2183 C.3            1 S1                 0.0000
     16 ****         0.5822   2.3821  -3.7038 C.3            1 S1                 0.0000
     17 ****         2.0310   2.8642  -3.8931 C.3            1 S1                 0.0000
     18 ****         2.1616   4.2144  -3.4670 O.3            1 S1                 0.0000
     19 ****         3.4287   4.7971  -3.7788 C.3            1 S1                 0.0000
     20 ****         4.6067   3.8999  -3.3553 C.2            1 S1                 0.0000
     21 ****         5.7410   4.3679  -3.2901 O.2            1 S1                 0.0000
     22 ****         4.3580   2.6039  -3.1078 N.am           1 S1                 0.0000
     23 ****         3.0227   2.0168  -3.0655 C.3            1 S1                 0.0000
     24 ****         2.5607   1.8824  -1.6001 C.3            1 S1                 0.0000
     25 ****         0.8221   1.9736   0.7235 N.ar           1 S1                 0.0000
     26 ****         0.4210   1.6295   1.9515 C.ar           1 S1                 0.0000
     27 ****        -0.0409   0.4523   2.3803 N.ar           1 S1                 0.0000
     28 ****        -0.0791  -0.4642   1.3704 C.ar           1 S1                 0.0000
     29 ****         2.2793   2.8067  -4.9548 H              1 S1                 0.0000
     30 ****         3.0822   1.0201  -3.5045 H              1 S1                 0.0000
     31 ****        -1.4247  -3.4817   5.2279 H              1 S1                 0.0000
     32 ****        -1.6328  -4.8685   4.1522 H              1 S1                 0.0000
     33 ****        -2.6955  -4.6543   5.5342 H              1 S1                 0.0000
     34 ****        -3.6950  -2.6340   4.5444 H              1 S1                 0.0000
     35 ****        -4.9783  -4.4660   1.4550 H              1 S1                 0.0000
     36 ****        -5.2575  -2.9045   2.2449 H              1 S1                 0.0000
     37 ****        -2.6500  -3.9670   1.0909 H              1 S1                 0.0000
     38 ****        -3.4127  -2.4373   0.6630 H              1 S1                 0.0000
     39 ****        -3.9112  -1.1640   2.8708 H              1 S1                 0.0000
     40 ****        -0.5436  -2.0889   3.4707 H              1 S1                 0.0000
     41 ****        -0.6133  -3.5397   2.5005 H              1 S1                 0.0000
     42 ****        -0.5540  -3.2844  -0.1333 H              1 S1                 0.0000
     43 ****        -0.7858   1.8180  -2.1237 H              1 S1                 0.0000
     44 ****         0.1861   3.2299  -1.7495 H              1 S1                 0.0000
     45 ****         0.4636   1.4126  -4.1892 H              1 S1                 0.0000
     46 ****        -0.1095   3.0623  -4.2015 H              1 S1                 0.0000
     47 ****         3.4912   4.9766  -4.8527 H              1 S1                 0.0000
     48 ****         3.5063   5.7657  -3.2844 H              1 S1                 0.0000
     49 ****         5.1345   2.0061  -2.8651 H              1 S1                 0.0000
     50 ****         2.6335   2.8480  -1.0970 H              1 S1                 0.0000
     51 ****         3.2172   1.1945  -1.0652 H              1 S1                 0.0000
     52 ****         0.4773   2.4088   2.6973 H              1 S1                 0.0000
     53 ****        -4.8606  -4.3223   3.9337 LP             1 S1                 0.0000
     54 ****        -3.6450  -5.1028   3.1723 LP             1 S1                 0.0000
     55 ****        -2.6893  -0.6619   1.9847 LP             1 S1                 0.0000
     56 ****        -2.5641  -0.7531   3.6103 LP             1 S1                 0.0000
     57 ****         0.3309  -1.5475  -1.6943 LP             1 S1                 0.0000
     58 ****         1.2042   0.5495  -2.0433 LP             1 S1                 0.0000
     59 ****         2.0354   4.2458  -2.4755 LP             1 S1                 0.0000
     60 ****         1.4477   4.7557  -3.9112 LP             1 S1                 0.0000
     61 ****         5.8983   5.3302  -3.5119 LP             1 S1                 0.0000
     62 ****         6.5067   3.7864  -3.0153 LP             1 S1                 0.0000
     63 ****         1.1482   2.9018   0.5446 LP             1 S1                 0.0000
     64 ****        -0.3228   0.2662   3.3215 LP             1 S1                 0.0000
@<TRIPOS>BOND
    1    1    2 1     
    2    1   31 1     
    3    1   32 1     
    4    1   33 1     
    5    2    6 1     
    6    2    3 1     
    7    2   34 1     
    8    3    4 1     
    9    4    5 1     
   10    4   35 1     
   11    4   36 1     
   12    5    6 1     
   13    5   37 1     
   14    5   38 1     
   15    6    7 1     
   16    6    8 1     
   17    7   39 1     
   18    8    9 1     
   19    8   40 1     
   20    8   41 1     
   21    9   28 1     
   22    9   10 1     
   23   10   11 2     
   24   10   42 1     
   25   11   12 1     
   26   12   28 ar    
   27   12   13 ar    
   28   13   14 1     
   29   13   25 ar    
   30   14   24 1     
   31   14   15 1     
   32   15   16 1     
   33   15   43 1     
   34   15   44 1     
   35   16   17 1     
   36   16   45 1     
   37   16   46 1     
   38   17   29 1     
   39   17   23 1     
   40   17   18 1     
   41   18   19 1     
   42   19   20 1     
   43   19   47 1     
   44   19   48 1     
   45   20   21 2     
   46   20   22 am    
   47   22   23 1     
   48   22   49 1     
   49   23   30 1     
   50   23   24 1     
   51   24   50 1     
   52   24   51 1     
   53   25   26 ar    
   54   26   27 ar    
   55   26   52 1     
   56   27   28 ar    
   57    3   53 1     
   58    3   54 1     
   59    7   55 1     
   60    7   56 1     
   61   11   57 1     
   62   14   58 1     
   63   18   59 1     
   64   18   60 1     
   65   21   61 1     
   66   21   62 1     
   67   25   63 1     
   68   27   64 1     
@<TRIPOS>SUBSTRUCTURE
      1 S1             1
@<TRIPOS>SET
LONE_PAIRS      STATIC     ATOMS    <user>   **** ""
12 53 54 55 56 57 58 59 60 61 62 63 64
DONOR_HYDROGENS      STATIC     ATOMS    <user>   **** ""
2 39 49
ATOM$BLUE        STATIC     ATOMS    COLORGROUP SYSTEM
12 53 54 55 56 57 58 59 60 61 62 63 64
ATOM$RED        STATIC     ATOMS    COLORGROUP SYSTEM
2 39 49
