AV-unprocessed.smi:2143|AV-procd|sdf|8724|dock4
  -GOLD-   2272011493D 1   1.00000     0.00000
 Structure written by MMmdl.
 44 45  0  0  0  0  0  0  0  0  1 V2000
  153.5688  142.0231  161.0602 C   0  0  0  0  0  0  0  0  0  0  0  0
  153.1551  142.4376  159.6356 C   0  0  2  0  0  0  0  0  0  0  0  0
  152.7831  143.9340  159.6236 C   0  0  0  0  0  0  0  0  0  0  0  0
  152.3963  144.4142  158.2211 C   0  0  0  0  0  0  0  0  0  0  0  0
  151.2344  143.5837  157.6693 C   0  0  0  0  0  0  0  0  0  0  0  0
  151.5760  142.0806  157.6514 C   0  0  2  0  0  0  0  0  0  0  0  0
  150.4214  141.3320  157.1577 N   0  0  0  0  0  0  0  0  0  0  0  0
  150.3819  140.6247  156.0184 C   0  0  0  0  0  0  0  0  0  0  0  0
  151.3456  140.5085  155.2602 O   0  0  0  0  0  0  0  0  0  0  0  0
  149.0505  139.9315  155.7005 C   0  0  0  0  0  0  0  0  0  0  0  0
  147.9663  140.8821  155.4227 N   0  0  0  0  0  0  0  0  0  0  0  0
  147.8300  141.4180  154.1550 C   0  0  0  0  0  0  0  0  0  0  0  0
  146.8733  142.3124  153.8234 C   0  0  0  0  0  0  0  0  0  0  0  0
  145.9039  142.7730  154.8102 C   0  0  0  0  0  0  0  0  0  0  0  0
  145.0298  143.6020  154.5551 O   0  0  0  0  0  0  0  0  0  0  0  0
  146.0561  142.1974  156.0946 N   0  0  0  0  0  0  0  0  0  0  0  0
  145.1518  142.6048  157.1500 C   0  0  0  0  0  0  0  0  0  0  0  0
  147.0679  141.2737  156.4387 C   0  0  0  0  0  0  0  0  0  0  0  0
  147.1780  140.8236  157.5820 O   0  0  0  0  0  0  0  0  0  0  0  0
  152.0029  141.5689  159.0545 C   0  0  1  0  0  0  0  0  0  0  0  0
  152.3757  140.0707  159.0081 C   0  0  0  0  0  0  0  0  0  0  0  0
  152.7173  142.0399  161.7412 H   0  0  0  0  0  0  0  0  0  0  0  0
  154.3246  142.6998  161.4598 H   0  0  0  0  0  0  0  0  0  0  0  0
  154.0016  141.0237  161.0841 H   0  0  0  0  0  0  0  0  0  0  0  0
  154.0286  142.3118  158.9936 H   0  0  0  0  0  0  0  0  0  0  0  0
  151.9553  144.1147  160.3109 H   0  0  0  0  0  0  0  0  0  0  0  0
  153.6201  144.5304  159.9881 H   0  0  0  0  0  0  0  0  0  0  0  0
  152.1182  145.4680  158.2518 H   0  0  0  0  0  0  0  0  0  0  0  0
  153.2554  144.3386  157.5533 H   0  0  0  0  0  0  0  0  0  0  0  0
  150.3449  143.7547  158.2775 H   0  0  0  0  0  0  0  0  0  0  0  0
  150.9905  143.9282  156.6636 H   0  0  0  0  0  0  0  0  0  0  0  0
  152.4155  141.9256  156.9708 H   0  0  0  0  0  0  0  0  0  0  0  0
  149.5842  141.3669  157.7212 H   0  0  0  0  0  0  0  0  0  0  0  0
  149.2045  139.2777  154.8410 H   0  0  0  0  0  0  0  0  0  0  0  0
  148.7658  139.2740  156.5243 H   0  0  0  0  0  0  0  0  0  0  0  0
  148.5277  141.1131  153.3886 H   0  0  0  0  0  0  0  0  0  0  0  0
  146.8272  142.6958  152.8147 H   0  0  0  0  0  0  0  0  0  0  0  0
  144.8682  141.7195  157.7217 H   0  0  0  0  0  0  0  0  0  0  0  0
  144.2467  143.0454  156.7321 H   0  0  0  0  0  0  0  0  0  0  0  0
  145.6906  143.3245  157.7679 H   0  0  0  0  0  0  0  0  0  0  0  0
  151.1434  141.6712  159.7193 H   0  0  0  0  0  0  0  0  0  0  0  0
  153.2637  139.9049  158.3974 H   0  0  0  0  0  0  0  0  0  0  0  0
  151.5722  139.4636  158.5915 H   0  0  0  0  0  0  0  0  0  0  0  0
  152.5727  139.6703  160.0016 H   0  0  0  0  0  0  0  0  0  0  0  0
  1  2  1  0  0  0  0
  1 22  1  0  0  0  0
  1 23  1  0  0  0  0
  1 24  1  0  0  0  0
  2 20  1  0  0  0  0
  2  3  1  0  0  0  0
  2 25  1  0  0  0  0
  3  4  1  0  0  0  0
  3 26  1  0  0  0  0
  3 27  1  0  0  0  0
  4  5  1  0  0  0  0
  4 28  1  0  0  0  0
  4 29  1  0  0  0  0
  5  6  1  0  0  0  0
  5 30  1  0  0  0  0
  5 31  1  0  0  0  0
  6  7  1  0  0  0  0
  6 20  1  0  0  0  0
  6 32  1  0  0  0  0
  7  8  1  0  0  0  0
  7 33  1  0  0  0  0
  8  9  2  0  0  0  0
  8 10  1  0  0  0  0
 10 11  1  0  0  0  0
 10 34  1  0  0  0  0
 10 35  1  0  0  0  0
 11 18  1  0  0  0  0
 11 12  1  0  0  0  0
 12 13  2  0  0  0  0
 12 36  1  0  0  0  0
 13 14  1  0  0  0  0
 13 37  1  0  0  0  0
 14 15  2  0  0  0  0
 14 16  1  0  0  0  0
 16 17  1  0  0  0  0
 16 18  1  0  0  0  0
 17 38  1  0  0  0  0
 17 39  1  0  0  0  0
 17 40  1  0  0  0  0
 18 19  2  0  0  0  0
 20 21  1  0  0  0  0
 20 41  1  0  0  0  0
 21 42  1  0  0  0  0
 21 43  1  0  0  0  0
 21 44  1  0  0  0  0
M  END
> <s_m_source_file>
AV-unprocessed.smi

> <i_m_source_file_index>
2143

> <i_lp_mmshare_version>
43012

> <i_f3d_flags>
0

> <s_epik_input>
W0NIM11bQ0BASF0xW0NIMl1bQ0gyXVtDSDJdW0NASF0oW0NASF0xW0NIM10pW05IXUMoPU8pW0NIMl1uMltjSF1bY0hdYyg9TyluKFtDSDNdKWMyPU8=

> <s_epik_cmdline>
J2VwaWtfcHl0aG9uJywgJy1waCcsICc3LjAnLCAnLXRuJywgJzgnLCAnLW1hJywgJzIwMCcsICctbWV0YWxfYmluZGluZycsICctaW1hZScsICc8aW5maWxlLm1hZT4nLCAnLW9tYWUnLCAnPG91dGZpbGUubWFlPic=

> <r_lp_tautomer_probability>
1

> <r_epik_Ionization_Penalty>
3.18445e-08

> <r_epik_Ionization_Penalty_Charging>
1.27977e-08

> <r_epik_Ionization_Penalty_Neutral>
1.90469e-08

> <r_epik_State_Penalty>
-0

> <r_epik_Charging_Adjusted_Penalty>
1.27977e-08

> <i_epik_Tot_Q>
0

> <i_epik_Tot_abs_Q>
0

> <r_epik_Metal_State_Penalty>
-0

> <b_epik_Metal_Only>
0

> <s_lp_Force_Field>
OPLS_2005

> <r_lp_Energy>
20.5946

> <b_lp_Chiralities_Consistent>
1

> <s_lp_Variant>
AV-unprocessed.smi:2143-3

> <Gold.Version>
5.8.1

> <Gold.Id.Protein>
6NUR|6NUR_protein|mol2

> <Gold.PLP.Fitness>
48.2608

> <Gold.PLP.PLP>
-43.2887

> <Gold.PLP.part.hbond>
-1.0000

> <Gold.PLP.part.metal>
0.0000

> <Gold.PLP.part.buried>
-6.8560

> <Gold.PLP.part.nonpolar>
-35.3115

> <Gold.PLP.part.repulsive>
0.2958

> <Gold.PLP.ligand.clash>
0.0000

> <Gold.PLP.ligand.torsion>
0.3859

> <Gold.PLP.Chemscore.Hbond>
0.9120

> <Gold.PLP.Chemscore.CHOScore>
1.0000

> <Gold.PLP.Chemscore.Metal>
0.0000

> <Gold.Chemscore.Hbonds>
donor molecule, donor type, donor heavy atom, donor atom, acceptor molecule, acceptor atom, score
      P1  H  7989  7998       L1     9  0.90
      L1  C    12    36       P1  7957  0.60

> <Gold.PLP.Chemscore.Internal.Correction>
0.0078

> <Gold.Rescore>
     Score         DG    S(hbond)    S(metal)    S(lipo)     H(rot)  DE(clash)    DE(int)     intcor
     16.09     -16.65       0.98        0.00     100.54       1.51       0.36       0.20       ----

> <Gold.Chemscore.Fitness>
16.0863

> <Gold.Chemscore.DG>
-16.6453

> <Gold.Chemscore.ZeroCoef>
-5.4800

> <Gold.Chemscore.Hbond>
0.9807

> <Gold.Chemscore.Metal>
0.0000

> <Gold.Chemscore.Lipo>
100.5404

> <Gold.Chemscore.Internal_Hbond>
0.0000

> <Gold.Chemscore.DEClash>
0.3622

> <Gold.Chemscore.DEInternal>
0.1968

> <Gold.Chemscore.Rot>
1.5131

> <Gold.Chemscore.Internal.Correction>
   9.000000E+99

> <Gold.Chemscore.Hbonds>
donor molecule, donor type, donor heavy atom, donor atom, acceptor molecule, acceptor atom, score
      P1  H  7989  7998       L1     9  0.88

> <Gold.Chemscore.Hbond.Weighted>
-3.2755

> <Gold.Chemscore.Metal.Weighted>
-0.0000

> <Gold.Chemscore.Lipo.Weighted>
-11.7632

> <Gold.Chemscore.Internal_Hbond.Weighted>
0.0000

> <Gold.Chemscore.DEClash.Weighted>
0.3622

> <Gold.Chemscore.DEInternal.Weighted>
0.1968

> <Gold.Chemscore.Rot.Weighted>
3.8734

> <Gold.Chemscore.Internal.Correction.Weighted>
   9.000000E+99

> <Gold.Protein.RotatedTorsions>
[ 6907 6896 6895 6894 ] final  121.12 input  -60.11 | X-H torsion
[ 7974 7965 7964 7962 ] final  102.65 input  175.53 | X-H torsion
[ 8008 7997 7996 7995 ] final  -45.46 input   59.86 | X-H torsion
[ 10167 10162 10161 10158 ] final   -5.47 input  -65.29 | X-H torsion
[ 10718 10713 10712 10709 ] final  -11.75 input   66.30 | X-H torsion
[ 10763 10752 10751 10750 ] final   76.01 input  -60.55 | X-H torsion
[ 11005 11000 10999 10996 ] final   95.06 input  -57.11 | X-H torsion

> <Gold.Protein.ActiveResidues>
 VAL166  LYS551  ARG553  GLY616  TRP617  ASP618  TYR619  PRO620  LYS621  CYS622 
 ASP623  PHE694  ASN695  SER759  ASP760  ASP761  ALA762  ILE779  LEU786  VAL792 
 PHE793  MET794  SER795  GLU796  ALA797  LYS798  CYS799  TRP800  GLU811  SER814 

> <Gold.Protein.RotatedAtoms>
  152.4346  133.7338  159.6601 H   0  0  0  0  0  0  0  0  0  0  0  0  # atno 6907 bound_to 6896
  150.8228  133.8212  159.3137 H   0  0  0  0  0  0  0  0  0  0  0  0  # atno 6908 bound_to 6896
  151.5889  135.1057  160.0086 H   0  0  0  0  0  0  0  0  0  0  0  0  # atno 6909 bound_to 6896
  145.3563  139.2428  143.3531 H   0  0  0  0  0  0  0  0  0  0  0  0  # atno 7974 bound_to 7965
  154.4001  140.1396  156.3851 H   0  0  0  0  0  0  0  0  0  0  0  0  # atno 8008 bound_to 7997
  155.7967  140.3477  155.5359 H   0  0  0  0  0  0  0  0  0  0  0  0  # atno 8009 bound_to 7997
  155.8525  140.0943  157.1656 H   0  0  0  0  0  0  0  0  0  0  0  0  # atno 8010 bound_to 7997
  140.6964  143.6305  150.8528 H   0  0  0  0  0  0  0  0  0  0  0  0  # atno 10167 bound_to 10162
  156.6545  130.4964  149.6051 H   0  0  0  0  0  0  0  0  0  0  0  0  # atno 10718 bound_to 10713
  153.0695  135.4967  154.8273 H   0  0  0  0  0  0  0  0  0  0  0  0  # atno 10763 bound_to 10752
  154.7002  135.3000  154.9355 H   0  0  0  0  0  0  0  0  0  0  0  0  # atno 10764 bound_to 10752
  154.0082  135.6758  153.4816 H   0  0  0  0  0  0  0  0  0  0  0  0  # atno 10765 bound_to 10752
  139.8792  134.8879  156.3956 H   0  0  0  0  0  0  0  0  0  0  0  0  # atno 11005 bound_to 11000
  146.2946  140.4189  142.8726 LP  0  0  0  0  0  0  0  0  0  0  0  0  # atno 17320 bound_to 7965
  144.8680  140.7232  143.6065 LP  0  0  0  0  0  0  0  0  0  0  0  0  # atno 17321 bound_to 7965
  140.0023  143.5731  152.2871 LP  0  0  0  0  0  0  0  0  0  0  0  0  # atno 17342 bound_to 10162
  139.6425  144.7656  151.2310 LP  0  0  0  0  0  0  0  0  0  0  0  0  # atno 17343 bound_to 10162
  156.2059  130.6648  151.1217 LP  0  0  0  0  0  0  0  0  0  0  0  0  # atno 17370 bound_to 10713
  157.7130  131.0724  150.6431 LP  0  0  0  0  0  0  0  0  0  0  0  0  # atno 17371 bound_to 10713
  140.9302  133.7584  156.0015 LP  0  0  0  0  0  0  0  0  0  0  0  0  # atno 17394 bound_to 11000
  140.8339  134.3146  157.5339 LP  0  0  0  0  0  0  0  0  0  0  0  0  # atno 17395 bound_to 11000

$$$$
