AV-unprocessed.smi:746|AV-procd|sdf|3576|dock10
  -GOLD-   22720 0573D 1   1.00000     0.00000
 Structure written by MMmdl.
 48 50  0  0  0  0  0  0  0  0  1 V2000
  160.1558  144.9611  167.6567 C   0  0  0  0  0  0  0  0  0  0  0  0
  158.7547  144.8656  167.8445 O   0  0  0  0  0  0  0  0  0  0  0  0
  158.3602  145.1943  169.1660 C   0  0  0  0  0  0  0  0  0  0  0  0
  156.8560  144.9499  169.3134 C   0  0  0  0  0  0  0  0  0  0  0  0
  156.5713  143.6051  168.9398 O   0  0  0  0  0  0  0  0  0  0  0  0
  156.0626  143.3651  167.6797 C   0  0  0  0  0  0  0  0  0  0  0  0
  155.4131  144.4169  167.0035 C   0  0  0  0  0  0  0  0  0  0  0  0
  154.8888  144.1804  165.7182 C   0  0  0  0  0  0  0  0  0  0  0  0
  155.0241  142.8905  165.1519 C   0  0  0  0  0  0  0  0  0  0  0  0
  154.5578  142.5299  163.8593 N   0  0  0  0  0  0  0  0  0  0  0  0
  153.5661  143.0846  163.1339 C   0  0  0  0  0  0  0  0  0  0  0  0
  152.9801  144.1139  163.4671 O   0  0  0  0  0  0  0  0  0  0  0  0
  153.3594  142.4581  161.9477 N   0  0  0  0  0  0  0  0  0  0  0  0
  153.6971  141.0349  161.7176 C   0  0  0  0  0  0  0  0  0  0  0  0
  154.4684  140.8577  160.3923 C   0  0  0  0  0  0  0  0  0  0  0  0
  153.6897  141.4503  159.2031 C   0  0  0  0  0  0  0  0  0  0  0  0
  153.2831  142.8914  159.5338 C   0  0  1  0  0  0  0  0  0  0  0  0
  152.3673  143.6056  158.5381 C   0  0  0  0  0  0  0  0  0  0  0  0
  151.6573  144.6889  159.3720 C   0  0  0  0  0  0  0  0  0  0  0  0
  152.0333  144.4218  160.8407 C   0  0  0  0  0  0  0  0  0  0  0  0
  152.5065  142.9586  160.8496 C   0  0  2  0  0  0  0  0  0  0  0  0
  155.7064  141.9120  165.9033 C   0  0  0  0  0  0  0  0  0  0  0  0
  156.2099  142.1317  167.1360 N   0  0  0  0  0  0  0  0  0  0  0  0
  160.4064  144.7000  166.6286 H   0  0  0  0  0  0  0  0  0  0  0  0
  160.6895  144.2766  168.3174 H   0  0  0  0  0  0  0  0  0  0  0  0
  160.5107  145.9758  167.8420 H   0  0  0  0  0  0  0  0  0  0  0  0
  158.9093  144.5844  169.8852 H   0  0  0  0  0  0  0  0  0  0  0  0
  158.5899  146.2402  169.3757 H   0  0  0  0  0  0  0  0  0  0  0  0
  156.5557  145.1288  170.3473 H   0  0  0  0  0  0  0  0  0  0  0  0
  156.3069  145.6450  168.6760 H   0  0  0  0  0  0  0  0  0  0  0  0
  155.3223  145.3911  167.4609 H   0  0  0  0  0  0  0  0  0  0  0  0
  154.4109  144.9916  165.1916 H   0  0  0  0  0  0  0  0  0  0  0  0
  154.9479  141.6785  163.4820 H   0  0  0  0  0  0  0  0  0  0  0  0
  154.2725  140.5848  162.5271 H   0  0  0  0  0  0  0  0  0  0  0  0
  152.7699  140.4613  161.6780 H   0  0  0  0  0  0  0  0  0  0  0  0
  155.4398  141.3476  160.4725 H   0  0  0  0  0  0  0  0  0  0  0  0
  154.6695  139.8009  160.2146 H   0  0  0  0  0  0  0  0  0  0  0  0
  154.2953  141.4207  158.2969 H   0  0  0  0  0  0  0  0  0  0  0  0
  152.8014  140.8474  159.0102 H   0  0  0  0  0  0  0  0  0  0  0  0
  154.1929  143.4868  159.6383 H   0  0  0  0  0  0  0  0  0  0  0  0
  152.9228  144.0240  157.6980 H   0  0  0  0  0  0  0  0  0  0  0  0
  151.6302  142.9101  158.1346 H   0  0  0  0  0  0  0  0  0  0  0  0
  151.9625  145.6916  159.0709 H   0  0  0  0  0  0  0  0  0  0  0  0
  150.5780  144.6206  159.2312 H   0  0  0  0  0  0  0  0  0  0  0  0
  152.8458  145.0913  161.1273 H   0  0  0  0  0  0  0  0  0  0  0  0
  151.1958  144.5981  161.5163 H   0  0  0  0  0  0  0  0  0  0  0  0
  151.6224  142.3204  160.7864 H   0  0  0  0  0  0  0  0  0  0  0  0
  155.8485  140.9173  165.5067 H   0  0  0  0  0  0  0  0  0  0  0  0
  1  2  1  0  0  0  0
  1 24  1  0  0  0  0
  1 25  1  0  0  0  0
  1 26  1  0  0  0  0
  2  3  1  0  0  0  0
  3  4  1  0  0  0  0
  3 27  1  0  0  0  0
  3 28  1  0  0  0  0
  4  5  1  0  0  0  0
  4 29  1  0  0  0  0
  4 30  1  0  0  0  0
  5  6  1  0  0  0  0
  6 23  1  0  0  0  0
  6  7  2  0  0  0  0
  7  8  1  0  0  0  0
  7 31  1  0  0  0  0
  8  9  2  0  0  0  0
  8 32  1  0  0  0  0
  9 10  1  0  0  0  0
  9 22  1  0  0  0  0
 10 11  1  0  0  0  0
 10 33  1  0  0  0  0
 11 12  2  0  0  0  0
 11 13  1  0  0  0  0
 13 21  1  0  0  0  0
 13 14  1  0  0  0  0
 14 15  1  0  0  0  0
 14 34  1  0  0  0  0
 14 35  1  0  0  0  0
 15 16  1  0  0  0  0
 15 36  1  0  0  0  0
 15 37  1  0  0  0  0
 16 17  1  0  0  0  0
 16 38  1  0  0  0  0
 16 39  1  0  0  0  0
 17 21  1  0  0  0  0
 17 18  1  0  0  0  0
 17 40  1  0  0  0  0
 18 19  1  0  0  0  0
 18 41  1  0  0  0  0
 18 42  1  0  0  0  0
 19 20  1  0  0  0  0
 19 43  1  0  0  0  0
 19 44  1  0  0  0  0
 20 21  1  0  0  0  0
 20 45  1  0  0  0  0
 20 46  1  0  0  0  0
 21 47  1  0  0  0  0
 22 23  2  0  0  0  0
 22 48  1  0  0  0  0
M  END
> <s_m_source_file>
AV-unprocessed.smi

> <i_m_source_file_index>
746

> <i_lp_mmshare_version>
43012

> <i_f3d_flags>
0

> <s_epik_input>
W0NIM11PW0NIMl1bQ0gyXU9jMVtjSF1bY0hdYyhbY0hdbjEpW05IXUMoPU8pTihbQ0gyXVtDSDJdW0NIMl0yKVtDQEhdKFtDQEBIXTIzKVtDSDJdW0NIMl1bQ0gyXTM=

> <s_epik_cmdline>
J2VwaWtfcHl0aG9uJywgJy1waCcsICc3LjAnLCAnLXRuJywgJzgnLCAnLW1hJywgJzIwMCcsICctbWV0YWxfYmluZGluZycsICctaW1hZScsICc8aW5maWxlLm1hZT4nLCAnLW9tYWUnLCAnPG91dGZpbGUubWFlPic=

> <r_lp_tautomer_probability>
1

> <r_epik_Ionization_Penalty>
8.29966e-05

> <r_epik_Ionization_Penalty_Charging>
0

> <r_epik_Ionization_Penalty_Neutral>
8.29966e-05

> <r_epik_State_Penalty>
-0

> <r_epik_Charging_Adjusted_Penalty>
0

> <i_epik_Tot_Q>
0

> <i_epik_Tot_abs_Q>
0

> <r_epik_Metal_State_Penalty>
-0

> <b_epik_Metal_Only>
0

> <s_lp_Force_Field>
OPLS_2005

> <r_lp_Energy>
59.0162

> <b_lp_Chiralities_Consistent>
1

> <s_lp_Variant>
AV-unprocessed.smi:746-1

> <Gold.Version>
5.8.1

> <Gold.Id.Protein>
6NUR|6NUR_protein|mol2

> <Gold.PLP.Fitness>
52.1984

> <Gold.PLP.PLP>
-53.6114

> <Gold.PLP.part.hbond>
-2.0000

> <Gold.PLP.part.metal>
0.0000

> <Gold.PLP.part.buried>
-6.1438

> <Gold.PLP.part.nonpolar>
-45.4465

> <Gold.PLP.part.repulsive>
0.4986

> <Gold.PLP.ligand.clash>
0.0002

> <Gold.PLP.ligand.torsion>
0.8655

> <Gold.PLP.Chemscore.Hbond>
0.0000

> <Gold.PLP.Chemscore.CHOScore>
0.0000

> <Gold.PLP.Chemscore.Metal>
0.0000

> <Gold.PLP.Chemscore.Internal.Correction>
0.3182

> <Gold.Rescore>
     Score         DG    S(hbond)    S(metal)    S(lipo)     H(rot)  DE(clash)    DE(int)     intcor
     13.48     -17.22       0.00        0.00     133.54       1.52       0.44       3.29       ----

> <Gold.Chemscore.Fitness>
13.4831

> <Gold.Chemscore.DG>
-17.2204

> <Gold.Chemscore.ZeroCoef>
-5.4800

> <Gold.Chemscore.Hbond>
0.0000

> <Gold.Chemscore.Metal>
0.0000

> <Gold.Chemscore.Lipo>
133.5431

> <Gold.Chemscore.Internal_Hbond>
0.0000

> <Gold.Chemscore.DEClash>
0.4428

> <Gold.Chemscore.DEInternal>
3.2945

> <Gold.Chemscore.Rot>
1.5172

> <Gold.Chemscore.Internal.Correction>
   9.000000E+99

> <Gold.Chemscore.Hbond.Weighted>
-0.0000

> <Gold.Chemscore.Metal.Weighted>
-0.0000

> <Gold.Chemscore.Lipo.Weighted>
-15.6245

> <Gold.Chemscore.Internal_Hbond.Weighted>
0.0000

> <Gold.Chemscore.DEClash.Weighted>
0.4428

> <Gold.Chemscore.DEInternal.Weighted>
3.2945

> <Gold.Chemscore.Rot.Weighted>
3.8841

> <Gold.Chemscore.Internal.Correction.Weighted>
   9.000000E+99

> <Gold.Protein.RotatedTorsions>
[ 6907 6896 6895 6894 ] final   71.61 input  -60.11 | X-H torsion
[ 7974 7965 7964 7962 ] final  134.16 input  175.53 | X-H torsion
[ 8008 7997 7996 7995 ] final   -1.21 input   59.86 | X-H torsion
[ 10167 10162 10161 10158 ] final  142.78 input  -65.29 | X-H torsion
[ 10718 10713 10712 10709 ] final  153.42 input   66.30 | X-H torsion
[ 10763 10752 10751 10750 ] final -101.74 input  -60.55 | X-H torsion
[ 11005 11000 10999 10996 ] final  -77.07 input  -57.11 | X-H torsion

> <Gold.Protein.ActiveResidues>
 VAL166  LYS551  ARG553  GLY616  TRP617  ASP618  TYR619  PRO620  LYS621  CYS622 
 ASP623  PHE694  ASN695  SER759  ASP760  ASP761  ALA762  ILE779  LEU786  VAL792 
 PHE793  MET794  SER795  GLU796  ALA797  LYS798  CYS799  TRP800  GLU811  SER814 

> <Gold.Protein.RotatedAtoms>
  152.4820  134.4695  159.9630 H   0  0  0  0  0  0  0  0  0  0  0  0  # atno 6907 bound_to 6896
  151.4699  133.3566  159.2829 H   0  0  0  0  0  0  0  0  0  0  0  0  # atno 6908 bound_to 6896
  150.8899  134.8327  159.7347 H   0  0  0  0  0  0  0  0  0  0  0  0  # atno 6909 bound_to 6896
  144.9791  139.4523  143.5395 H   0  0  0  0  0  0  0  0  0  0  0  0  # atno 7974 bound_to 7965
  154.6493  140.2565  155.7232 H   0  0  0  0  0  0  0  0  0  0  0  0  # atno 8008 bound_to 7997
  156.2567  140.2871  156.0841 H   0  0  0  0  0  0  0  0  0  0  0  0  # atno 8009 bound_to 7997
  155.1475  140.0381  157.2803 H   0  0  0  0  0  0  0  0  0  0  0  0  # atno 8010 bound_to 7997
  139.4985  144.6084  151.6327 H   0  0  0  0  0  0  0  0  0  0  0  0  # atno 10167 bound_to 10162
  157.2450  131.0767  151.1768 H   0  0  0  0  0  0  0  0  0  0  0  0  # atno 10718 bound_to 10713
  154.7681  135.4886  153.9594 H   0  0  0  0  0  0  0  0  0  0  0  0  # atno 10763 bound_to 10752
  153.1333  135.6757  153.9151 H   0  0  0  0  0  0  0  0  0  0  0  0  # atno 10764 bound_to 10752
  153.8848  135.3128  155.3425 H   0  0  0  0  0  0  0  0  0  0  0  0  # atno 10765 bound_to 10752
  141.1658  133.7008  156.7765 H   0  0  0  0  0  0  0  0  0  0  0  0  # atno 11005 bound_to 11000
  146.3403  139.9053  142.8788 LP  0  0  0  0  0  0  0  0  0  0  0  0  # atno 17320 bound_to 7965
  145.2446  141.0022  143.3916 LP  0  0  0  0  0  0  0  0  0  0  0  0  # atno 17321 bound_to 7965
  140.5752  144.0041  150.6238 LP  0  0  0  0  0  0  0  0  0  0  0  0  # atno 17342 bound_to 10162
  140.3172  143.3160  152.0820 LP  0  0  0  0  0  0  0  0  0  0  0  0  # atno 17343 bound_to 10162
  157.3339  130.6999  149.6341 LP  0  0  0  0  0  0  0  0  0  0  0  0  # atno 17370 bound_to 10713
  155.9668  130.4299  150.4855 LP  0  0  0  0  0  0  0  0  0  0  0  0  # atno 17371 bound_to 10713
  140.2426  134.8602  157.3588 LP  0  0  0  0  0  0  0  0  0  0  0  0  # atno 17394 bound_to 11000
  140.1781  134.4524  155.7789 LP  0  0  0  0  0  0  0  0  0  0  0  0  # atno 17395 bound_to 11000

$$$$
