AV-unprocessed.smi:2027|AV-procd|sdf|8214|dock5
  -GOLD-   2272010483D 1   1.00000     0.00000
 Structure written by MMmdl.
 50 52  0  0  0  0  0  0  0  0  2 V2000
  152.6615  143.3229  162.2230 C   0  0  0  0  0  0  0  0  0  0  0  0
  152.3283  142.7931  160.8393 C   0  0  0  0  0  0  0  0  0  0  0  0
  152.7646  141.4992  160.4756 C   0  0  0  0  0  0  0  0  0  0  0  0
  152.4733  140.9685  159.2000 C   0  0  0  0  0  0  0  0  0  0  0  0
  152.7930  139.7425  158.6420 N   0  0  0  0  0  0  0  0  0  0  0  0
  152.2425  139.8449  157.4360 C   0  0  0  0  0  0  0  0  0  0  0  0
  151.6024  140.9938  157.1456 N   0  0  0  0  0  0  0  0  0  0  0  0
  150.9282  141.3283  155.9040 C   0  0  0  0  0  0  0  0  0  0  0  0
  149.3992  141.1606  155.9973 C   0  0  1  0  0  0  0  0  0  0  0  0
  148.8397  142.2774  156.6635 O   0  0  0  0  0  0  0  0  0  0  0  0
  148.7505  141.0453  154.6058 C   0  0  0  0  0  0  0  0  0  0  0  0
  147.5541  140.1619  154.6273 N   0  3  2  0  0  0  0  0  0  0  0  0
  147.0105  139.9053  153.2737 C   0  0  0  0  0  0  0  0  0  0  0  0
  146.5032  140.6052  155.5769 C   0  0  0  0  0  0  0  0  0  0  0  0
  145.8550  141.8825  155.1122 C   0  0  0  0  0  0  0  0  0  0  0  0
  144.7173  142.5392  155.6636 C   0  0  0  0  0  0  0  0  0  0  0  0
  144.3873  143.6371  155.0046 N   0  0  0  0  0  0  0  0  0  0  0  0
  145.3053  143.7278  154.0206 N   0  0  0  0  0  0  0  0  0  0  0  0
  145.2447  144.8319  153.0869 C   0  0  0  0  0  0  0  0  0  0  0  0
  146.2060  142.6857  154.0634 C   0  0  0  0  0  0  0  0  0  0  0  0
  151.7296  141.7750  158.2897 C   0  0  0  0  0  0  0  0  0  0  0  0
  151.2912  143.0646  158.6394 C   0  0  0  0  0  0  0  0  0  0  0  0
  151.5885  143.5783  159.9190 C   0  0  0  0  0  0  0  0  0  0  0  0
  151.1063  144.9698  160.2892 C   0  0  0  0  0  0  0  0  0  0  0  0
  153.2535  142.6056  162.7920 H   0  0  0  0  0  0  0  0  0  0  0  0
  151.7490  143.5241  162.7847 H   0  0  0  0  0  0  0  0  0  0  0  0
  153.2361  144.2467  162.1511 H   0  0  0  0  0  0  0  0  0  0  0  0
  153.3273  140.9004  161.1767 H   0  0  0  0  0  0  0  0  0  0  0  0
  152.3066  139.0371  156.7217 H   0  0  0  0  0  0  0  0  0  0  0  0
  151.1868  142.3529  155.6330 H   0  0  0  0  0  0  0  0  0  0  0  0
  151.3289  140.6894  155.1159 H   0  0  0  0  0  0  0  0  0  0  0  0
  149.1793  140.2700  156.5868 H   0  0  0  0  0  0  0  0  0  0  0  0
  148.9094  143.0340  156.1009 H   0  0  0  0  0  0  0  0  0  0  0  0
  148.4914  142.0478  154.2648 H   0  0  0  0  0  0  0  0  0  0  0  0
  149.4683  140.6657  153.8771 H   0  0  0  0  0  0  0  0  0  0  0  0
  146.6040  140.8184  152.8368 H   0  0  0  0  0  0  0  0  0  0  0  0
  146.2129  139.1625  153.3128 H   0  0  0  0  0  0  0  0  0  0  0  0
  147.7809  139.5209  152.6055 H   0  0  0  0  0  0  0  0  0  0  0  0
  145.7718  139.8057  155.7044 H   0  0  0  0  0  0  0  0  0  0  0  0
  146.9506  140.7614  156.5594 H   0  0  0  0  0  0  0  0  0  0  0  0
  144.1186  142.2451  156.5133 H   0  0  0  0  0  0  0  0  0  0  0  0
  146.1599  144.8720  152.4955 H   0  0  0  0  0  0  0  0  0  0  0  0
  145.1326  145.7722  153.6278 H   0  0  0  0  0  0  0  0  0  0  0  0
  144.3945  144.7000  152.4173 H   0  0  0  0  0  0  0  0  0  0  0  0
  147.0089  142.5982  153.3460 H   0  0  0  0  0  0  0  0  0  0  0  0
  150.7282  143.6526  157.9301 H   0  0  0  0  0  0  0  0  0  0  0  0
  150.5553  145.4316  159.4695 H   0  0  0  0  0  0  0  0  0  0  0  0
  151.9508  145.6158  160.5301 H   0  0  0  0  0  0  0  0  0  0  0  0
  150.4446  144.9269  161.1547 H   0  0  0  0  0  0  0  0  0  0  0  0
  147.8745  139.2702  154.9783 H   0  0  0  0  0  0  0  0  0  0  0  0
  1  2  1  0  0  0  0
  1 25  1  0  0  0  0
  1 26  1  0  0  0  0
  1 27  1  0  0  0  0
  2 23  1  0  0  0  0
  2  3  2  0  0  0  0
  3  4  1  0  0  0  0
  3 28  1  0  0  0  0
  4 21  2  0  0  0  0
  4  5  1  0  0  0  0
  5  6  2  0  0  0  0
  6  7  1  0  0  0  0
  6 29  1  0  0  0  0
  7  8  1  0  0  0  0
  7 21  1  0  0  0  0
  8  9  1  0  0  0  0
  8 30  1  0  0  0  0
  8 31  1  0  0  0  0
  9 10  1  0  0  0  0
  9 11  1  0  0  0  0
  9 32  1  0  0  0  0
 10 33  1  0  0  0  0
 11 12  1  0  0  0  0
 11 34  1  0  0  0  0
 11 35  1  0  0  0  0
 12 13  1  0  0  0  0
 12 14  1  0  0  0  0
 12 50  1  0  0  0  0
 13 36  1  0  0  0  0
 13 37  1  0  0  0  0
 13 38  1  0  0  0  0
 14 15  1  0  0  0  0
 14 39  1  0  0  0  0
 14 40  1  0  0  0  0
 15 20  2  0  0  0  0
 15 16  1  0  0  0  0
 16 17  2  0  0  0  0
 16 41  1  0  0  0  0
 17 18  1  0  0  0  0
 18 19  1  0  0  0  0
 18 20  1  0  0  0  0
 19 42  1  0  0  0  0
 19 43  1  0  0  0  0
 19 44  1  0  0  0  0
 20 45  1  0  0  0  0
 21 22  1  0  0  0  0
 22 23  2  0  0  0  0
 22 46  1  0  0  0  0
 23 24  1  0  0  0  0
 24 47  1  0  0  0  0
 24 48  1  0  0  0  0
 24 49  1  0  0  0  0
M  CHG  1  12   1
M  END
> <s_m_source_file>
AV-unprocessed.smi

> <i_m_source_file_index>
2027

> <i_lp_mmshare_version>
43012

> <i_f3d_flags>
0

> <s_epik_input>
W0NIM11jKFtjSF0xKWMoW0NIM10pW2NIXWMoYzEyKW4oW2NIXW4yKVtDSDJdW0NASF0oW09IXSlbQ0gyXU4oW0NIM10pW0NIMl1jM1tjSF1ubihbQ0gzXSlbY0hdMw==

> <s_epik_cmdline>
J2VwaWtfcHl0aG9uJywgJy1waCcsICc3LjAnLCAnLXRuJywgJzgnLCAnLW1hJywgJzIwMCcsICctbWV0YWxfYmluZGluZycsICctaW1hZScsICc8aW5maWxlLm1hZT4nLCAnLW9tYWUnLCAnPG91dGZpbGUubWFlPic=

> <r_lp_tautomer_probability>
1

> <r_epik_Ionization_Penalty>
0.646578

> <r_epik_Ionization_Penalty_Charging>
0.559419

> <r_epik_Ionization_Penalty_Neutral>
0.087159

> <r_epik_State_Penalty>
0.661677

> <r_epik_Charging_Adjusted_Penalty>
1.2211

> <i_epik_Tot_Q>
1

> <i_epik_Tot_abs_Q>
1

> <r_epik_Metal_State_Penalty>
0.649174

> <b_epik_Metal_Only>
0

> <s_lp_Force_Field>
OPLS_2005

> <r_lp_Energy>
10.2185

> <b_lp_Chiralities_Consistent>
1

> <s_lp_Variant>
AV-unprocessed.smi:2027-6

> <Gold.Version>
5.8.1

> <Gold.Id.Protein>
6NUR|6NUR_protein|mol2

> <Gold.PLP.Fitness>
54.4290

> <Gold.PLP.PLP>
-53.1821

> <Gold.PLP.part.hbond>
-0.8805

> <Gold.PLP.part.metal>
0.0000

> <Gold.PLP.part.buried>
-7.6388

> <Gold.PLP.part.nonpolar>
-44.8472

> <Gold.PLP.part.repulsive>
0.1765

> <Gold.PLP.ligand.clash>
0.0000

> <Gold.PLP.ligand.torsion>
0.9520

> <Gold.PLP.Chemscore.Hbond>
0.9920

> <Gold.PLP.Chemscore.CHOScore>
0.0000

> <Gold.PLP.Chemscore.Metal>
0.0000

> <Gold.Chemscore.Hbonds>
donor molecule, donor type, donor heavy atom, donor atom, acceptor molecule, acceptor atom, score
      L1  H    10    33       P1  8028  1.00

> <Gold.PLP.Chemscore.Internal.Correction>
0.1748

> <Gold.Rescore>
     Score         DG    S(hbond)    S(metal)    S(lipo)     H(rot)  DE(clash)    DE(int)     intcor
     15.79     -18.25       1.00        0.00     135.50       2.50       0.16       2.30       ----

> <Gold.Chemscore.Fitness>
15.7948

> <Gold.Chemscore.DG>
-18.2465

> <Gold.Chemscore.ZeroCoef>
-5.4800

> <Gold.Chemscore.Hbond>
0.9955

> <Gold.Chemscore.Metal>
0.0000

> <Gold.Chemscore.Lipo>
135.5004

> <Gold.Chemscore.Internal_Hbond>
0.0000

> <Gold.Chemscore.DEClash>
0.1558

> <Gold.Chemscore.DEInternal>
2.2959

> <Gold.Chemscore.Rot>
2.5047

> <Gold.Chemscore.Internal.Correction>
   9.000000E+99

> <Gold.Chemscore.Hbonds>
donor molecule, donor type, donor heavy atom, donor atom, acceptor molecule, acceptor atom, score
      L1  H    10    33       P1  8028  0.99

> <Gold.Chemscore.Hbond.Weighted>
-3.3250

> <Gold.Chemscore.Metal.Weighted>
-0.0000

> <Gold.Chemscore.Lipo.Weighted>
-15.8535

> <Gold.Chemscore.Internal_Hbond.Weighted>
0.0000

> <Gold.Chemscore.DEClash.Weighted>
0.1558

> <Gold.Chemscore.DEInternal.Weighted>
2.2959

> <Gold.Chemscore.Rot.Weighted>
6.4120

> <Gold.Chemscore.Internal.Correction.Weighted>
   9.000000E+99

> <Gold.Protein.RotatedTorsions>
[ 6907 6896 6895 6894 ] final  169.64 input  -60.11 | X-H torsion
[ 7974 7965 7964 7962 ] final    3.10 input  175.53 | X-H torsion
[ 8008 7997 7996 7995 ] final   14.31 input   59.86 | X-H torsion
[ 10167 10162 10161 10158 ] final -173.84 input  -65.29 | X-H torsion
[ 10718 10713 10712 10709 ] final  -44.07 input   66.30 | X-H torsion
[ 10763 10752 10751 10750 ] final -175.40 input  -60.55 | X-H torsion
[ 11005 11000 10999 10996 ] final  156.92 input  -57.11 | X-H torsion

> <Gold.Protein.ActiveResidues>
 VAL166  LYS551  ARG553  GLY616  TRP617  ASP618  TYR619  PRO620  LYS621  CYS622 
 ASP623  PHE694  ASN695  SER759  ASP760  ASP761  ALA762  ILE779  LEU786  VAL792 
 PHE793  MET794  SER795  GLU796  ALA797  LYS798  CYS799  TRP800  GLU811  SER814 

> <Gold.Protein.RotatedAtoms>
  151.8287  133.3405  159.3606 H   0  0  0  0  0  0  0  0  0  0  0  0  # atno 6907 bound_to 6896
  150.7271  134.5504  159.5801 H   0  0  0  0  0  0  0  0  0  0  0  0  # atno 6908 bound_to 6896
  152.2952  134.7676  160.0420 H   0  0  0  0  0  0  0  0  0  0  0  0  # atno 6909 bound_to 6896
  146.2445  140.0737  142.8361 H   0  0  0  0  0  0  0  0  0  0  0  0  # atno 7974 bound_to 7965
  154.8467  140.2923  155.5625 H   0  0  0  0  0  0  0  0  0  0  0  0  # atno 8008 bound_to 7997
  156.3014  140.2504  156.3350 H   0  0  0  0  0  0  0  0  0  0  0  0  # atno 8009 bound_to 7997
  154.9066  140.0390  157.1912 H   0  0  0  0  0  0  0  0  0  0  0  0  # atno 8010 bound_to 7997
  139.5666  144.1740  152.1322 H   0  0  0  0  0  0  0  0  0  0  0  0  # atno 10167 bound_to 10162
  156.2424  130.4181  149.8745 H   0  0  0  0  0  0  0  0  0  0  0  0  # atno 10718 bound_to 10713
  154.5848  135.2839  155.0696 H   0  0  0  0  0  0  0  0  0  0  0  0  # atno 10763 bound_to 10752
  154.2018  135.6423  153.5093 H   0  0  0  0  0  0  0  0  0  0  0  0  # atno 10764 bound_to 10752
  153.0100  135.5471  154.6514 H   0  0  0  0  0  0  0  0  0  0  0  0  # atno 10765 bound_to 10752
  140.1721  134.8536  157.2702 H   0  0  0  0  0  0  0  0  0  0  0  0  # atno 11005 bound_to 11000
  145.0794  140.9210  143.4834 LP  0  0  0  0  0  0  0  0  0  0  0  0  # atno 17320 bound_to 7965
  145.0887  139.2906  143.5746 LP  0  0  0  0  0  0  0  0  0  0  0  0  # atno 17321 bound_to 7965
  140.1265  144.5327  150.6830 LP  0  0  0  0  0  0  0  0  0  0  0  0  # atno 17342 bound_to 10162
  140.6950  143.2398  151.5026 LP  0  0  0  0  0  0  0  0  0  0  0  0  # atno 17343 bound_to 10162
  156.6322  130.8670  151.3497 LP  0  0  0  0  0  0  0  0  0  0  0  0  # atno 17370 bound_to 10713
  157.7181  130.9522  150.1330 LP  0  0  0  0  0  0  0  0  0  0  0  0  # atno 17371 bound_to 10713
  140.2365  134.3846  155.7499 LP  0  0  0  0  0  0  0  0  0  0  0  0  # atno 17394 bound_to 11000
  141.2218  133.7242  156.8723 LP  0  0  0  0  0  0  0  0  0  0  0  0  # atno 17395 bound_to 11000

$$$$
