AV-unprocessed.smi:2542|AV-procd|sdf|9991|dock7
  -GOLD-   2272014 43D 1   1.00000     0.00000
 Structure written by MMmdl.
 41 42  0  0  0  0  0  0  0  0  1 V2000
  151.5773  139.8957  157.0966 C   0  0  0  0  0  0  0  0  0  0  0  0
  150.9760  141.1921  157.6786 C   0  0  0  0  0  0  0  0  0  0  0  0
  150.9265  142.2293  156.5304 C   0  0  0  0  0  0  0  0  0  0  0  0
  149.5239  140.9096  158.1428 C   0  0  0  0  0  0  0  0  0  0  0  0
  148.6026  140.8073  157.0159 N   0  0  0  0  0  0  0  0  0  0  0  0
  147.2649  140.7696  157.1085 C   0  0  0  0  0  0  0  0  0  0  0  0
  146.6787  140.8026  158.1915 O   0  0  0  0  0  0  0  0  0  0  0  0
  146.4603  140.6807  155.7891 C   0  0  0  0  0  0  0  0  0  0  0  0
  145.4959  139.5615  155.8141 C   0  0  0  0  0  0  0  0  0  0  0  0
  144.7399  138.6849  155.8330 N   0  0  0  0  0  0  0  0  0  0  0  0
  145.7299  142.0217  155.5099 C   0  0  0  0  0  0  0  0  0  0  0  0
  146.2965  142.5918  154.2035 C   0  0  0  0  0  0  0  0  0  0  0  0
  147.6497  141.9138  154.0264 C   0  0  0  0  0  0  0  0  0  0  0  0
  147.4212  140.5119  154.5888 C   0  0  0  0  0  0  0  0  0  0  0  0
  151.8328  141.6687  158.8682 C   0  0  0  0  0  0  0  0  0  0  0  0
  152.9186  140.9176  159.3826 C   0  0  0  0  0  0  0  0  0  0  0  0
  153.6614  141.4387  160.4606 C   0  0  0  0  0  0  0  0  0  0  0  0
  153.3961  142.6264  161.0419 N   0  0  0  0  0  0  0  0  0  0  0  0
  152.3636  143.3443  160.5552 C   0  0  0  0  0  0  0  0  0  0  0  0
  151.5604  142.9147  159.4806 C   0  0  0  0  0  0  0  0  0  0  0  0
  151.0045  139.5436  156.2380 H   0  0  0  0  0  0  0  0  0  0  0  0
  151.5888  139.0853  157.8255 H   0  0  0  0  0  0  0  0  0  0  0  0
  152.6041  140.0517  156.7639 H   0  0  0  0  0  0  0  0  0  0  0  0
  150.3197  141.8680  155.6993 H   0  0  0  0  0  0  0  0  0  0  0  0
  151.9206  142.4354  156.1319 H   0  0  0  0  0  0  0  0  0  0  0  0
  150.4912  143.1765  156.8510 H   0  0  0  0  0  0  0  0  0  0  0  0
  149.4899  139.9948  158.7374 H   0  0  0  0  0  0  0  0  0  0  0  0
  149.1677  141.7101  158.7929 H   0  0  0  0  0  0  0  0  0  0  0  0
  149.0163  140.7784  156.0946 H   0  0  0  0  0  0  0  0  0  0  0  0
  144.6509  141.8857  155.4274 H   0  0  0  0  0  0  0  0  0  0  0  0
  145.8811  142.7433  156.3147 H   0  0  0  0  0  0  0  0  0  0  0  0
  145.6433  142.3186  153.3735 H   0  0  0  0  0  0  0  0  0  0  0  0
  146.3724  143.6793  154.2191 H   0  0  0  0  0  0  0  0  0  0  0  0
  147.9810  141.9013  152.9877 H   0  0  0  0  0  0  0  0  0  0  0  0
  148.4075  142.4352  154.6123 H   0  0  0  0  0  0  0  0  0  0  0  0
  148.3615  140.0239  154.8504 H   0  0  0  0  0  0  0  0  0  0  0  0
  146.9528  139.8934  153.8215 H   0  0  0  0  0  0  0  0  0  0  0  0
  153.2031  139.9597  158.9758 H   0  0  0  0  0  0  0  0  0  0  0  0
  154.4946  140.8838  160.8665 H   0  0  0  0  0  0  0  0  0  0  0  0
  152.1719  144.2929  161.0344 H   0  0  0  0  0  0  0  0  0  0  0  0
  150.7523  143.5419  159.1352 H   0  0  0  0  0  0  0  0  0  0  0  0
  1  2  1  0  0  0  0
  1 21  1  0  0  0  0
  1 22  1  0  0  0  0
  1 23  1  0  0  0  0
  2  3  1  0  0  0  0
  2  4  1  0  0  0  0
  2 15  1  0  0  0  0
  3 24  1  0  0  0  0
  3 25  1  0  0  0  0
  3 26  1  0  0  0  0
  4  5  1  0  0  0  0
  4 27  1  0  0  0  0
  4 28  1  0  0  0  0
  5  6  1  0  0  0  0
  5 29  1  0  0  0  0
  6  7  2  0  0  0  0
  6  8  1  0  0  0  0
  8 14  1  0  0  0  0
  8  9  1  0  0  0  0
  8 11  1  0  0  0  0
  9 10  3  0  0  0  0
 11 12  1  0  0  0  0
 11 30  1  0  0  0  0
 11 31  1  0  0  0  0
 12 13  1  0  0  0  0
 12 32  1  0  0  0  0
 12 33  1  0  0  0  0
 13 14  1  0  0  0  0
 13 34  1  0  0  0  0
 13 35  1  0  0  0  0
 14 36  1  0  0  0  0
 14 37  1  0  0  0  0
 15 20  1  0  0  0  0
 15 16  2  0  0  0  0
 16 17  1  0  0  0  0
 16 38  1  0  0  0  0
 17 18  2  0  0  0  0
 17 39  1  0  0  0  0
 18 19  1  0  0  0  0
 19 20  2  0  0  0  0
 19 40  1  0  0  0  0
 20 41  1  0  0  0  0
M  END
> <s_m_source_file>
AV-unprocessed.smi

> <i_m_source_file_index>
2542

> <i_lp_mmshare_version>
43012

> <i_f3d_flags>
0

> <s_epik_input>
W2NIXTFbY0hdbltjSF1bY0hdYzFDKFtDSDNdKShbQ0gzXSlbQ0gyXVtOSF1DKD1PKUMyKEMjTilbQ0gyXVtDSDJdW0NIMl1bQ0gyXTI=

> <s_epik_cmdline>
J2VwaWtfcHl0aG9uJywgJy1waCcsICc3LjAnLCAnLXRuJywgJzgnLCAnLW1hJywgJzIwMCcsICctbWV0YWxfYmluZGluZycsICctaW1hZScsICc8aW5maWxlLm1hZT4nLCAnLW9tYWUnLCAnPG91dGZpbGUubWFlPic=

> <r_epik_Ionization_Penalty>
0.0480096

> <r_epik_Ionization_Penalty_Charging>
0

> <r_epik_Ionization_Penalty_Neutral>
0.0480096

> <r_epik_State_Penalty>
0.04092

> <r_epik_Charging_Adjusted_Penalty>
0.04092

> <i_epik_Tot_Q>
0

> <i_epik_Tot_abs_Q>
0

> <r_epik_Metal_State_Penalty>
0.0377989

> <b_epik_Metal_Only>
0

> <s_lp_Force_Field>
OPLS_2005

> <r_lp_Energy>
29.6926

> <b_lp_Chiralities_Consistent>
1

> <s_lp_Variant>
AV-unprocessed.smi:2542-1

> <Gold.Version>
5.8.1

> <Gold.Id.Protein>
6NUR|6NUR_protein|mol2

> <Gold.PLP.Fitness>
31.7284

> <Gold.PLP.PLP>
-34.0274

> <Gold.PLP.part.hbond>
-0.6395

> <Gold.PLP.part.metal>
0.0000

> <Gold.PLP.part.buried>
-5.2479

> <Gold.PLP.part.nonpolar>
-27.2559

> <Gold.PLP.part.repulsive>
0.1168

> <Gold.PLP.ligand.clash>
1.2488

> <Gold.PLP.ligand.torsion>
0.5451

> <Gold.PLP.Chemscore.Hbond>
0.0000

> <Gold.PLP.Chemscore.CHOScore>
0.0000

> <Gold.PLP.Chemscore.Metal>
0.0000

> <Gold.PLP.Chemscore.Internal.Correction>
0.0400

> <Gold.Rescore>
     Score         DG    S(hbond)    S(metal)    S(lipo)     H(rot)  DE(clash)    DE(int)     intcor
     12.68     -13.06       0.00        0.00      97.38       1.49       0.03       0.35       ----

> <Gold.Chemscore.Fitness>
12.6833

> <Gold.Chemscore.DG>
-13.0594

> <Gold.Chemscore.ZeroCoef>
-5.4800

> <Gold.Chemscore.Hbond>
0.0000

> <Gold.Chemscore.Metal>
0.0000

> <Gold.Chemscore.Lipo>
97.3758

> <Gold.Chemscore.Internal_Hbond>
0.0000

> <Gold.Chemscore.DEClash>
0.0270

> <Gold.Chemscore.DEInternal>
0.3491

> <Gold.Chemscore.Rot>
1.4897

> <Gold.Chemscore.Internal.Correction>
   9.000000E+99

> <Gold.Chemscore.Hbond.Weighted>
-0.0000

> <Gold.Chemscore.Metal.Weighted>
-0.0000

> <Gold.Chemscore.Lipo.Weighted>
-11.3930

> <Gold.Chemscore.Internal_Hbond.Weighted>
0.0000

> <Gold.Chemscore.DEClash.Weighted>
0.0270

> <Gold.Chemscore.DEInternal.Weighted>
0.3491

> <Gold.Chemscore.Rot.Weighted>
3.8136

> <Gold.Chemscore.Internal.Correction.Weighted>
   9.000000E+99

> <Gold.Protein.RotatedTorsions>
[ 6907 6896 6895 6894 ] final -100.48 input  -60.11 | X-H torsion
[ 7974 7965 7964 7962 ] final   88.42 input  175.53 | X-H torsion
[ 8008 7997 7996 7995 ] final  -87.43 input   59.86 | X-H torsion
[ 10167 10162 10161 10158 ] final  110.93 input  -65.29 | X-H torsion
[ 10718 10713 10712 10709 ] final  -30.87 input   66.30 | X-H torsion
[ 10763 10752 10751 10750 ] final -103.23 input  -60.55 | X-H torsion
[ 11005 11000 10999 10996 ] final  159.83 input  -57.11 | X-H torsion

> <Gold.Protein.ActiveResidues>
 VAL166  LYS551  ARG553  GLY616  TRP617  ASP618  TYR619  PRO620  LYS621  CYS622 
 ASP623  PHE694  ASN695  SER759  ASP760  ASP761  ALA762  ILE779  LEU786  VAL792 
 PHE793  MET794  SER795  GLU796  ALA797  LYS798  CYS799  TRP800  GLU811  SER814 

> <Gold.Protein.RotatedAtoms>
  150.7117  134.0881  159.3921 H   0  0  0  0  0  0  0  0  0  0  0  0  # atno 6907 bound_to 6896
  151.8866  135.0430  160.0503 H   0  0  0  0  0  0  0  0  0  0  0  0  # atno 6908 bound_to 6896
  152.2525  133.5192  159.5370 H   0  0  0  0  0  0  0  0  0  0  0  0  # atno 6909 bound_to 6896
  145.5459  139.2292  143.2540 H   0  0  0  0  0  0  0  0  0  0  0  0  # atno 7974 bound_to 7965
  154.6631  140.0566  157.0084 H   0  0  0  0  0  0  0  0  0  0  0  0  # atno 8008 bound_to 7997
  155.1199  140.3246  155.4481 H   0  0  0  0  0  0  0  0  0  0  0  0  # atno 8009 bound_to 7997
  156.2626  140.1999  156.6321 H   0  0  0  0  0  0  0  0  0  0  0  0  # atno 8010 bound_to 7997
  139.6650  144.7128  151.1793 H   0  0  0  0  0  0  0  0  0  0  0  0  # atno 10167 bound_to 10162
  156.3944  130.4379  149.7370 H   0  0  0  0  0  0  0  0  0  0  0  0  # atno 10718 bound_to 10713
  154.7792  135.4831  153.9809 H   0  0  0  0  0  0  0  0  0  0  0  0  # atno 10763 bound_to 10752
  153.1471  135.6784  153.8946 H   0  0  0  0  0  0  0  0  0  0  0  0  # atno 10764 bound_to 10752
  153.8602  135.3156  155.3415 H   0  0  0  0  0  0  0  0  0  0  0  0  # atno 10765 bound_to 10752
  140.2000  134.8345  157.3007 H   0  0  0  0  0  0  0  0  0  0  0  0  # atno 11005 bound_to 11000
  146.1950  140.6280  142.9128 LP  0  0  0  0  0  0  0  0  0  0  0  0  # atno 17320 bound_to 7965
  144.7554  140.5293  143.6773 LP  0  0  0  0  0  0  0  0  0  0  0  0  # atno 17321 bound_to 7965
  140.7596  143.5933  150.8774 LP  0  0  0  0  0  0  0  0  0  0  0  0  # atno 17342 bound_to 10162
  139.9594  143.6181  152.3007 LP  0  0  0  0  0  0  0  0  0  0  0  0  # atno 17343 bound_to 10162
  156.4410  130.7861  151.2882 LP  0  0  0  0  0  0  0  0  0  0  0  0  # atno 17370 bound_to 10713
  157.7501  131.0125  150.3386 LP  0  0  0  0  0  0  0  0  0  0  0  0  # atno 17371 bound_to 10713
  140.2065  134.4191  155.7635 LP  0  0  0  0  0  0  0  0  0  0  0  0  # atno 17394 bound_to 11000
  141.2227  133.7097  156.8268 LP  0  0  0  0  0  0  0  0  0  0  0  0  # atno 17395 bound_to 11000

$$$$
