AV-unprocessed.smi:2324|AV-procd|sdf|9294|dock4
  -GOLD-   2272012513D 1   1.00000     0.00000
 Structure written by MMmdl.
 37 39  0  0  0  0  0  0  0  0  1 V2000
  149.7021  138.0577  159.4720 O   0  0  0  0  0  0  0  0  0  0  0  0
  149.6382  137.0226  158.8108 C   0  0  0  0  0  0  0  0  0  0  0  0
  149.1040  135.8980  159.3331 N   0  0  0  0  0  0  0  0  0  0  0  0
  148.5436  135.6229  160.6147 C   0  0  0  0  0  0  0  0  0  0  0  0
  148.0809  134.3003  160.7844 C   0  0  0  0  0  0  0  0  0  0  0  0
  147.5117  133.9425  162.0184 C   0  0  0  0  0  0  0  0  0  0  0  0
  147.4425  134.9379  163.0075 C   0  0  0  0  0  0  0  0  0  0  0  0
  147.8973  136.1929  162.8042 N   0  0  0  0  0  0  0  0  0  0  0  0
  148.4373  136.5246  161.6269 N   0  0  0  0  0  0  0  0  0  0  0  0
  150.0845  136.9413  157.5464 N   0  0  0  0  0  0  0  0  0  0  0  0
  150.6929  138.0316  156.7911 C   0  0  1  0  0  0  0  0  0  0  0  0
  151.3508  137.4809  155.5192 C   0  0  0  0  0  0  0  0  0  0  0  0
  151.8979  138.6258  154.6533 C   0  0  0  0  0  0  0  0  0  0  0  0
  150.8610  139.5531  154.3384 O   0  0  0  0  0  0  0  0  0  0  0  0
  150.2199  140.1588  155.4626 C   0  0  2  0  0  0  0  0  0  0  0  0
  151.1344  141.1457  156.1760 C   0  0  0  0  0  0  0  0  0  0  0  0
  151.3975  141.0183  157.6581 C   0  0  0  0  0  0  0  0  0  0  0  0
  150.5676  142.1661  157.1348 C   0  0  0  0  0  0  0  0  0  0  0  0
  149.6385  139.0813  156.3988 C   0  0  0  0  0  0  0  0  0  0  0  0
  149.1006  135.1102  158.7017 H   0  0  0  0  0  0  0  0  0  0  0  0
  148.1581  133.5736  159.9886 H   0  0  0  0  0  0  0  0  0  0  0  0
  147.1422  132.9440  162.1995 H   0  0  0  0  0  0  0  0  0  0  0  0
  147.0152  134.7265  163.9765 H   0  0  0  0  0  0  0  0  0  0  0  0
  149.9933  136.0540  157.0715 H   0  0  0  0  0  0  0  0  0  0  0  0
  151.4651  138.4996  157.4041 H   0  0  0  0  0  0  0  0  0  0  0  0
  152.1552  136.7908  155.7764 H   0  0  0  0  0  0  0  0  0  0  0  0
  150.6228  136.9101  154.9407 H   0  0  0  0  0  0  0  0  0  0  0  0
  152.7260  139.1289  155.1527 H   0  0  0  0  0  0  0  0  0  0  0  0
  152.2976  138.2259  153.7215 H   0  0  0  0  0  0  0  0  0  0  0  0
  149.3835  140.7312  155.0597 H   0  0  0  0  0  0  0  0  0  0  0  0
  151.9845  141.4795  155.5855 H   0  0  0  0  0  0  0  0  0  0  0  0
  150.8798  140.2289  158.1995 H   0  0  0  0  0  0  0  0  0  0  0  0
  152.4029  141.2415  158.0086 H   0  0  0  0  0  0  0  0  0  0  0  0
  151.0185  143.1564  157.1373 H   0  0  0  0  0  0  0  0  0  0  0  0
  149.4971  142.1407  157.3285 H   0  0  0  0  0  0  0  0  0  0  0  0
  148.8127  138.5847  155.8872 H   0  0  0  0  0  0  0  0  0  0  0  0
  149.2107  139.5485  157.2867 H   0  0  0  0  0  0  0  0  0  0  0  0
  1  2  2  0  0  0  0
  2  3  1  0  0  0  0
  2 10  1  0  0  0  0
  3  4  1  0  0  0  0
  3 20  1  0  0  0  0
  4  9  1  0  0  0  0
  4  5  2  0  0  0  0
  5  6  1  0  0  0  0
  5 21  1  0  0  0  0
  6  7  2  0  0  0  0
  6 22  1  0  0  0  0
  7  8  1  0  0  0  0
  7 23  1  0  0  0  0
  8  9  2  0  0  0  0
 10 11  1  0  0  0  0
 10 24  1  0  0  0  0
 11 19  1  0  0  0  0
 11 12  1  0  0  0  0
 11 25  1  0  0  0  0
 12 13  1  0  0  0  0
 12 26  1  0  0  0  0
 12 27  1  0  0  0  0
 13 14  1  0  0  0  0
 13 28  1  0  0  0  0
 13 29  1  0  0  0  0
 14 15  1  0  0  0  0
 15 16  1  0  0  0  0
 15 19  1  0  0  0  0
 15 30  1  0  0  0  0
 16 18  1  0  0  0  0
 16 17  1  0  0  0  0
 16 31  1  0  0  0  0
 17 18  1  0  0  0  0
 17 32  1  0  0  0  0
 17 33  1  0  0  0  0
 18 34  1  0  0  0  0
 18 35  1  0  0  0  0
 19 36  1  0  0  0  0
 19 37  1  0  0  0  0
M  END
> <s_m_source_file>
AV-unprocessed.smi

> <i_m_source_file_index>
2324

> <i_lp_mmshare_version>
43012

> <i_f3d_flags>
0

> <s_epik_input>
bjFuW2NIXVtjSF1bY0hdYzFbTkhdQyg9TylbTkhdW0NAQEhdMltDSDJdW0NIMl1PW0NASF0oW0NIMl0yKVtDSF0zW0NIMl1bQ0gyXTM=

> <s_epik_cmdline>
J2VwaWtfcHl0aG9uJywgJy1waCcsICc3LjAnLCAnLXRuJywgJzgnLCAnLW1hJywgJzIwMCcsICctbWV0YWxfYmluZGluZycsICctaW1hZScsICc8aW5maWxlLm1hZT4nLCAnLW9tYWUnLCAnPG91dGZpbGUubWFlPic=

> <r_lp_tautomer_probability>
1

> <r_epik_Ionization_Penalty>
0.00521499

> <r_epik_Ionization_Penalty_Charging>
0

> <r_epik_Ionization_Penalty_Neutral>
0.00521499

> <r_epik_State_Penalty>
-0

> <r_epik_Charging_Adjusted_Penalty>
0

> <i_epik_Tot_Q>
0

> <i_epik_Tot_abs_Q>
0

> <r_epik_Metal_State_Penalty>
-0

> <b_epik_Metal_Only>
0

> <s_lp_Force_Field>
OPLS_2005

> <r_lp_Energy>
28.1305

> <b_lp_Chiralities_Consistent>
1

> <s_lp_Variant>
AV-unprocessed.smi:2324-4

> <Gold.Version>
5.8.1

> <Gold.Id.Protein>
6NUR|6NUR_protein|mol2

> <Gold.PLP.Fitness>
37.7636

> <Gold.PLP.PLP>
-32.6325

> <Gold.PLP.part.hbond>
-3.3933

> <Gold.PLP.part.metal>
0.0000

> <Gold.PLP.part.buried>
-4.9972

> <Gold.PLP.part.nonpolar>
-24.3303

> <Gold.PLP.part.repulsive>
0.3335

> <Gold.PLP.ligand.clash>
0.0000

> <Gold.PLP.ligand.torsion>
0.9747

> <Gold.PLP.Chemscore.Hbond>
2.0000

> <Gold.PLP.Chemscore.CHOScore>
0.0000

> <Gold.PLP.Chemscore.Metal>
0.0000

> <Gold.Chemscore.Hbonds>
donor molecule, donor type, donor heavy atom, donor atom, acceptor molecule, acceptor atom, score
      P1  H  6931  6943       L1     9  1.00
      P1  H  7989  7998       L1    14  1.00

> <Gold.PLP.Chemscore.Internal.Correction>
1.0805

> <Gold.Rescore>
     Score         DG    S(hbond)    S(metal)    S(lipo)     H(rot)  DE(clash)    DE(int)     intcor
     13.56     -15.99       1.59        0.00      71.56       1.25       0.06       2.36       ----

> <Gold.Chemscore.Fitness>
13.5621

> <Gold.Chemscore.DG>
-15.9857

> <Gold.Chemscore.ZeroCoef>
-5.4800

> <Gold.Chemscore.Hbond>
1.5948

> <Gold.Chemscore.Metal>
0.0000

> <Gold.Chemscore.Lipo>
71.5623

> <Gold.Chemscore.Internal_Hbond>
0.0000

> <Gold.Chemscore.DEClash>
0.0618

> <Gold.Chemscore.DEInternal>
2.3617

> <Gold.Chemscore.Rot>
1.2476

> <Gold.Chemscore.Internal.Correction>
   9.000000E+99

> <Gold.Chemscore.Hbonds>
donor molecule, donor type, donor heavy atom, donor atom, acceptor molecule, acceptor atom, score
      P1  H  6931  6943       L1     9  0.40
      P1  H  7989  7998       L1    14  0.30

> <Gold.Chemscore.Hbond.Weighted>
-5.3267

> <Gold.Chemscore.Metal.Weighted>
-0.0000

> <Gold.Chemscore.Lipo.Weighted>
-8.3728

> <Gold.Chemscore.Internal_Hbond.Weighted>
0.0000

> <Gold.Chemscore.DEClash.Weighted>
0.0618

> <Gold.Chemscore.DEInternal.Weighted>
2.3617

> <Gold.Chemscore.Rot.Weighted>
3.1938

> <Gold.Chemscore.Internal.Correction.Weighted>
   9.000000E+99

> <Gold.Protein.RotatedTorsions>
[ 6907 6896 6895 6894 ] final  171.86 input  -60.11 | X-H torsion
[ 7974 7965 7964 7962 ] final   73.83 input  175.53 | X-H torsion
[ 8008 7997 7996 7995 ] final  -39.21 input   59.86 | X-H torsion
[ 10167 10162 10161 10158 ] final -125.27 input  -65.29 | X-H torsion
[ 10718 10713 10712 10709 ] final  -21.62 input   66.30 | X-H torsion
[ 10763 10752 10751 10750 ] final -149.03 input  -60.55 | X-H torsion
[ 11005 11000 10999 10996 ] final  -62.86 input  -57.11 | X-H torsion

> <Gold.Protein.ActiveResidues>
 VAL166  LYS551  ARG553  GLY616  TRP617  ASP618  TYR619  PRO620  LYS621  CYS622 
 ASP623  PHE694  ASN695  SER759  ASP760  ASP761  ALA762  ILE779  LEU786  VAL792 
 PHE793  MET794  SER795  GLU796  ALA797  LYS798  CYS799  TRP800  GLU811  SER814 

> <Gold.Protein.RotatedAtoms>
  151.7935  133.3362  159.3505 H   0  0  0  0  0  0  0  0  0  0  0  0  # atno 6907 bound_to 6896
  150.7383  134.5821  159.5953 H   0  0  0  0  0  0  0  0  0  0  0  0  # atno 6908 bound_to 6896
  152.3194  134.7401  160.0369 H   0  0  0  0  0  0  0  0  0  0  0  0  # atno 6909 bound_to 6896
  145.7360  139.2702  143.1514 H   0  0  0  0  0  0  0  0  0  0  0  0  # atno 7974 bound_to 7965
  154.4026  140.1557  156.2826 H   0  0  0  0  0  0  0  0  0  0  0  0  # atno 8008 bound_to 7997
  155.8856  140.3441  155.5897 H   0  0  0  0  0  0  0  0  0  0  0  0  # atno 8009 bound_to 7997
  155.7617  140.0818  157.2142 H   0  0  0  0  0  0  0  0  0  0  0  0  # atno 8010 bound_to 7997
  139.9839  143.5712  152.2368 H   0  0  0  0  0  0  0  0  0  0  0  0  # atno 10167 bound_to 10162
  156.5157  130.4620  149.6624 H   0  0  0  0  0  0  0  0  0  0  0  0  # atno 10718 bound_to 10713
  154.8200  135.3319  154.7065 H   0  0  0  0  0  0  0  0  0  0  0  0  # atno 10763 bound_to 10752
  153.7699  135.6926  153.4913 H   0  0  0  0  0  0  0  0  0  0  0  0  # atno 10764 bound_to 10752
  153.2052  135.4502  155.0262 H   0  0  0  0  0  0  0  0  0  0  0  0  # atno 10765 bound_to 10752
  141.1374  133.6645  156.5592 H   0  0  0  0  0  0  0  0  0  0  0  0  # atno 11005 bound_to 11000
  146.0493  140.8086  142.9789 LP  0  0  0  0  0  0  0  0  0  0  0  0  # atno 17320 bound_to 7965
  144.6882  140.3028  143.7260 LP  0  0  0  0  0  0  0  0  0  0  0  0  # atno 17321 bound_to 7965
  139.6389  144.7653  151.2380 LP  0  0  0  0  0  0  0  0  0  0  0  0  # atno 17342 bound_to 10162
  140.7479  143.6351  150.8387 LP  0  0  0  0  0  0  0  0  0  0  0  0  # atno 17343 bound_to 10162
  156.3198  130.7274  151.2184 LP  0  0  0  0  0  0  0  0  0  0  0  0  # atno 17370 bound_to 10713
  157.7444  131.0459  150.4865 LP  0  0  0  0  0  0  0  0  0  0  0  0  # atno 17371 bound_to 10713
  140.4001  134.7364  157.4775 LP  0  0  0  0  0  0  0  0  0  0  0  0  # atno 17394 bound_to 11000
  140.0502  134.6141  155.8871 LP  0  0  0  0  0  0  0  0  0  0  0  0  # atno 17395 bound_to 11000

$$$$
