#       Name:                AV-unprocessed.smi:3126
#       Creating user name   scv26
#       Creation time:       Fri Mar 27 17:29:29 2020


#       File generated by GOLD software.
#

@<TRIPOS>MOLECULE
AV-unprocessed.smi:3126
    43    44     1
SMALL
NO_CHARGES


@<TRIPOS>ATOM
      1 ****        -2.8298  -1.0859   4.2842 C.3            1 S1                 0.0000
      2 ****        -3.1484  -1.8682   3.0027 C.3            1 S1                 0.0000
      3 ****        -2.7158  -1.1562   1.7045 C.3            1 S1                 0.0000
      4 ****        -3.3075  -1.8673   0.4716 C.3            1 S1                 0.0000
      5 ****        -2.8977  -1.1729  -0.8351 C.3            1 S1                 0.0000
      6 ****        -1.3702  -1.0758  -0.9590 C.3            1 S1                 0.0000
      7 ****        -0.7539  -0.3588   0.2603 C.3            1 S1                 0.0000
      8 ****         0.7236  -0.3144   0.1819 N.4            1 S1                 1.0000
      9 ****         1.2795   0.6031  -0.8342 C.3            1 S1                 0.0000
     10 ****         2.8094   0.6631  -0.7384 C.3            1 S1                 0.0000
     11 ****         3.4096   1.5782  -1.7872 C.ar           1 S1                 0.0000
     12 ****         3.6637   2.9369  -1.5071 C.ar           1 S1                 0.0000
     13 ****         4.2168   3.7457  -2.5185 C.ar           1 S1                 0.0000
     14 ****         4.4930   3.1601  -3.7702 C.ar           1 S1                 0.0000
     15 ****         4.2526   1.8608  -4.0496 N.ar           1 S1                 0.0000
     16 ****         3.7234   1.0920  -3.0745 C.ar           1 S1                 0.0000
     17 ****        -1.1803  -1.0577   1.5664 C.3            1 S1                 0.0000
     18 ****        -3.2265  -1.6034   5.1578 H              1 S1                 0.0000
     19 ****        -3.2750  -0.0909   4.2599 H              1 S1                 0.0000
     20 ****        -1.7565  -0.9730   4.4344 H              1 S1                 0.0000
     21 ****        -2.6919  -2.8574   3.0553 H              1 S1                 0.0000
     22 ****        -4.2255  -2.0367   2.9734 H              1 S1                 0.0000
     23 ****        -3.1220  -0.1436   1.7279 H              1 S1                 0.0000
     24 ****        -2.9764  -2.9066   0.4501 H              1 S1                 0.0000
     25 ****        -4.3956  -1.8932   0.5409 H              1 S1                 0.0000
     26 ****        -3.3053  -1.7171  -1.6875 H              1 S1                 0.0000
     27 ****        -3.3329  -0.1733  -0.8707 H              1 S1                 0.0000
     28 ****        -0.9498  -2.0782  -1.0518 H              1 S1                 0.0000
     29 ****        -1.1265  -0.5501  -1.8820 H              1 S1                 0.0000
     30 ****        -1.1220   0.6681   0.2926 H              1 S1                 0.0000
     31 ****         1.0661  -0.0083   1.0816 H              1 S1                 0.0000
     32 ****         0.9897   0.2688  -1.8304 H              1 S1                 0.0000
     33 ****         0.8603   1.5999  -0.6913 H              1 S1                 0.0000
     34 ****         3.1112   1.0089   0.2514 H              1 S1                 0.0000
     35 ****         3.2326  -0.3351  -0.8590 H              1 S1                 0.0000
     36 ****         3.4383   3.3539  -0.5365 H              1 S1                 0.0000
     37 ****         4.4248   4.7905  -2.3402 H              1 S1                 0.0000
     38 ****         4.9169   3.7510  -4.5686 H              1 S1                 0.0000
     39 ****         3.5407   0.0587  -3.3307 H              1 S1                 0.0000
     40 ****        -0.7638  -0.5103   2.4121 H              1 S1                 0.0000
     41 ****        -0.7477  -2.0589   1.6053 H              1 S1                 0.0000
     42 ****         1.0697  -1.2476   0.0098 H              1 S1                 0.0000
     43 ****         4.4602   1.4802  -4.9508 LP             1 S1                 0.0000
@<TRIPOS>BOND
    1    1    2 1     
    2    1   18 1     
    3    1   19 1     
    4    1   20 1     
    5    2    3 1     
    6    2   21 1     
    7    2   22 1     
    8    3   17 1     
    9    3    4 1     
   10    3   23 1     
   11    4    5 1     
   12    4   24 1     
   13    4   25 1     
   14    5    6 1     
   15    5   26 1     
   16    5   27 1     
   17    6    7 1     
   18    6   28 1     
   19    6   29 1     
   20    7    8 1     
   21    7   17 1     
   22    7   30 1     
   23    8    9 1     
   24    8   31 1     
   25    8   42 1     
   26    9   10 1     
   27    9   32 1     
   28    9   33 1     
   29   10   11 1     
   30   10   34 1     
   31   10   35 1     
   32   11   16 ar    
   33   11   12 ar    
   34   12   13 ar    
   35   12   36 1     
   36   13   14 ar    
   37   13   37 1     
   38   14   15 ar    
   39   14   38 1     
   40   15   16 ar    
   41   16   39 1     
   42   17   40 1     
   43   17   41 1     
   44   15   43 1     
@<TRIPOS>SUBSTRUCTURE
      1 S1             1
@<TRIPOS>SET
LONE_PAIRS      STATIC     ATOMS    <user>   **** ""
1 43
DONOR_HYDROGENS      STATIC     ATOMS    <user>   **** ""
2 31 42
ATOM$BLUE        STATIC     ATOMS    COLORGROUP SYSTEM
1 43
ATOM$RED        STATIC     ATOMS    COLORGROUP SYSTEM
2 31 42
