AV-unprocessed.smi:50|AV-procd|sdf|498|dock4
  -GOLD-   2262016373D 1   1.00000     0.00000
 Structure written by MMmdl.
 42 43  0  0  0  0  0  0  0  0  2 V2000
  145.4665  132.7192  152.5757 C   0  0  0  0  0  0  0  0  0  0  0  0
  144.9820  132.9782  151.1339 C   0  0  0  0  0  0  0  0  0  0  0  0
  145.2372  131.7142  150.2921 C   0  0  0  0  0  0  0  0  0  0  0  0
  145.6046  134.2341  150.4526 C   0  0  1  0  0  0  0  0  0  0  0  0
  145.1512  134.3323  149.0643 N   0  0  0  0  0  0  0  0  0  0  0  0
  145.3244  135.5434  151.2133 C   0  0  0  0  0  0  0  0  0  0  0  0
  144.1992  135.9457  151.5160 O   0  0  0  0  0  0  0  0  0  0  0  0
  146.4806  136.1661  151.5043 O   0  0  0  0  0  0  0  0  0  0  0  0
  146.4956  137.3830  152.2366 C   0  0  0  0  0  0  0  0  0  0  0  0
  147.6858  138.2127  151.7496 C   0  0  0  0  0  0  0  0  0  0  0  0
  147.7754  139.3922  152.5374 O   0  0  0  0  0  0  0  0  0  0  0  0
  147.7986  139.1635  153.9099 C   0  0  0  0  0  0  0  0  0  0  0  0
  149.1588  139.3426  154.3898 N   0  0  0  0  0  0  0  0  0  0  0  0
  149.8933  140.4702  154.3263 C   0  0  0  0  0  0  0  0  0  0  0  0
  151.1240  140.3803  154.8281 N   0  0  0  0  0  0  0  0  0  0  0  0
  151.1678  139.0574  155.2533 C   0  0  0  0  0  0  0  0  0  0  0  0
  152.2457  138.2611  155.8880 C   0  0  0  0  0  0  0  0  0  0  0  0
  153.3255  138.7985  156.1268 O   0  0  0  0  0  0  0  0  0  0  0  0
  151.9332  136.9564  156.1546 N   0  5  0  0  0  0  0  0  0  0  0  0
  150.6648  136.4504  155.8371 C   0  0  0  0  0  0  0  0  0  0  0  0
  150.5177  135.1241  156.1801 N   0  0  0  0  0  0  0  0  0  0  0  0
  149.6688  137.0933  155.2785 N   0  0  0  0  0  0  0  0  0  0  0  0
  149.9879  138.4099  155.0025 C   0  0  0  0  0  0  0  0  0  0  0  0
  146.6865  134.0966  150.4296 H   0  0  0  0  0  0  0  0  0  0  0  0
  146.5539  132.6640  152.6169 H   0  0  0  0  0  0  0  0  0  0  0  0
  145.0737  131.7786  152.9632 H   0  0  0  0  0  0  0  0  0  0  0  0
  145.1430  133.4983  153.2658 H   0  0  0  0  0  0  0  0  0  0  0  0
  143.9018  133.1227  151.1874 H   0  0  0  0  0  0  0  0  0  0  0  0
  146.3048  131.5092  150.2030 H   0  0  0  0  0  0  0  0  0  0  0  0
  144.8317  131.8099  149.2849 H   0  0  0  0  0  0  0  0  0  0  0  0
  144.7698  130.8390  150.7442 H   0  0  0  0  0  0  0  0  0  0  0  0
  145.9291  134.4316  148.4280 H   0  0  0  0  0  0  0  0  0  0  0  0
  144.6447  133.5064  148.7796 H   0  0  0  0  0  0  0  0  0  0  0  0
  145.5570  137.9199  152.0975 H   0  0  0  0  0  0  0  0  0  0  0  0
  146.6111  137.1989  153.3055 H   0  0  0  0  0  0  0  0  0  0  0  0
  148.6105  137.6456  151.8622 H   0  0  0  0  0  0  0  0  0  0  0  0
  147.5683  138.4315  150.6877 H   0  0  0  0  0  0  0  0  0  0  0  0
  147.1683  139.9075  154.3979 H   0  0  0  0  0  0  0  0  0  0  0  0
  147.4302  138.1693  154.1682 H   0  0  0  0  0  0  0  0  0  0  0  0
  149.5142  141.3833  153.8919 H   0  0  0  0  0  0  0  0  0  0  0  0
  151.2452  134.5752  156.6135 H   0  0  0  0  0  0  0  0  0  0  0  0
  149.6683  134.6042  156.0151 H   0  0  0  0  0  0  0  0  0  0  0  0
  1  2  1  0  0  0  0
  1 25  1  0  0  0  0
  1 26  1  0  0  0  0
  1 27  1  0  0  0  0
  2  3  1  0  0  0  0
  2  4  1  0  0  0  0
  2 28  1  0  0  0  0
  3 29  1  0  0  0  0
  3 30  1  0  0  0  0
  3 31  1  0  0  0  0
  4 24  1  0  0  0  0
  4  5  1  0  0  0  0
  4  6  1  0  0  0  0
  5 32  1  0  0  0  0
  5 33  1  0  0  0  0
  6  7  2  0  0  0  0
  6  8  1  0  0  0  0
  8  9  1  0  0  0  0
  9 10  1  0  0  0  0
  9 34  1  0  0  0  0
  9 35  1  0  0  0  0
 10 11  1  0  0  0  0
 10 36  1  0  0  0  0
 10 37  1  0  0  0  0
 11 12  1  0  0  0  0
 12 13  1  0  0  0  0
 12 38  1  0  0  0  0
 12 39  1  0  0  0  0
 13 23  1  0  0  0  0
 13 14  1  0  0  0  0
 14 15  2  0  0  0  0
 14 40  1  0  0  0  0
 15 16  1  0  0  0  0
 16 23  2  0  0  0  0
 16 17  1  0  0  0  0
 17 18  2  0  0  0  0
 17 19  1  0  0  0  0
 19 20  1  0  0  0  0
 20 21  1  0  0  0  0
 20 22  2  0  0  0  0
 21 41  1  0  0  0  0
 21 42  1  0  0  0  0
 22 23  1  0  0  0  0
M  CHG  1  19  -1
M  END
> <s_m_source_file>
AV-unprocessed.smi

> <i_m_source_file_index>
50

> <i_lp_mmshare_version>
43012

> <i_f3d_flags>
0

> <s_epik_input>
W0NIM11bQ0hdKFtDSDNdKVtDQEhdKFtOSDJdKUMoPU8pT1tDSDJdW0NIMl1PW0NIMl1uKFtjSF1uMSljKGMxMiluYyhbTkgyXSlbbkhdYzI9Tw==

> <s_epik_cmdline>
J2VwaWtfcHl0aG9uJywgJy1waCcsICc3LjAnLCAnLXRuJywgJzgnLCAnLW1hJywgJzIwMCcsICctbWV0YWxfYmluZGluZycsICctaW1hZScsICc8aW5maWxlLm1hZT4nLCAnLW9tYWUnLCAnPG91dGZpbGUubWFlPic=

> <r_lp_tautomer_probability>
0.99994

> <r_epik_Ionization_Penalty>
4.26118

> <r_epik_Ionization_Penalty_Charging>
1.23364e-10

> <r_epik_Ionization_Penalty_Neutral>
4.26118

> <r_epik_State_Penalty>
4.27372

> <r_epik_Charging_Adjusted_Penalty>
4.27372

> <i_epik_Tot_Q>
-1

> <i_epik_Tot_abs_Q>
1

> <r_epik_Metal_State_Penalty>
1.24306

> <b_epik_Metal_Only>
1

> <s_epik_Chemistry_Notes>
This compound has an ester and may undergo hydrolysis at high or low pH. This compound contains an acetal/aminal-like group ( X-CH(R)-Y where X, Y are N, S, or O) that may be acid/base labile, releasing an aldehyde.

> <s_lp_Force_Field>
OPLS_2005

> <r_lp_Energy>
20.1027

> <b_lp_Chiralities_Consistent>
1

> <s_lp_Variant>
AV-unprocessed.smi:50-8

> <Gold.Version>
5.8.1

> <Gold.Id.Protein>
6NUR|6NUR_protein|mol2

> <Gold.PLP.Fitness>
52.9093

> <Gold.PLP.PLP>
-38.9848

> <Gold.PLP.part.hbond>
-4.7744

> <Gold.PLP.part.metal>
0.0000

> <Gold.PLP.part.buried>
-5.9497

> <Gold.PLP.part.nonpolar>
-30.0881

> <Gold.PLP.part.repulsive>
1.1820

> <Gold.PLP.ligand.clash>
0.0000

> <Gold.PLP.ligand.torsion>
0.6635

> <Gold.PLP.Chemscore.Hbond>
4.9673

> <Gold.PLP.Chemscore.CHOScore>
0.0000

> <Gold.PLP.Chemscore.Metal>
0.0000

> <Gold.Chemscore.Hbonds>
donor molecule, donor type, donor heavy atom, donor atom, acceptor molecule, acceptor atom, score
      P1  H  7989  7998       L1    15  0.37
      P1  H  7997  8009       L1    18  0.86
      P1  H 10752 10764       L1    19  0.59

> <Gold.PLP.Chemscore.Internal.Correction>
0.3498

> <Gold.Rescore>
     Score         DG    S(hbond)    S(metal)    S(lipo)     H(rot)  DE(clash)    DE(int)     intcor
      8.98      -9.92       3.37        0.00      45.04       4.72       0.08       0.87       ----

> <Gold.Chemscore.Fitness>
8.9754

> <Gold.Chemscore.DG>
-9.9244

> <Gold.Chemscore.ZeroCoef>
-5.4800

> <Gold.Chemscore.Hbond>
3.3737

> <Gold.Chemscore.Metal>
0.0000

> <Gold.Chemscore.Lipo>
45.0396

> <Gold.Chemscore.Internal_Hbond>
0.0000

> <Gold.Chemscore.DEClash>
0.0801

> <Gold.Chemscore.DEInternal>
0.8689

> <Gold.Chemscore.Rot>
4.7239

> <Gold.Chemscore.Internal.Correction>
   9.000000E+99

> <Gold.Chemscore.Hbonds>
donor molecule, donor type, donor heavy atom, donor atom, acceptor molecule, acceptor atom, score
      P1  H  7989  7998       L1    15  0.01
      P1  H  7997  8009       L1    18  0.85
      P1  H 10752 10764       L1    19  0.02

> <Gold.Chemscore.Hbond.Weighted>
-11.2680

> <Gold.Chemscore.Metal.Weighted>
-0.0000

> <Gold.Chemscore.Lipo.Weighted>
-5.2696

> <Gold.Chemscore.Internal_Hbond.Weighted>
0.0000

> <Gold.Chemscore.DEClash.Weighted>
0.0801

> <Gold.Chemscore.DEInternal.Weighted>
0.8689

> <Gold.Chemscore.Rot.Weighted>
12.0933

> <Gold.Chemscore.Internal.Correction.Weighted>
   9.000000E+99

> <Gold.Protein.RotatedTorsions>
[ 6907 6896 6895 6894 ] final  -29.87 input  -60.11 | X-H torsion
[ 7974 7965 7964 7962 ] final   -7.29 input  175.53 | X-H torsion
[ 8008 7997 7996 7995 ] final -146.48 input   59.86 | X-H torsion
[ 10167 10162 10161 10158 ] final  -97.54 input  -65.29 | X-H torsion
[ 10718 10713 10712 10709 ] final  -95.61 input   66.30 | X-H torsion
[ 10763 10752 10751 10750 ] final  -52.01 input  -60.55 | X-H torsion
[ 11005 11000 10999 10996 ] final  -75.67 input  -57.11 | X-H torsion

> <Gold.Protein.ActiveResidues>
 VAL166  LYS551  ARG553  GLY616  TRP617  ASP618  TYR619  PRO620  LYS621  CYS622 
 ASP623  PHE694  ASN695  SER759  ASP760  ASP761  ALA762  ILE779  LEU786  VAL792 
 PHE793  MET794  SER795  GLU796  ALA797  LYS798  CYS799  TRP800  GLU811  SER814 

> <Gold.Protein.RotatedAtoms>
  151.1133  135.0039  159.8504 H   0  0  0  0  0  0  0  0  0  0  0  0  # atno 6907 bound_to 6896
  152.5444  134.1809  159.8645 H   0  0  0  0  0  0  0  0  0  0  0  0  # atno 6908 bound_to 6896
  151.1862  133.4650  159.2627 H   0  0  0  0  0  0  0  0  0  0  0  0  # atno 6909 bound_to 6896
  146.2310  140.2297  142.8340 H   0  0  0  0  0  0  0  0  0  0  0  0  # atno 7974 bound_to 7965
  155.5601  140.0624  157.2830 H   0  0  0  0  0  0  0  0  0  0  0  0  # atno 8008 bound_to 7997
  154.4393  140.1887  156.0819 H   0  0  0  0  0  0  0  0  0  0  0  0  # atno 8009 bound_to 7997
  156.0453  140.3291  155.7293 H   0  0  0  0  0  0  0  0  0  0  0  0  # atno 8010 bound_to 7997
  140.2823  143.3274  152.0428 H   0  0  0  0  0  0  0  0  0  0  0  0  # atno 10167 bound_to 10162
  156.0046  130.5116  150.6102 H   0  0  0  0  0  0  0  0  0  0  0  0  # atno 10718 bound_to 10713
  154.1359  135.6513  153.4932 H   0  0  0  0  0  0  0  0  0  0  0  0  # atno 10763 bound_to 10752
  153.0181  135.5304  154.6954 H   0  0  0  0  0  0  0  0  0  0  0  0  # atno 10764 bound_to 10752
  154.6202  135.2964  155.0305 H   0  0  0  0  0  0  0  0  0  0  0  0  # atno 10765 bound_to 10752
  141.1647  133.6955  156.7552 H   0  0  0  0  0  0  0  0  0  0  0  0  # atno 11005 bound_to 11000
  144.9567  140.8234  143.5538 LP  0  0  0  0  0  0  0  0  0  0  0  0  # atno 17320 bound_to 7965
  145.2264  139.2135  143.5066 LP  0  0  0  0  0  0  0  0  0  0  0  0  # atno 17321 bound_to 7965
  139.4959  144.6583  151.6523 LP  0  0  0  0  0  0  0  0  0  0  0  0  # atno 17342 bound_to 10162
  140.5801  143.9961  150.6263 LP  0  0  0  0  0  0  0  0  0  0  0  0  # atno 17343 bound_to 10162
  157.3936  131.0799  151.1372 LP  0  0  0  0  0  0  0  0  0  0  0  0  # atno 17370 bound_to 10713
  157.2056  130.6414  149.5754 LP  0  0  0  0  0  0  0  0  0  0  0  0  # atno 17371 bound_to 10713
  140.2574  134.8493  157.3726 LP  0  0  0  0  0  0  0  0  0  0  0  0  # atno 17394 bound_to 11000
  140.1644  134.4688  155.7873 LP  0  0  0  0  0  0  0  0  0  0  0  0  # atno 17395 bound_to 11000

$$$$
