AV-unprocessed.smi:2405|AV-procd|sdf|9515|dock6
  -GOLD-   2272013143D 1   1.00000     0.00000
 Structure written by MMmdl.
 36 37  0  0  0  0  0  0  0  0  2 V2000
  153.6123  141.4383  161.4581 C   0  0  0  0  0  0  0  0  0  0  0  0
  152.8017  142.6848  161.8283 C   0  0  0  0  0  0  0  0  0  0  0  0
  152.4495  143.5107  160.6370 C   0  0  0  0  0  0  0  0  0  0  0  0
  152.3688  143.0192  159.3978 N   0  0  0  0  0  0  0  0  0  0  0  0
  151.9728  143.9803  158.4610 C   0  0  0  0  0  0  0  0  0  0  0  0
  151.8229  143.6040  157.0160 C   0  0  0  0  0  0  0  0  0  0  0  0
  151.0644  142.2818  156.8969 C   0  0  0  0  0  0  0  0  0  0  0  0
  149.9273  142.1805  157.3572 O   0  0  0  0  0  0  0  0  0  0  0  0
  151.7095  141.2781  156.2827 N   0  0  0  0  0  0  0  0  0  0  0  0
  151.1840  139.9297  156.0941 C   0  0  1  0  0  0  0  0  0  0  0  0
  149.9446  139.9564  155.1801 C   0  0  0  0  0  0  0  0  0  0  0  0
  150.3647  139.2705  153.8759 C   0  0  0  0  0  0  0  0  0  0  0  0
  151.4486  138.2662  154.2869 C   0  0  2  0  0  0  0  0  0  0  0  0
  150.8099  136.9455  154.7641 C   0  0  0  0  0  0  0  0  0  0  0  0
  151.5530  136.0318  155.1871 O   0  0  0  0  0  0  0  0  0  0  0  0
  149.5625  136.8792  154.7019 O   0  5  0  0  0  0  0  0  0  0  0  0
  152.2126  139.0162  155.3943 C   0  0  0  0  0  0  0  0  0  0  0  0
  151.7565  145.2176  159.0155 C   0  0  0  0  0  0  0  0  0  0  0  0
  152.0253  145.2155  160.7365 S   0  0  0  0  0  0  0  0  0  0  0  0
  153.8547  140.8538  162.3458 H   0  0  0  0  0  0  0  0  0  0  0  0
  154.5494  141.7089  160.9704 H   0  0  0  0  0  0  0  0  0  0  0  0
  153.0544  140.7948  160.7771 H   0  0  0  0  0  0  0  0  0  0  0  0
  151.8814  142.3930  162.3352 H   0  0  0  0  0  0  0  0  0  0  0  0
  153.3639  143.3004  162.5316 H   0  0  0  0  0  0  0  0  0  0  0  0
  151.2811  144.3784  156.4717 H   0  0  0  0  0  0  0  0  0  0  0  0
  152.7965  143.5122  156.5322 H   0  0  0  0  0  0  0  0  0  0  0  0
  152.6444  141.4530  155.9432 H   0  0  0  0  0  0  0  0  0  0  0  0
  150.8983  139.5032  157.0576 H   0  0  0  0  0  0  0  0  0  0  0  0
  149.1421  139.3836  155.6472 H   0  0  0  0  0  0  0  0  0  0  0  0
  149.5569  140.9606  155.0034 H   0  0  0  0  0  0  0  0  0  0  0  0
  149.5175  138.8140  153.3618 H   0  0  0  0  0  0  0  0  0  0  0  0
  150.7947  140.0065  153.1956 H   0  0  0  0  0  0  0  0  0  0  0  0
  152.1083  138.0360  153.4493 H   0  0  0  0  0  0  0  0  0  0  0  0
  152.9935  139.6159  154.9236 H   0  0  0  0  0  0  0  0  0  0  0  0
  152.7232  138.3584  156.0991 H   0  0  0  0  0  0  0  0  0  0  0  0
  151.4456  146.1242  158.5178 H   0  0  0  0  0  0  0  0  0  0  0  0
  1  2  1  0  0  0  0
  1 20  1  0  0  0  0
  1 21  1  0  0  0  0
  1 22  1  0  0  0  0
  2  3  1  0  0  0  0
  2 23  1  0  0  0  0
  2 24  1  0  0  0  0
  3 19  1  0  0  0  0
  3  4  2  0  0  0  0
  4  5  1  0  0  0  0
  5  6  1  0  0  0  0
  5 18  2  0  0  0  0
  6  7  1  0  0  0  0
  6 25  1  0  0  0  0
  6 26  1  0  0  0  0
  7  8  2  0  0  0  0
  7  9  1  0  0  0  0
  9 10  1  0  0  0  0
  9 27  1  0  0  0  0
 10 17  1  0  0  0  0
 10 11  1  0  0  0  0
 10 28  1  0  0  0  0
 11 12  1  0  0  0  0
 11 29  1  0  0  0  0
 11 30  1  0  0  0  0
 12 13  1  0  0  0  0
 12 31  1  0  0  0  0
 12 32  1  0  0  0  0
 13 14  1  0  0  0  0
 13 17  1  0  0  0  0
 13 33  1  0  0  0  0
 14 15  2  0  0  0  0
 14 16  1  0  0  0  0
 17 34  1  0  0  0  0
 17 35  1  0  0  0  0
 18 19  1  0  0  0  0
 18 36  1  0  0  0  0
M  CHG  1  16  -1
M  END
> <s_m_source_file>
AV-unprocessed.smi

> <i_m_source_file_index>
2405

> <i_lp_mmshare_version>
43012

> <i_f3d_flags>
0

> <s_epik_input>
W0NIM11bQ0gyXWMxbmMoW2NIXXMxKVtDSDJdQyg9TylbTkhdW0NAQEhdMltDSDJdW0NIMl1bQ0BIXShbQ0gyXTIpQyg9TylbT0hd

> <s_epik_cmdline>
J2VwaWtfcHl0aG9uJywgJy1waCcsICc3LjAnLCAnLXRuJywgJzgnLCAnLW1hJywgJzIwMCcsICctbWV0YWxfYmluZGluZycsICctaW1hZScsICc8aW5maWxlLm1hZT4nLCAnLW9tYWUnLCAnPG91dGZpbGUubWFlPic=

> <r_epik_Ionization_Penalty>
0.000544611

> <r_epik_Ionization_Penalty_Charging>
0.000481685

> <r_epik_Ionization_Penalty_Neutral>
6.29266e-05

> <r_epik_State_Penalty>
0.00029893

> <r_epik_Charging_Adjusted_Penalty>
0.000780614

> <i_epik_Tot_Q>
-1

> <i_epik_Tot_abs_Q>
1

> <r_epik_Metal_State_Penalty>
-0

> <b_epik_Metal_Only>
0

> <s_lp_Force_Field>
OPLS_2005

> <r_lp_Energy>
7.82971

> <b_lp_Chiralities_Consistent>
1

> <s_lp_Variant>
AV-unprocessed.smi:2405-4

> <Gold.Version>
5.8.1

> <Gold.Id.Protein>
6NUR|6NUR_protein|mol2

> <Gold.PLP.Fitness>
46.6517

> <Gold.PLP.PLP>
-41.6456

> <Gold.PLP.part.hbond>
-1.0000

> <Gold.PLP.part.metal>
0.0000

> <Gold.PLP.part.buried>
-1.5383

> <Gold.PLP.part.nonpolar>
-39.5305

> <Gold.PLP.part.repulsive>
0.4947

> <Gold.PLP.ligand.clash>
0.0000

> <Gold.PLP.ligand.torsion>
0.5282

> <Gold.PLP.Chemscore.Hbond>
2.0000

> <Gold.PLP.Chemscore.CHOScore>
0.0000

> <Gold.PLP.Chemscore.Metal>
0.0000

> <Gold.Chemscore.Hbonds>
donor molecule, donor type, donor heavy atom, donor atom, acceptor molecule, acceptor atom, score
      P1  H 10752 10764       L1    15  2.00

> <Gold.PLP.Chemscore.Internal.Correction>
0.0625

> <Gold.Rescore>
     Score         DG    S(hbond)    S(metal)    S(lipo)     H(rot)  DE(clash)    DE(int)     intcor
     16.05     -17.32       1.00        0.00     117.88       2.06       0.99       0.28       ----

> <Gold.Chemscore.Fitness>
16.0532

> <Gold.Chemscore.DG>
-17.3190

> <Gold.Chemscore.ZeroCoef>
-5.4800

> <Gold.Chemscore.Hbond>
0.9969

> <Gold.Chemscore.Metal>
0.0000

> <Gold.Chemscore.Lipo>
117.8779

> <Gold.Chemscore.Internal_Hbond>
0.0000

> <Gold.Chemscore.DEClash>
0.9902

> <Gold.Chemscore.DEInternal>
0.2756

> <Gold.Chemscore.Rot>
2.0635

> <Gold.Chemscore.Internal.Correction>
   9.000000E+99

> <Gold.Chemscore.Hbonds>
donor molecule, donor type, donor heavy atom, donor atom, acceptor molecule, acceptor atom, score
      P1  H 10752 10764       L1    15  0.96

> <Gold.Chemscore.Hbond.Weighted>
-3.3297

> <Gold.Chemscore.Metal.Weighted>
-0.0000

> <Gold.Chemscore.Lipo.Weighted>
-13.7917

> <Gold.Chemscore.Internal_Hbond.Weighted>
0.0000

> <Gold.Chemscore.DEClash.Weighted>
0.9902

> <Gold.Chemscore.DEInternal.Weighted>
0.2756

> <Gold.Chemscore.Rot.Weighted>
5.2825

> <Gold.Chemscore.Internal.Correction.Weighted>
   9.000000E+99

> <Gold.Protein.RotatedTorsions>
[ 6907 6896 6895 6894 ] final  -67.19 input  -60.11 | X-H torsion
[ 7974 7965 7964 7962 ] final   37.86 input  175.53 | X-H torsion
[ 8008 7997 7996 7995 ] final -132.33 input   59.86 | X-H torsion
[ 10167 10162 10161 10158 ] final  -98.50 input  -65.29 | X-H torsion
[ 10718 10713 10712 10709 ] final  -91.40 input   66.30 | X-H torsion
[ 10763 10752 10751 10750 ] final  -55.73 input  -60.55 | X-H torsion
[ 11005 11000 10999 10996 ] final  -13.13 input  -57.11 | X-H torsion

> <Gold.Protein.ActiveResidues>
 VAL166  LYS551  ARG553  GLY616  TRP617  ASP618  TYR619  PRO620  LYS621  CYS622 
 ASP623  PHE694  ASN695  SER759  ASP760  ASP761  ALA762  ILE779  LEU786  VAL792 
 PHE793  MET794  SER795  GLU796  ALA797  LYS798  CYS799  TRP800  GLU811  SER814 

> <Gold.Protein.RotatedAtoms>
  150.7423  134.5916  159.5989 H   0  0  0  0  0  0  0  0  0  0  0  0  # atno 6907 bound_to 6896
  152.3302  134.7266  160.0300 H   0  0  0  0  0  0  0  0  0  0  0  0  # atno 6908 bound_to 6896
  151.7752  133.3309  159.3492 H   0  0  0  0  0  0  0  0  0  0  0  0  # atno 6909 bound_to 6896
  146.1105  139.5842  142.9355 H   0  0  0  0  0  0  0  0  0  0  0  0  # atno 7974 bound_to 7965
  155.3271  140.0465  157.3041 H   0  0  0  0  0  0  0  0  0  0  0  0  # atno 8008 bound_to 7997
  154.5348  140.2269  155.8707 H   0  0  0  0  0  0  0  0  0  0  0  0  # atno 8009 bound_to 7997
  156.1824  140.3070  155.9181 H   0  0  0  0  0  0  0  0  0  0  0  0  # atno 8010 bound_to 7997
  140.2723  143.3335  152.0522 H   0  0  0  0  0  0  0  0  0  0  0  0  # atno 10167 bound_to 10162
  155.9993  130.4946  150.5469 H   0  0  0  0  0  0  0  0  0  0  0  0  # atno 10718 bound_to 10713
  154.1954  135.6420  153.5072 H   0  0  0  0  0  0  0  0  0  0  0  0  # atno 10763 bound_to 10752
  153.0025  135.5438  154.6371 H   0  0  0  0  0  0  0  0  0  0  0  0  # atno 10764 bound_to 10752
  154.5770  135.2922  155.0743 H   0  0  0  0  0  0  0  0  0  0  0  0  # atno 10765 bound_to 10752
  140.7729  133.8424  155.9223 H   0  0  0  0  0  0  0  0  0  0  0  0  # atno 11005 bound_to 11000
  145.5672  141.0398  143.2194 LP  0  0  0  0  0  0  0  0  0  0  0  0  # atno 17320 bound_to 7965
  144.7508  139.7200  143.7274 LP  0  0  0  0  0  0  0  0  0  0  0  0  # atno 17321 bound_to 7965
  139.4985  144.6648  151.6382 LP  0  0  0  0  0  0  0  0  0  0  0  0  # atno 17342 bound_to 10162
  140.5879  143.9831  150.6307 LP  0  0  0  0  0  0  0  0  0  0  0  0  # atno 17343 bound_to 10162
  157.3397  131.0714  151.1797 LP  0  0  0  0  0  0  0  0  0  0  0  0  # atno 17370 bound_to 10713
  157.2650  130.6677  149.5992 LP  0  0  0  0  0  0  0  0  0  0  0  0  # atno 17371 bound_to 10713
  140.9556  134.1722  157.4694 LP  0  0  0  0  0  0  0  0  0  0  0  0  # atno 17394 bound_to 11000
  139.8753  134.9926  156.5603 LP  0  0  0  0  0  0  0  0  0  0  0  0  # atno 17395 bound_to 11000

$$$$
