AV-unprocessed.smi:1701|AV-procd|sdf|6824|dock2
  -GOLD-   22720 8 03D 1   1.00000     0.00000
 Structure written by MMmdl.
 55 57  0  0  0  0  0  0  0  0  3 V2000
  151.8931  145.3582  159.2773 C   0  0  0  0  0  0  0  0  0  0  0  0
  151.1691  144.5448  158.1964 C   0  0  0  0  0  0  0  0  0  0  0  0
  151.7285  143.2018  158.0491 N   0  0  0  0  0  0  0  0  0  0  0  0
  152.8474  142.8063  158.9008 C   0  0  0  0  0  0  0  0  0  0  0  0
  152.4824  141.6426  159.8316 C   0  0  0  0  0  0  0  0  0  0  0  0
  151.1621  142.2847  157.1329 C   0  0  0  0  0  0  0  0  0  0  0  0
  151.5644  140.9293  157.0347 C   0  0  0  0  0  0  0  0  0  0  0  0
  150.9473  140.0775  156.0954 C   0  0  0  0  0  0  0  0  0  0  0  0
  149.9385  140.5801  155.2480 C   0  0  0  0  0  0  0  0  0  0  0  0
  149.3323  139.6831  154.3272 N   0  0  0  0  0  0  0  0  0  0  0  0
  148.0710  139.6965  153.8525 C   0  0  0  0  0  0  0  0  0  0  0  0
  147.2416  140.5681  154.1011 O   0  0  0  0  0  0  0  0  0  0  0  0
  147.7779  138.6827  153.0178 N   0  0  0  0  0  0  0  0  0  0  0  0
  146.5172  138.3929  152.3274 C   0  0  1  0  0  0  0  0  0  0  0  0
  146.6673  138.4283  150.7934 C   0  0  0  0  0  0  0  0  0  0  0  0
  145.8702  137.2204  150.2911 C   0  0  0  0  0  0  0  0  0  0  0  0
  146.0364  136.2441  151.3738 N   0  3  2  0  0  0  0  0  0  0  0  0
  145.1977  135.0282  151.3591 C   0  0  0  0  0  0  0  0  0  0  0  0
  145.6802  134.0885  152.4846 C   0  0  0  0  0  0  0  0  0  0  0  0
  145.7438  134.8017  153.8543 C   0  0  0  0  0  0  0  0  0  0  0  0
  146.5282  136.1291  153.7732 C   0  0  0  0  0  0  0  0  0  0  0  0
  145.9408  136.9908  152.6404 C   0  0  1  0  0  0  0  0  0  0  0  0
  149.5640  141.9371  155.3890 C   0  0  0  0  0  0  0  0  0  0  0  0
  150.1802  142.7156  156.3038 N   0  3  0  0  0  0  0  0  0  0  0  0
  151.4693  146.3594  159.3551 H   0  0  0  0  0  0  0  0  0  0  0  0
  152.9541  145.4646  159.0492 H   0  0  0  0  0  0  0  0  0  0  0  0
  151.8065  144.8851  160.2558 H   0  0  0  0  0  0  0  0  0  0  0  0
  150.1000  144.5009  158.4059 H   0  0  0  0  0  0  0  0  0  0  0  0
  151.2581  145.0629  157.2410 H   0  0  0  0  0  0  0  0  0  0  0  0
  153.6769  142.5000  158.2626 H   0  0  0  0  0  0  0  0  0  0  0  0
  153.2218  143.6564  159.4707 H   0  0  0  0  0  0  0  0  0  0  0  0
  153.3360  141.3590  160.4473 H   0  0  0  0  0  0  0  0  0  0  0  0
  152.1779  140.7626  159.2641 H   0  0  0  0  0  0  0  0  0  0  0  0
  151.6641  141.9079  160.5015 H   0  0  0  0  0  0  0  0  0  0  0  0
  152.3446  140.5239  157.6605 H   0  0  0  0  0  0  0  0  0  0  0  0
  151.2561  139.0446  156.0253 H   0  0  0  0  0  0  0  0  0  0  0  0
  149.9362  138.9608  153.9631 H   0  0  0  0  0  0  0  0  0  0  0  0
  148.5444  138.0632  152.7962 H   0  0  0  0  0  0  0  0  0  0  0  0
  145.7703  139.1420  152.5961 H   0  0  0  0  0  0  0  0  0  0  0  0
  146.3189  139.3655  150.3580 H   0  0  0  0  0  0  0  0  0  0  0  0
  147.7146  138.3067  150.5117 H   0  0  0  0  0  0  0  0  0  0  0  0
  144.8146  137.4747  150.1810 H   0  0  0  0  0  0  0  0  0  0  0  0
  146.2373  136.8401  149.3373 H   0  0  0  0  0  0  0  0  0  0  0  0
  144.1484  135.2934  151.4951 H   0  0  0  0  0  0  0  0  0  0  0  0
  145.2847  134.5322  150.3917 H   0  0  0  0  0  0  0  0  0  0  0  0
  145.0301  133.2154  152.5471 H   0  0  0  0  0  0  0  0  0  0  0  0
  146.6731  133.7125  152.2342 H   0  0  0  0  0  0  0  0  0  0  0  0
  144.7292  135.0040  154.1999 H   0  0  0  0  0  0  0  0  0  0  0  0
  146.1952  134.1439  154.5977 H   0  0  0  0  0  0  0  0  0  0  0  0
  146.4645  136.6526  154.7274 H   0  0  0  0  0  0  0  0  0  0  0  0
  147.5846  135.9271  153.5905 H   0  0  0  0  0  0  0  0  0  0  0  0
  144.8793  137.1382  152.8515 H   0  0  0  0  0  0  0  0  0  0  0  0
  148.7910  142.4331  154.8213 H   0  0  0  0  0  0  0  0  0  0  0  0
  146.9945  135.9310  151.3077 H   0  0  0  0  0  0  0  0  0  0  0  0
  149.8836  143.6890  156.3776 H   0  0  0  0  0  0  0  0  0  0  0  0
  1  2  1  0  0  0  0
  1 25  1  0  0  0  0
  1 26  1  0  0  0  0
  1 27  1  0  0  0  0
  2  3  1  0  0  0  0
  2 28  1  0  0  0  0
  2 29  1  0  0  0  0
  3  4  1  0  0  0  0
  3  6  1  0  0  0  0
  4  5  1  0  0  0  0
  4 30  1  0  0  0  0
  4 31  1  0  0  0  0
  5 32  1  0  0  0  0
  5 33  1  0  0  0  0
  5 34  1  0  0  0  0
  6 24  1  0  0  0  0
  6  7  2  0  0  0  0
  7  8  1  0  0  0  0
  7 35  1  0  0  0  0
  8  9  2  0  0  0  0
  8 36  1  0  0  0  0
  9 10  1  0  0  0  0
  9 23  1  0  0  0  0
 10 11  1  0  0  0  0
 10 37  1  0  0  0  0
 11 12  2  0  0  0  0
 11 13  1  0  0  0  0
 13 14  1  0  0  0  0
 13 38  1  0  0  0  0
 14 22  1  0  0  0  0
 14 15  1  0  0  0  0
 14 39  1  0  0  0  0
 15 16  1  0  0  0  0
 15 40  1  0  0  0  0
 15 41  1  0  0  0  0
 16 17  1  0  0  0  0
 16 42  1  0  0  0  0
 16 43  1  0  0  0  0
 17 22  1  0  0  0  0
 17 18  1  0  0  0  0
 17 54  1  0  0  0  0
 18 19  1  0  0  0  0
 18 44  1  0  0  0  0
 18 45  1  0  0  0  0
 19 20  1  0  0  0  0
 19 46  1  0  0  0  0
 19 47  1  0  0  0  0
 20 21  1  0  0  0  0
 20 48  1  0  0  0  0
 20 49  1  0  0  0  0
 21 22  1  0  0  0  0
 21 50  1  0  0  0  0
 21 51  1  0  0  0  0
 22 52  1  0  0  0  0
 23 24  2  0  0  0  0
 23 53  1  0  0  0  0
 24 55  1  0  0  0  0
M  CHG  1  17   1
M  CHG  1  24   1
M  END
> <s_m_source_file>
AV-unprocessed.smi

> <i_m_source_file_index>
1701

> <i_lp_mmshare_version>
43012

> <i_f3d_flags>
0

> <s_epik_input>
W0NIM11bQ0gyXU4oW0NIMl1bQ0gzXSljMVtjSF1bY0hdYyhbY0hdbjEpW05IXUMoPU8pW05IXVtDQEhdKFtDSDJdW0NIMl0yKVtDQEBIXShOMjMpW0NIMl1bQ0gyXVtDSDJdW0NIMl0z

> <s_epik_cmdline>
J2VwaWtfcHl0aG9uJywgJy1waCcsICc3LjAnLCAnLXRuJywgJzgnLCAnLW1hJywgJzIwMCcsICctbWV0YWxfYmluZGluZycsICctaW1hZScsICc8aW5maWxlLm1hZT4nLCAnLW9tYWUnLCAnPG91dGZpbGUubWFlPic=

> <r_lp_tautomer_probability>
0.999994

> <r_epik_Ionization_Penalty>
0.302862

> <r_epik_Ionization_Penalty_Charging>
0.302842

> <r_epik_Ionization_Penalty_Neutral>
1.95166e-05

> <r_epik_State_Penalty>
0.019791

> <r_epik_Charging_Adjusted_Penalty>
0.322633

> <i_epik_Tot_Q>
2

> <i_epik_Tot_abs_Q>
2

> <r_epik_Metal_State_Penalty>
0.0536763

> <b_epik_Metal_Only>
0

> <s_lp_Force_Field>
OPLS_2005

> <r_lp_Energy>
67.2082

> <b_lp_Chiralities_Consistent>
1

> <s_lp_Variant>
AV-unprocessed.smi:1701-4

> <Gold.Version>
5.8.1

> <Gold.Id.Protein>
6NUR|6NUR_protein|mol2

> <Gold.PLP.Fitness>
54.7525

> <Gold.PLP.PLP>
-42.0831

> <Gold.PLP.part.hbond>
-4.2472

> <Gold.PLP.part.metal>
0.0000

> <Gold.PLP.part.buried>
8.3400

> <Gold.PLP.part.nonpolar>
-47.1968

> <Gold.PLP.part.repulsive>
0.4574

> <Gold.PLP.ligand.clash>
0.0000

> <Gold.PLP.ligand.torsion>
0.2169

> <Gold.PLP.Chemscore.Hbond>
4.3557

> <Gold.PLP.Chemscore.CHOScore>
0.0000

> <Gold.PLP.Chemscore.Metal>
0.0000

> <Gold.Chemscore.Hbonds>
donor molecule, donor type, donor heavy atom, donor atom, acceptor molecule, acceptor atom, score
      L1  H    13    38       P1  7948  0.76
      L1  H    17    54       P1  7948  1.95
      L1  H    24    55       P1  8028  1.63

> <Gold.PLP.Chemscore.Internal.Correction>
0.0361

> <Gold.Rescore>
     Score         DG    S(hbond)    S(metal)    S(lipo)     H(rot)  DE(clash)    DE(int)     intcor
     18.79     -23.91       2.41        0.00     117.31       1.30       3.76       1.36       ----

> <Gold.Chemscore.Fitness>
18.7886

> <Gold.Chemscore.DG>
-23.9066

> <Gold.Chemscore.ZeroCoef>
-5.4800

> <Gold.Chemscore.Hbond>
2.4054

> <Gold.Chemscore.Metal>
0.0000

> <Gold.Chemscore.Lipo>
117.3135

> <Gold.Chemscore.Internal_Hbond>
0.0000

> <Gold.Chemscore.DEClash>
3.7610

> <Gold.Chemscore.DEInternal>
1.3570

> <Gold.Chemscore.Rot>
1.3020

> <Gold.Chemscore.Internal.Correction>
   9.000000E+99

> <Gold.Chemscore.Hbonds>
donor molecule, donor type, donor heavy atom, donor atom, acceptor molecule, acceptor atom, score
      L1  H    13    38       P1  7948  0.72
      L1  H    17    54       P1  7948  0.89
      L1  H    24    55       P1  8028  0.80

> <Gold.Chemscore.Hbond.Weighted>
-8.0340

> <Gold.Chemscore.Metal.Weighted>
-0.0000

> <Gold.Chemscore.Lipo.Weighted>
-13.7257

> <Gold.Chemscore.Internal_Hbond.Weighted>
0.0000

> <Gold.Chemscore.DEClash.Weighted>
3.7610

> <Gold.Chemscore.DEInternal.Weighted>
1.3570

> <Gold.Chemscore.Rot.Weighted>
3.3330

> <Gold.Chemscore.Internal.Correction.Weighted>
   9.000000E+99

> <Gold.Protein.RotatedTorsions>
[ 6907 6896 6895 6894 ] final   -8.05 input  -60.11 | X-H torsion
[ 7974 7965 7964 7962 ] final -171.14 input  175.53 | X-H torsion
[ 8008 7997 7996 7995 ] final -163.86 input   59.86 | X-H torsion
[ 10167 10162 10161 10158 ] final -112.60 input  -65.29 | X-H torsion
[ 10718 10713 10712 10709 ] final   31.25 input   66.30 | X-H torsion
[ 10763 10752 10751 10750 ] final   35.79 input  -60.55 | X-H torsion
[ 11005 11000 10999 10996 ] final -113.48 input  -57.11 | X-H torsion

> <Gold.Protein.ActiveResidues>
 VAL166  LYS551  ARG553  GLY616  TRP617  ASP618  TYR619  PRO620  LYS621  CYS622 
 ASP623  PHE694  ASN695  SER759  ASP760  ASP761  ALA762  ILE779  LEU786  VAL792 
 PHE793  MET794  SER795  GLU796  ALA797  LYS798  CYS799  TRP800  GLU811  SER814 

> <Gold.Protein.RotatedAtoms>
  151.4398  135.1019  159.9666 H   0  0  0  0  0  0  0  0  0  0  0  0  # atno 6907 bound_to 6896
  152.4927  133.8540  159.7226 H   0  0  0  0  0  0  0  0  0  0  0  0  # atno 6908 bound_to 6896
  150.9096  133.6955  159.2885 H   0  0  0  0  0  0  0  0  0  0  0  0  # atno 6909 bound_to 6896
  144.7161  140.1966  143.6343 H   0  0  0  0  0  0  0  0  0  0  0  0  # atno 7974 bound_to 7965
  155.8273  140.0928  157.1814 H   0  0  0  0  0  0  0  0  0  0  0  0  # atno 8008 bound_to 7997
  154.3979  140.1425  156.3632 H   0  0  0  0  0  0  0  0  0  0  0  0  # atno 8009 bound_to 7997
  155.8203  140.3446  155.5513 H   0  0  0  0  0  0  0  0  0  0  0  0  # atno 8010 bound_to 7997
  140.1209  143.4444  152.1691 H   0  0  0  0  0  0  0  0  0  0  0  0  # atno 10167 bound_to 10162
  157.2700  130.7203  149.6499 H   0  0  0  0  0  0  0  0  0  0  0  0  # atno 10718 bound_to 10713
  153.0104  135.6323  154.1882 H   0  0  0  0  0  0  0  0  0  0  0  0  # atno 10763 bound_to 10752
  154.1625  135.2823  155.3106 H   0  0  0  0  0  0  0  0  0  0  0  0  # atno 10764 bound_to 10752
  154.5971  135.5599  153.7397 H   0  0  0  0  0  0  0  0  0  0  0  0  # atno 10765 bound_to 10752
  141.0611  133.9533  157.2664 H   0  0  0  0  0  0  0  0  0  0  0  0  # atno 11005 bound_to 11000
  145.8718  139.2276  143.1656 LP  0  0  0  0  0  0  0  0  0  0  0  0  # atno 17320 bound_to 7965
  146.0077  140.8463  142.9986 LP  0  0  0  0  0  0  0  0  0  0  0  0  # atno 17321 bound_to 7965
  139.5569  144.7379  151.4268 LP  0  0  0  0  0  0  0  0  0  0  0  0  # atno 17342 bound_to 10162
  140.6872  143.7946  150.7203 LP  0  0  0  0  0  0  0  0  0  0  0  0  # atno 17343 bound_to 10162
  155.9663  130.4370  150.5159 LP  0  0  0  0  0  0  0  0  0  0  0  0  # atno 17370 bound_to 10713
  157.3081  131.0658  151.2020 LP  0  0  0  0  0  0  0  0  0  0  0  0  # atno 17371 bound_to 10713
  139.9434  135.0188  156.8777 LP  0  0  0  0  0  0  0  0  0  0  0  0  # atno 17394 bound_to 11000
  140.5866  134.0301  155.7484 LP  0  0  0  0  0  0  0  0  0  0  0  0  # atno 17395 bound_to 11000

$$$$
