AV-unprocessed.smi:1492|AV-procd|sdf|6044|dock9
  -GOLD-   22720 6153D 1   1.00000     0.00000
 Structure written by MMmdl.
 51 52  0  0  0  0  0  0  0  0  2 V2000
  153.5033  137.8091  159.2533 C   0  0  0  0  0  0  0  0  0  0  0  0
  151.9669  137.7498  159.2973 C   0  0  0  0  0  0  0  0  0  0  0  0
  151.2751  137.2571  157.9827 C   0  0  1  0  0  0  0  0  0  0  0  0
  151.7477  135.7957  157.7600 C   0  0  0  0  0  0  0  0  0  0  0  0
  149.7245  137.2373  158.2065 C   0  0  0  0  0  0  0  0  0  0  0  0
  149.3236  136.8682  159.5614 N   0  0  0  0  0  0  0  0  0  0  0  0
  148.1446  136.3489  159.9347 C   0  0  0  0  0  0  0  0  0  0  0  0
  147.1781  136.2316  159.1816 O   0  0  0  0  0  0  0  0  0  0  0  0
  148.0635  135.8529  161.3788 C   0  0  0  0  0  0  0  0  0  0  0  0
  146.6511  135.5110  161.8561 C   0  0  0  0  0  0  0  0  0  0  0  0
  146.2530  134.2428  162.1606 C   0  0  0  0  0  0  0  0  0  0  0  0
  147.1675  133.0371  162.0337 C   0  0  0  0  0  0  0  0  0  0  0  0
  144.9536  133.9808  162.6271 N   0  0  0  0  0  0  0  0  0  0  0  0
  144.1318  134.9485  162.7770 C   0  0  0  0  0  0  0  0  0  0  0  0
  142.7347  134.6626  163.2844 C   0  0  0  0  0  0  0  0  0  0  0  0
  144.4344  136.2634  162.5029 N   0  5  0  0  0  0  0  0  0  0  0  0
  145.6732  136.5983  162.0435 C   0  0  0  0  0  0  0  0  0  0  0  0
  145.9878  137.7633  161.8032 O   0  0  0  0  0  0  0  0  0  0  0  0
  151.6170  138.1391  156.8258 N   0  0  0  0  0  0  0  0  0  0  0  0
  151.2365  137.6203  155.5047 C   0  0  0  0  0  0  0  0  0  0  0  0
  151.7326  138.5203  154.3607 C   0  0  0  0  0  0  0  0  0  0  0  0
  151.2299  139.8385  154.5357 O   0  0  0  0  0  0  0  0  0  0  0  0
  151.6294  140.4065  155.7762 C   0  0  0  0  0  0  0  0  0  0  0  0
  151.1381  139.5236  156.9363 C   0  0  0  0  0  0  0  0  0  0  0  0
  153.8995  138.1295  160.2169 H   0  0  0  0  0  0  0  0  0  0  0  0
  153.8594  138.5188  158.5068 H   0  0  0  0  0  0  0  0  0  0  0  0
  153.9376  136.8353  159.0273 H   0  0  0  0  0  0  0  0  0  0  0  0
  151.6633  137.1348  160.1436 H   0  0  0  0  0  0  0  0  0  0  0  0
  151.6001  138.7389  159.5735 H   0  0  0  0  0  0  0  0  0  0  0  0
  151.5502  135.1736  158.6330 H   0  0  0  0  0  0  0  0  0  0  0  0
  152.8203  135.7299  157.5817 H   0  0  0  0  0  0  0  0  0  0  0  0
  151.2411  135.3242  156.9183 H   0  0  0  0  0  0  0  0  0  0  0  0
  149.3073  138.2247  158.0068 H   0  0  0  0  0  0  0  0  0  0  0  0
  149.2339  136.5632  157.5040 H   0  0  0  0  0  0  0  0  0  0  0  0
  150.0434  136.9265  160.2681 H   0  0  0  0  0  0  0  0  0  0  0  0
  148.7312  134.9984  161.4937 H   0  0  0  0  0  0  0  0  0  0  0  0
  148.4795  136.6200  162.0323 H   0  0  0  0  0  0  0  0  0  0  0  0
  147.4513  132.8819  160.9928 H   0  0  0  0  0  0  0  0  0  0  0  0
  146.6753  132.1299  162.3861 H   0  0  0  0  0  0  0  0  0  0  0  0
  148.0728  133.1751  162.6245 H   0  0  0  0  0  0  0  0  0  0  0  0
  141.9983  134.9021  162.5168 H   0  0  0  0  0  0  0  0  0  0  0  0
  142.5221  135.2650  164.1681 H   0  0  0  0  0  0  0  0  0  0  0  0
  142.6211  133.6116  163.5534 H   0  0  0  0  0  0  0  0  0  0  0  0
  151.6528  136.6297  155.3360 H   0  0  0  0  0  0  0  0  0  0  0  0
  150.1530  137.5281  155.4308 H   0  0  0  0  0  0  0  0  0  0  0  0
  152.8232  138.5384  154.3293 H   0  0  0  0  0  0  0  0  0  0  0  0
  151.3910  138.1342  153.4004 H   0  0  0  0  0  0  0  0  0  0  0  0
  152.7150  140.5116  155.8042 H   0  0  0  0  0  0  0  0  0  0  0  0
  151.2090  141.4087  155.8597 H   0  0  0  0  0  0  0  0  0  0  0  0
  150.0485  139.5448  156.9575 H   0  0  0  0  0  0  0  0  0  0  0  0
  151.4827  139.9864  157.8585 H   0  0  0  0  0  0  0  0  0  0  0  0
  1  2  1  0  0  0  0
  1 25  1  0  0  0  0
  1 26  1  0  0  0  0
  1 27  1  0  0  0  0
  2  3  1  0  0  0  0
  2 28  1  0  0  0  0
  2 29  1  0  0  0  0
  3  4  1  0  0  0  0
  3  5  1  0  0  0  0
  3 19  1  0  0  0  0
  4 30  1  0  0  0  0
  4 31  1  0  0  0  0
  4 32  1  0  0  0  0
  5  6  1  0  0  0  0
  5 33  1  0  0  0  0
  5 34  1  0  0  0  0
  6  7  1  0  0  0  0
  6 35  1  0  0  0  0
  7  8  2  0  0  0  0
  7  9  1  0  0  0  0
  9 10  1  0  0  0  0
  9 36  1  0  0  0  0
  9 37  1  0  0  0  0
 10 17  1  0  0  0  0
 10 11  2  0  0  0  0
 11 12  1  0  0  0  0
 11 13  1  0  0  0  0
 12 38  1  0  0  0  0
 12 39  1  0  0  0  0
 12 40  1  0  0  0  0
 13 14  2  0  0  0  0
 14 15  1  0  0  0  0
 14 16  1  0  0  0  0
 15 41  1  0  0  0  0
 15 42  1  0  0  0  0
 15 43  1  0  0  0  0
 16 17  1  0  0  0  0
 17 18  2  0  0  0  0
 19 24  1  0  0  0  0
 19 20  1  0  0  0  0
 20 21  1  0  0  0  0
 20 44  1  0  0  0  0
 20 45  1  0  0  0  0
 21 22  1  0  0  0  0
 21 46  1  0  0  0  0
 21 47  1  0  0  0  0
 22 23  1  0  0  0  0
 23 24  1  0  0  0  0
 23 48  1  0  0  0  0
 23 49  1  0  0  0  0
 24 50  1  0  0  0  0
 24 51  1  0  0  0  0
M  CHG  1  16  -1
M  END
> <s_m_source_file>
AV-unprocessed.smi

> <i_m_source_file_index>
1492

> <i_lp_mmshare_version>
43012

> <i_f3d_flags>
0

> <s_epik_input>
W0NIMl0xW0NIMl1PW0NIMl1bQ0gyXU4xW0NAQF0oW0NIM10pKFtDSDJdW0NIM10pW0NIMl1bTkhdQyg9TylbQ0gyXWMyYyhbQ0gzXSluYyhbQ0gzXSlbbkhdYzI9Tw==

> <s_epik_cmdline>
J2VwaWtfcHl0aG9uJywgJy1waCcsICc3LjAnLCAnLXRuJywgJzgnLCAnLW1hJywgJzIwMCcsICctbWV0YWxfYmluZGluZycsICctaW1hZScsICc8aW5maWxlLm1hZT4nLCAnLW9tYWUnLCAnPG91dGZpbGUubWFlPic=

> <r_lp_tautomer_probability>
0.839158

> <r_epik_Ionization_Penalty>
6.88574

> <r_epik_Ionization_Penalty_Charging>
6.74373e-08

> <r_epik_Ionization_Penalty_Neutral>
6.88574

> <r_epik_State_Penalty>
4.79448

> <r_epik_Charging_Adjusted_Penalty>
4.79448

> <i_epik_Tot_Q>
-1

> <i_epik_Tot_abs_Q>
1

> <r_epik_Metal_State_Penalty>
1.16421

> <b_epik_Metal_Only>
1

> <s_lp_Force_Field>
OPLS_2005

> <r_lp_Energy>
44.9842

> <b_lp_Chiralities_Consistent>
1

> <s_lp_Variant>
AV-unprocessed.smi:1492-9

> <Gold.Version>
5.8.1

> <Gold.Id.Protein>
6NUR|6NUR_protein|mol2

> <Gold.PLP.Fitness>
39.2487

> <Gold.PLP.PLP>
-35.3883

> <Gold.PLP.part.hbond>
-2.0000

> <Gold.PLP.part.metal>
0.0000

> <Gold.PLP.part.buried>
-4.1399

> <Gold.PLP.part.nonpolar>
-30.2992

> <Gold.PLP.part.repulsive>
0.4096

> <Gold.PLP.ligand.clash>
0.0000

> <Gold.PLP.ligand.torsion>
0.8130

> <Gold.PLP.Chemscore.Hbond>
1.7840

> <Gold.PLP.Chemscore.CHOScore>
0.0000

> <Gold.PLP.Chemscore.Metal>
0.0000

> <Gold.Chemscore.Hbonds>
donor molecule, donor type, donor heavy atom, donor atom, acceptor molecule, acceptor atom, score
      P1  H  6934  6947       L1    18  0.78
      P1  H  7989  7998       L1    22  0.96

> <Gold.PLP.Chemscore.Internal.Correction>
0.1343

> <Gold.Rescore>
     Score         DG    S(hbond)    S(metal)    S(lipo)     H(rot)  DE(clash)    DE(int)     intcor
     13.41     -15.70       1.74        0.00      82.48       2.05       1.66       0.63       ----

> <Gold.Chemscore.Fitness>
13.4066

> <Gold.Chemscore.DG>
-15.6987

> <Gold.Chemscore.ZeroCoef>
-5.4800

> <Gold.Chemscore.Hbond>
1.7385

> <Gold.Chemscore.Metal>
0.0000

> <Gold.Chemscore.Lipo>
82.4809

> <Gold.Chemscore.Internal_Hbond>
0.0000

> <Gold.Chemscore.DEClash>
1.6596

> <Gold.Chemscore.DEInternal>
0.6325

> <Gold.Chemscore.Rot>
2.0461

> <Gold.Chemscore.Internal.Correction>
   9.000000E+99

> <Gold.Chemscore.Hbonds>
donor molecule, donor type, donor heavy atom, donor atom, acceptor molecule, acceptor atom, score
      P1  H  6934  6947       L1    18  0.79
      P1  H  7989  7998       L1    22  0.42

> <Gold.Chemscore.Hbond.Weighted>
-5.8065

> <Gold.Chemscore.Metal.Weighted>
-0.0000

> <Gold.Chemscore.Lipo.Weighted>
-9.6503

> <Gold.Chemscore.Internal_Hbond.Weighted>
0.0000

> <Gold.Chemscore.DEClash.Weighted>
1.6596

> <Gold.Chemscore.DEInternal.Weighted>
0.6325

> <Gold.Chemscore.Rot.Weighted>
5.2381

> <Gold.Chemscore.Internal.Correction.Weighted>
   9.000000E+99

> <Gold.Protein.RotatedTorsions>
[ 6907 6896 6895 6894 ] final -120.09 input  -60.11 | X-H torsion
[ 7974 7965 7964 7962 ] final   -7.48 input  175.53 | X-H torsion
[ 8008 7997 7996 7995 ] final  -14.60 input   59.86 | X-H torsion
[ 10167 10162 10161 10158 ] final  125.83 input  -65.29 | X-H torsion
[ 10718 10713 10712 10709 ] final   81.52 input   66.30 | X-H torsion
[ 10763 10752 10751 10750 ] final   16.27 input  -60.55 | X-H torsion
[ 11005 11000 10999 10996 ] final -120.02 input  -57.11 | X-H torsion

> <Gold.Protein.ActiveResidues>
 VAL166  LYS551  ARG553  GLY616  TRP617  ASP618  TYR619  PRO620  LYS621  CYS622 
 ASP623  PHE694  ASN695  SER759  ASP760  ASP761  ALA762  ILE779  LEU786  VAL792 
 PHE793  MET794  SER795  GLU796  ALA797  LYS798  CYS799  TRP800  GLU811  SER814 

> <Gold.Protein.RotatedAtoms>
  150.8363  133.8009  159.3078 H   0  0  0  0  0  0  0  0  0  0  0  0  # atno 6907 bound_to 6896
  151.5724  135.1060  160.0008 H   0  0  0  0  0  0  0  0  0  0  0  0  # atno 6908 bound_to 6896
  152.4434  133.7449  159.6718 H   0  0  0  0  0  0  0  0  0  0  0  0  # atno 6909 bound_to 6896
  146.2306  140.2325  142.8340 H   0  0  0  0  0  0  0  0  0  0  0  0  # atno 7974 bound_to 7965
  154.5197  140.2218  155.8999 H   0  0  0  0  0  0  0  0  0  0  0  0  # atno 8008 bound_to 7997
  156.1648  140.3134  155.8834 H   0  0  0  0  0  0  0  0  0  0  0  0  # atno 8009 bound_to 7997
  155.3679  140.0465  157.3036 H   0  0  0  0  0  0  0  0  0  0  0  0  # atno 8010 bound_to 7997
  139.5664  144.6914  151.3899 H   0  0  0  0  0  0  0  0  0  0  0  0  # atno 10167 bound_to 10162
  157.6835  131.0008  150.2239 H   0  0  0  0  0  0  0  0  0  0  0  0  # atno 10718 bound_to 10713
  153.1446  135.6767  153.8974 H   0  0  0  0  0  0  0  0  0  0  0  0  # atno 10763 bound_to 10752
  153.8420  135.3104  155.3428 H   0  0  0  0  0  0  0  0  0  0  0  0  # atno 10764 bound_to 10752
  154.7815  135.4886  153.9939 H   0  0  0  0  0  0  0  0  0  0  0  0  # atno 10765 bound_to 10752
  141.0174  134.0175  157.3331 H   0  0  0  0  0  0  0  0  0  0  0  0  # atno 11005 bound_to 11000
  144.9547  140.8214  143.5550 LP  0  0  0  0  0  0  0  0  0  0  0  0  # atno 17320 bound_to 7965
  145.2289  139.2124  143.5053 LP  0  0  0  0  0  0  0  0  0  0  0  0  # atno 17321 bound_to 7965
  140.6948  143.7776  150.7309 LP  0  0  0  0  0  0  0  0  0  0  0  0  # atno 17342 bound_to 10162
  140.1269  143.4561  152.2278 LP  0  0  0  0  0  0  0  0  0  0  0  0  # atno 17343 bound_to 10162
  156.2885  130.3742  149.7865 LP  0  0  0  0  0  0  0  0  0  0  0  0  # atno 17370 bound_to 10713
  156.5531  130.8351  151.3306 LP  0  0  0  0  0  0  0  0  0  0  0  0  # atno 17371 bound_to 10713
  139.9125  135.0192  156.7750 LP  0  0  0  0  0  0  0  0  0  0  0  0  # atno 17394 bound_to 11000
  140.6631  133.9627  155.7816 LP  0  0  0  0  0  0  0  0  0  0  0  0  # atno 17395 bound_to 11000

$$$$
