AV-unprocessed.smi:910|AV-procd|sdf|4131|dock7
  -GOLD-   22720 2 33D 1   1.00000     0.00000
 Structure written by MMmdl.
 47 48  0  0  0  0  0  0  0  0  2 V2000
  146.8157  132.7251  150.8380 C   0  0  0  0  0  0  0  0  0  0  0  0
  145.9810  133.9367  151.1116 C   0  0  0  0  0  0  0  0  0  0  0  0
  146.3764  135.1617  151.5959 N   0  3  0  0  0  0  0  0  0  0  0  0
  145.3186  135.9631  151.6959 C   0  0  0  0  0  0  0  0  0  0  0  0
  145.3749  137.2976  152.1594 N   0  0  0  0  0  0  0  0  0  0  0  0
  146.3193  138.1959  151.8420 C   0  0  0  0  0  0  0  0  0  0  0  0
  147.2553  137.9825  151.0709 O   0  0  0  0  0  0  0  0  0  0  0  0
  146.1215  139.3644  152.4706 N   0  0  0  0  0  0  0  0  0  0  0  0
  146.9923  140.5311  152.3676 C   0  0  0  0  0  0  0  0  0  0  0  0
  147.6458  140.8670  153.7157 C   0  0  0  0  0  0  0  0  0  0  0  0
  147.5197  139.7520  154.5850 O   0  0  0  0  0  0  0  0  0  0  0  0
  148.6898  139.4494  155.3321 C   0  0  1  0  0  0  0  0  0  0  0  0
  149.7628  138.8820  154.3791 C   0  0  0  0  0  0  0  0  0  0  0  0
  151.1021  138.6677  155.0991 C   0  0  0  0  0  0  0  0  0  0  0  0
  151.5875  139.9670  155.7570 C   0  0  0  0  0  0  0  0  0  0  0  0
  150.5255  140.5310  156.7131 C   0  0  0  0  0  0  0  0  0  0  0  0
  149.1754  140.7545  156.0019 C   0  0  2  0  0  0  0  0  0  0  0  0
  148.1314  141.3136  156.9824 C   0  0  0  0  0  0  0  0  0  0  0  0
  144.1915  135.3204  151.2877 O   0  0  0  0  0  0  0  0  0  0  0  0
  144.6212  134.0604  150.9243 C   0  0  0  0  0  0  0  0  0  0  0  0
  143.5872  133.1092  150.4239 C   0  0  0  0  0  0  0  0  0  0  0  0
  146.3791  131.8347  151.2909 H   0  0  0  0  0  0  0  0  0  0  0  0
  147.8232  132.8378  151.2385 H   0  0  0  0  0  0  0  0  0  0  0  0
  146.9040  132.5423  149.7669 H   0  0  0  0  0  0  0  0  0  0  0  0
  147.3371  135.3790  151.8291 H   0  0  0  0  0  0  0  0  0  0  0  0
  145.3231  139.4514  153.0824 H   0  0  0  0  0  0  0  0  0  0  0  0
  147.7495  140.3910  151.5941 H   0  0  0  0  0  0  0  0  0  0  0  0
  146.3763  141.3715  152.0470 H   0  0  0  0  0  0  0  0  0  0  0  0
  148.7042  141.0838  153.5663 H   0  0  0  0  0  0  0  0  0  0  0  0
  147.1889  141.7604  154.1422 H   0  0  0  0  0  0  0  0  0  0  0  0
  148.4652  138.7202  156.1134 H   0  0  0  0  0  0  0  0  0  0  0  0
  149.4323  137.9380  153.9466 H   0  0  0  0  0  0  0  0  0  0  0  0
  149.9070  139.5686  153.5438 H   0  0  0  0  0  0  0  0  0  0  0  0
  150.9897  137.8919  155.8575 H   0  0  0  0  0  0  0  0  0  0  0  0
  151.8505  138.3054  154.3938 H   0  0  0  0  0  0  0  0  0  0  0  0
  152.5163  139.7850  156.2986 H   0  0  0  0  0  0  0  0  0  0  0  0
  151.8173  140.7046  154.9871 H   0  0  0  0  0  0  0  0  0  0  0  0
  150.3915  139.8439  157.5498 H   0  0  0  0  0  0  0  0  0  0  0  0
  150.8820  141.4691  157.1397 H   0  0  0  0  0  0  0  0  0  0  0  0
  149.3285  141.5005  155.2204 H   0  0  0  0  0  0  0  0  0  0  0  0
  147.9223  140.6062  157.7854 H   0  0  0  0  0  0  0  0  0  0  0  0
  147.1895  141.5313  156.4782 H   0  0  0  0  0  0  0  0  0  0  0  0
  148.4783  142.2413  157.4381 H   0  0  0  0  0  0  0  0  0  0  0  0
  144.0195  132.3990  149.7186 H   0  0  0  0  0  0  0  0  0  0  0  0
  142.7826  133.6400  149.9149 H   0  0  0  0  0  0  0  0  0  0  0  0
  143.1521  132.5444  151.2484 H   0  0  0  0  0  0  0  0  0  0  0  0
  144.6447  137.5882  152.7924 H   0  0  0  0  0  0  0  0  0  0  0  0
  1 22  1  0  0  0  0
  1 23  1  0  0  0  0
  1 24  1  0  0  0  0
  1  2  1  0  0  0  0
  2  3  1  0  0  0  0
  2 20  2  0  0  0  0
  3 25  1  0  0  0  0
  3  4  2  0  0  0  0
  4 19  1  0  0  0  0
  4  5  1  0  0  0  0
  5  6  1  0  0  0  0
  5 47  1  0  0  0  0
  6  8  1  0  0  0  0
  6  7  2  0  0  0  0
  8  9  1  0  0  0  0
  8 26  1  0  0  0  0
  9 10  1  0  0  0  0
  9 27  1  0  0  0  0
  9 28  1  0  0  0  0
 10 11  1  0  0  0  0
 10 29  1  0  0  0  0
 10 30  1  0  0  0  0
 11 12  1  0  0  0  0
 12 17  1  0  0  0  0
 12 13  1  0  0  0  0
 12 31  1  0  0  0  0
 13 14  1  0  0  0  0
 13 32  1  0  0  0  0
 13 33  1  0  0  0  0
 14 15  1  0  0  0  0
 14 34  1  0  0  0  0
 14 35  1  0  0  0  0
 15 16  1  0  0  0  0
 15 36  1  0  0  0  0
 15 37  1  0  0  0  0
 16 17  1  0  0  0  0
 16 38  1  0  0  0  0
 16 39  1  0  0  0  0
 17 18  1  0  0  0  0
 17 40  1  0  0  0  0
 18 41  1  0  0  0  0
 18 42  1  0  0  0  0
 18 43  1  0  0  0  0
 19 20  1  0  0  0  0
 20 21  1  0  0  0  0
 21 44  1  0  0  0  0
 21 45  1  0  0  0  0
 21 46  1  0  0  0  0
M  CHG  1   3   1
M  END
> <s_m_source_file>
AV-unprocessed.smi

> <i_m_source_file_index>
910

> <i_lp_mmshare_version>
43012

> <i_f3d_flags>
0

> <s_epik_input>
W0NIM11jMW5jKG9jMVtDSDNdKVtOSF1DKD1PKVtOSF1bQ0gyXVtDSDJdT1tDQEBIXTJbQ0gyXVtDSDJdW0NIMl1bQ0gyXVtDQEhdMltDSDNd

> <s_epik_cmdline>
J2VwaWtfcHl0aG9uJywgJy1waCcsICc3LjAnLCAnLXRuJywgJzgnLCAnLW1hJywgJzIwMCcsICctbWV0YWxfYmluZGluZycsICctaW1hZScsICc8aW5maWxlLm1hZT4nLCAnLW9tYWUnLCAnPG91dGZpbGUubWFlPic=

> <r_epik_Ionization_Penalty>
7.32931

> <r_epik_Ionization_Penalty_Charging>
7.12214

> <r_epik_Ionization_Penalty_Neutral>
0.207166

> <r_epik_State_Penalty>
2.61278

> <r_epik_Charging_Adjusted_Penalty>
9.73492

> <i_epik_Tot_Q>
1

> <i_epik_Tot_abs_Q>
1

> <r_epik_Metal_State_Penalty>
2.64585

> <b_epik_Metal_Only>
0

> <s_lp_Force_Field>
OPLS_2005

> <r_lp_Energy>
16.7683

> <b_lp_Chiralities_Consistent>
1

> <s_lp_Variant>
AV-unprocessed.smi:910-16

> <Gold.Version>
5.8.1

> <Gold.Id.Protein>
6NUR|6NUR_protein|mol2

> <Gold.PLP.Fitness>
38.3456

> <Gold.PLP.PLP>
-30.6331

> <Gold.PLP.part.hbond>
-3.9716

> <Gold.PLP.part.metal>
0.0000

> <Gold.PLP.part.buried>
2.6328

> <Gold.PLP.part.nonpolar>
-33.7084

> <Gold.PLP.part.repulsive>
3.2055

> <Gold.PLP.ligand.clash>
0.0000

> <Gold.PLP.ligand.torsion>
1.0169

> <Gold.PLP.Chemscore.Hbond>
3.2262

> <Gold.PLP.Chemscore.CHOScore>
0.0000

> <Gold.PLP.Chemscore.Metal>
0.0000

> <Gold.Chemscore.Hbonds>
donor molecule, donor type, donor heavy atom, donor atom, acceptor molecule, acceptor atom, score
      L1  H     3    25       P1  7948  2.00
      L1  H     8    26       P1 10175  0.40
      P1  H  7954  7966       L1     7  0.89

> <Gold.PLP.Chemscore.Internal.Correction>
0.0676

> <Gold.Rescore>
     Score         DG    S(hbond)    S(metal)    S(lipo)     H(rot)  DE(clash)    DE(int)     intcor
     14.00     -18.71       2.36        0.00      82.87       1.69       2.62       2.09       ----

> <Gold.Chemscore.Fitness>
13.9983

> <Gold.Chemscore.DG>
-18.7111

> <Gold.Chemscore.ZeroCoef>
-5.4800

> <Gold.Chemscore.Hbond>
2.3575

> <Gold.Chemscore.Metal>
0.0000

> <Gold.Chemscore.Lipo>
82.8706

> <Gold.Chemscore.Internal_Hbond>
0.0000

> <Gold.Chemscore.DEClash>
2.6195

> <Gold.Chemscore.DEInternal>
2.0933

> <Gold.Chemscore.Rot>
1.6949

> <Gold.Chemscore.Internal.Correction>
   9.000000E+99

> <Gold.Chemscore.Hbonds>
donor molecule, donor type, donor heavy atom, donor atom, acceptor molecule, acceptor atom, score
      L1  H     3    25       P1  7948  0.98
      L1  H     8    26       P1 10175  0.37
      P1  H  7954  7966       L1     7  0.87

> <Gold.Chemscore.Hbond.Weighted>
-7.8742

> <Gold.Chemscore.Metal.Weighted>
-0.0000

> <Gold.Chemscore.Lipo.Weighted>
-9.6959

> <Gold.Chemscore.Internal_Hbond.Weighted>
0.0000

> <Gold.Chemscore.DEClash.Weighted>
2.6195

> <Gold.Chemscore.DEInternal.Weighted>
2.0933

> <Gold.Chemscore.Rot.Weighted>
4.3390

> <Gold.Chemscore.Internal.Correction.Weighted>
   9.000000E+99

> <Gold.Protein.RotatedTorsions>
[ 6907 6896 6895 6894 ] final  -50.68 input  -60.11 | X-H torsion
[ 7974 7965 7964 7962 ] final   -1.85 input  175.53 | X-H torsion
[ 8008 7997 7996 7995 ] final  -75.26 input   59.86 | X-H torsion
[ 10167 10162 10161 10158 ] final  132.03 input  -65.29 | X-H torsion
[ 10718 10713 10712 10709 ] final -128.99 input   66.30 | X-H torsion
[ 10763 10752 10751 10750 ] final -116.93 input  -60.55 | X-H torsion
[ 11005 11000 10999 10996 ] final  149.07 input  -57.11 | X-H torsion

> <Gold.Protein.ActiveResidues>
 VAL166  LYS551  ARG553  GLY616  TRP617  ASP618  TYR619  PRO620  LYS621  CYS622 
 ASP623  PHE694  ASN695  SER759  ASP760  ASP761  ALA762  ILE779  LEU786  VAL792 
 PHE793  MET794  SER795  GLU796  ALA797  LYS798  CYS799  TRP800  GLU811  SER814 

> <Gold.Protein.RotatedAtoms>
  150.8684  134.8052  159.7135 H   0  0  0  0  0  0  0  0  0  0  0  0  # atno 6907 bound_to 6896
  152.4697  134.4987  159.9727 H   0  0  0  0  0  0  0  0  0  0  0  0  # atno 6908 bound_to 6896
  151.5079  133.3452  159.2915 H   0  0  0  0  0  0  0  0  0  0  0  0  # atno 6909 bound_to 6896
  146.2412  140.1483  142.8334 H   0  0  0  0  0  0  0  0  0  0  0  0  # atno 7974 bound_to 7965
  154.5401  140.0747  156.8496 H   0  0  0  0  0  0  0  0  0  0  0  0  # atno 8008 bound_to 7997
  155.3198  140.3395  155.4223 H   0  0  0  0  0  0  0  0  0  0  0  0  # atno 8009 bound_to 7997
  156.1866  140.1671  156.8159 H   0  0  0  0  0  0  0  0  0  0  0  0  # atno 8010 bound_to 7997
  139.5357  144.6680  151.4793 H   0  0  0  0  0  0  0  0  0  0  0  0  # atno 10167 bound_to 10162
  156.2004  130.6853  151.0532 H   0  0  0  0  0  0  0  0  0  0  0  0  # atno 10718 bound_to 10713
  154.8537  135.4328  154.1900 H   0  0  0  0  0  0  0  0  0  0  0  0  # atno 10763 bound_to 10752
  153.2970  135.6966  153.7244 H   0  0  0  0  0  0  0  0  0  0  0  0  # atno 10764 bound_to 10752
  153.6389  135.3471  155.3039 H   0  0  0  0  0  0  0  0  0  0  0  0  # atno 10765 bound_to 10752
  140.1013  134.8981  157.1800 H   0  0  0  0  0  0  0  0  0  0  0  0  # atno 11005 bound_to 11000
  145.0189  140.8777  143.5179 LP  0  0  0  0  0  0  0  0  0  0  0  0  # atno 17320 bound_to 7965
  145.1528  139.2504  143.5432 LP  0  0  0  0  0  0  0  0  0  0  0  0  # atno 17321 bound_to 7965
  140.6563  143.8593  150.6838 LP  0  0  0  0  0  0  0  0  0  0  0  0  # atno 17342 bound_to 10162
  140.1973  143.3987  152.1818 LP  0  0  0  0  0  0  0  0  0  0  0  0  # atno 17343 bound_to 10162
  157.6982  131.0786  150.6903 LP  0  0  0  0  0  0  0  0  0  0  0  0  # atno 17370 bound_to 10713
  156.6960  130.4609  149.5586 LP  0  0  0  0  0  0  0  0  0  0  0  0  # atno 17371 bound_to 10713
  140.3216  134.2910  155.7245 LP  0  0  0  0  0  0  0  0  0  0  0  0  # atno 17394 bound_to 11000
  141.2106  133.7713  156.9918 LP  0  0  0  0  0  0  0  0  0  0  0  0  # atno 17395 bound_to 11000

$$$$
