AV-unprocessed.smi:1258|AV-procd|sdf|5289|dock7
  -GOLD-   22720 4413D 1   1.00000     0.00000
 Structure written by MMmdl.
 33 34  0  0  0  0  0  0  0  0  1 V2000
  153.0964  141.3662  160.3571 C   0  0  0  0  0  0  0  0  0  0  0  0
  152.8435  142.4751  159.3260 C   0  0  2  0  0  0  0  0  0  0  0  0
  152.4748  143.8060  160.0090 C   0  0  0  0  0  0  0  0  0  0  0  0
  152.2213  144.9161  158.9774 C   0  0  0  0  0  0  0  0  0  0  0  0
  151.1362  144.5033  157.9713 C   0  0  0  0  0  0  0  0  0  0  0  0
  151.4941  143.1778  157.2748 C   0  0  2  0  0  0  0  0  0  0  0  0
  150.4164  142.7978  156.3660 N   0  0  0  0  0  0  0  0  0  0  0  0
  150.4008  141.6988  155.5964 C   0  0  0  0  0  0  0  0  0  0  0  0
  151.3109  140.8683  155.5902 O   0  0  0  0  0  0  0  0  0  0  0  0
  149.1637  141.5298  154.7059 C   0  0  0  0  0  0  0  0  0  0  0  0
  148.5244  140.2353  154.8686 N   0  0  0  0  0  0  0  0  0  0  0  0
  148.3505  139.2286  154.0099 C   0  0  0  0  0  0  0  0  0  0  0  0
  147.7047  138.2161  154.5680 N   0  0  0  0  0  0  0  0  0  0  0  0
  147.4791  138.6606  155.8600 N   0  0  0  0  0  0  0  0  0  0  0  0
  147.9636  139.8580  156.0445 N   0  0  0  0  0  0  0  0  0  0  0  0
  151.7539  142.0672  158.3147 C   0  0  0  0  0  0  0  0  0  0  0  0
  152.2037  141.1639  160.9496 H   0  0  0  0  0  0  0  0  0  0  0  0
  153.8963  141.6439  161.0440 H   0  0  0  0  0  0  0  0  0  0  0  0
  153.3901  140.4366  159.8690 H   0  0  0  0  0  0  0  0  0  0  0  0
  153.7724  142.6270  158.7743 H   0  0  0  0  0  0  0  0  0  0  0  0
  151.5839  143.6718  160.6242 H   0  0  0  0  0  0  0  0  0  0  0  0
  153.2732  144.1124  160.6858 H   0  0  0  0  0  0  0  0  0  0  0  0
  151.9272  145.8350  159.4851 H   0  0  0  0  0  0  0  0  0  0  0  0
  153.1470  145.1397  158.4456 H   0  0  0  0  0  0  0  0  0  0  0  0
  150.1820  144.4039  158.4912 H   0  0  0  0  0  0  0  0  0  0  0  0
  151.0048  145.2926  157.2299 H   0  0  0  0  0  0  0  0  0  0  0  0
  152.4047  143.3368  156.6937 H   0  0  0  0  0  0  0  0  0  0  0  0
  149.6282  143.4264  156.3098 H   0  0  0  0  0  0  0  0  0  0  0  0
  148.4349  142.3060  154.9427 H   0  0  0  0  0  0  0  0  0  0  0  0
  149.4474  141.6603  153.6605 H   0  0  0  0  0  0  0  0  0  0  0  0
  148.6924  139.2383  152.9854 H   0  0  0  0  0  0  0  0  0  0  0  0
  152.0528  141.1479  157.8095 H   0  0  0  0  0  0  0  0  0  0  0  0
  150.8292  141.8384  158.8469 H   0  0  0  0  0  0  0  0  0  0  0  0
  1  2  1  0  0  0  0
  1 17  1  0  0  0  0
  1 18  1  0  0  0  0
  1 19  1  0  0  0  0
  2 16  1  0  0  0  0
  2  3  1  0  0  0  0
  2 20  1  0  0  0  0
  3  4  1  0  0  0  0
  3 21  1  0  0  0  0
  3 22  1  0  0  0  0
  4  5  1  0  0  0  0
  4 23  1  0  0  0  0
  4 24  1  0  0  0  0
  5  6  1  0  0  0  0
  5 25  1  0  0  0  0
  5 26  1  0  0  0  0
  6  7  1  0  0  0  0
  6 16  1  0  0  0  0
  6 27  1  0  0  0  0
  7  8  1  0  0  0  0
  7 28  1  0  0  0  0
  8  9  2  0  0  0  0
  8 10  1  0  0  0  0
 10 11  1  0  0  0  0
 10 29  1  0  0  0  0
 10 30  1  0  0  0  0
 11 15  1  0  0  0  0
 11 12  1  0  0  0  0
 12 13  2  0  0  0  0
 12 31  1  0  0  0  0
 13 14  1  0  0  0  0
 14 15  2  0  0  0  0
 16 32  1  0  0  0  0
 16 33  1  0  0  0  0
M  END
> <s_m_source_file>
AV-unprocessed.smi

> <i_m_source_file_index>
1258

> <i_lp_mmshare_version>
43012

> <i_f3d_flags>
0

> <s_epik_input>
W0NIM11bQ0BASF0xW0NIMl1bQ0gyXVtDSDJdW0NASF0oW0NIMl0xKVtOSF1DKD1PKVtDSDJdbjJbY0hdbm5uMg==

> <s_epik_cmdline>
J2VwaWtfcHl0aG9uJywgJy1waCcsICc3LjAnLCAnLXRuJywgJzgnLCAnLW1hJywgJzIwMCcsICctbWV0YWxfYmluZGluZycsICctaW1hZScsICc8aW5maWxlLm1hZT4nLCAnLW9tYWUnLCAnPG91dGZpbGUubWFlPic=

> <r_lp_tautomer_probability>
1

> <r_epik_Ionization_Penalty>
5.03816e-07

> <r_epik_Ionization_Penalty_Charging>
0

> <r_epik_Ionization_Penalty_Neutral>
5.03816e-07

> <r_epik_State_Penalty>
-0

> <r_epik_Charging_Adjusted_Penalty>
0

> <i_epik_Tot_Q>
0

> <i_epik_Tot_abs_Q>
0

> <r_epik_Metal_State_Penalty>
-0

> <b_epik_Metal_Only>
0

> <s_lp_Force_Field>
OPLS_2005

> <r_lp_Energy>
11.1566

> <b_lp_Chiralities_Consistent>
1

> <s_lp_Variant>
AV-unprocessed.smi:1258-3

> <Gold.Version>
5.8.1

> <Gold.Id.Protein>
6NUR|6NUR_protein|mol2

> <Gold.PLP.Fitness>
41.3723

> <Gold.PLP.PLP>
-34.0766

> <Gold.PLP.part.hbond>
-2.0000

> <Gold.PLP.part.metal>
0.0000

> <Gold.PLP.part.buried>
-2.2825

> <Gold.PLP.part.nonpolar>
-28.9102

> <Gold.PLP.part.repulsive>
0.2276

> <Gold.PLP.ligand.clash>
0.0000

> <Gold.PLP.ligand.torsion>
0.0691

> <Gold.PLP.Chemscore.Hbond>
1.4765

> <Gold.PLP.Chemscore.CHOScore>
1.0000

> <Gold.PLP.Chemscore.Metal>
0.0000

> <Gold.Chemscore.Hbonds>
donor molecule, donor type, donor heavy atom, donor atom, acceptor molecule, acceptor atom, score
      L1  H     7    28       P1  8028  1.00
      P1  H  7989  7998       L1     9  0.48
      L1  C    12    31       P1  7957  1.00

> <Gold.PLP.Chemscore.Internal.Correction>
0.0045

> <Gold.Rescore>
     Score         DG    S(hbond)    S(metal)    S(lipo)     H(rot)  DE(clash)    DE(int)     intcor
     13.85     -15.11       1.28        0.00      87.59       1.92       0.19       1.07       ----

> <Gold.Chemscore.Fitness>
13.8451

> <Gold.Chemscore.DG>
-15.1121

> <Gold.Chemscore.ZeroCoef>
-5.4800

> <Gold.Chemscore.Hbond>
1.2850

> <Gold.Chemscore.Metal>
0.0000

> <Gold.Chemscore.Lipo>
87.5851

> <Gold.Chemscore.Internal_Hbond>
0.0000

> <Gold.Chemscore.DEClash>
0.1936

> <Gold.Chemscore.DEInternal>
1.0734

> <Gold.Chemscore.Rot>
1.9169

> <Gold.Chemscore.Internal.Correction>
   9.000000E+99

> <Gold.Chemscore.Hbonds>
donor molecule, donor type, donor heavy atom, donor atom, acceptor molecule, acceptor atom, score
      L1  H     7    28       P1  8028  0.95
      P1  H  7989  7998       L1     9  0.08

> <Gold.Chemscore.Hbond.Weighted>
-4.2919

> <Gold.Chemscore.Metal.Weighted>
-0.0000

> <Gold.Chemscore.Lipo.Weighted>
-10.2475

> <Gold.Chemscore.Internal_Hbond.Weighted>
0.0000

> <Gold.Chemscore.DEClash.Weighted>
0.1936

> <Gold.Chemscore.DEInternal.Weighted>
1.0734

> <Gold.Chemscore.Rot.Weighted>
4.9073

> <Gold.Chemscore.Internal.Correction.Weighted>
   9.000000E+99

> <Gold.Protein.RotatedTorsions>
[ 6907 6896 6895 6894 ] final  -79.54 input  -60.11 | X-H torsion
[ 7974 7965 7964 7962 ] final  113.35 input  175.53 | X-H torsion
[ 8008 7997 7996 7995 ] final  -71.06 input   59.86 | X-H torsion
[ 10167 10162 10161 10158 ] final -124.97 input  -65.29 | X-H torsion
[ 10718 10713 10712 10709 ] final  -43.89 input   66.30 | X-H torsion
[ 10763 10752 10751 10750 ] final  -37.39 input  -60.55 | X-H torsion
[ 11005 11000 10999 10996 ] final -147.12 input  -57.11 | X-H torsion

> <Gold.Protein.ActiveResidues>
 VAL166  LYS551  ARG553  GLY616  TRP617  ASP618  TYR619  PRO620  LYS621  CYS622 
 ASP623  PHE694  ASN695  SER759  ASP760  ASP761  ALA762  ILE779  LEU786  VAL792 
 PHE793  MET794  SER795  GLU796  ALA797  LYS798  CYS799  TRP800  GLU811  SER814 

> <Gold.Protein.RotatedAtoms>
  150.6947  134.4105  159.5159 H   0  0  0  0  0  0  0  0  0  0  0  0  # atno 6907 bound_to 6896
  152.1864  134.8707  160.0531 H   0  0  0  0  0  0  0  0  0  0  0  0  # atno 6908 bound_to 6896
  151.9678  133.3681  159.4096 H   0  0  0  0  0  0  0  0  0  0  0  0  # atno 6909 bound_to 6896
  145.2180  139.2875  143.4233 H   0  0  0  0  0  0  0  0  0  0  0  0  # atno 7974 bound_to 7965
  154.5059  140.0822  156.7893 H   0  0  0  0  0  0  0  0  0  0  0  0  # atno 8008 bound_to 7997
  155.3895  140.3432  155.4232 H   0  0  0  0  0  0  0  0  0  0  0  0  # atno 8009 bound_to 7997
  156.1515  140.1560  156.8750 H   0  0  0  0  0  0  0  0  0  0  0  0  # atno 8010 bound_to 7997
  139.9871  143.5680  152.2356 H   0  0  0  0  0  0  0  0  0  0  0  0  # atno 10167 bound_to 10162
  156.2443  130.4182  149.8724 H   0  0  0  0  0  0  0  0  0  0  0  0  # atno 10718 bound_to 10713
  153.8956  135.6807  153.4758 H   0  0  0  0  0  0  0  0  0  0  0  0  # atno 10763 bound_to 10752
  153.1157  135.4762  154.9109 H   0  0  0  0  0  0  0  0  0  0  0  0  # atno 10764 bound_to 10752
  154.7601  135.3208  154.8349 H   0  0  0  0  0  0  0  0  0  0  0  0  # atno 10765 bound_to 10752
  140.7750  134.3145  157.5063 H   0  0  0  0  0  0  0  0  0  0  0  0  # atno 11005 bound_to 11000
  146.3382  140.2477  142.8597 LP  0  0  0  0  0  0  0  0  0  0  0  0  # atno 17320 bound_to 7965
  144.9792  140.8443  143.5407 LP  0  0  0  0  0  0  0  0  0  0  0  0  # atno 17321 bound_to 7965
  139.6367  144.7650  151.2424 LP  0  0  0  0  0  0  0  0  0  0  0  0  # atno 17342 bound_to 10162
  140.7468  143.6387  150.8355 LP  0  0  0  0  0  0  0  0  0  0  0  0  # atno 17343 bound_to 10162
  156.6295  130.8659  151.3492 LP  0  0  0  0  0  0  0  0  0  0  0  0  # atno 17370 bound_to 10713
  157.7188  130.9532  150.1358 LP  0  0  0  0  0  0  0  0  0  0  0  0  # atno 17371 bound_to 10713
  139.8750  134.9284  156.3449 LP  0  0  0  0  0  0  0  0  0  0  0  0  # atno 17394 bound_to 11000
  140.9538  133.7434  156.0307 LP  0  0  0  0  0  0  0  0  0  0  0  0  # atno 17395 bound_to 11000

$$$$
