AV-unprocessed.smi:2119|AV-procd|sdf|8632|dock9
  -GOLD-   2272011373D 1   1.00000     0.00000
 Structure written by MMmdl.
 47 49  0  0  0  0  0  0  0  0  1 V2000
  147.5929  133.1999  154.7372 O   0  0  0  0  0  0  0  0  0  0  0  0
  147.8960  134.0202  153.8713 C   0  0  0  0  0  0  0  0  0  0  0  0
  148.6860  135.0781  154.1017 N   0  0  0  0  0  0  0  0  0  0  0  0
  149.2565  135.4325  155.3989 C   0  0  0  0  0  0  0  0  0  0  0  0
  149.0363  136.9285  155.7888 C   0  0  2  0  0  0  0  0  0  0  0  0
  150.3776  137.7129  155.5808 C   0  0  1  0  0  0  0  0  0  0  0  0
  151.2466  137.4275  154.3680 C   0  0  0  0  0  0  0  0  0  0  0  0
  152.2295  138.5905  154.4236 C   0  0  0  0  0  0  0  0  0  0  0  0
  151.4609  139.6978  154.8816 O   0  0  0  0  0  0  0  0  0  0  0  0
  150.2458  139.2369  155.4688 C   0  0  0  0  0  0  0  0  0  0  0  0
  148.4160  137.1480  157.1206 N   0  0  0  0  0  0  0  0  0  0  0  0
  147.0726  136.5589  157.1978 C   0  0  0  0  0  0  0  0  0  0  0  0
  146.3767  136.8671  158.5335 C   0  0  0  0  0  0  0  0  0  0  0  0
  147.1693  136.3640  159.6021 O   0  0  0  0  0  0  0  0  0  0  0  0
  148.4845  136.9054  159.6049 C   0  0  0  0  0  0  0  0  0  0  0  0
  149.1740  136.6166  158.2586 C   0  0  0  0  0  0  0  0  0  0  0  0
  147.5014  133.9821  152.5872 N   0  0  0  0  0  0  0  0  0  0  0  0
  146.6236  133.0623  151.9516 C   0  0  0  0  0  0  0  0  0  0  0  0
  146.2004  131.8350  152.5178 C   0  0  0  0  0  0  0  0  0  0  0  0
  145.3120  131.0209  151.7889 C   0  0  0  0  0  0  0  0  0  0  0  0
  144.8730  131.4651  150.5266 C   0  0  0  0  0  0  0  0  0  0  0  0
  145.2578  132.6378  149.9807 N   0  0  0  0  0  0  0  0  0  0  0  0
  146.1099  133.4128  150.6850 C   0  0  0  0  0  0  0  0  0  0  0  0
  148.8917  135.6965  153.3306 H   0  0  0  0  0  0  0  0  0  0  0  0
  148.8113  134.7634  156.1363 H   0  0  0  0  0  0  0  0  0  0  0  0
  150.3204  135.1954  155.3731 H   0  0  0  0  0  0  0  0  0  0  0  0
  148.3362  137.3148  155.0464 H   0  0  0  0  0  0  0  0  0  0  0  0
  151.0123  137.5082  156.4445 H   0  0  0  0  0  0  0  0  0  0  0  0
  151.7364  136.4540  154.4012 H   0  0  0  0  0  0  0  0  0  0  0  0
  150.6795  137.5141  153.4413 H   0  0  0  0  0  0  0  0  0  0  0  0
  153.0213  138.3885  155.1461 H   0  0  0  0  0  0  0  0  0  0  0  0
  152.6935  138.7961  153.4587 H   0  0  0  0  0  0  0  0  0  0  0  0
  149.4188  139.5069  154.8107 H   0  0  0  0  0  0  0  0  0  0  0  0
  150.0797  139.7155  156.4341 H   0  0  0  0  0  0  0  0  0  0  0  0
  146.4318  136.8880  156.3868 H   0  0  0  0  0  0  0  0  0  0  0  0
  147.1451  135.4759  157.0847 H   0  0  0  0  0  0  0  0  0  0  0  0
  146.2226  137.9405  158.6526 H   0  0  0  0  0  0  0  0  0  0  0  0
  145.3948  136.3949  158.5675 H   0  0  0  0  0  0  0  0  0  0  0  0
  148.4407  137.9792  159.7924 H   0  0  0  0  0  0  0  0  0  0  0  0
  149.0504  136.4608  160.4234 H   0  0  0  0  0  0  0  0  0  0  0  0
  149.3142  135.5403  158.1457 H   0  0  0  0  0  0  0  0  0  0  0  0
  150.1652  137.0675  158.2991 H   0  0  0  0  0  0  0  0  0  0  0  0
  147.9019  134.6830  151.9808 H   0  0  0  0  0  0  0  0  0  0  0  0
  146.5227  131.5073  153.4937 H   0  0  0  0  0  0  0  0  0  0  0  0
  144.9708  130.0785  152.1910 H   0  0  0  0  0  0  0  0  0  0  0  0
  144.1904  130.8653  149.9432 H   0  0  0  0  0  0  0  0  0  0  0  0
  146.3935  134.3450  150.2185 H   0  0  0  0  0  0  0  0  0  0  0  0
  1  2  2  0  0  0  0
  2  3  1  0  0  0  0
  2 17  1  0  0  0  0
  3  4  1  0  0  0  0
  3 24  1  0  0  0  0
  4  5  1  0  0  0  0
  4 25  1  0  0  0  0
  4 26  1  0  0  0  0
  5  6  1  0  0  0  0
  5 11  1  0  0  0  0
  5 27  1  0  0  0  0
  6 10  1  0  0  0  0
  6  7  1  0  0  0  0
  6 28  1  0  0  0  0
  7  8  1  0  0  0  0
  7 29  1  0  0  0  0
  7 30  1  0  0  0  0
  8  9  1  0  0  0  0
  8 31  1  0  0  0  0
  8 32  1  0  0  0  0
  9 10  1  0  0  0  0
 10 33  1  0  0  0  0
 10 34  1  0  0  0  0
 11 16  1  0  0  0  0
 11 12  1  0  0  0  0
 12 13  1  0  0  0  0
 12 35  1  0  0  0  0
 12 36  1  0  0  0  0
 13 14  1  0  0  0  0
 13 37  1  0  0  0  0
 13 38  1  0  0  0  0
 14 15  1  0  0  0  0
 15 16  1  0  0  0  0
 15 39  1  0  0  0  0
 15 40  1  0  0  0  0
 16 41  1  0  0  0  0
 16 42  1  0  0  0  0
 17 18  1  0  0  0  0
 17 43  1  0  0  0  0
 18 23  1  0  0  0  0
 18 19  2  0  0  0  0
 19 20  1  0  0  0  0
 19 44  1  0  0  0  0
 20 21  2  0  0  0  0
 20 45  1  0  0  0  0
 21 22  1  0  0  0  0
 21 46  1  0  0  0  0
 22 23  2  0  0  0  0
 23 47  1  0  0  0  0
M  END
> <s_m_source_file>
AV-unprocessed.smi

> <i_m_source_file_index>
2119

> <i_lp_mmshare_version>
43012

> <i_f3d_flags>
0

> <s_epik_input>
W2NIXTFuW2NIXVtjSF1bY0hdYzFbTkhdQyg9TylbTkhdW0NIMl1bQ0BIXShbQ0BASF0yW0NIMl1bQ0gyXU9bQ0gyXTIpTjNbQ0gyXVtDSDJdT1tDSDJdW0NIMl0z

> <s_epik_cmdline>
J2VwaWtfcHl0aG9uJywgJy1waCcsICc3LjAnLCAnLXRuJywgJzgnLCAnLW1hJywgJzIwMCcsICctbWV0YWxfYmluZGluZycsICctaW1hZScsICc8aW5maWxlLm1hZT4nLCAnLW9tYWUnLCAnPG91dGZpbGUubWFlPic=

> <r_epik_Ionization_Penalty>
0.129787

> <r_epik_Ionization_Penalty_Charging>
0

> <r_epik_Ionization_Penalty_Neutral>
0.129787

> <r_epik_State_Penalty>
0.121311

> <r_epik_Charging_Adjusted_Penalty>
0.121311

> <i_epik_Tot_Q>
0

> <i_epik_Tot_abs_Q>
0

> <r_epik_Metal_State_Penalty>
0.117931

> <b_epik_Metal_Only>
0

> <s_lp_Force_Field>
OPLS_2005

> <r_lp_Energy>
58.2648

> <b_lp_Chiralities_Consistent>
1

> <s_lp_Variant>
AV-unprocessed.smi:2119-3

> <Gold.Version>
5.8.1

> <Gold.Id.Protein>
6NUR|6NUR_protein|mol2

> <Gold.PLP.Fitness>
38.5584

> <Gold.PLP.PLP>
-29.8874

> <Gold.PLP.part.hbond>
-2.9363

> <Gold.PLP.part.metal>
0.0000

> <Gold.PLP.part.buried>
-4.6115

> <Gold.PLP.part.nonpolar>
-22.0268

> <Gold.PLP.part.repulsive>
0.2414

> <Gold.PLP.ligand.clash>
0.0000

> <Gold.PLP.ligand.torsion>
1.0237

> <Gold.PLP.Chemscore.Hbond>
2.9760

> <Gold.PLP.Chemscore.CHOScore>
0.5443

> <Gold.PLP.Chemscore.Metal>
0.0000

> <Gold.Chemscore.Hbonds>
donor molecule, donor type, donor heavy atom, donor atom, acceptor molecule, acceptor atom, score
      L1  H     3    24       P1  7948  1.00
      L1  H    17    43       P1  7948  0.96
      P1  H  7989  7998       L1     9  1.00
      L1  C    23    47       P1  7921  0.54

> <Gold.PLP.Chemscore.Internal.Correction>
0.1576

> <Gold.Rescore>
     Score         DG    S(hbond)    S(metal)    S(lipo)     H(rot)  DE(clash)    DE(int)     intcor
     16.27     -18.96       2.55        0.00      78.68       1.65       0.08       2.62       ----

> <Gold.Chemscore.Fitness>
16.2687

> <Gold.Chemscore.DG>
-18.9646

> <Gold.Chemscore.ZeroCoef>
-5.4800

> <Gold.Chemscore.Hbond>
2.5466

> <Gold.Chemscore.Metal>
0.0000

> <Gold.Chemscore.Lipo>
78.6758

> <Gold.Chemscore.Internal_Hbond>
0.0000

> <Gold.Chemscore.DEClash>
0.0756

> <Gold.Chemscore.DEInternal>
2.6203

> <Gold.Chemscore.Rot>
1.6508

> <Gold.Chemscore.Internal.Correction>
   9.000000E+99

> <Gold.Chemscore.Hbonds>
donor molecule, donor type, donor heavy atom, donor atom, acceptor molecule, acceptor atom, score
      L1  H     3    24       P1  7948  0.85
      L1  H    17    43       P1  7948  0.32
      P1  H  7989  7998       L1     9  0.30

> <Gold.Chemscore.Hbond.Weighted>
-8.5057

> <Gold.Chemscore.Metal.Weighted>
-0.0000

> <Gold.Chemscore.Lipo.Weighted>
-9.2051

> <Gold.Chemscore.Internal_Hbond.Weighted>
0.0000

> <Gold.Chemscore.DEClash.Weighted>
0.0756

> <Gold.Chemscore.DEInternal.Weighted>
2.6203

> <Gold.Chemscore.Rot.Weighted>
4.2262

> <Gold.Chemscore.Internal.Correction.Weighted>
   9.000000E+99

> <Gold.Protein.RotatedTorsions>
[ 6907 6896 6895 6894 ] final  -24.35 input  -60.11 | X-H torsion
[ 7974 7965 7964 7962 ] final -149.74 input  175.53 | X-H torsion
[ 8008 7997 7996 7995 ] final   52.29 input   59.86 | X-H torsion
[ 10167 10162 10161 10158 ] final -123.37 input  -65.29 | X-H torsion
[ 10718 10713 10712 10709 ] final  -92.24 input   66.30 | X-H torsion
[ 10763 10752 10751 10750 ] final  -50.96 input  -60.55 | X-H torsion
[ 11005 11000 10999 10996 ] final -174.22 input  -57.11 | X-H torsion

> <Gold.Protein.ActiveResidues>
 VAL166  LYS551  ARG553  GLY616  TRP617  ASP618  TYR619  PRO620  LYS621  CYS622 
 ASP623  PHE694  ASN695  SER759  ASP760  ASP761  ALA762  ILE779  LEU786  VAL792 
 PHE793  MET794  SER795  GLU796  ALA797  LYS798  CYS799  TRP800  GLU811  SER814 

> <Gold.Protein.RotatedAtoms>
  151.1908  135.0401  159.8831 H   0  0  0  0  0  0  0  0  0  0  0  0  # atno 6907 bound_to 6896
  152.5439  134.0958  159.8307 H   0  0  0  0  0  0  0  0  0  0  0  0  # atno 6908 bound_to 6896
  151.1087  133.5142  159.2639 H   0  0  0  0  0  0  0  0  0  0  0  0  # atno 6909 bound_to 6896
  144.7949  140.5024  143.5747 H   0  0  0  0  0  0  0  0  0  0  0  0  # atno 7974 bound_to 7965
  155.4493  140.3457  155.4299 H   0  0  0  0  0  0  0  0  0  0  0  0  # atno 8008 bound_to 7997
  156.1230  140.1492  156.9207 H   0  0  0  0  0  0  0  0  0  0  0  0  # atno 8009 bound_to 7997
  154.4837  140.0862  156.7417 H   0  0  0  0  0  0  0  0  0  0  0  0  # atno 8010 bound_to 7997
  140.0042  143.5509  152.2291 H   0  0  0  0  0  0  0  0  0  0  0  0  # atno 10167 bound_to 10162
  156.0000  130.4979  150.5595 H   0  0  0  0  0  0  0  0  0  0  0  0  # atno 10718 bound_to 10713
  154.1189  135.6538  153.4899 H   0  0  0  0  0  0  0  0  0  0  0  0  # atno 10763 bound_to 10752
  153.0232  135.5265  154.7117 H   0  0  0  0  0  0  0  0  0  0  0  0  # atno 10764 bound_to 10752
  154.6319  135.2977  155.0177 H   0  0  0  0  0  0  0  0  0  0  0  0  # atno 10765 bound_to 10752
  140.4770  134.6112  157.4904 H   0  0  0  0  0  0  0  0  0  0  0  0  # atno 11005 bound_to 11000
  145.5699  139.1483  143.3294 LP  0  0  0  0  0  0  0  0  0  0  0  0  # atno 17320 bound_to 7965
  146.2214  140.5832  142.9015 LP  0  0  0  0  0  0  0  0  0  0  0  0  # atno 17321 bound_to 7965
  139.6250  144.7635  151.2657 LP  0  0  0  0  0  0  0  0  0  0  0  0  # atno 17342 bound_to 10162
  140.7407  143.6580  150.8190 LP  0  0  0  0  0  0  0  0  0  0  0  0  # atno 17343 bound_to 10162
  157.3507  131.0733  151.1716 LP  0  0  0  0  0  0  0  0  0  0  0  0  # atno 17370 bound_to 10713
  157.2533  130.6624  149.5941 LP  0  0  0  0  0  0  0  0  0  0  0  0  # atno 17371 bound_to 10713
  139.9850  134.7076  155.9790 LP  0  0  0  0  0  0  0  0  0  0  0  0  # atno 17394 bound_to 11000
  141.1550  133.6544  156.4132 LP  0  0  0  0  0  0  0  0  0  0  0  0  # atno 17395 bound_to 11000

$$$$
