#       Name:                AV-unprocessed.smi:1268
#       Creating user name   scv26
#       Creation time:       Fri Mar 27 04:45:12 2020


#       File generated by GOLD software.
#

@<TRIPOS>MOLECULE
AV-unprocessed.smi:1268
    45    46     1
SMALL
NO_CHARGES


@<TRIPOS>ATOM
      1 ****        -4.0735   0.7501  -0.7771 O.2            1 S1                 0.0000
      2 ****        -3.2910   1.5584  -0.2728 C.2            1 S1                 0.0000
      3 ****        -2.0289   1.1936  -0.0144 N.am           1 S1                 0.0000
      4 ****        -1.4548  -0.1154  -0.2993 C.3            1 S1                 0.0000
      5 ****         0.0804  -0.0616  -0.2305 C.3            1 S1                 0.0000
      6 ****         0.5509   0.5494  -1.4165 O.3            1 S1                 0.0000
      7 ****         0.6923  -1.4749  -0.1606 C.3            1 S1                 0.0000
      8 ****         2.1731  -1.4499  -0.0451 N.4            1 S1                 1.0000
      9 ****         2.8009  -2.6873  -0.5768 C.3            1 S1                 0.0000
     10 ****         4.3347  -2.5734  -0.5846 C.3            1 S1                 0.0000
     11 ****         4.8690  -2.2518   0.8168 C.3            1 S1                 0.0000
     12 ****         4.1836  -0.9923   1.3617 C.3            1 S1                 0.0000
     13 ****         2.6527  -1.1384   1.3283 C.3            1 S1                 0.0000
     14 ****        -3.5644   2.8380   0.0667 N.pl3          1 S1                -1.0000
     15 ****        -4.7882   3.3454  -0.1546 C.2            1 S1                 0.0000
     16 ****        -5.7163   3.4570   0.8026 N.2            1 S1                 0.0000
     17 ****        -6.9129   4.0183   0.3527 C.2            1 S1                 0.0000
     18 ****        -6.8924   4.3506  -0.9758 C.2            1 S1                 0.0000
     19 ****        -5.3602   3.9655  -1.7061 S.3            1 S1                 0.0000
     20 ****        -1.4233   1.8835   0.4050 H              1 S1                 0.0000
     21 ****        -1.8364  -0.8068   0.4532 H              1 S1                 0.0000
     22 ****        -1.7860  -0.4902  -1.2697 H              1 S1                 0.0000
     23 ****         0.3857   0.5332   0.6304 H              1 S1                 0.0000
     24 ****         0.1205   1.3866  -1.5111 H              1 S1                 0.0000
     25 ****         0.2762  -2.0341   0.6788 H              1 S1                 0.0000
     26 ****         0.4000  -2.0196  -1.0602 H              1 S1                 0.0000
     27 ****         2.4881  -3.5428   0.0240 H              1 S1                 0.0000
     28 ****         2.4534  -2.8692  -1.5945 H              1 S1                 0.0000
     29 ****         4.7759  -3.5020  -0.9477 H              1 S1                 0.0000
     30 ****         4.6403  -1.7919  -1.2815 H              1 S1                 0.0000
     31 ****         4.6816  -3.0930   1.4854 H              1 S1                 0.0000
     32 ****         5.9499  -2.1107   0.7856 H              1 S1                 0.0000
     33 ****         4.5179  -0.7990   2.3814 H              1 S1                 0.0000
     34 ****         4.4817  -0.1265   0.7689 H              1 S1                 0.0000
     35 ****         2.2027  -0.2142   1.6886 H              1 S1                 0.0000
     36 ****         2.3383  -1.9287   2.0119 H              1 S1                 0.0000
     37 ****        -7.7283   4.1463   1.0489 H              1 S1                 0.0000
     38 ****        -7.6786   4.7967  -1.5658 H              1 S1                 0.0000
     39 ****         2.4847  -0.6990  -0.6451 H              1 S1                 0.0000
     40 ****        -3.7653  -0.1765  -0.9926 LP             1 S1                 0.0000
     41 ****        -5.0164   1.0211  -0.9707 LP             1 S1                 0.0000
     42 ****         0.3383  -0.0307  -2.2028 LP             1 S1                 0.0000
     43 ****         1.5403   0.6827  -1.3585 LP             1 S1                 0.0000
     44 ****        -2.8552   3.4071   0.4828 LP             1 S1                 0.0000
     45 ****        -5.5675   3.1667   1.7479 LP             1 S1                 0.0000
@<TRIPOS>BOND
    1    1    2 2     
    2    2    3 am    
    3    2   14 1     
    4    3    4 1     
    5    3   20 1     
    6    4    5 1     
    7    4   21 1     
    8    4   22 1     
    9    5    6 1     
   10    5    7 1     
   11    5   23 1     
   12    6   24 1     
   13    7    8 1     
   14    7   25 1     
   15    7   26 1     
   16    8   13 1     
   17    8    9 1     
   18    8   39 1     
   19    9   10 1     
   20    9   27 1     
   21    9   28 1     
   22   10   11 1     
   23   10   29 1     
   24   10   30 1     
   25   11   12 1     
   26   11   31 1     
   27   11   32 1     
   28   12   13 1     
   29   12   33 1     
   30   12   34 1     
   31   13   35 1     
   32   13   36 1     
   33   14   15 1     
   34   15   19 1     
   35   15   16 2     
   36   16   17 1     
   37   17   18 2     
   38   17   37 1     
   39   18   19 1     
   40   18   38 1     
   41    1   40 1     
   42    1   41 1     
   43    6   42 1     
   44    6   43 1     
   45   14   44 1     
   46   16   45 1     
@<TRIPOS>SUBSTRUCTURE
      1 S1             1
@<TRIPOS>SET
LONE_PAIRS      STATIC     ATOMS    <user>   **** ""
6 40 41 42 43 44 45
DONOR_HYDROGENS      STATIC     ATOMS    <user>   **** ""
3 20 24 39
ATOM$BLUE        STATIC     ATOMS    COLORGROUP SYSTEM
6 40 41 42 43 44 45
ATOM$RED        STATIC     ATOMS    COLORGROUP SYSTEM
3 20 24 39
