AV-unprocessed.smi:1071|AV-procd|sdf|4679|dock7
  -GOLD-   22720 3193D 1   1.00000     0.00000
 Structure written by MMmdl.
 47 48  0  0  0  0  0  0  0  0  2 V2000
  151.4707  144.1164  158.0509 C   0  0  0  0  0  0  0  0  0  0  0  0
  150.7033  142.9627  157.7446 O   0  0  0  0  0  0  0  0  0  0  0  0
  151.0265  142.3699  156.4944 C   0  0  0  0  0  0  0  0  0  0  0  0
  150.1043  141.1867  156.1661 C   0  0  0  0  0  0  0  0  0  0  0  0
  149.3748  141.4945  154.9823 O   0  0  0  0  0  0  0  0  0  0  0  0
  148.5289  140.5365  154.4617 C   0  0  0  0  0  0  0  0  0  0  0  0
  148.6575  139.2077  154.9127 C   0  0  0  0  0  0  0  0  0  0  0  0
  147.7977  138.2237  154.3883 C   0  0  0  0  0  0  0  0  0  0  0  0
  146.8268  138.6039  153.4315 C   0  0  0  0  0  0  0  0  0  0  0  0
  145.9177  137.7035  152.8135 N   0  0  0  0  0  0  0  0  0  0  0  0
  145.3286  136.6093  153.3357 C   0  0  0  0  0  0  0  0  0  0  0  0
  145.4400  136.2954  154.5211 O   0  0  0  0  0  0  0  0  0  0  0  0
  144.5264  135.9331  152.4678 N   0  0  0  0  0  0  0  0  0  0  0  0
  144.4080  136.2239  151.0223 C   0  0  0  0  0  0  0  0  0  0  0  0
  144.6558  134.9684  150.1730 C   0  0  0  0  0  0  0  0  0  0  0  0
  143.7595  133.8659  150.5828 N   0  3  1  0  0  0  0  0  0  0  0  0
  143.8998  132.6716  149.7224 C   0  0  0  0  0  0  0  0  0  0  0  0
  143.8976  133.5474  152.0215 C   0  0  0  0  0  0  0  0  0  0  0  0
  143.7042  134.7884  152.9190 C   0  0  2  0  0  0  0  0  0  0  0  0
  142.2305  135.2011  153.0797 C   0  0  0  0  0  0  0  0  0  0  0  0
  146.7911  139.9565  153.0345 C   0  0  0  0  0  0  0  0  0  0  0  0
  147.6114  140.9045  153.5336 N   0  0  0  0  0  0  0  0  0  0  0  0
  151.1917  144.4854  159.0377 H   0  0  0  0  0  0  0  0  0  0  0  0
  151.2980  144.9214  157.3369 H   0  0  0  0  0  0  0  0  0  0  0  0
  152.5370  143.8876  158.0697 H   0  0  0  0  0  0  0  0  0  0  0  0
  151.0201  143.1107  155.6934 H   0  0  0  0  0  0  0  0  0  0  0  0
  152.0513  142.0053  156.5699 H   0  0  0  0  0  0  0  0  0  0  0  0
  150.7054  140.2895  156.0095 H   0  0  0  0  0  0  0  0  0  0  0  0
  149.4190  140.9969  156.9927 H   0  0  0  0  0  0  0  0  0  0  0  0
  149.4066  138.9463  155.6455 H   0  0  0  0  0  0  0  0  0  0  0  0
  147.9095  137.2022  154.7175 H   0  0  0  0  0  0  0  0  0  0  0  0
  145.6490  137.9422  151.8701 H   0  0  0  0  0  0  0  0  0  0  0  0
  143.4081  136.6123  150.8266 H   0  0  0  0  0  0  0  0  0  0  0  0
  145.0930  136.9937  150.6671 H   0  0  0  0  0  0  0  0  0  0  0  0
  144.4914  135.2010  149.1203 H   0  0  0  0  0  0  0  0  0  0  0  0
  145.6952  134.6503  150.2708 H   0  0  0  0  0  0  0  0  0  0  0  0
  144.9006  132.2453  149.8039 H   0  0  0  0  0  0  0  0  0  0  0  0
  143.7205  132.9262  148.6773 H   0  0  0  0  0  0  0  0  0  0  0  0
  143.1778  131.9051  150.0059 H   0  0  0  0  0  0  0  0  0  0  0  0
  143.1851  132.7691  152.2991 H   0  0  0  0  0  0  0  0  0  0  0  0
  144.8925  133.1319  152.1914 H   0  0  0  0  0  0  0  0  0  0  0  0
  144.0175  134.4603  153.9109 H   0  0  0  0  0  0  0  0  0  0  0  0
  141.6404  134.3845  153.4962 H   0  0  0  0  0  0  0  0  0  0  0  0
  141.7792  135.4786  152.1271 H   0  0  0  0  0  0  0  0  0  0  0  0
  142.1328  136.0518  153.7550 H   0  0  0  0  0  0  0  0  0  0  0  0
  146.0781  140.2923  152.2957 H   0  0  0  0  0  0  0  0  0  0  0  0
  142.8160  134.2032  150.4556 H   0  0  0  0  0  0  0  0  0  0  0  0
  1  2  1  0  0  0  0
  1 23  1  0  0  0  0
  1 24  1  0  0  0  0
  1 25  1  0  0  0  0
  2  3  1  0  0  0  0
  3  4  1  0  0  0  0
  3 26  1  0  0  0  0
  3 27  1  0  0  0  0
  4  5  1  0  0  0  0
  4 28  1  0  0  0  0
  4 29  1  0  0  0  0
  5  6  1  0  0  0  0
  6 22  1  0  0  0  0
  6  7  2  0  0  0  0
  7  8  1  0  0  0  0
  7 30  1  0  0  0  0
  8  9  2  0  0  0  0
  8 31  1  0  0  0  0
  9 10  1  0  0  0  0
  9 21  1  0  0  0  0
 10 11  1  0  0  0  0
 10 32  1  0  0  0  0
 11 12  2  0  0  0  0
 11 13  1  0  0  0  0
 13 19  1  0  0  0  0
 13 14  1  0  0  0  0
 14 15  1  0  0  0  0
 14 33  1  0  0  0  0
 14 34  1  0  0  0  0
 15 16  1  0  0  0  0
 15 35  1  0  0  0  0
 15 36  1  0  0  0  0
 16 17  1  0  0  0  0
 16 18  1  0  0  0  0
 16 47  1  0  0  0  0
 17 37  1  0  0  0  0
 17 38  1  0  0  0  0
 17 39  1  0  0  0  0
 18 19  1  0  0  0  0
 18 40  1  0  0  0  0
 18 41  1  0  0  0  0
 19 20  1  0  0  0  0
 19 42  1  0  0  0  0
 20 43  1  0  0  0  0
 20 44  1  0  0  0  0
 20 45  1  0  0  0  0
 21 22  2  0  0  0  0
 21 46  1  0  0  0  0
M  CHG  1  16   1
M  END
> <s_m_source_file>
AV-unprocessed.smi

> <i_m_source_file_index>
1071

> <i_lp_mmshare_version>
43012

> <i_f3d_flags>
0

> <s_epik_input>
W0NIM11PW0NIMl1bQ0gyXU9jMVtjSF1bY0hdYyhbY0hdbjEpW05IXUMoPU8pTjJbQ0gyXVtDSDJdTihbQ0gzXSlbQ0gyXVtDQEhdMltDSDNd

> <s_epik_cmdline>
J2VwaWtfcHl0aG9uJywgJy1waCcsICc3LjAnLCAnLXRuJywgJzgnLCAnLW1hJywgJzIwMCcsICctbWV0YWxfYmluZGluZycsICctaW1hZScsICc8aW5maWxlLm1hZT4nLCAnLW9tYWUnLCAnPG91dGZpbGUubWFlPic=

> <r_lp_tautomer_probability>
1

> <r_epik_Ionization_Penalty>
0.25455

> <r_epik_Ionization_Penalty_Charging>
0.254506

> <r_epik_Ionization_Penalty_Neutral>
4.43365e-05

> <r_epik_State_Penalty>
0.245983

> <r_epik_Charging_Adjusted_Penalty>
0.500488

> <i_epik_Tot_Q>
1

> <i_epik_Tot_abs_Q>
1

> <r_epik_Metal_State_Penalty>
0.245987

> <b_epik_Metal_Only>
0

> <s_lp_Force_Field>
OPLS_2005

> <r_lp_Energy>
58.5188

> <b_lp_Chiralities_Consistent>
1

> <s_lp_Variant>
AV-unprocessed.smi:1071-3

> <Gold.Version>
5.8.1

> <Gold.Id.Protein>
6NUR|6NUR_protein|mol2

> <Gold.PLP.Fitness>
38.4855

> <Gold.PLP.PLP>
-31.0584

> <Gold.PLP.part.hbond>
-1.1001

> <Gold.PLP.part.metal>
0.0000

> <Gold.PLP.part.buried>
-2.9366

> <Gold.PLP.part.nonpolar>
-28.8147

> <Gold.PLP.part.repulsive>
0.4798

> <Gold.PLP.ligand.clash>
0.0000

> <Gold.PLP.ligand.torsion>
0.8055

> <Gold.PLP.Chemscore.Hbond>
2.0000

> <Gold.PLP.Chemscore.CHOScore>
0.9974

> <Gold.PLP.Chemscore.Metal>
0.0000

> <Gold.Chemscore.Hbonds>
donor molecule, donor type, donor heavy atom, donor atom, acceptor molecule, acceptor atom, score
      L1  H    16    47       P1 10186  2.00
      L1  C    21    46       P1 10175  1.00

> <Gold.PLP.Chemscore.Internal.Correction>
0.0460

> <Gold.Rescore>
     Score         DG    S(hbond)    S(metal)    S(lipo)     H(rot)  DE(clash)    DE(int)     intcor
     11.34     -15.01       0.94        0.00      89.79       1.60       2.80       0.86       ----

> <Gold.Chemscore.Fitness>
11.3448

> <Gold.Chemscore.DG>
-15.0062

> <Gold.Chemscore.ZeroCoef>
-5.4800

> <Gold.Chemscore.Hbond>
0.9365

> <Gold.Chemscore.Metal>
0.0000

> <Gold.Chemscore.Lipo>
89.7940

> <Gold.Chemscore.Internal_Hbond>
0.0000

> <Gold.Chemscore.DEClash>
2.7968

> <Gold.Chemscore.DEInternal>
0.8646

> <Gold.Chemscore.Rot>
1.6045

> <Gold.Chemscore.Internal.Correction>
   9.000000E+99

> <Gold.Chemscore.Hbonds>
donor molecule, donor type, donor heavy atom, donor atom, acceptor molecule, acceptor atom, score
      L1  H    16    47       P1 10186  0.76

> <Gold.Chemscore.Hbond.Weighted>
-3.1278

> <Gold.Chemscore.Metal.Weighted>
-0.0000

> <Gold.Chemscore.Lipo.Weighted>
-10.5059

> <Gold.Chemscore.Internal_Hbond.Weighted>
0.0000

> <Gold.Chemscore.DEClash.Weighted>
2.7968

> <Gold.Chemscore.DEInternal.Weighted>
0.8646

> <Gold.Chemscore.Rot.Weighted>
4.1075

> <Gold.Chemscore.Internal.Correction.Weighted>
   9.000000E+99

> <Gold.Protein.RotatedTorsions>
[ 6907 6896 6895 6894 ] final  165.61 input  -60.11 | X-H torsion
[ 7974 7965 7964 7962 ] final   78.14 input  175.53 | X-H torsion
[ 8008 7997 7996 7995 ] final  121.87 input   59.86 | X-H torsion
[ 10167 10162 10161 10158 ] final -167.12 input  -65.29 | X-H torsion
[ 10718 10713 10712 10709 ] final    7.22 input   66.30 | X-H torsion
[ 10763 10752 10751 10750 ] final   59.71 input  -60.55 | X-H torsion
[ 11005 11000 10999 10996 ] final  -70.07 input  -57.11 | X-H torsion

> <Gold.Protein.ActiveResidues>
 VAL166  LYS551  ARG553  GLY616  TRP617  ASP618  TYR619  PRO620  LYS621  CYS622 
 ASP623  PHE694  ASN695  SER759  ASP760  ASP761  ALA762  ILE779  LEU786  VAL792 
 PHE793  MET794  SER795  GLU796  ALA797  LYS798  CYS799  TRP800  GLU811  SER814 

> <Gold.Protein.RotatedAtoms>
  151.8917  133.3517  159.3800 H   0  0  0  0  0  0  0  0  0  0  0  0  # atno 6907 bound_to 6896
  150.7101  134.4917  159.5528 H   0  0  0  0  0  0  0  0  0  0  0  0  # atno 6908 bound_to 6896
  152.2489  134.8154  160.0500 H   0  0  0  0  0  0  0  0  0  0  0  0  # atno 6909 bound_to 6896
  145.6810  139.2524  143.1814 H   0  0  0  0  0  0  0  0  0  0  0  0  # atno 7974 bound_to 7965
  156.2705  140.2798  156.1378 H   0  0  0  0  0  0  0  0  0  0  0  0  # atno 8008 bound_to 7997
  155.0986  140.0389  157.2708 H   0  0  0  0  0  0  0  0  0  0  0  0  # atno 8009 bound_to 7997
  154.6833  140.2613  155.6892 H   0  0  0  0  0  0  0  0  0  0  0  0  # atno 8010 bound_to 7997
  139.6070  144.0892  152.1803 H   0  0  0  0  0  0  0  0  0  0  0  0  # atno 10167 bound_to 10162
  156.9337  130.5835  149.5650 H   0  0  0  0  0  0  0  0  0  0  0  0  # atno 10718 bound_to 10713
  152.9901  135.5562  154.5757 H   0  0  0  0  0  0  0  0  0  0  0  0  # atno 10763 bound_to 10752
  154.5148  135.2804  155.1314 H   0  0  0  0  0  0  0  0  0  0  0  0  # atno 10764 bound_to 10752
  154.2691  135.6366  153.5356 H   0  0  0  0  0  0  0  0  0  0  0  0  # atno 10765 bound_to 10752
  141.1567  133.6780  156.6696 H   0  0  0  0  0  0  0  0  0  0  0  0  # atno 11005 bound_to 11000
  146.0964  140.7596  142.9570 LP  0  0  0  0  0  0  0  0  0  0  0  0  # atno 17320 bound_to 7965
  144.7026  140.3718  143.7144 LP  0  0  0  0  0  0  0  0  0  0  0  0  # atno 17321 bound_to 7965
  140.0502  144.5938  150.7342 LP  0  0  0  0  0  0  0  0  0  0  0  0  # atno 17342 bound_to 10162
  140.7292  143.2670  151.4013 LP  0  0  0  0  0  0  0  0  0  0  0  0  # atno 17343 bound_to 10162
  156.0436  130.5515  150.8828 LP  0  0  0  0  0  0  0  0  0  0  0  0  # atno 17370 bound_to 10713
  157.5830  131.0946  150.9240 LP  0  0  0  0  0  0  0  0  0  0  0  0  # atno 17371 bound_to 10713
  140.3185  134.8027  157.4233 LP  0  0  0  0  0  0  0  0  0  0  0  0  # atno 17394 bound_to 11000
  140.1117  134.5336  155.8260 LP  0  0  0  0  0  0  0  0  0  0  0  0  # atno 17395 bound_to 11000

$$$$
