AV-unprocessed.smi:2741|AV-procd|sdf|10559|dock4
  -GOLD-   2272015 13D 1   1.00000     0.00000
 Structure written by MMmdl.
 39 40  0  0  0  0  0  0  0  0  1 V2000
  148.9774  140.2204  156.5732 O   0  0  0  0  0  0  0  0  0  0  0  0
  149.2348  141.2919  156.0233 C   0  0  0  0  0  0  0  0  0  0  0  0
  150.6846  141.7803  155.9050 C   0  0  0  0  0  0  0  0  0  0  0  0
  151.3624  141.8736  157.2090 N   0  0  0  0  0  0  0  0  0  0  0  0
  151.1248  143.0298  157.9785 C   0  0  0  0  0  0  0  0  0  0  0  0
  151.6718  143.2266  159.1934 C   0  0  0  0  0  0  0  0  0  0  0  0
  151.4340  144.5089  159.9758 C   0  0  0  0  0  0  0  0  0  0  0  0
  151.9823  145.5578  159.3619 F   0  0  0  0  0  0  0  0  0  0  0  0
  150.1296  144.7445  160.1227 F   0  0  0  0  0  0  0  0  0  0  0  0
  151.9751  144.4070  161.1889 F   0  0  0  0  0  0  0  0  0  0  0  0
  152.5624  142.1892  159.6761 C   0  0  0  0  0  0  0  0  0  0  0  0
  152.8059  141.0807  158.9498 C   0  0  0  0  0  0  0  0  0  0  0  0
  152.1857  140.8708  157.6398 C   0  0  0  0  0  0  0  0  0  0  0  0
  152.3936  139.8578  156.9708 O   0  0  0  0  0  0  0  0  0  0  0  0
  148.2954  142.1001  155.5103 N   0  0  0  0  0  0  0  0  0  0  0  0
  146.8656  141.8123  155.4806 C   0  0  0  0  0  0  0  0  0  0  0  0
  146.1016  142.5575  156.5931 C   0  0  1  0  0  0  0  0  0  0  0  0
  144.6196  142.1534  156.7044 C   0  0  0  0  0  0  0  0  0  0  0  0
  144.2860  142.1082  158.2042 C   0  0  0  0  0  0  0  0  0  0  0  0
  145.5023  142.7079  158.9142 C   0  0  1  0  0  0  0  0  0  0  0  0
  145.6670  142.1964  160.2202 O   0  0  0  0  0  0  0  0  0  0  0  0
  146.6744  142.3561  158.0017 C   0  0  0  0  0  0  0  0  0  0  0  0
  151.2458  141.1183  155.2423 H   0  0  0  0  0  0  0  0  0  0  0  0
  150.6754  142.7475  155.4013 H   0  0  0  0  0  0  0  0  0  0  0  0
  150.4629  143.7493  157.5188 H   0  0  0  0  0  0  0  0  0  0  0  0
  153.0399  142.2989  160.6388 H   0  0  0  0  0  0  0  0  0  0  0  0
  153.4727  140.3267  159.3420 H   0  0  0  0  0  0  0  0  0  0  0  0
  148.5949  142.9652  155.0844 H   0  0  0  0  0  0  0  0  0  0  0  0
  146.4553  142.0671  154.5020 H   0  0  0  0  0  0  0  0  0  0  0  0
  146.7385  140.7355  155.5979 H   0  0  0  0  0  0  0  0  0  0  0  0
  146.1289  143.6279  156.3816 H   0  0  0  0  0  0  0  0  0  0  0  0
  143.9887  142.8724  156.1807 H   0  0  0  0  0  0  0  0  0  0  0  0
  144.4353  141.1773  156.2543 H   0  0  0  0  0  0  0  0  0  0  0  0
  143.3659  142.6420  158.4439 H   0  0  0  0  0  0  0  0  0  0  0  0
  144.1482  141.0686  158.5057 H   0  0  0  0  0  0  0  0  0  0  0  0
  145.3966  143.7925  158.9665 H   0  0  0  0  0  0  0  0  0  0  0  0
  144.8211  141.9342  160.5498 H   0  0  0  0  0  0  0  0  0  0  0  0
  146.9626  141.3128  158.1424 H   0  0  0  0  0  0  0  0  0  0  0  0
  147.5521  142.9753  158.1913 H   0  0  0  0  0  0  0  0  0  0  0  0
  1  2  2  0  0  0  0
  2  3  1  0  0  0  0
  2 15  1  0  0  0  0
  3  4  1  0  0  0  0
  3 23  1  0  0  0  0
  3 24  1  0  0  0  0
  4 13  1  0  0  0  0
  4  5  1  0  0  0  0
  5  6  2  0  0  0  0
  5 25  1  0  0  0  0
  6  7  1  0  0  0  0
  6 11  1  0  0  0  0
  7  8  1  0  0  0  0
  7  9  1  0  0  0  0
  7 10  1  0  0  0  0
 11 12  2  0  0  0  0
 11 26  1  0  0  0  0
 12 13  1  0  0  0  0
 12 27  1  0  0  0  0
 13 14  2  0  0  0  0
 15 16  1  0  0  0  0
 15 28  1  0  0  0  0
 16 17  1  0  0  0  0
 16 29  1  0  0  0  0
 16 30  1  0  0  0  0
 17 22  1  0  0  0  0
 17 18  1  0  0  0  0
 17 31  1  0  0  0  0
 18 19  1  0  0  0  0
 18 32  1  0  0  0  0
 18 33  1  0  0  0  0
 19 20  1  0  0  0  0
 19 34  1  0  0  0  0
 19 35  1  0  0  0  0
 20 21  1  0  0  0  0
 20 22  1  0  0  0  0
 20 36  1  0  0  0  0
 21 37  1  0  0  0  0
 22 38  1  0  0  0  0
 22 39  1  0  0  0  0
M  END
> <s_m_source_file>
AV-unprocessed.smi

> <i_m_source_file_index>
2741

> <i_lp_mmshare_version>
43012

> <i_f3d_flags>
0

> <s_epik_input>
W09IXVtDQEBIXShbQ0gyXTEpW0NIMl1bQ0gyXVtDQEhdMVtDSDJdW05IXUMoPU8pW0NIMl1uMltjSF1jKEMoRikoRilGKVtjSF1bY0hdYzI9Tw==

> <s_epik_cmdline>
J2VwaWtfcHl0aG9uJywgJy1waCcsICc3LjAnLCAnLXRuJywgJzgnLCAnLW1hJywgJzIwMCcsICctbWV0YWxfYmluZGluZycsICctaW1hZScsICc8aW5maWxlLm1hZT4nLCAnLW9tYWUnLCAnPG91dGZpbGUubWFlPic=

> <r_lp_tautomer_probability>
1

> <r_epik_Ionization_Penalty>
1.17551e-06

> <r_epik_Ionization_Penalty_Charging>
1.78841e-08

> <r_epik_Ionization_Penalty_Neutral>
1.15762e-06

> <r_epik_State_Penalty>
-0

> <r_epik_Charging_Adjusted_Penalty>
1.78841e-08

> <i_epik_Tot_Q>
0

> <i_epik_Tot_abs_Q>
0

> <r_epik_Metal_State_Penalty>
-0

> <b_epik_Metal_Only>
0

> <s_lp_Force_Field>
OPLS_2005

> <r_lp_Energy>
32.8711

> <b_lp_Chiralities_Consistent>
1

> <s_lp_Variant>
AV-unprocessed.smi:2741-2

> <Gold.Version>
5.8.1

> <Gold.Id.Protein>
6NUR|6NUR_protein|mol2

> <Gold.PLP.Fitness>
49.6292

> <Gold.PLP.PLP>
-40.0086

> <Gold.PLP.part.hbond>
-3.0000

> <Gold.PLP.part.metal>
0.0000

> <Gold.PLP.part.buried>
-5.7635

> <Gold.PLP.part.nonpolar>
-30.4898

> <Gold.PLP.part.repulsive>
0.1228

> <Gold.PLP.ligand.clash>
0.0687

> <Gold.PLP.ligand.torsion>
0.6595

> <Gold.PLP.Chemscore.Hbond>
2.7200

> <Gold.PLP.Chemscore.CHOScore>
0.9246

> <Gold.PLP.Chemscore.Metal>
0.0000

> <Gold.Chemscore.Hbonds>
donor molecule, donor type, donor heavy atom, donor atom, acceptor molecule, acceptor atom, score
      L1  H    15    28       P1  8028  0.74
      P1  H  6934  6946       L1    21  1.00
      P1  H  7997  8009       L1    14  0.79
      L1  C     5    25       P1  8028  0.82

> <Gold.PLP.Chemscore.Internal.Correction>
0.0743

> <Gold.Rescore>
     Score         DG    S(hbond)    S(metal)    S(lipo)     H(rot)  DE(clash)    DE(int)     intcor
     15.25     -16.36       2.78        0.00      67.87       2.48       0.62       0.49       ----

> <Gold.Chemscore.Fitness>
15.2522

> <Gold.Chemscore.DG>
-16.3622

> <Gold.Chemscore.ZeroCoef>
-5.4800

> <Gold.Chemscore.Hbond>
2.7822

> <Gold.Chemscore.Metal>
0.0000

> <Gold.Chemscore.Lipo>
67.8654

> <Gold.Chemscore.Internal_Hbond>
0.0000

> <Gold.Chemscore.DEClash>
0.6159

> <Gold.Chemscore.DEInternal>
0.4941

> <Gold.Chemscore.Rot>
2.4807

> <Gold.Chemscore.Internal.Correction>
   9.000000E+99

> <Gold.Chemscore.Hbonds>
donor molecule, donor type, donor heavy atom, donor atom, acceptor molecule, acceptor atom, score
      L1  H    15    28       P1  8028  0.74
      P1  H  6934  6946       L1    21  0.60
      P1  H  7997  8009       L1    14  0.12

> <Gold.Chemscore.Hbond.Weighted>
-9.2926

> <Gold.Chemscore.Metal.Weighted>
-0.0000

> <Gold.Chemscore.Lipo.Weighted>
-7.9403

> <Gold.Chemscore.Internal_Hbond.Weighted>
0.0000

> <Gold.Chemscore.DEClash.Weighted>
0.6159

> <Gold.Chemscore.DEInternal.Weighted>
0.4941

> <Gold.Chemscore.Rot.Weighted>
6.3507

> <Gold.Chemscore.Internal.Correction.Weighted>
   9.000000E+99

> <Gold.Protein.RotatedTorsions>
[ 6907 6896 6895 6894 ] final  139.25 input  -60.11 | X-H torsion
[ 7974 7965 7964 7962 ] final   29.10 input  175.53 | X-H torsion
[ 8008 7997 7996 7995 ] final  168.99 input   59.86 | X-H torsion
[ 10167 10162 10161 10158 ] final  -43.24 input  -65.29 | X-H torsion
[ 10718 10713 10712 10709 ] final -155.92 input   66.30 | X-H torsion
[ 10763 10752 10751 10750 ] final  176.41 input  -60.55 | X-H torsion
[ 11005 11000 10999 10996 ] final  -19.11 input  -57.11 | X-H torsion

> <Gold.Protein.ActiveResidues>
 VAL166  LYS551  ARG553  GLY616  TRP617  ASP618  TYR619  PRO620  LYS621  CYS622 
 ASP623  PHE694  ASN695  SER759  ASP760  ASP761  ALA762  ILE779  LEU786  VAL792 
 PHE793  MET794  SER795  GLU796  ALA797  LYS798  CYS799  TRP800  GLU811  SER814 

> <Gold.Protein.RotatedAtoms>
  152.2571  133.5265  159.5359 H   0  0  0  0  0  0  0  0  0  0  0  0  # atno 6907 bound_to 6896
  150.7112  134.0881  159.3931 H   0  0  0  0  0  0  0  0  0  0  0  0  # atno 6908 bound_to 6896
  151.8800  135.0457  160.0538 H   0  0  0  0  0  0  0  0  0  0  0  0  # atno 6909 bound_to 6896
  146.1691  139.6967  142.8980 H   0  0  0  0  0  0  0  0  0  0  0  0  # atno 7974 bound_to 7965
  156.1497  140.1576  156.8789 H   0  0  0  0  0  0  0  0  0  0  0  0  # atno 8008 bound_to 7997
  154.5060  140.0813  156.7932 H   0  0  0  0  0  0  0  0  0  0  0  0  # atno 8009 bound_to 7997
  155.3919  140.3410  155.4254 H   0  0  0  0  0  0  0  0  0  0  0  0  # atno 8010 bound_to 7997
  140.6941  143.2993  151.3324 H   0  0  0  0  0  0  0  0  0  0  0  0  # atno 10167 bound_to 10162
  156.5195  130.8471  151.2677 H   0  0  0  0  0  0  0  0  0  0  0  0  # atno 10718 bound_to 10713
  154.4807  135.2775  155.1573 H   0  0  0  0  0  0  0  0  0  0  0  0  # atno 10763 bound_to 10752
  154.3284  135.6195  153.5543 H   0  0  0  0  0  0  0  0  0  0  0  0  # atno 10764 bound_to 10752
  152.9875  135.5759  154.5207 H   0  0  0  0  0  0  0  0  0  0  0  0  # atno 10765 bound_to 10752
  140.8335  133.7979  155.9783 H   0  0  0  0  0  0  0  0  0  0  0  0  # atno 11005 bound_to 11000
  145.4388  141.0421  143.2869 LP  0  0  0  0  0  0  0  0  0  0  0  0  # atno 17320 bound_to 7965
  144.8136  139.5917  143.7018 LP  0  0  0  0  0  0  0  0  0  0  0  0  # atno 17321 bound_to 7965
  139.6375  144.0602  152.2528 LP  0  0  0  0  0  0  0  0  0  0  0  0  # atno 17342 bound_to 10162
  140.0097  144.6233  150.7658 LP  0  0  0  0  0  0  0  0  0  0  0  0  # atno 17343 bound_to 10162
  157.7439  130.9922  150.2628 LP  0  0  0  0  0  0  0  0  0  0  0  0  # atno 17370 bound_to 10713
  156.3163  130.3779  149.7615 LP  0  0  0  0  0  0  0  0  0  0  0  0  # atno 17371 bound_to 10713
  140.8973  134.2422  157.5061 LP  0  0  0  0  0  0  0  0  0  0  0  0  # atno 17394 bound_to 11000
  139.8704  134.9690  156.4650 LP  0  0  0  0  0  0  0  0  0  0  0  0  # atno 17395 bound_to 11000

$$$$
