AV-unprocessed.smi:742|AV-procd|sdf|3558|dock9
  -GOLD-   22720 0553D 1   1.00000     0.00000
 Structure written by MMmdl.
 25 25  0  0  0  0  0  0  0  0  2 V2000
  145.4037  138.4669  152.0951 N   0  3  0  0  0  0  0  0  0  0  0  0
  146.7996  138.9308  152.1501 C   0  0  0  0  0  0  0  0  0  0  0  0
  146.9883  140.0005  153.2356 C   0  0  0  0  0  0  0  0  0  0  0  0
  148.3953  140.3873  153.3429 N   0  0  0  0  0  0  0  0  0  0  0  0
  149.3339  140.0413  154.7517 S   0  0  0  0  0  0  0  0  0  0  0  0
  148.4944  139.2639  155.6768 O   0  0  0  0  0  0  0  0  0  0  0  0
  150.6204  139.5051  154.2833 O   0  0  0  0  0  0  0  0  0  0  0  0
  149.6396  141.7226  155.4553 C   0  0  0  0  0  0  0  0  0  0  0  0
  150.5225  141.6436  156.6694 C   0  0  0  0  0  0  0  0  0  0  0  0
  150.9709  142.7063  157.5025 C   0  0  0  0  0  0  0  0  0  0  0  0
  151.7410  142.0760  158.4369 C   0  0  0  0  0  0  0  0  0  0  0  0
  151.7710  140.7397  158.2046 O   0  0  0  0  0  0  0  0  0  0  0  0
  150.9951  140.4740  157.0707 N   0  0  0  0  0  0  0  0  0  0  0  0
  145.1401  138.3071  151.1333 H   0  0  0  0  0  0  0  0  0  0  0  0
  144.7978  139.1672  152.4981 H   0  0  0  0  0  0  0  0  0  0  0  0
  147.4374  138.0672  152.3391 H   0  0  0  0  0  0  0  0  0  0  0  0
  147.0787  139.3268  151.1732 H   0  0  0  0  0  0  0  0  0  0  0  0
  146.3982  140.8869  153.0014 H   0  0  0  0  0  0  0  0  0  0  0  0
  146.6422  139.6324  154.2018 H   0  0  0  0  0  0  0  0  0  0  0  0
  148.9216  140.4729  152.4733 H   0  0  0  0  0  0  0  0  0  0  0  0
  150.1099  142.3280  154.6798 H   0  0  0  0  0  0  0  0  0  0  0  0
  148.6791  142.1819  155.6880 H   0  0  0  0  0  0  0  0  0  0  0  0
  150.7603  143.7628  157.4267 H   0  0  0  0  0  0  0  0  0  0  0  0
  152.3073  142.4227  159.2887 H   0  0  0  0  0  0  0  0  0  0  0  0
  145.3154  137.6047  152.6141 H   0  0  0  0  0  0  0  0  0  0  0  0
  1  2  1  0  0  0  0
  1 14  1  0  0  0  0
  1 15  1  0  0  0  0
  1 25  1  0  0  0  0
  2  3  1  0  0  0  0
  2 16  1  0  0  0  0
  2 17  1  0  0  0  0
  3  4  1  0  0  0  0
  3 18  1  0  0  0  0
  3 19  1  0  0  0  0
  4  5  1  0  0  0  0
  4 20  1  0  0  0  0
  5  6  2  0  0  0  0
  5  7  2  0  0  0  0
  5  8  1  0  0  0  0
  8  9  1  0  0  0  0
  8 21  1  0  0  0  0
  8 22  1  0  0  0  0
  9 13  2  0  0  0  0
  9 10  1  0  0  0  0
 10 11  2  0  0  0  0
 10 23  1  0  0  0  0
 11 12  1  0  0  0  0
 11 24  1  0  0  0  0
 12 13  1  0  0  0  0
M  CHG  1   1   1
M  END
> <s_m_source_file>
AV-unprocessed.smi

> <i_m_source_file_index>
742

> <i_lp_mmshare_version>
43012

> <i_f3d_flags>
0

> <s_epik_input>
W05IMl1bQ0gyXVtDSDJdW05IXVMoPU8pKD1PKVtDSDJdYzFbY0hdW2NIXW9uMQ==

> <s_epik_cmdline>
J2VwaWtfcHl0aG9uJywgJy1waCcsICc3LjAnLCAnLXRuJywgJzgnLCAnLW1hJywgJzIwMCcsICctbWV0YWxfYmluZGluZycsICctaW1hZScsICc8aW5maWxlLm1hZT4nLCAnLW9tYWUnLCAnPG91dGZpbGUubWFlPic=

> <r_lp_tautomer_probability>
1

> <r_epik_Ionization_Penalty>
0.00734165

> <r_epik_Ionization_Penalty_Charging>
0.00580839

> <r_epik_Ionization_Penalty_Neutral>
0.00153326

> <r_epik_State_Penalty>
-0

> <r_epik_Charging_Adjusted_Penalty>
0.00580839

> <i_epik_Tot_Q>
1

> <i_epik_Tot_abs_Q>
1

> <r_epik_Metal_State_Penalty>
0.322493

> <b_epik_Metal_Only>
0

> <s_lp_Force_Field>
OPLS_2005

> <r_lp_Energy>
-3.29025

> <b_lp_Chiralities_Consistent>
1

> <s_lp_Variant>
AV-unprocessed.smi:742-1

> <Gold.Version>
5.8.1

> <Gold.Id.Protein>
6NUR|6NUR_protein|mol2

> <Gold.PLP.Fitness>
38.1685

> <Gold.PLP.PLP>
-23.2787

> <Gold.PLP.part.hbond>
-3.8580

> <Gold.PLP.part.metal>
0.0000

> <Gold.PLP.part.buried>
-2.1663

> <Gold.PLP.part.nonpolar>
-17.4042

> <Gold.PLP.part.repulsive>
0.3601

> <Gold.PLP.ligand.clash>
0.0000

> <Gold.PLP.ligand.torsion>
0.5916

> <Gold.PLP.Chemscore.Hbond>
4.9913

> <Gold.PLP.Chemscore.CHOScore>
0.0000

> <Gold.PLP.Chemscore.Metal>
0.0000

> <Gold.Chemscore.Hbonds>
donor molecule, donor type, donor heavy atom, donor atom, acceptor molecule, acceptor atom, score
      L1  H     1    14       P1 10171  0.93
      L1  H     1    15       P1 10175  2.00
      L1  H     4    20       P1  7957  1.00
      P1  H  7989  7998       L1     7  1.00

> <Gold.PLP.Chemscore.Internal.Correction>
1.0992

> <Gold.Rescore>
     Score         DG    S(hbond)    S(metal)    S(lipo)     H(rot)  DE(clash)    DE(int)     intcor
     15.80     -17.53       3.71        0.00      46.93       2.28       0.00       1.72       ----

> <Gold.Chemscore.Fitness>
15.8031

> <Gold.Chemscore.DG>
-17.5255

> <Gold.Chemscore.ZeroCoef>
-5.4800

> <Gold.Chemscore.Hbond>
3.7097

> <Gold.Chemscore.Metal>
0.0000

> <Gold.Chemscore.Lipo>
46.9338

> <Gold.Chemscore.Internal_Hbond>
0.0000

> <Gold.Chemscore.DEClash>
0.0038

> <Gold.Chemscore.DEInternal>
1.7187

> <Gold.Chemscore.Rot>
2.2798

> <Gold.Chemscore.Internal.Correction>
   9.000000E+99

> <Gold.Chemscore.Hbonds>
donor molecule, donor type, donor heavy atom, donor atom, acceptor molecule, acceptor atom, score
      L1  H     1    14       P1 10171  0.90
      L1  H     1    15       P1 10175  0.98
      L1  H     4    20       P1  7957  0.94
      P1  H  7989  7998       L1     7  0.74

> <Gold.Chemscore.Hbond.Weighted>
-12.3905

> <Gold.Chemscore.Metal.Weighted>
-0.0000

> <Gold.Chemscore.Lipo.Weighted>
-5.4913

> <Gold.Chemscore.Internal_Hbond.Weighted>
0.0000

> <Gold.Chemscore.DEClash.Weighted>
0.0038

> <Gold.Chemscore.DEInternal.Weighted>
1.7187

> <Gold.Chemscore.Rot.Weighted>
5.8362

> <Gold.Chemscore.Internal.Correction.Weighted>
   9.000000E+99

> <Gold.Protein.RotatedTorsions>
[ 6907 6896 6895 6894 ] final   63.97 input  -60.11 | X-H torsion
[ 7974 7965 7964 7962 ] final   66.46 input  175.53 | X-H torsion
[ 8008 7997 7996 7995 ] final -130.09 input   59.86 | X-H torsion
[ 10167 10162 10161 10158 ] final -113.98 input  -65.29 | X-H torsion
[ 10718 10713 10712 10709 ] final   15.42 input   66.30 | X-H torsion
[ 10763 10752 10751 10750 ] final -102.04 input  -60.55 | X-H torsion
[ 11005 11000 10999 10996 ] final  139.06 input  -57.11 | X-H torsion

> <Gold.Protein.ActiveResidues>
 VAL166  LYS551  ARG553  GLY616  TRP617  ASP618  TYR619  PRO620  LYS621  CYS622 
 ASP623  PHE694  ASN695  SER759  ASP760  ASP761  ALA762  ILE779  LEU786  VAL792 
 PHE793  MET794  SER795  GLU796  ALA797  LYS798  CYS799  TRP800  GLU811  SER814 

> <Gold.Protein.RotatedAtoms>
  152.4295  134.5805  159.9946 H   0  0  0  0  0  0  0  0  0  0  0  0  # atno 6907 bound_to 6896
  151.5933  133.3358  159.3040 H   0  0  0  0  0  0  0  0  0  0  0  0  # atno 6908 bound_to 6896
  150.8186  134.7418  159.6817 H   0  0  0  0  0  0  0  0  0  0  0  0  # atno 6909 bound_to 6896
  145.8264  139.3113  143.1013 H   0  0  0  0  0  0  0  0  0  0  0  0  # atno 7974 bound_to 7965
  155.2900  140.0448  157.3022 H   0  0  0  0  0  0  0  0  0  0  0  0  # atno 8008 bound_to 7997
  154.5547  140.2328  155.8397 H   0  0  0  0  0  0  0  0  0  0  0  0  # atno 8009 bound_to 7997
  156.1997  140.3029  155.9507 H   0  0  0  0  0  0  0  0  0  0  0  0  # atno 8010 bound_to 7997
  140.1059  143.4571  152.1783 H   0  0  0  0  0  0  0  0  0  0  0  0  # atno 10167 bound_to 10162
  157.0533  130.6278  149.5772 H   0  0  0  0  0  0  0  0  0  0  0  0  # atno 10718 bound_to 10713
  154.7703  135.4875  153.9636 H   0  0  0  0  0  0  0  0  0  0  0  0  # atno 10763 bound_to 10752
  153.1360  135.6763  153.9110 H   0  0  0  0  0  0  0  0  0  0  0  0  # atno 10764 bound_to 10752
  153.8799  135.3133  155.3423 H   0  0  0  0  0  0  0  0  0  0  0  0  # atno 10765 bound_to 10752
  140.0228  134.9389  157.0508 H   0  0  0  0  0  0  0  0  0  0  0  0  # atno 11005 bound_to 11000
  145.9619  140.8828  143.0206 LP  0  0  0  0  0  0  0  0  0  0  0  0  # atno 17320 bound_to 7965
  144.6743  140.1825  143.7404 LP  0  0  0  0  0  0  0  0  0  0  0  0  # atno 17321 bound_to 7965
  139.5645  144.7427  151.4060 LP  0  0  0  0  0  0  0  0  0  0  0  0  # atno 17342 bound_to 10162
  140.6952  143.7765  150.7316 LP  0  0  0  0  0  0  0  0  0  0  0  0  # atno 17343 bound_to 10162
  156.0001  130.5078  150.7630 LP  0  0  0  0  0  0  0  0  0  0  0  0  # atno 17370 bound_to 10713
  157.5013  131.0919  151.0310 LP  0  0  0  0  0  0  0  0  0  0  0  0  # atno 17371 bound_to 10713
  140.4358  134.1732  155.7170 LP  0  0  0  0  0  0  0  0  0  0  0  0  # atno 17394 bound_to 11000
  141.1784  133.8466  157.1343 LP  0  0  0  0  0  0  0  0  0  0  0  0  # atno 17395 bound_to 11000

$$$$
