AV-unprocessed.smi:2481|AV-procd|sdf|9774|dock3
  -GOLD-   2272013413D 1   1.00000     0.00000
 Structure written by MMmdl.
 37 38  0  0  0  0  0  0  0  0  1 V2000
  150.0771  139.6031  154.4729 C   0  0  0  0  0  0  0  0  0  0  0  0
  148.8614  140.3191  154.1381 N   0  0  0  0  0  0  0  0  0  0  0  0
  148.0113  139.8468  153.1963 N   0  0  0  0  0  0  0  0  0  0  0  0
  147.0437  140.7640  153.1879 C   0  0  0  0  0  0  0  0  0  0  0  0
  147.1979  141.8055  154.0582 N   0  0  0  0  0  0  0  0  0  0  0  0
  148.3532  141.4585  154.6168 C   0  0  0  0  0  0  0  0  0  0  0  0
  149.0439  142.1770  155.6291 N   0  0  0  0  0  0  0  0  0  0  0  0
  149.6247  141.6872  156.7372 C   0  0  0  0  0  0  0  0  0  0  0  0
  149.6601  140.4981  157.0546 O   0  0  0  0  0  0  0  0  0  0  0  0
  150.1737  142.6676  157.4687 N   0  0  0  0  0  0  0  0  0  0  0  0
  150.8827  142.4880  158.7346 C   0  0  1  0  0  0  0  0  0  0  0  0
  152.0865  141.5479  158.5125 C   0  0  0  0  0  0  0  0  0  0  0  0
  152.9174  141.3722  159.7905 C   0  0  0  0  0  0  0  0  0  0  0  0
  153.3785  142.7304  160.3325 C   0  0  0  0  0  0  0  0  0  0  0  0
  152.1802  143.6580  160.5801 C   0  0  0  0  0  0  0  0  0  0  0  0
  151.3268  143.8602  159.3068 C   0  0  2  0  0  0  0  0  0  0  0  0
  150.1255  144.7912  159.5867 C   0  0  0  0  0  0  0  0  0  0  0  0
  149.2024  144.1740  160.4598 O   0  0  0  0  0  0  0  0  0  0  0  0
  150.9319  140.2766  154.4029 H   0  0  0  0  0  0  0  0  0  0  0  0
  150.2305  138.7669  153.7894 H   0  0  0  0  0  0  0  0  0  0  0  0
  150.0066  139.2205  155.4915 H   0  0  0  0  0  0  0  0  0  0  0  0
  146.1926  140.6790  152.5284 H   0  0  0  0  0  0  0  0  0  0  0  0
  149.0995  143.1755  155.4936 H   0  0  0  0  0  0  0  0  0  0  0  0
  150.0965  143.6142  157.1265 H   0  0  0  0  0  0  0  0  0  0  0  0
  150.2111  142.0247  159.4605 H   0  0  0  0  0  0  0  0  0  0  0  0
  151.7420  140.5721  158.1680 H   0  0  0  0  0  0  0  0  0  0  0  0
  152.7240  141.9456  157.7215 H   0  0  0  0  0  0  0  0  0  0  0  0
  152.3242  140.8563  160.5466 H   0  0  0  0  0  0  0  0  0  0  0  0
  153.7818  140.7388  159.5884 H   0  0  0  0  0  0  0  0  0  0  0  0
  153.9379  142.5907  161.2579 H   0  0  0  0  0  0  0  0  0  0  0  0
  154.0637  143.1968  159.6234 H   0  0  0  0  0  0  0  0  0  0  0  0
  151.5603  143.2421  161.3756 H   0  0  0  0  0  0  0  0  0  0  0  0
  152.5452  144.6177  160.9471 H   0  0  0  0  0  0  0  0  0  0  0  0
  151.9560  144.3427  158.5565 H   0  0  0  0  0  0  0  0  0  0  0  0
  150.4450  145.7208  160.0571 H   0  0  0  0  0  0  0  0  0  0  0  0
  149.6204  145.0613  158.6586 H   0  0  0  0  0  0  0  0  0  0  0  0
  148.7743  144.8456  160.9685 H   0  0  0  0  0  0  0  0  0  0  0  0
  1  2  1  0  0  0  0
  1 19  1  0  0  0  0
  1 20  1  0  0  0  0
  1 21  1  0  0  0  0
  2  6  1  0  0  0  0
  2  3  1  0  0  0  0
  3  4  2  0  0  0  0
  4  5  1  0  0  0  0
  4 22  1  0  0  0  0
  5  6  2  0  0  0  0
  6  7  1  0  0  0  0
  7  8  1  0  0  0  0
  7 23  1  0  0  0  0
  8  9  2  0  0  0  0
  8 10  1  0  0  0  0
 10 11  1  0  0  0  0
 10 24  1  0  0  0  0
 11 16  1  0  0  0  0
 11 12  1  0  0  0  0
 11 25  1  0  0  0  0
 12 13  1  0  0  0  0
 12 26  1  0  0  0  0
 12 27  1  0  0  0  0
 13 14  1  0  0  0  0
 13 28  1  0  0  0  0
 13 29  1  0  0  0  0
 14 15  1  0  0  0  0
 14 30  1  0  0  0  0
 14 31  1  0  0  0  0
 15 16  1  0  0  0  0
 15 32  1  0  0  0  0
 15 33  1  0  0  0  0
 16 17  1  0  0  0  0
 16 34  1  0  0  0  0
 17 18  1  0  0  0  0
 17 35  1  0  0  0  0
 17 36  1  0  0  0  0
 18 37  1  0  0  0  0
M  END
> <s_m_source_file>
AV-unprocessed.smi

> <i_m_source_file_index>
2481

> <i_lp_mmshare_version>
43012

> <i_f3d_flags>
0

> <s_epik_input>
W0NIM11uMW5bY0hdbmMxW05IXUMoPU8pW05IXVtDQEBIXTJbQ0gyXVtDSDJdW0NIMl1bQ0gyXVtDQEhdMltDSDJdW09IXQ==

> <s_epik_cmdline>
J2VwaWtfcHl0aG9uJywgJy1waCcsICc3LjAnLCAnLXRuJywgJzgnLCAnLW1hJywgJzIwMCcsICctbWV0YWxfYmluZGluZycsICctaW1hZScsICc8aW5maWxlLm1hZT4nLCAnLW9tYWUnLCAnPG91dGZpbGUubWFlPic=

> <r_lp_tautomer_probability>
1

> <r_epik_Ionization_Penalty>
2.32704e-05

> <r_epik_Ionization_Penalty_Charging>
0

> <r_epik_Ionization_Penalty_Neutral>
2.32704e-05

> <r_epik_State_Penalty>
-0

> <r_epik_Charging_Adjusted_Penalty>
0

> <i_epik_Tot_Q>
0

> <i_epik_Tot_abs_Q>
0

> <r_epik_Metal_State_Penalty>
-0

> <b_epik_Metal_Only>
0

> <s_lp_Force_Field>
OPLS_2005

> <r_lp_Energy>
12.9645

> <b_lp_Chiralities_Consistent>
1

> <s_lp_Variant>
AV-unprocessed.smi:2481-4

> <Gold.Version>
5.8.1

> <Gold.Id.Protein>
6NUR|6NUR_protein|mol2

> <Gold.PLP.Fitness>
41.3300

> <Gold.PLP.PLP>
-33.4407

> <Gold.PLP.part.hbond>
-3.0000

> <Gold.PLP.part.metal>
0.0000

> <Gold.PLP.part.buried>
-5.7257

> <Gold.PLP.part.nonpolar>
-28.7479

> <Gold.PLP.part.repulsive>
3.7405

> <Gold.PLP.ligand.clash>
0.0000

> <Gold.PLP.ligand.torsion>
0.3881

> <Gold.PLP.Chemscore.Hbond>
1.8845

> <Gold.PLP.Chemscore.CHOScore>
1.0000

> <Gold.PLP.Chemscore.Metal>
0.0000

> <Gold.Chemscore.Hbonds>
donor molecule, donor type, donor heavy atom, donor atom, acceptor molecule, acceptor atom, score
      L1  H     7    23       P1  8028  1.00
      L1  H    10    24       P1  8028  0.47
      P1  H  6933  6944       L1    18  0.39
      L1  C     4    22       P1 10175  1.00

> <Gold.PLP.Chemscore.Internal.Correction>
0.0120

> <Gold.Rescore>
     Score         DG    S(hbond)    S(metal)    S(lipo)     H(rot)  DE(clash)    DE(int)     intcor
     15.44     -16.44       2.09        0.00      77.41       1.99       0.41       0.59       ----

> <Gold.Chemscore.Fitness>
15.4362

> <Gold.Chemscore.DG>
-16.4373

> <Gold.Chemscore.ZeroCoef>
-5.4800

> <Gold.Chemscore.Hbond>
2.0926

> <Gold.Chemscore.Metal>
0.0000

> <Gold.Chemscore.Lipo>
77.4074

> <Gold.Chemscore.Internal_Hbond>
0.0000

> <Gold.Chemscore.DEClash>
0.4112

> <Gold.Chemscore.DEInternal>
0.5899

> <Gold.Chemscore.Rot>
1.9877

> <Gold.Chemscore.Internal.Correction>
   9.000000E+99

> <Gold.Chemscore.Hbonds>
donor molecule, donor type, donor heavy atom, donor atom, acceptor molecule, acceptor atom, score
      L1  H     7    23       P1  8028  0.96
      L1  H    10    24       P1  8028  0.46
      P1  H  6933  6944       L1    18  0.13

> <Gold.Chemscore.Hbond.Weighted>
-6.9892

> <Gold.Chemscore.Metal.Weighted>
-0.0000

> <Gold.Chemscore.Lipo.Weighted>
-9.0567

> <Gold.Chemscore.Internal_Hbond.Weighted>
0.0000

> <Gold.Chemscore.DEClash.Weighted>
0.4112

> <Gold.Chemscore.DEInternal.Weighted>
0.5899

> <Gold.Chemscore.Rot.Weighted>
5.0885

> <Gold.Chemscore.Internal.Correction.Weighted>
   9.000000E+99

> <Gold.Protein.RotatedTorsions>
[ 6907 6896 6895 6894 ] final  108.56 input  -60.11 | X-H torsion
[ 7974 7965 7964 7962 ] final -159.94 input  175.53 | X-H torsion
[ 8008 7997 7996 7995 ] final -179.08 input   59.86 | X-H torsion
[ 10167 10162 10161 10158 ] final  -40.21 input  -65.29 | X-H torsion
[ 10718 10713 10712 10709 ] final  -85.83 input   66.30 | X-H torsion
[ 10763 10752 10751 10750 ] final   56.05 input  -60.55 | X-H torsion
[ 11005 11000 10999 10996 ] final   59.83 input  -57.11 | X-H torsion

> <Gold.Protein.ActiveResidues>
 VAL166  LYS551  ARG553  GLY616  TRP617  ASP618  TYR619  PRO620  LYS621  CYS622 
 ASP623  PHE694  ASN695  SER759  ASP760  ASP761  ALA762  ILE779  LEU786  VAL792 
 PHE793  MET794  SER795  GLU796  ALA797  LYS798  CYS799  TRP800  GLU811  SER814 

> <Gold.Protein.RotatedAtoms>
  152.5106  133.9070  159.7469 H   0  0  0  0  0  0  0  0  0  0  0  0  # atno 6907 bound_to 6896
  150.9473  133.6580  159.2786 H   0  0  0  0  0  0  0  0  0  0  0  0  # atno 6908 bound_to 6896
  151.3871  135.0955  159.9567 H   0  0  0  0  0  0  0  0  0  0  0  0  # atno 6909 bound_to 6896
  144.7446  140.3613  143.6095 H   0  0  0  0  0  0  0  0  0  0  0  0  # atno 7974 bound_to 7965
  156.0263  140.1272  157.0305 H   0  0  0  0  0  0  0  0  0  0  0  0  # atno 8008 bound_to 7997
  154.4332  140.1058  156.6106 H   0  0  0  0  0  0  0  0  0  0  0  0  # atno 8009 bound_to 7997
  155.5871  140.3469  155.4558 H   0  0  0  0  0  0  0  0  0  0  0  0  # atno 8010 bound_to 7997
  140.7041  143.3167  151.2892 H   0  0  0  0  0  0  0  0  0  0  0  0  # atno 10167 bound_to 10162
  155.9994  130.4744  150.4622 H   0  0  0  0  0  0  0  0  0  0  0  0  # atno 10718 bound_to 10713
  152.9826  135.5690  154.5166 H   0  0  0  0  0  0  0  0  0  0  0  0  # atno 10763 bound_to 10752
  154.4661  135.2783  155.1679 H   0  0  0  0  0  0  0  0  0  0  0  0  # atno 10764 bound_to 10752
  154.3247  135.6262  153.5577 H   0  0  0  0  0  0  0  0  0  0  0  0  # atno 10765 bound_to 10752
  140.0276  134.6060  155.9552 H   0  0  0  0  0  0  0  0  0  0  0  0  # atno 11005 bound_to 11000
  145.7175  139.1701  143.2504 LP  0  0  0  0  0  0  0  0  0  0  0  0  # atno 17320 bound_to 7965
  146.1302  140.7196  142.9416 LP  0  0  0  0  0  0  0  0  0  0  0  0  # atno 17321 bound_to 7965
  139.6608  144.0193  152.2691 LP  0  0  0  0  0  0  0  0  0  0  0  0  # atno 17342 bound_to 10162
  139.9760  144.6461  150.7945 LP  0  0  0  0  0  0  0  0  0  0  0  0  # atno 17343 bound_to 10162
  157.2645  131.0574  151.2299 LP  0  0  0  0  0  0  0  0  0  0  0  0  # atno 17370 bound_to 10713
  157.3402  130.7029  149.6377 LP  0  0  0  0  0  0  0  0  0  0  0  0  # atno 17371 bound_to 10713
  141.1812  133.6547  156.5027 LP  0  0  0  0  0  0  0  0  0  0  0  0  # atno 17394 bound_to 11000
  140.4281  134.7127  157.4927 LP  0  0  0  0  0  0  0  0  0  0  0  0  # atno 17395 bound_to 11000

$$$$
