AV-unprocessed.smi:158|AV-procd|sdf|1334|dock3
  -GOLD-   2262019 33D 1   1.00000     0.00000
 Structure written by MMmdl.
 31 33  0  0  0  0  0  0  0  0  1 V2000
  153.4608  142.9464  159.2704 N   0  0  0  0  0  0  0  0  0  0  0  0
  152.9060  141.7459  159.0516 C   0  0  0  0  0  0  0  0  0  0  0  0
  153.4399  140.6681  159.6714 N   0  0  0  0  0  0  0  0  0  0  0  0
  152.9184  139.4516  159.4757 C   0  0  0  0  0  0  0  0  0  0  0  0
  153.6714  138.1464  160.3138 Cl  0  0  0  0  0  0  0  0  0  0  0  0
  151.8763  139.1324  158.7026 N   0  0  0  0  0  0  0  0  0  0  0  0
  151.3263  140.2147  158.0786 C   0  0  0  0  0  0  0  0  0  0  0  0
  151.7894  141.5533  158.2014 C   0  0  0  0  0  0  0  0  0  0  0  0
  151.0105  142.3993  157.4258 N   0  0  0  0  0  0  0  0  0  0  0  0
  150.1346  141.6011  156.8783 C   0  0  0  0  0  0  0  0  0  0  0  0
  150.2417  140.2696  157.2201 N   0  0  0  0  0  0  0  0  0  0  0  0
  149.3638  139.1497  156.7336 C   0  0  1  0  0  0  0  0  0  0  0  0
  148.2111  139.6865  156.1509 O   0  0  0  0  0  0  0  0  0  0  0  0
  148.1089  139.2901  154.7815 C   0  0  1  0  0  0  0  0  0  0  0  0
  147.3884  140.3516  153.9303 C   0  0  0  0  0  0  0  0  0  0  0  0
  146.0463  140.4837  154.3491 O   0  0  0  0  0  0  0  0  0  0  0  0
  149.5326  138.9003  154.3558 C   0  0  1  0  0  0  0  0  0  0  0  0
  150.2868  140.0208  153.9308 O   0  0  0  0  0  0  0  0  0  0  0  0
  150.0626  138.3128  155.6505 C   0  0  1  0  0  0  0  0  0  0  0  0
  151.3938  138.3140  155.7552 F   0  0  0  0  0  0  0  0  0  0  0  0
  149.1292  138.5849  157.6364 H   0  0  0  0  0  0  0  0  0  0  0  0
  147.5017  138.3832  154.7870 H   0  0  0  0  0  0  0  0  0  0  0  0
  149.5272  138.1658  153.5497 H   0  0  0  0  0  0  0  0  0  0  0  0
  149.7273  137.2803  155.7539 H   0  0  0  0  0  0  0  0  0  0  0  0
  153.0805  143.7655  158.8179 H   0  0  0  0  0  0  0  0  0  0  0  0
  154.2556  143.0301  159.8875 H   0  0  0  0  0  0  0  0  0  0  0  0
  149.3712  141.9653  156.2063 H   0  0  0  0  0  0  0  0  0  0  0  0
  147.8792  141.3177  154.0518 H   0  0  0  0  0  0  0  0  0  0  0  0
  147.4190  140.1139  152.8673 H   0  0  0  0  0  0  0  0  0  0  0  0
  145.5181  140.7044  153.5970 H   0  0  0  0  0  0  0  0  0  0  0  0
  150.0438  140.2248  153.0406 H   0  0  0  0  0  0  0  0  0  0  0  0
  1  2  1  0  0  0  0
  1 25  1  0  0  0  0
  1 26  1  0  0  0  0
  2  8  1  0  0  0  0
  2  3  2  0  0  0  0
  3  4  1  0  0  0  0
  4  5  1  0  0  0  0
  4  6  2  0  0  0  0
  6  7  1  0  0  0  0
  7 11  1  0  0  0  0
  7  8  2  0  0  0  0
  8  9  1  0  0  0  0
  9 10  2  0  0  0  0
 10 11  1  0  0  0  0
 10 27  1  0  0  0  0
 11 12  1  0  0  0  0
 12 21  1  0  0  0  0
 12 19  1  0  0  0  0
 12 13  1  0  0  0  0
 13 14  1  0  0  0  0
 14 22  1  0  0  0  0
 14 15  1  0  0  0  0
 14 17  1  0  0  0  0
 15 16  1  0  0  0  0
 15 28  1  0  0  0  0
 15 29  1  0  0  0  0
 16 30  1  0  0  0  0
 17 23  1  0  0  0  0
 17 18  1  0  0  0  0
 17 19  1  0  0  0  0
 18 31  1  0  0  0  0
 19 24  1  0  0  0  0
 19 20  1  0  0  0  0
M  END
> <s_m_source_file>
AV-unprocessed.smi

> <i_m_source_file_index>
158

> <i_lp_mmshare_version>
43012

> <i_f3d_flags>
0

> <s_epik_input>
Q2xjKG4xKW5jKFtOSDJdKWMoYzEyKW5bY0hdbjJbQ0BASF0zT1tDQEhdKFtDSDJdW09IXSlbQ0BASF0oW09IXSlbQ0BASF0zRg==

> <s_epik_cmdline>
J2VwaWtfcHl0aG9uJywgJy1waCcsICc3LjAnLCAnLXRuJywgJzgnLCAnLW1hJywgJzIwMCcsICctbWV0YWxfYmluZGluZycsICctaW1hZScsICc8aW5maWxlLm1hZT4nLCAnLW9tYWUnLCAnPG91dGZpbGUubWFlPic=

> <r_lp_tautomer_probability>
1

> <r_epik_Ionization_Penalty>
6.51543e-05

> <r_epik_Ionization_Penalty_Charging>
0

> <r_epik_Ionization_Penalty_Neutral>
6.51543e-05

> <r_epik_State_Penalty>
-0

> <r_epik_Charging_Adjusted_Penalty>
0

> <i_epik_Tot_Q>
0

> <i_epik_Tot_abs_Q>
0

> <r_epik_Metal_State_Penalty>
-0

> <b_epik_Metal_Only>
0

> <s_epik_Chemistry_Notes>
This compound contains an acetal/aminal-like group ( X-CH(R)-Y where X, Y are N, S, or O) that may be acid/base labile, releasing an aldehyde.

> <s_lp_Force_Field>
OPLS_2005

> <r_lp_Energy>
41.2986

> <b_lp_Chiralities_Consistent>
1

> <s_lp_Variant>
AV-unprocessed.smi:158-12

> <Gold.Version>
5.8.1

> <Gold.Id.Protein>
6NUR|6NUR_protein|mol2

> <Gold.PLP.Fitness>
35.1036

> <Gold.PLP.PLP>
-26.0207

> <Gold.PLP.part.hbond>
-2.6223

> <Gold.PLP.part.metal>
0.0000

> <Gold.PLP.part.buried>
-4.9220

> <Gold.PLP.part.nonpolar>
-18.0531

> <Gold.PLP.part.repulsive>
0.1640

> <Gold.PLP.ligand.clash>
0.0000

> <Gold.PLP.ligand.torsion>
0.4161

> <Gold.PLP.Chemscore.Hbond>
2.2448

> <Gold.PLP.Chemscore.CHOScore>
0.7970

> <Gold.PLP.Chemscore.Metal>
0.0000

> <Gold.Chemscore.Hbonds>
donor molecule, donor type, donor heavy atom, donor atom, acceptor molecule, acceptor atom, score
      L1  H    16    30       P1 10175  0.68
      L1  H    18    31       P1  7957  1.00
      L1  C    10    27       P1  8028  0.18

> <Gold.PLP.Chemscore.Internal.Correction>
0.7897

> <Gold.Rescore>
     Score         DG    S(hbond)    S(metal)    S(lipo)     H(rot)  DE(clash)    DE(int)     intcor
      7.11      -8.34       1.99        0.00      36.06       3.12       0.04       1.18       ----

> <Gold.Chemscore.Fitness>
7.1149

> <Gold.Chemscore.DG>
-8.3393

> <Gold.Chemscore.ZeroCoef>
-5.4800

> <Gold.Chemscore.Hbond>
1.9865

> <Gold.Chemscore.Metal>
0.0000

> <Gold.Chemscore.Lipo>
36.0615

> <Gold.Chemscore.Internal_Hbond>
0.0000

> <Gold.Chemscore.DEClash>
0.0407

> <Gold.Chemscore.DEInternal>
1.1837

> <Gold.Chemscore.Rot>
3.1230

> <Gold.Chemscore.Internal.Correction>
   9.000000E+99

> <Gold.Chemscore.Hbonds>
donor molecule, donor type, donor heavy atom, donor atom, acceptor molecule, acceptor atom, score
      L1  H    16    30       P1 10175  0.60
      L1  H    18    31       P1  7957  0.99

> <Gold.Chemscore.Hbond.Weighted>
-6.6350

> <Gold.Chemscore.Metal.Weighted>
-0.0000

> <Gold.Chemscore.Lipo.Weighted>
-4.2192

> <Gold.Chemscore.Internal_Hbond.Weighted>
0.0000

> <Gold.Chemscore.DEClash.Weighted>
0.0407

> <Gold.Chemscore.DEInternal.Weighted>
1.1837

> <Gold.Chemscore.Rot.Weighted>
7.9950

> <Gold.Chemscore.Internal.Correction.Weighted>
   9.000000E+99

> <Gold.Protein.RotatedTorsions>
[ 6907 6896 6895 6894 ] final  -23.56 input  -60.11 | X-H torsion
[ 7974 7965 7964 7962 ] final -132.51 input  175.53 | X-H torsion
[ 8008 7997 7996 7995 ] final   42.04 input   59.86 | X-H torsion
[ 10167 10162 10161 10158 ] final  134.38 input  -65.29 | X-H torsion
[ 10718 10713 10712 10709 ] final  129.37 input   66.30 | X-H torsion
[ 10763 10752 10751 10750 ] final  170.14 input  -60.55 | X-H torsion
[ 11005 11000 10999 10996 ] final -107.12 input  -57.11 | X-H torsion

> <Gold.Protein.ActiveResidues>
 VAL166  LYS551  ARG553  GLY616  TRP617  ASP618  TYR619  PRO620  LYS621  CYS622 
 ASP623  PHE694  ASN695  SER759  ASP760  ASP761  ALA762  ILE779  LEU786  VAL792 
 PHE793  MET794  SER795  GLU796  ALA797  LYS798  CYS799  TRP800  GLU811  SER814 

> <Gold.Protein.RotatedAtoms>
  151.2023  135.0447  159.8876 H   0  0  0  0  0  0  0  0  0  0  0  0  # atno 6907 bound_to 6896
  152.5431  134.0837  159.8257 H   0  0  0  0  0  0  0  0  0  0  0  0  # atno 6908 bound_to 6896
  151.0979  133.5218  159.2643 H   0  0  0  0  0  0  0  0  0  0  0  0  # atno 6909 bound_to 6896
  144.9279  140.7093  143.4924 H   0  0  0  0  0  0  0  0  0  0  0  0  # atno 7974 bound_to 7965
  155.2795  140.3371  155.4259 H   0  0  0  0  0  0  0  0  0  0  0  0  # atno 8008 bound_to 7997
  156.2096  140.1764  156.7765 H   0  0  0  0  0  0  0  0  0  0  0  0  # atno 8009 bound_to 7997
  154.5668  140.0677  156.8888 H   0  0  0  0  0  0  0  0  0  0  0  0  # atno 8010 bound_to 7997
  139.5258  144.6570  151.5132 H   0  0  0  0  0  0  0  0  0  0  0  0  # atno 10167 bound_to 10162
  157.5160  131.1097  150.9223 H   0  0  0  0  0  0  0  0  0  0  0  0  # atno 10718 bound_to 10713
  154.3933  135.2754  155.2142 H   0  0  0  0  0  0  0  0  0  0  0  0  # atno 10763 bound_to 10752
  154.4199  135.6002  153.6007 H   0  0  0  0  0  0  0  0  0  0  0  0  # atno 10764 bound_to 10752
  152.9832  135.5970  154.4190 H   0  0  0  0  0  0  0  0  0  0  0  0  # atno 10765 bound_to 10752
  141.0970  133.8953  157.1938 H   0  0  0  0  0  0  0  0  0  0  0  0  # atno 11005 bound_to 11000
  145.3190  139.1794  143.4598 LP  0  0  0  0  0  0  0  0  0  0  0  0  # atno 17320 bound_to 7965
  146.3234  140.3204  142.8633 LP  0  0  0  0  0  0  0  0  0  0  0  0  # atno 17321 bound_to 7965
  140.6400  143.8908  150.6683 LP  0  0  0  0  0  0  0  0  0  0  0  0  # atno 17342 bound_to 10162
  140.2239  143.3787  152.1620 LP  0  0  0  0  0  0  0  0  0  0  0  0  # atno 17343 bound_to 10162
  156.9849  130.5541  149.5299 LP  0  0  0  0  0  0  0  0  0  0  0  0  # atno 17370 bound_to 10713
  156.0321  130.5411  150.8560 LP  0  0  0  0  0  0  0  0  0  0  0  0  # atno 17371 bound_to 10713
  139.9810  135.0098  156.9749 LP  0  0  0  0  0  0  0  0  0  0  0  0  # atno 17394 bound_to 11000
  140.5115  134.0997  155.7271 LP  0  0  0  0  0  0  0  0  0  0  0  0  # atno 17395 bound_to 11000

$$$$
