#       Name:                AV-unprocessed.smi:2526
#       Creating user name   scv26
#       Creation time:       Fri Mar 27 13:57:59 2020


#       File generated by GOLD software.
#

@<TRIPOS>MOLECULE
AV-unprocessed.smi:2526
    32    33     1
SMALL
NO_CHARGES


@<TRIPOS>ATOM
      1 ****        -3.9602   0.5175  -0.7545 C.3            1 S1                 0.0000
      2 ****        -2.6798  -0.1570  -0.7357 N.pl3          1 S1                 0.0000
      3 ****        -1.4169   0.3931  -0.7529 C.2            1 S1                 0.0000
      4 ****        -0.5149  -0.6361  -0.7154 C.2            1 S1                 0.0000
      5 ****         1.0002  -0.5948  -0.7041 C.3            1 S1                 0.0000
      6 ****         1.4934   0.6038  -1.3879 N.am           1 S1                 0.0000
      7 ****         1.8848   1.7544  -0.8086 C.2            1 S1                 0.0000
      8 ****         2.1708   2.7428  -1.4793 O.2            1 S1                 0.0000
      9 ****         2.0262   1.8161   0.7218 C.3            1 S1                 0.0000
     10 ****         1.3689   0.6419   1.4699 C.3            1 S1                 0.0000
     11 ****         1.5887  -0.6818   0.7252 C.3            1 S1                 0.0000
     12 ****         1.0641  -1.8315   1.4856 N.4            1 S1                 1.0000
     13 ****        -1.3480  -1.7925  -0.6918 C.2            1 S1                 0.0000
     14 ****        -2.6380  -1.5036  -0.6961 N.2            1 S1                 0.0000
     15 ****        -3.8141   1.5979  -0.7620 H              1 S1                 0.0000
     16 ****        -4.5352   0.2443   0.1309 H              1 S1                 0.0000
     17 ****        -4.5164   0.2291  -1.6470 H              1 S1                 0.0000
     18 ****        -1.2651   1.4624  -0.7836 H              1 S1                 0.0000
     19 ****         1.3834  -1.4434  -1.2722 H              1 S1                 0.0000
     20 ****         1.4583   0.5881  -2.3974 H              1 S1                 0.0000
     21 ****         3.0939   1.8270   0.9427 H              1 S1                 0.0000
     22 ****         1.6268   2.7625   1.0876 H              1 S1                 0.0000
     23 ****         1.7847   0.5790   2.4760 H              1 S1                 0.0000
     24 ****         0.3024   0.8350   1.5941 H              1 S1                 0.0000
     25 ****         2.6650  -0.8408   0.6416 H              1 S1                 0.0000
     26 ****         0.0656  -1.7298   1.6000 H              1 S1                 0.0000
     27 ****         1.5050  -1.8653   2.3938 H              1 S1                 0.0000
     28 ****        -1.0521  -2.8309  -0.6647 H              1 S1                 0.0000
     29 ****         1.2599  -2.6864   0.9847 H              1 S1                 0.0000
     30 ****         2.1152   2.7032  -2.4770 LP             1 S1                 0.0000
     31 ****         2.4591   3.5871  -1.0277 LP             1 S1                 0.0000
     32 ****        -3.4088  -2.1404  -0.6748 LP             1 S1                 0.0000
@<TRIPOS>BOND
    1    1    2 1     
    2    1   15 1     
    3    1   16 1     
    4    1   17 1     
    5    2   14 1     
    6    2    3 1     
    7    3    4 2     
    8    3   18 1     
    9    4    5 1     
   10    4   13 1     
   11    5   11 1     
   12    5    6 1     
   13    5   19 1     
   14    6    7 am    
   15    6   20 1     
   16    7    8 2     
   17    7    9 1     
   18    9   10 1     
   19    9   21 1     
   20    9   22 1     
   21   10   11 1     
   22   10   23 1     
   23   10   24 1     
   24   11   12 1     
   25   11   25 1     
   26   12   26 1     
   27   12   27 1     
   28   12   29 1     
   29   13   14 2     
   30   13   28 1     
   31    8   30 1     
   32    8   31 1     
   33   14   32 1     
@<TRIPOS>SUBSTRUCTURE
      1 S1             1
@<TRIPOS>SET
LONE_PAIRS      STATIC     ATOMS    <user>   **** ""
3 30 31 32
DONOR_HYDROGENS      STATIC     ATOMS    <user>   **** ""
4 20 26 27 29
ATOM$BLUE        STATIC     ATOMS    COLORGROUP SYSTEM
3 30 31 32
ATOM$RED        STATIC     ATOMS    COLORGROUP SYSTEM
4 20 26 27 29
