AV-unprocessed.smi:3245|AV-procd|sdf|12408|dock6
  -GOLD-   2272018293D 1   1.00000     0.00000
 Structure written by MMmdl.
 34 35  0  0  0  0  0  0  0  0  2 V2000
  149.8540  142.4505  158.3452 C   0  0  0  0  0  0  0  0  0  0  0  0
  151.0688  142.8107  157.4728 C   0  0  2  0  0  0  0  0  0  0  0  0
  151.7390  144.1398  157.8957 C   0  0  0  0  0  0  0  0  0  0  0  0
  151.9051  144.2586  159.3329 N   0  0  0  0  0  0  0  0  0  0  0  0
  151.7623  145.3805  160.1220 C   0  0  0  0  0  0  0  0  0  0  0  0
  152.0300  145.0089  161.4085 C   0  0  0  0  0  0  0  0  0  0  0  0
  152.3369  143.6235  161.3033 C   0  0  0  0  0  0  0  0  0  0  0  0
  152.2652  143.1780  160.0594 N   0  0  0  0  0  0  0  0  0  0  0  0
  150.6051  142.8954  156.0935 N   0  0  0  0  0  0  0  0  0  0  0  0
  150.3374  141.5844  155.5180 C   0  0  0  0  0  0  0  0  0  0  0  0
  151.5154  140.6318  155.7902 C   0  0  0  0  0  0  0  0  0  0  0  0
  151.3671  139.3524  155.0846 N   0  0  0  0  0  0  0  0  0  0  0  0
  150.2161  138.6797  154.9874 C   0  0  0  0  0  0  0  0  0  0  0  0
  149.1157  138.9941  155.4417 O   0  0  0  0  0  0  0  0  0  0  0  0
  150.4895  137.4177  154.2033 C   0  0  0  0  0  0  0  0  0  0  0  0
  151.9018  137.5308  153.9188 N   0  5  0  0  0  0  0  0  0  0  0  0
  152.3583  138.6829  154.4642 C   0  0  0  0  0  0  0  0  0  0  0  0
  153.5140  139.1045  154.4256 O   0  0  0  0  0  0  0  0  0  0  0  0
  150.1421  142.2912  159.3844 H   0  0  0  0  0  0  0  0  0  0  0  0
  149.3803  141.5311  158.0000 H   0  0  0  0  0  0  0  0  0  0  0  0
  149.1023  143.2406  158.3260 H   0  0  0  0  0  0  0  0  0  0  0  0
  151.7886  141.9949  157.5543 H   0  0  0  0  0  0  0  0  0  0  0  0
  152.7231  144.2492  157.4399 H   0  0  0  0  0  0  0  0  0  0  0  0
  151.1424  144.9859  157.5510 H   0  0  0  0  0  0  0  0  0  0  0  0
  151.4837  146.3379  159.7071 H   0  0  0  0  0  0  0  0  0  0  0  0
  152.0115  145.6320  162.2902 H   0  0  0  0  0  0  0  0  0  0  0  0
  152.6102  142.9334  162.0877 H   0  0  0  0  0  0  0  0  0  0  0  0
  149.7610  143.4484  156.0520 H   0  0  0  0  0  0  0  0  0  0  0  0
  149.4145  141.1607  155.9119 H   0  0  0  0  0  0  0  0  0  0  0  0
  150.2051  141.6952  154.4411 H   0  0  0  0  0  0  0  0  0  0  0  0
  152.4398  141.1060  155.4570 H   0  0  0  0  0  0  0  0  0  0  0  0
  151.6417  140.4797  156.8634 H   0  0  0  0  0  0  0  0  0  0  0  0
  150.2407  136.5446  154.8074 H   0  0  0  0  0  0  0  0  0  0  0  0
  149.8692  137.3959  153.3067 H   0  0  0  0  0  0  0  0  0  0  0  0
  1  2  1  0  0  0  0
  1 19  1  0  0  0  0
  1 20  1  0  0  0  0
  1 21  1  0  0  0  0
  2  3  1  0  0  0  0
  2  9  1  0  0  0  0
  2 22  1  0  0  0  0
  3  4  1  0  0  0  0
  3 23  1  0  0  0  0
  3 24  1  0  0  0  0
  4  8  1  0  0  0  0
  4  5  1  0  0  0  0
  5  6  2  0  0  0  0
  5 25  1  0  0  0  0
  6  7  1  0  0  0  0
  6 26  1  0  0  0  0
  7  8  2  0  0  0  0
  7 27  1  0  0  0  0
  9 10  1  0  0  0  0
  9 28  1  0  0  0  0
 10 11  1  0  0  0  0
 10 29  1  0  0  0  0
 10 30  1  0  0  0  0
 11 12  1  0  0  0  0
 11 31  1  0  0  0  0
 11 32  1  0  0  0  0
 12 17  1  0  0  0  0
 12 13  1  0  0  0  0
 13 14  2  0  0  0  0
 13 15  1  0  0  0  0
 15 16  1  0  0  0  0
 15 33  1  0  0  0  0
 15 34  1  0  0  0  0
 16 17  1  0  0  0  0
 17 18  2  0  0  0  0
M  CHG  1  16  -1
M  END
> <s_m_source_file>
AV-unprocessed.smi

> <i_m_source_file_index>
3245

> <i_lp_mmshare_version>
43012

> <i_f3d_flags>
0

> <s_epik_input>
bjFbY0hdW2NIXVtjSF1uMVtDSDJdW0NAQEhdKFtDSDNdKVtOSF1bQ0gyXVtDSDJdTjJDKD1PKVtDSDJdW05IXUMyPU8=

> <s_epik_cmdline>
J2VwaWtfcHl0aG9uJywgJy1waCcsICc3LjAnLCAnLXRuJywgJzgnLCAnLW1hJywgJzIwMCcsICctbWV0YWxfYmluZGluZycsICctaW1hZScsICc8aW5maWxlLm1hZT4nLCAnLW9tYWUnLCAnPG91dGZpbGUubWFlPic=

> <r_lp_tautomer_probability>
1

> <r_epik_Ionization_Penalty>
8.62027

> <r_epik_Ionization_Penalty_Charging>
6.28132

> <r_epik_Ionization_Penalty_Neutral>
2.33895

> <r_epik_State_Penalty>
8.57043

> <r_epik_Charging_Adjusted_Penalty>
14.8517

> <i_epik_Tot_Q>
-1

> <i_epik_Tot_abs_Q>
1

> <r_epik_Metal_State_Penalty>
4.56785

> <b_epik_Metal_Only>
1

> <s_lp_Force_Field>
OPLS_2005

> <r_lp_Energy>
21.0374

> <b_lp_Chiralities_Consistent>
1

> <s_lp_Variant>
AV-unprocessed.smi:3245-7

> <Gold.Version>
5.8.1

> <Gold.Id.Protein>
6NUR|6NUR_protein|mol2

> <Gold.PLP.Fitness>
50.7399

> <Gold.PLP.PLP>
-41.3231

> <Gold.PLP.part.hbond>
-3.0000

> <Gold.PLP.part.metal>
0.0000

> <Gold.PLP.part.buried>
-2.0855

> <Gold.PLP.part.nonpolar>
-36.9464

> <Gold.PLP.part.repulsive>
0.2226

> <Gold.PLP.ligand.clash>
0.0000

> <Gold.PLP.ligand.torsion>
0.8385

> <Gold.PLP.Chemscore.Hbond>
3.6657

> <Gold.PLP.Chemscore.CHOScore>
0.0000

> <Gold.PLP.Chemscore.Metal>
0.0000

> <Gold.Chemscore.Hbonds>
donor molecule, donor type, donor heavy atom, donor atom, acceptor molecule, acceptor atom, score
      L1  H     9    28       P1  8028  1.00
      P1  H  7997  8008       L1    18  0.35
      P1  H 10752 10763       L1    16  1.29

> <Gold.PLP.Chemscore.Internal.Correction>
0.0966

> <Gold.Rescore>
     Score         DG    S(hbond)    S(metal)    S(lipo)     H(rot)  DE(clash)    DE(int)     intcor
     15.32     -16.30       2.43        0.00      79.50       2.58       0.52       0.46       ----

> <Gold.Chemscore.Fitness>
15.3156

> <Gold.Chemscore.DG>
-16.2982

> <Gold.Chemscore.ZeroCoef>
-5.4800

> <Gold.Chemscore.Hbond>
2.4325

> <Gold.Chemscore.Metal>
0.0000

> <Gold.Chemscore.Lipo>
79.4961

> <Gold.Chemscore.Internal_Hbond>
0.0000

> <Gold.Chemscore.DEClash>
0.5247

> <Gold.Chemscore.DEInternal>
0.4579

> <Gold.Chemscore.Rot>
2.5811

> <Gold.Chemscore.Internal.Correction>
   9.000000E+99

> <Gold.Chemscore.Hbonds>
donor molecule, donor type, donor heavy atom, donor atom, acceptor molecule, acceptor atom, score
      L1  H     9    28       P1  8028  0.96
      P1  H  7997  8008       L1    18  0.35
      P1  H 10752 10763       L1    16  0.52

> <Gold.Chemscore.Hbond.Weighted>
-8.1247

> <Gold.Chemscore.Metal.Weighted>
-0.0000

> <Gold.Chemscore.Lipo.Weighted>
-9.3010

> <Gold.Chemscore.Internal_Hbond.Weighted>
0.0000

> <Gold.Chemscore.DEClash.Weighted>
0.5247

> <Gold.Chemscore.DEInternal.Weighted>
0.4579

> <Gold.Chemscore.Rot.Weighted>
6.6076

> <Gold.Chemscore.Internal.Correction.Weighted>
   9.000000E+99

> <Gold.Protein.RotatedTorsions>
[ 6907 6896 6895 6894 ] final -142.46 input  -60.11 | X-H torsion
[ 7974 7965 7964 7962 ] final  121.10 input  175.53 | X-H torsion
[ 8008 7997 7996 7995 ] final  -36.23 input   59.86 | X-H torsion
[ 10167 10162 10161 10158 ] final  -39.64 input  -65.29 | X-H torsion
[ 10718 10713 10712 10709 ] final   61.54 input   66.30 | X-H torsion
[ 10763 10752 10751 10750 ] final   39.31 input  -60.55 | X-H torsion
[ 11005 11000 10999 10996 ] final  130.49 input  -57.11 | X-H torsion

> <Gold.Protein.ActiveResidues>
 VAL166  LYS551  ARG553  GLY616  TRP617  ASP618  TYR619  PRO620  LYS621  CYS622 
 ASP623  PHE694  ASN695  SER759  ASP760  ASP761  ALA762  ILE779  LEU786  VAL792 
 PHE793  MET794  SER795  GLU796  ALA797  LYS798  CYS799  TRP800  GLU811  SER814 

> <Gold.Protein.RotatedAtoms>
  151.0873  133.5343  159.2616 H   0  0  0  0  0  0  0  0  0  0  0  0  # atno 6907 bound_to 6896
  151.2223  135.0523  159.8965 H   0  0  0  0  0  0  0  0  0  0  0  0  # atno 6908 bound_to 6896
  152.5430  134.0674  159.8232 H   0  0  0  0  0  0  0  0  0  0  0  0  # atno 6909 bound_to 6896
  145.1233  139.3375  143.4703 H   0  0  0  0  0  0  0  0  0  0  0  0  # atno 7974 bound_to 7965
  154.4077  140.1636  156.2340 H   0  0  0  0  0  0  0  0  0  0  0  0  # atno 8008 bound_to 7997
  155.9258  140.3418  155.6186 H   0  0  0  0  0  0  0  0  0  0  0  0  # atno 8009 bound_to 7997
  155.7167  140.0763  157.2339 H   0  0  0  0  0  0  0  0  0  0  0  0  # atno 8010 bound_to 7997
  140.7058  143.3202  151.2811 H   0  0  0  0  0  0  0  0  0  0  0  0  # atno 10167 bound_to 10162
  157.5835  130.9000  149.9474 H   0  0  0  0  0  0  0  0  0  0  0  0  # atno 10718 bound_to 10713
  152.9971  135.6224  154.2445 H   0  0  0  0  0  0  0  0  0  0  0  0  # atno 10763 bound_to 10752
  154.2185  135.2797  155.2935 H   0  0  0  0  0  0  0  0  0  0  0  0  # atno 10764 bound_to 10752
  154.5548  135.5722  153.7013 H   0  0  0  0  0  0  0  0  0  0  0  0  # atno 10765 bound_to 10752
  139.9675  134.9586  156.9301 H   0  0  0  0  0  0  0  0  0  0  0  0  # atno 11005 bound_to 11000
  146.3519  140.1202  142.8600 LP  0  0  0  0  0  0  0  0  0  0  0  0  # atno 17320 bound_to 7965
  145.0716  140.9159  143.4878 LP  0  0  0  0  0  0  0  0  0  0  0  0  # atno 17321 bound_to 7965
  139.6653  144.0116  152.2719 LP  0  0  0  0  0  0  0  0  0  0  0  0  # atno 17342 bound_to 10162
  139.9696  144.6502  150.8001 LP  0  0  0  0  0  0  0  0  0  0  0  0  # atno 17343 bound_to 10162
  156.0882  130.3666  150.0445 LP  0  0  0  0  0  0  0  0  0  0  0  0  # atno 17370 bound_to 10713
  156.8580  130.9482  151.3620 LP  0  0  0  0  0  0  0  0  0  0  0  0  # atno 17371 bound_to 10713
  140.5365  134.0762  155.7330 LP  0  0  0  0  0  0  0  0  0  0  0  0  # atno 17394 bound_to 11000
  141.1355  133.9229  157.2444 LP  0  0  0  0  0  0  0  0  0  0  0  0  # atno 17395 bound_to 11000

$$$$
