AV-unprocessed.smi:670|AV-procd|sdf|3268|dock10
  -GOLD-   22720 0223D 1   1.00000     0.00000
 Structure written by MMmdl.
 44 45  0  0  0  0  0  0  0  0  2 V2000
  153.6642  141.6528  160.2213 C   0  0  0  0  0  0  0  0  0  0  0  0
  152.4055  142.4319  159.8072 C   0  0  1  0  0  0  0  0  0  0  0  0
  152.5565  143.9305  160.1402 C   0  0  0  0  0  0  0  0  0  0  0  0
  151.3121  144.7341  159.7322 C   0  0  0  0  0  0  0  0  0  0  0  0
  150.9992  144.5433  158.2420 C   0  0  0  0  0  0  0  0  0  0  0  0
  150.8364  143.0552  157.9053 C   0  0  0  0  0  0  0  0  0  0  0  0
  152.0795  142.2362  158.3095 C   0  0  2  0  0  0  0  0  0  0  0  0
  151.7991  140.8606  158.0917 O   0  0  0  0  0  0  0  0  0  0  0  0
  151.2580  140.5671  156.8116 C   0  0  0  0  0  0  0  0  0  0  0  0
  149.9031  139.8789  157.0011 C   0  0  0  0  0  0  0  0  0  0  0  0
  150.0830  138.6593  157.7779 N   0  0  0  0  0  0  0  0  0  0  0  0
  149.1529  138.0434  158.5249 C   0  0  0  0  0  0  0  0  0  0  0  0
  147.9875  138.4322  158.6020 O   0  0  0  0  0  0  0  0  0  0  0  0
  149.5888  136.8057  159.3288 C   0  0  0  0  0  0  0  0  0  0  0  0
  148.4890  136.0825  159.9900 N   0  0  0  0  0  0  0  0  0  0  0  0
  147.7617  136.8788  160.9746 N   0  5  0  0  0  0  0  0  0  0  0  0
  146.7137  136.3194  161.6358 C   0  0  0  0  0  0  0  0  0  0  0  0
  146.0426  136.9332  162.4616 O   0  0  0  0  0  0  0  0  0  0  0  0
  146.3825  134.9342  161.3462 C   0  0  0  0  0  0  0  0  0  0  0  0
  147.0744  134.2212  160.4359 C   0  0  0  0  0  0  0  0  0  0  0  0
  148.1868  134.7883  159.6836 C   0  0  0  0  0  0  0  0  0  0  0  0
  148.8048  134.1507  158.8312 O   0  0  0  0  0  0  0  0  0  0  0  0
  154.5384  141.9853  159.6607 H   0  0  0  0  0  0  0  0  0  0  0  0
  153.5439  140.5833  160.0463 H   0  0  0  0  0  0  0  0  0  0  0  0
  153.8773  141.7879  161.2819 H   0  0  0  0  0  0  0  0  0  0  0  0
  151.5684  142.0436  160.3898 H   0  0  0  0  0  0  0  0  0  0  0  0
  152.7372  144.0590  161.2080 H   0  0  0  0  0  0  0  0  0  0  0  0
  153.4311  144.3351  159.6290 H   0  0  0  0  0  0  0  0  0  0  0  0
  150.4570  144.4147  160.3294 H   0  0  0  0  0  0  0  0  0  0  0  0
  151.4633  145.7920  159.9481 H   0  0  0  0  0  0  0  0  0  0  0  0
  150.0900  145.0846  157.9793 H   0  0  0  0  0  0  0  0  0  0  0  0
  151.8015  144.9702  157.6389 H   0  0  0  0  0  0  0  0  0  0  0  0
  149.9664  142.6610  158.4307 H   0  0  0  0  0  0  0  0  0  0  0  0
  150.6267  142.9455  156.8415 H   0  0  0  0  0  0  0  0  0  0  0  0
  152.9430  142.5481  157.7181 H   0  0  0  0  0  0  0  0  0  0  0  0
  151.1270  141.4667  156.2085 H   0  0  0  0  0  0  0  0  0  0  0  0
  151.9481  139.9169  156.2733 H   0  0  0  0  0  0  0  0  0  0  0  0
  149.2145  140.5651  157.4961 H   0  0  0  0  0  0  0  0  0  0  0  0
  149.4636  139.6274  156.0354 H   0  0  0  0  0  0  0  0  0  0  0  0
  151.0077  138.2512  157.7681 H   0  0  0  0  0  0  0  0  0  0  0  0
  150.1337  136.1308  158.6667 H   0  0  0  0  0  0  0  0  0  0  0  0
  150.3191  137.1306  160.0716 H   0  0  0  0  0  0  0  0  0  0  0  0
  145.5626  134.4670  161.8713 H   0  0  0  0  0  0  0  0  0  0  0  0
  146.7909  133.1961  160.2501 H   0  0  0  0  0  0  0  0  0  0  0  0
  1  2  1  0  0  0  0
  1 23  1  0  0  0  0
  1 24  1  0  0  0  0
  1 25  1  0  0  0  0
  2  7  1  0  0  0  0
  2  3  1  0  0  0  0
  2 26  1  0  0  0  0
  3  4  1  0  0  0  0
  3 27  1  0  0  0  0
  3 28  1  0  0  0  0
  4  5  1  0  0  0  0
  4 29  1  0  0  0  0
  4 30  1  0  0  0  0
  5  6  1  0  0  0  0
  5 31  1  0  0  0  0
  5 32  1  0  0  0  0
  6  7  1  0  0  0  0
  6 33  1  0  0  0  0
  6 34  1  0  0  0  0
  7  8  1  0  0  0  0
  7 35  1  0  0  0  0
  8  9  1  0  0  0  0
  9 10  1  0  0  0  0
  9 36  1  0  0  0  0
  9 37  1  0  0  0  0
 10 11  1  0  0  0  0
 10 38  1  0  0  0  0
 10 39  1  0  0  0  0
 11 12  1  0  0  0  0
 11 40  1  0  0  0  0
 12 13  2  0  0  0  0
 12 14  1  0  0  0  0
 14 41  1  0  0  0  0
 14 42  1  0  0  0  0
 14 15  1  0  0  0  0
 15 16  1  0  0  0  0
 15 21  1  0  0  0  0
 16 17  1  0  0  0  0
 17 18  2  0  0  0  0
 17 19  1  0  0  0  0
 19 43  1  0  0  0  0
 19 20  2  0  0  0  0
 20 44  1  0  0  0  0
 20 21  1  0  0  0  0
 21 22  2  0  0  0  0
M  CHG  1  16  -1
M  END
> <s_m_source_file>
AV-unprocessed.smi

> <i_m_source_file_index>
670

> <i_lp_mmshare_version>
43012

> <i_f3d_flags>
0

> <s_epik_input>
W0NIM11bQ0BASF0xW0NIMl1bQ0gyXVtDSDJdW0NIMl1bQ0BIXTFPW0NIMl1bQ0gyXVtOSF1DKD1PKVtDSDJdbjJbbkhdYyg9TylbY0hdW2NIXWMyPU8=

> <s_epik_cmdline>
J2VwaWtfcHl0aG9uJywgJy1waCcsICc3LjAnLCAnLXRuJywgJzgnLCAnLW1hJywgJzIwMCcsICctbWV0YWxfYmluZGluZycsICctaW1hZScsICc8aW5maWxlLm1hZT4nLCAnLW9tYWUnLCAnPG91dGZpbGUubWFlPic=

> <r_lp_tautomer_probability>
1

> <r_epik_Ionization_Penalty>
0.0975638

> <r_epik_Ionization_Penalty_Charging>
0.0975637

> <r_epik_Ionization_Penalty_Neutral>
2.78599e-08

> <r_epik_State_Penalty>
0.0343507

> <r_epik_Charging_Adjusted_Penalty>
0.131914

> <i_epik_Tot_Q>
-1

> <i_epik_Tot_abs_Q>
1

> <r_epik_Metal_State_Penalty>
0.0343507

> <b_epik_Metal_Only>
0

> <s_lp_Force_Field>
OPLS_2005

> <r_lp_Energy>
24.2447

> <b_lp_Chiralities_Consistent>
1

> <s_lp_Variant>
AV-unprocessed.smi:670-4

> <Gold.Version>
5.8.1

> <Gold.Id.Protein>
6NUR|6NUR_protein|mol2

> <Gold.PLP.Fitness>
53.3180

> <Gold.PLP.PLP>
-40.4377

> <Gold.PLP.part.hbond>
-4.0000

> <Gold.PLP.part.metal>
0.0000

> <Gold.PLP.part.buried>
-6.2367

> <Gold.PLP.part.nonpolar>
-30.5451

> <Gold.PLP.part.repulsive>
0.0738

> <Gold.PLP.ligand.clash>
0.0000

> <Gold.PLP.ligand.torsion>
0.6613

> <Gold.PLP.Chemscore.Hbond>
4.7120

> <Gold.PLP.Chemscore.CHOScore>
0.0000

> <Gold.PLP.Chemscore.Metal>
0.0000

> <Gold.Chemscore.Hbonds>
donor molecule, donor type, donor heavy atom, donor atom, acceptor molecule, acceptor atom, score
      P1  H  6896  6908       L1    22  1.00
      P1  H  6931  6943       L1    16  1.72
      P1  H  6934  6947       L1    16  0.98

> <Gold.PLP.Chemscore.Internal.Correction>
0.0669

> <Gold.Rescore>
     Score         DG    S(hbond)    S(metal)    S(lipo)     H(rot)  DE(clash)    DE(int)     intcor
     14.41     -16.49       1.60        0.00     101.92       2.45       0.04       2.05       ----

> <Gold.Chemscore.Fitness>
14.4087

> <Gold.Chemscore.DG>
-16.4940

> <Gold.Chemscore.ZeroCoef>
-5.4800

> <Gold.Chemscore.Hbond>
1.6043

> <Gold.Chemscore.Metal>
0.0000

> <Gold.Chemscore.Lipo>
101.9236

> <Gold.Chemscore.Internal_Hbond>
0.0000

> <Gold.Chemscore.DEClash>
0.0362

> <Gold.Chemscore.DEInternal>
2.0491

> <Gold.Chemscore.Rot>
2.4490

> <Gold.Chemscore.Internal.Correction>
   9.000000E+99

> <Gold.Chemscore.Hbonds>
donor molecule, donor type, donor heavy atom, donor atom, acceptor molecule, acceptor atom, score
      P1  H  6896  6908       L1    22  0.34
      P1  H  6931  6943       L1    16  0.62
      P1  H  6934  6947       L1    16  0.17

> <Gold.Chemscore.Hbond.Weighted>
-5.3583

> <Gold.Chemscore.Metal.Weighted>
-0.0000

> <Gold.Chemscore.Lipo.Weighted>
-11.9251

> <Gold.Chemscore.Internal_Hbond.Weighted>
0.0000

> <Gold.Chemscore.DEClash.Weighted>
0.0362

> <Gold.Chemscore.DEInternal.Weighted>
2.0491

> <Gold.Chemscore.Rot.Weighted>
6.2694

> <Gold.Chemscore.Internal.Correction.Weighted>
   9.000000E+99

> <Gold.Protein.RotatedTorsions>
[ 6907 6896 6895 6894 ] final  154.28 input  -60.11 | X-H torsion
[ 7974 7965 7964 7962 ] final -124.90 input  175.53 | X-H torsion
[ 8008 7997 7996 7995 ] final  -69.96 input   59.86 | X-H torsion
[ 10167 10162 10161 10158 ] final  -84.04 input  -65.29 | X-H torsion
[ 10718 10713 10712 10709 ] final  -44.97 input   66.30 | X-H torsion
[ 10763 10752 10751 10750 ] final  -74.49 input  -60.55 | X-H torsion
[ 11005 11000 10999 10996 ] final  125.22 input  -57.11 | X-H torsion

> <Gold.Protein.ActiveResidues>
 VAL166  LYS551  ARG553  GLY616  TRP617  ASP618  TYR619  PRO620  LYS621  CYS622 
 ASP623  PHE694  ASN695  SER759  ASP760  ASP761  ALA762  ILE779  LEU786  VAL792 
 PHE793  MET794  SER795  GLU796  ALA797  LYS798  CYS799  TRP800  GLU811  SER814 

> <Gold.Protein.RotatedAtoms>
  152.0607  133.4061  159.4416 H   0  0  0  0  0  0  0  0  0  0  0  0  # atno 6907 bound_to 6896
  150.6866  134.3203  159.4793 H   0  0  0  0  0  0  0  0  0  0  0  0  # atno 6908 bound_to 6896
  152.1024  134.9332  160.0620 H   0  0  0  0  0  0  0  0  0  0  0  0  # atno 6909 bound_to 6896
  145.0032  140.7840  143.4483 H   0  0  0  0  0  0  0  0  0  0  0  0  # atno 7974 bound_to 7965
  154.4977  140.0843  156.7731 H   0  0  0  0  0  0  0  0  0  0  0  0  # atno 8008 bound_to 7997
  155.4077  140.3440  155.4243 H   0  0  0  0  0  0  0  0  0  0  0  0  # atno 8009 bound_to 7997
  156.1415  140.1531  156.8900 H   0  0  0  0  0  0  0  0  0  0  0  0  # atno 8010 bound_to 7997
  140.4170  143.2600  151.8942 H   0  0  0  0  0  0  0  0  0  0  0  0  # atno 10167 bound_to 10162
  156.2331  130.4174  149.8850 H   0  0  0  0  0  0  0  0  0  0  0  0  # atno 10718 bound_to 10713
  154.4737  135.5863  153.6340 H   0  0  0  0  0  0  0  0  0  0  0  0  # atno 10763 bound_to 10752
  152.9838  135.6073  154.3334 H   0  0  0  0  0  0  0  0  0  0  0  0  # atno 10764 bound_to 10752
  154.3218  135.2843  155.2495 H   0  0  0  0  0  0  0  0  0  0  0  0  # atno 10765 bound_to 10752
  139.9396  134.9637  156.8526 H   0  0  0  0  0  0  0  0  0  0  0  0  # atno 11005 bound_to 11000
  145.2124  139.2198  143.5136 LP  0  0  0  0  0  0  0  0  0  0  0  0  # atno 17320 bound_to 7965
  146.3456  140.1964  142.8589 LP  0  0  0  0  0  0  0  0  0  0  0  0  # atno 17321 bound_to 7965
  139.4782  144.5478  151.8432 LP  0  0  0  0  0  0  0  0  0  0  0  0  # atno 17342 bound_to 10162
  140.4576  144.1768  150.5903 LP  0  0  0  0  0  0  0  0  0  0  0  0  # atno 17343 bound_to 10162
  156.6458  130.8723  151.3522 LP  0  0  0  0  0  0  0  0  0  0  0  0  # atno 17370 bound_to 10713
  157.7142  130.9477  150.1196 LP  0  0  0  0  0  0  0  0  0  0  0  0  # atno 17371 bound_to 10713
  140.5986  134.0193  155.7528 LP  0  0  0  0  0  0  0  0  0  0  0  0  # atno 17394 bound_to 11000
  141.1025  133.9746  157.3054 LP  0  0  0  0  0  0  0  0  0  0  0  0  # atno 17395 bound_to 11000

$$$$
