AV-unprocessed.smi:1184|AV-procd|sdf|4972|dock1
  -GOLD-   22720 3563D 1   1.00000     0.00000
 Structure written by MMmdl.
 43 44  0  0  0  0  0  0  0  0  2 V2000
  143.5411  135.0976  151.8145 C   0  0  0  0  0  0  0  0  0  0  0  0
  144.3835  135.1261  150.5308 C   0  0  0  0  0  0  0  0  0  0  0  0
  144.9641  133.8007  150.2123 N   0  3  2  0  0  0  0  0  0  0  0  0
  143.9662  132.7339  149.9596 C   0  0  0  0  0  0  0  0  0  0  0  0
  144.4679  131.4721  150.6782 C   0  0  0  0  0  0  0  0  0  0  0  0
  145.9321  131.7671  150.9994 C   0  0  2  0  0  0  0  0  0  0  0  0
  146.5057  130.9462  152.1714 C   0  0  0  0  0  0  0  0  0  0  0  0
  147.7925  131.4872  152.5949 N   0  0  0  0  0  0  0  0  0  0  0  0
  148.0697  131.9434  153.8264 C   0  0  0  0  0  0  0  0  0  0  0  0
  147.3276  131.7871  154.7957 O   0  0  0  0  0  0  0  0  0  0  0  0
  149.3404  132.7781  153.9655 C   0  0  0  0  0  0  0  0  0  0  0  0
  149.3553  133.3871  155.3455 C   0  0  0  0  0  0  0  0  0  0  0  0
  148.4864  134.3846  155.8742 C   0  0  0  0  0  0  0  0  0  0  0  0
  147.3553  135.0973  155.1899 C   0  0  0  0  0  0  0  0  0  0  0  0
  148.7591  134.6570  157.1392 N   0  0  0  0  0  0  0  0  0  0  0  0
  149.8358  133.8353  157.4853 O   0  0  0  0  0  0  0  0  0  0  0  0
  150.1731  133.0909  156.4020 C   0  0  0  0  0  0  0  0  0  0  0  0
  151.2968  132.1268  156.5793 C   0  0  0  0  0  0  0  0  0  0  0  0
  145.9151  133.2815  151.2143 C   0  0  0  0  0  0  0  0  0  0  0  0
  143.1870  136.0981  152.0643 H   0  0  0  0  0  0  0  0  0  0  0  0
  144.1228  134.7316  152.6613 H   0  0  0  0  0  0  0  0  0  0  0  0
  142.6639  134.4587  151.7082 H   0  0  0  0  0  0  0  0  0  0  0  0
  143.7832  135.4811  149.6919 H   0  0  0  0  0  0  0  0  0  0  0  0
  145.1976  135.8403  150.6601 H   0  0  0  0  0  0  0  0  0  0  0  0
  142.9736  133.0081  150.3206 H   0  0  0  0  0  0  0  0  0  0  0  0
  143.8932  132.5709  148.8840 H   0  0  0  0  0  0  0  0  0  0  0  0
  143.9031  131.3326  151.6011 H   0  0  0  0  0  0  0  0  0  0  0  0
  144.3459  130.5704  150.0771 H   0  0  0  0  0  0  0  0  0  0  0  0
  146.5238  131.5618  150.1055 H   0  0  0  0  0  0  0  0  0  0  0  0
  145.7998  130.9153  153.0032 H   0  0  0  0  0  0  0  0  0  0  0  0
  146.6557  129.9125  151.8589 H   0  0  0  0  0  0  0  0  0  0  0  0
  148.4771  131.6471  151.8699 H   0  0  0  0  0  0  0  0  0  0  0  0
  150.2100  132.1414  153.7994 H   0  0  0  0  0  0  0  0  0  0  0  0
  149.3645  133.5398  153.1853 H   0  0  0  0  0  0  0  0  0  0  0  0
  146.7477  134.4022  154.6105 H   0  0  0  0  0  0  0  0  0  0  0  0
  147.7325  135.8582  154.5067 H   0  0  0  0  0  0  0  0  0  0  0  0
  146.6966  135.5904  155.9056 H   0  0  0  0  0  0  0  0  0  0  0  0
  151.8081  131.9457  155.6337 H   0  0  0  0  0  0  0  0  0  0  0  0
  150.9272  131.1712  156.9510 H   0  0  0  0  0  0  0  0  0  0  0  0
  152.0300  132.5074  157.2907 H   0  0  0  0  0  0  0  0  0  0  0  0
  146.9006  133.7312  151.0919 H   0  0  0  0  0  0  0  0  0  0  0  0
  145.5576  133.5128  152.2193 H   0  0  0  0  0  0  0  0  0  0  0  0
  145.4844  133.9003  149.3522 H   0  0  0  0  0  0  0  0  0  0  0  0
  1  2  1  0  0  0  0
  1 20  1  0  0  0  0
  1 21  1  0  0  0  0
  1 22  1  0  0  0  0
  2  3  1  0  0  0  0
  2 23  1  0  0  0  0
  2 24  1  0  0  0  0
  3 19  1  0  0  0  0
  3  4  1  0  0  0  0
  3 43  1  0  0  0  0
  4  5  1  0  0  0  0
  4 25  1  0  0  0  0
  4 26  1  0  0  0  0
  5  6  1  0  0  0  0
  5 27  1  0  0  0  0
  5 28  1  0  0  0  0
  6  7  1  0  0  0  0
  6 19  1  0  0  0  0
  6 29  1  0  0  0  0
  7  8  1  0  0  0  0
  7 30  1  0  0  0  0
  7 31  1  0  0  0  0
  8  9  1  0  0  0  0
  8 32  1  0  0  0  0
  9 10  2  0  0  0  0
  9 11  1  0  0  0  0
 11 12  1  0  0  0  0
 11 33  1  0  0  0  0
 11 34  1  0  0  0  0
 12 17  2  0  0  0  0
 12 13  1  0  0  0  0
 13 14  1  0  0  0  0
 13 15  2  0  0  0  0
 14 35  1  0  0  0  0
 14 36  1  0  0  0  0
 14 37  1  0  0  0  0
 15 16  1  0  0  0  0
 16 17  1  0  0  0  0
 17 18  1  0  0  0  0
 18 38  1  0  0  0  0
 18 39  1  0  0  0  0
 18 40  1  0  0  0  0
 19 41  1  0  0  0  0
 19 42  1  0  0  0  0
M  CHG  1   3   1
M  END
> <s_m_source_file>
AV-unprocessed.smi

> <i_m_source_file_index>
1184

> <i_lp_mmshare_version>
43012

> <i_f3d_flags>
0

> <s_epik_input>
W0NIM11bQ0gyXU4xW0NIMl1bQ0gyXVtDQEhdKFtDSDJdMSlbQ0gyXVtOSF1DKD1PKVtDSDJdYzJjKFtDSDNdKW5vYzJbQ0gzXQ==

> <s_epik_cmdline>
J2VwaWtfcHl0aG9uJywgJy1waCcsICc3LjAnLCAnLXRuJywgJzgnLCAnLW1hJywgJzIwMCcsICctbWV0YWxfYmluZGluZycsICctaW1hZScsICc8aW5maWxlLm1hZT4nLCAnLW9tYWUnLCAnPG91dGZpbGUubWFlPic=

> <r_epik_Ionization_Penalty>
0.000590726

> <r_epik_Ionization_Penalty_Charging>
0.000590692

> <r_epik_Ionization_Penalty_Neutral>
3.44741e-08

> <r_epik_State_Penalty>
0.000371644

> <r_epik_Charging_Adjusted_Penalty>
0.000962336

> <i_epik_Tot_Q>
1

> <i_epik_Tot_abs_Q>
1

> <r_epik_Metal_State_Penalty>
-0

> <b_epik_Metal_Only>
0

> <s_lp_Force_Field>
OPLS_2005

> <r_lp_Energy>
20.136

> <b_lp_Chiralities_Consistent>
1

> <s_lp_Variant>
AV-unprocessed.smi:1184-4

> <Gold.Version>
5.8.1

> <Gold.Id.Protein>
6NUR|6NUR_protein|mol2

> <Gold.PLP.Fitness>
41.7577

> <Gold.PLP.PLP>
-33.1274

> <Gold.PLP.part.hbond>
-3.0000

> <Gold.PLP.part.metal>
0.0000

> <Gold.PLP.part.buried>
-4.5972

> <Gold.PLP.part.nonpolar>
-25.9176

> <Gold.PLP.part.repulsive>
0.1079

> <Gold.PLP.ligand.clash>
0.0000

> <Gold.PLP.ligand.torsion>
0.2014

> <Gold.PLP.Chemscore.Hbond>
2.9920

> <Gold.PLP.Chemscore.CHOScore>
0.0000

> <Gold.PLP.Chemscore.Metal>
0.0000

> <Gold.Chemscore.Hbonds>
donor molecule, donor type, donor heavy atom, donor atom, acceptor molecule, acceptor atom, score
      L1  H     3    43       P1  7921  0.96
      L1  H     8    32       P1 10747  0.77
      P1  H  6896  6909       L1    16  0.99

> <Gold.PLP.Chemscore.Internal.Correction>
0.0570

> <Gold.Rescore>
     Score         DG    S(hbond)    S(metal)    S(lipo)     H(rot)  DE(clash)    DE(int)     intcor
     18.89     -19.14       2.59        0.00      79.32       1.67       0.00       0.24       ----

> <Gold.Chemscore.Fitness>
18.8918

> <Gold.Chemscore.DG>
-19.1360

> <Gold.Chemscore.ZeroCoef>
-5.4800

> <Gold.Chemscore.Hbond>
2.5888

> <Gold.Chemscore.Metal>
0.0000

> <Gold.Chemscore.Lipo>
79.3206

> <Gold.Chemscore.Internal_Hbond>
0.0000

> <Gold.Chemscore.DEClash>
0.0000

> <Gold.Chemscore.DEInternal>
0.2442

> <Gold.Chemscore.Rot>
1.6684

> <Gold.Chemscore.Internal.Correction>
   9.000000E+99

> <Gold.Chemscore.Hbonds>
donor molecule, donor type, donor heavy atom, donor atom, acceptor molecule, acceptor atom, score
      L1  H     3    43       P1  7921  0.59
      L1  H     8    32       P1 10747  0.76
      P1  H  6896  6909       L1    16  0.87

> <Gold.Chemscore.Hbond.Weighted>
-8.6467

> <Gold.Chemscore.Metal.Weighted>
-0.0000

> <Gold.Chemscore.Lipo.Weighted>
-9.2805

> <Gold.Chemscore.Internal_Hbond.Weighted>
0.0000

> <Gold.Chemscore.DEClash.Weighted>
0.0000

> <Gold.Chemscore.DEInternal.Weighted>
0.2442

> <Gold.Chemscore.Rot.Weighted>
4.2712

> <Gold.Chemscore.Internal.Correction.Weighted>
   9.000000E+99

> <Gold.Protein.RotatedTorsions>
[ 6907 6896 6895 6894 ] final   -7.64 input  -60.11 | X-H torsion
[ 7974 7965 7964 7962 ] final   57.04 input  175.53 | X-H torsion
[ 8008 7997 7996 7995 ] final -104.75 input   59.86 | X-H torsion
[ 10167 10162 10161 10158 ] final  -31.58 input  -65.29 | X-H torsion
[ 10718 10713 10712 10709 ] final -179.77 input   66.30 | X-H torsion
[ 10763 10752 10751 10750 ] final   92.15 input  -60.55 | X-H torsion
[ 11005 11000 10999 10996 ] final   93.75 input  -57.11 | X-H torsion

> <Gold.Protein.ActiveResidues>
 VAL166  LYS551  ARG553  GLY616  TRP617  ASP618  TYR619  PRO620  LYS621  CYS622 
 ASP623  PHE694  ASN695  SER759  ASP760  ASP761  ALA762  ILE779  LEU786  VAL792 
 PHE793  MET794  SER795  GLU796  ALA797  LYS798  CYS799  TRP800  GLU811  SER814 

> <Gold.Protein.RotatedAtoms>
  151.4464  135.1025  159.9684 H   0  0  0  0  0  0  0  0  0  0  0  0  # atno 6907 bound_to 6896
  152.4904  133.8481  159.7197 H   0  0  0  0  0  0  0  0  0  0  0  0  # atno 6908 bound_to 6896
  150.9052  133.7008  159.2896 H   0  0  0  0  0  0  0  0  0  0  0  0  # atno 6909 bound_to 6896
  145.9333  139.3826  143.0408 H   0  0  0  0  0  0  0  0  0  0  0  0  # atno 7974 bound_to 7965
  154.8899  140.0416  157.1832 H   0  0  0  0  0  0  0  0  0  0  0  0  # atno 8008 bound_to 7997
  154.8552  140.2935  155.5552 H   0  0  0  0  0  0  0  0  0  0  0  0  # atno 8009 bound_to 7997
  156.2997  140.2457  156.3517 H   0  0  0  0  0  0  0  0  0  0  0  0  # atno 8010 bound_to 7997
  140.7234  143.3760  151.1689 H   0  0  0  0  0  0  0  0  0  0  0  0  # atno 10167 bound_to 10162
  156.8640  130.9761  151.3080 H   0  0  0  0  0  0  0  0  0  0  0  0  # atno 10718 bound_to 10713
  153.2160  135.4372  155.0435 H   0  0  0  0  0  0  0  0  0  0  0  0  # atno 10763 bound_to 10752
  154.8225  135.3344  154.6998 H   0  0  0  0  0  0  0  0  0  0  0  0  # atno 10764 bound_to 10752
  153.7432  135.7003  153.5018 H   0  0  0  0  0  0  0  0  0  0  0  0  # atno 10765 bound_to 10752
  139.8806  134.8807  156.3764 H   0  0  0  0  0  0  0  0  0  0  0  0  # atno 11005 bound_to 11000
  145.8397  140.9587  143.0806 LP  0  0  0  0  0  0  0  0  0  0  0  0  # atno 17320 bound_to 7965
  144.6768  140.0268  143.7483 LP  0  0  0  0  0  0  0  0  0  0  0  0  # atno 17321 bound_to 7965
  139.7340  143.9028  152.3029 LP  0  0  0  0  0  0  0  0  0  0  0  0  # atno 17342 bound_to 10162
  139.8826  144.7009  150.8860 LP  0  0  0  0  0  0  0  0  0  0  0  0  # atno 17343 bound_to 10162
  157.6234  130.8672  149.9147 LP  0  0  0  0  0  0  0  0  0  0  0  0  # atno 17370 bound_to 10713
  156.0762  130.3678  150.0674 LP  0  0  0  0  0  0  0  0  0  0  0  0  # atno 17371 bound_to 10713
  140.9429  133.7502  156.0170 LP  0  0  0  0  0  0  0  0  0  0  0  0  # atno 17394 bound_to 11000
  140.8198  134.3303  157.5385 LP  0  0  0  0  0  0  0  0  0  0  0  0  # atno 17395 bound_to 11000

$$$$
