AV-unprocessed.smi:1460|AV-procd|sdf|5929|dock7
  -GOLD-   22720 6 13D 1   1.00000     0.00000
 Structure written by MMmdl.
 41 42  0  0  0  0  0  0  0  0  1 V2000
  153.1983  139.5562  159.7290 C   0  0  0  0  0  0  0  0  0  0  0  0
  152.5033  140.8562  159.3030 C   0  0  1  0  0  0  0  0  0  0  0  0
  153.4494  142.0692  159.4383 C   0  0  0  0  0  0  0  0  0  0  0  0
  152.7895  143.3320  159.1561 N   0  0  0  0  0  0  0  0  0  0  0  0
  152.6102  144.4124  159.9947 C   0  0  0  0  0  0  0  0  0  0  0  0
  151.9553  145.3752  159.2819 C   0  0  0  0  0  0  0  0  0  0  0  0
  151.7700  144.7805  158.0023 C   0  0  0  0  0  0  0  0  0  0  0  0
  152.2666  143.5562  157.9314 N   0  0  0  0  0  0  0  0  0  0  0  0
  152.0341  140.7133  157.9251 N   0  0  0  0  0  0  0  0  0  0  0  0
  150.7508  140.6311  157.5379 C   0  0  0  0  0  0  0  0  0  0  0  0
  149.8037  140.6404  158.3250 O   0  0  0  0  0  0  0  0  0  0  0  0
  150.4978  140.5455  156.0280 C   0  0  0  0  0  0  0  0  0  0  0  0
  149.4845  141.6248  155.5799 C   0  0  0  0  0  0  0  0  0  0  0  0
  149.1218  141.4630  154.0925 C   0  0  0  0  0  0  0  0  0  0  0  0
  148.5976  140.1040  153.8758 N   0  0  0  0  0  0  0  0  0  0  0  0
  147.2983  139.7701  153.6714 C   0  0  0  0  0  0  0  0  0  0  0  0
  146.5102  140.7683  153.2597 N   0  0  0  0  0  0  0  0  0  0  0  0
  146.8554  138.6306  153.8057 O   0  0  0  0  0  0  0  0  0  0  0  0
  149.6270  139.0893  154.1325 C   0  0  0  0  0  0  0  0  0  0  0  0
  150.0146  139.1339  155.6214 C   0  0  0  0  0  0  0  0  0  0  0  0
  153.5369  139.6146  160.7639 H   0  0  0  0  0  0  0  0  0  0  0  0
  154.0684  139.3466  159.1061 H   0  0  0  0  0  0  0  0  0  0  0  0
  152.5206  138.7052  159.6535 H   0  0  0  0  0  0  0  0  0  0  0  0
  151.6518  140.9977  159.9715 H   0  0  0  0  0  0  0  0  0  0  0  0
  153.8523  142.1195  160.4509 H   0  0  0  0  0  0  0  0  0  0  0  0
  154.3050  141.9646  158.7697 H   0  0  0  0  0  0  0  0  0  0  0  0
  152.9682  144.4092  161.0136 H   0  0  0  0  0  0  0  0  0  0  0  0
  151.6559  146.3556  159.6211 H   0  0  0  0  0  0  0  0  0  0  0  0
  151.2925  145.1991  157.1290 H   0  0  0  0  0  0  0  0  0  0  0  0
  152.7429  140.6950  157.2061 H   0  0  0  0  0  0  0  0  0  0  0  0
  151.4381  140.7364  155.5075 H   0  0  0  0  0  0  0  0  0  0  0  0
  148.5738  141.5636  156.1782 H   0  0  0  0  0  0  0  0  0  0  0  0
  149.8985  142.6195  155.7508 H   0  0  0  0  0  0  0  0  0  0  0  0
  148.4343  142.2547  153.7951 H   0  0  0  0  0  0  0  0  0  0  0  0
  150.0102  141.6055  153.4755 H   0  0  0  0  0  0  0  0  0  0  0  0
  145.5304  140.5982  153.0874 H   0  0  0  0  0  0  0  0  0  0  0  0
  146.9008  141.6893  153.1246 H   0  0  0  0  0  0  0  0  0  0  0  0
  149.3022  138.0835  153.8618 H   0  0  0  0  0  0  0  0  0  0  0  0
  150.4999  139.2938  153.5106 H   0  0  0  0  0  0  0  0  0  0  0  0
  150.7962  138.3993  155.8194 H   0  0  0  0  0  0  0  0  0  0  0  0
  149.1531  138.8376  156.2221 H   0  0  0  0  0  0  0  0  0  0  0  0
  1  2  1  0  0  0  0
  1 21  1  0  0  0  0
  1 22  1  0  0  0  0
  1 23  1  0  0  0  0
  2  3  1  0  0  0  0
  2  9  1  0  0  0  0
  2 24  1  0  0  0  0
  3  4  1  0  0  0  0
  3 25  1  0  0  0  0
  3 26  1  0  0  0  0
  4  8  1  0  0  0  0
  4  5  1  0  0  0  0
  5  6  2  0  0  0  0
  5 27  1  0  0  0  0
  6  7  1  0  0  0  0
  6 28  1  0  0  0  0
  7  8  2  0  0  0  0
  7 29  1  0  0  0  0
  9 10  1  0  0  0  0
  9 30  1  0  0  0  0
 10 11  2  0  0  0  0
 10 12  1  0  0  0  0
 12 20  1  0  0  0  0
 12 13  1  0  0  0  0
 12 31  1  0  0  0  0
 13 14  1  0  0  0  0
 13 32  1  0  0  0  0
 13 33  1  0  0  0  0
 14 15  1  0  0  0  0
 14 34  1  0  0  0  0
 14 35  1  0  0  0  0
 15 16  1  0  0  0  0
 15 19  1  0  0  0  0
 16 17  1  0  0  0  0
 16 18  2  0  0  0  0
 17 36  1  0  0  0  0
 17 37  1  0  0  0  0
 19 20  1  0  0  0  0
 19 38  1  0  0  0  0
 19 39  1  0  0  0  0
 20 40  1  0  0  0  0
 20 41  1  0  0  0  0
M  END
> <s_m_source_file>
AV-unprocessed.smi

> <i_m_source_file_index>
1460

> <i_lp_mmshare_version>
43012

> <i_f3d_flags>
0

> <s_epik_input>
bjFbY0hdW2NIXVtjSF1uMVtDSDJdW0NAQEhdKFtDSDNdKVtOSF1DKD1PKVtDSF0yW0NIMl1bQ0gyXU4oQyg9TylbTkgyXSlbQ0gyXVtDSDJdMg==

> <s_epik_cmdline>
J2VwaWtfcHl0aG9uJywgJy1waCcsICc3LjAnLCAnLXRuJywgJzgnLCAnLW1hJywgJzIwMCcsICctbWV0YWxfYmluZGluZycsICctaW1hZScsICc8aW5maWxlLm1hZT4nLCAnLW9tYWUnLCAnPG91dGZpbGUubWFlPic=

> <r_lp_tautomer_probability>
1

> <r_epik_Ionization_Penalty>
0.000387527

> <r_epik_Ionization_Penalty_Charging>
0

> <r_epik_Ionization_Penalty_Neutral>
0.000387527

> <r_epik_State_Penalty>
-0

> <r_epik_Charging_Adjusted_Penalty>
0

> <i_epik_Tot_Q>
0

> <i_epik_Tot_abs_Q>
0

> <r_epik_Metal_State_Penalty>
-0

> <b_epik_Metal_Only>
0

> <s_lp_Force_Field>
OPLS_2005

> <r_lp_Energy>
25.9922

> <b_lp_Chiralities_Consistent>
1

> <s_lp_Variant>
AV-unprocessed.smi:1460-2

> <Gold.Version>
5.8.1

> <Gold.Id.Protein>
6NUR|6NUR_protein|mol2

> <Gold.PLP.Fitness>
44.8710

> <Gold.PLP.PLP>
-39.5153

> <Gold.PLP.part.hbond>
-1.0000

> <Gold.PLP.part.metal>
0.0000

> <Gold.PLP.part.buried>
-1.3705

> <Gold.PLP.part.nonpolar>
-36.9482

> <Gold.PLP.part.repulsive>
0.3217

> <Gold.PLP.ligand.clash>
0.0000

> <Gold.PLP.ligand.torsion>
0.3519

> <Gold.PLP.Chemscore.Hbond>
1.0000

> <Gold.PLP.Chemscore.CHOScore>
1.0000

> <Gold.PLP.Chemscore.Metal>
0.0000

> <Gold.Chemscore.Hbonds>
donor molecule, donor type, donor heavy atom, donor atom, acceptor molecule, acceptor atom, score
      L1  H    17    36       P1 10175  1.00
      L1  C     7    29       P1  8028  0.30

> <Gold.PLP.Chemscore.Internal.Correction>
0.0594

> <Gold.Rescore>
     Score         DG    S(hbond)    S(metal)    S(lipo)     H(rot)  DE(clash)    DE(int)     intcor
     14.71     -15.06       0.97        0.00      94.12       1.82       0.07       0.28       ----

> <Gold.Chemscore.Fitness>
14.7143

> <Gold.Chemscore.DG>
-15.0628

> <Gold.Chemscore.ZeroCoef>
-5.4800

> <Gold.Chemscore.Hbond>
0.9675

> <Gold.Chemscore.Metal>
0.0000

> <Gold.Chemscore.Lipo>
94.1190

> <Gold.Chemscore.Internal_Hbond>
0.0000

> <Gold.Chemscore.DEClash>
0.0653

> <Gold.Chemscore.DEInternal>
0.2832

> <Gold.Chemscore.Rot>
1.8206

> <Gold.Chemscore.Internal.Correction>
   9.000000E+99

> <Gold.Chemscore.Hbonds>
donor molecule, donor type, donor heavy atom, donor atom, acceptor molecule, acceptor atom, score
      L1  H    17    36       P1 10175  0.81

> <Gold.Chemscore.Hbond.Weighted>
-3.2315

> <Gold.Chemscore.Metal.Weighted>
-0.0000

> <Gold.Chemscore.Lipo.Weighted>
-11.0119

> <Gold.Chemscore.Internal_Hbond.Weighted>
0.0000

> <Gold.Chemscore.DEClash.Weighted>
0.0653

> <Gold.Chemscore.DEInternal.Weighted>
0.2832

> <Gold.Chemscore.Rot.Weighted>
4.6607

> <Gold.Chemscore.Internal.Correction.Weighted>
   9.000000E+99

> <Gold.Protein.RotatedTorsions>
[ 6907 6896 6895 6894 ] final   32.97 input  -60.11 | X-H torsion
[ 7974 7965 7964 7962 ] final   33.82 input  175.53 | X-H torsion
[ 8008 7997 7996 7995 ] final -158.19 input   59.86 | X-H torsion
[ 10167 10162 10161 10158 ] final   42.79 input  -65.29 | X-H torsion
[ 10718 10713 10712 10709 ] final  -65.94 input   66.30 | X-H torsion
[ 10763 10752 10751 10750 ] final  150.46 input  -60.55 | X-H torsion
[ 11005 11000 10999 10996 ] final  135.30 input  -57.11 | X-H torsion

> <Gold.Protein.ActiveResidues>
 VAL166  LYS551  ARG553  GLY616  TRP617  ASP618  TYR619  PRO620  LYS621  CYS622 
 ASP623  PHE694  ASN695  SER759  ASP760  ASP761  ALA762  ILE779  LEU786  VAL792 
 PHE793  MET794  SER795  GLU796  ALA797  LYS798  CYS799  TRP800  GLU811  SER814 

> <Gold.Protein.RotatedAtoms>
  152.0820  134.9465  160.0573 H   0  0  0  0  0  0  0  0  0  0  0  0  # atno 6907 bound_to 6896
  152.0750  133.4120  159.4484 H   0  0  0  0  0  0  0  0  0  0  0  0  # atno 6908 bound_to 6896
  150.6836  134.2968  159.4733 H   0  0  0  0  0  0  0  0  0  0  0  0  # atno 6909 bound_to 6896
  146.1395  139.6347  142.9173 H   0  0  0  0  0  0  0  0  0  0  0  0  # atno 7974 bound_to 7965
  155.7438  140.0817  157.2233 H   0  0  0  0  0  0  0  0  0  0  0  0  # atno 8008 bound_to 7997
  154.4019  140.1573  156.2701 H   0  0  0  0  0  0  0  0  0  0  0  0  # atno 8009 bound_to 7997
  155.8995  140.3410  155.6019 H   0  0  0  0  0  0  0  0  0  0  0  0  # atno 8010 bound_to 7997
  140.3509  144.2352  150.6146 H   0  0  0  0  0  0  0  0  0  0  0  0  # atno 10167 bound_to 10162
  156.0640  130.4254  150.1637 H   0  0  0  0  0  0  0  0  0  0  0  0  # atno 10718 bound_to 10713
  154.0879  135.2854  155.3277 H   0  0  0  0  0  0  0  0  0  0  0  0  # atno 10763 bound_to 10752
  154.6640  135.5324  153.8057 H   0  0  0  0  0  0  0  0  0  0  0  0  # atno 10764 bound_to 10752
  153.0424  135.6541  154.1050 H   0  0  0  0  0  0  0  0  0  0  0  0  # atno 10765 bound_to 10752
  139.9970  134.9493  156.9987 H   0  0  0  0  0  0  0  0  0  0  0  0  # atno 11005 bound_to 11000
  145.5080  141.0436  143.2503 LP  0  0  0  0  0  0  0  0  0  0  0  0  # atno 17320 bound_to 7965
  144.7776  139.6596  143.7168 LP  0  0  0  0  0  0  0  0  0  0  0  0  # atno 17321 bound_to 7965
  140.5220  143.2263  151.8374 LP  0  0  0  0  0  0  0  0  0  0  0  0  # atno 17342 bound_to 10162
  139.4826  144.4825  151.9288 LP  0  0  0  0  0  0  0  0  0  0  0  0  # atno 17343 bound_to 10162
  156.9700  130.9832  151.3461 LP  0  0  0  0  0  0  0  0  0  0  0  0  # atno 17370 bound_to 10713
  157.5669  130.8284  149.8340 LP  0  0  0  0  0  0  0  0  0  0  0  0  # atno 17371 bound_to 10713
  140.4799  134.1300  155.7215 LP  0  0  0  0  0  0  0  0  0  0  0  0  # atno 17394 bound_to 11000
  141.1612  133.8788  157.1841 LP  0  0  0  0  0  0  0  0  0  0  0  0  # atno 17395 bound_to 11000

$$$$
