#       Name:                AV-unprocessed.smi:1461
#       Creating user name   scv26
#       Creation time:       Fri Mar 27 06:01:24 2020


#       File generated by GOLD software.
#

@<TRIPOS>MOLECULE
AV-unprocessed.smi:1461
    45    46     1
SMALL
NO_CHARGES


@<TRIPOS>ATOM
      1 ****        -2.7062   2.3350  -0.5797 C.3            1 S1                 0.0000
      2 ****        -2.2744   3.1242   0.6689 C.3            1 S1                 0.0000
      3 ****        -3.0658   4.4359   0.7756 C.3            1 S1                 0.0000
      4 ****        -0.7568   3.4016   0.7082 C.3            1 S1                 0.0000
      5 ****         0.0303   2.1722   0.7433 N.am           1 S1                 0.0000
      6 ****         0.6963   1.6441  -0.2935 C.2            1 S1                 0.0000
      7 ****         0.7369   2.1545  -1.4133 O.2            1 S1                 0.0000
      8 ****         1.2808   0.4839   0.0470 N.am           1 S1                 0.0000
      9 ****         1.9782  -0.4172  -0.8044 C.ar           1 S1                 0.0000
     10 ****         2.8288   0.0564  -1.8326 C.ar           1 S1                 0.0000
     11 ****         3.5542  -0.8654  -2.6066 C.ar           1 S1                 0.0000
     12 ****         3.4154  -2.2322  -2.3138 C.ar           1 S1                 0.0000
     13 ****         2.6204  -2.6981  -1.3299 N.ar           1 S1                 0.0000
     14 ****         1.9022  -1.8225  -0.5837 C.ar           1 S1                 0.0000
     15 ****         1.0713  -2.3711   0.4208 N.3            1 S1                 0.0000
     16 ****         1.2101  -3.7691   0.8144 C.3            1 S1                 0.0000
     17 ****        -0.0577  -4.0858   1.6020 C.3            1 S1                 0.0000
     18 ****        -1.1103  -3.2599   0.8692 C.3            1 S1                 0.0000
     19 ****        -0.3441  -2.0114   0.4195 C.3            1 S1                 0.0000
     20 ****        -2.4327   2.8621  -1.4943 H              1 S1                 0.0000
     21 ****        -3.7858   2.1833  -0.5937 H              1 S1                 0.0000
     22 ****        -2.2441   1.3484  -0.6124 H              1 S1                 0.0000
     23 ****        -2.5275   2.5214   1.5422 H              1 S1                 0.0000
     24 ****        -2.8631   5.0903  -0.0726 H              1 S1                 0.0000
     25 ****        -2.8074   4.9794   1.6846 H              1 S1                 0.0000
     26 ****        -4.1393   4.2477   0.8012 H              1 S1                 0.0000
     27 ****        -0.4649   4.0329  -0.1328 H              1 S1                 0.0000
     28 ****        -0.5118   3.9676   1.6074 H              1 S1                 0.0000
     29 ****         0.0547   1.6771   1.6227 H              1 S1                 0.0000
     30 ****         1.0851   0.1404   0.9760 H              1 S1                 0.0000
     31 ****         2.9516   1.1120  -2.0229 H              1 S1                 0.0000
     32 ****         4.2105  -0.5313  -3.3965 H              1 S1                 0.0000
     33 ****         3.9615  -2.9717  -2.8806 H              1 S1                 0.0000
     34 ****         1.2617  -4.4143  -0.0636 H              1 S1                 0.0000
     35 ****         2.1087  -3.9273   1.4111 H              1 S1                 0.0000
     36 ****        -0.2891  -5.1509   1.6258 H              1 S1                 0.0000
     37 ****         0.0430  -3.7351   2.6301 H              1 S1                 0.0000
     38 ****        -1.4621  -3.8089  -0.0054 H              1 S1                 0.0000
     39 ****        -1.9760  -3.0247   1.4889 H              1 S1                 0.0000
     40 ****        -0.5022  -1.2034   1.1342 H              1 S1                 0.0000
     41 ****        -0.6811  -1.6684  -0.5597 H              1 S1                 0.0000
     42 ****         0.2548   3.0127  -1.5894 LP             1 S1                 0.0000
     43 ****         1.2520   1.7108  -2.1467 LP             1 S1                 0.0000
     44 ****         2.5608  -3.6804  -1.1519 LP             1 S1                 0.0000
     45 ****         1.5351  -1.8468   1.1349 LP             1 S1                 0.0000
@<TRIPOS>BOND
    1    1    2 1     
    2    1   20 1     
    3    1   21 1     
    4    1   22 1     
    5    2    3 1     
    6    2    4 1     
    7    2   23 1     
    8    3   24 1     
    9    3   25 1     
   10    3   26 1     
   11    4    5 1     
   12    4   27 1     
   13    4   28 1     
   14    5    6 am    
   15    5   29 1     
   16    6    7 2     
   17    6    8 am    
   18    8    9 1     
   19    8   30 1     
   20    9   14 ar    
   21    9   10 ar    
   22   10   11 ar    
   23   10   31 1     
   24   11   12 ar    
   25   11   32 1     
   26   12   13 ar    
   27   12   33 1     
   28   13   14 ar    
   29   14   15 1     
   30   15   19 1     
   31   15   16 1     
   32   16   17 1     
   33   16   34 1     
   34   16   35 1     
   35   17   18 1     
   36   17   36 1     
   37   17   37 1     
   38   18   19 1     
   39   18   38 1     
   40   18   39 1     
   41   19   40 1     
   42   19   41 1     
   43    7   42 1     
   44    7   43 1     
   45   13   44 1     
   46   15   45 1     
@<TRIPOS>SUBSTRUCTURE
      1 S1             1
@<TRIPOS>SET
LONE_PAIRS      STATIC     ATOMS    <user>   **** ""
4 42 43 44 45
DONOR_HYDROGENS      STATIC     ATOMS    <user>   **** ""
2 29 30
ATOM$BLUE        STATIC     ATOMS    COLORGROUP SYSTEM
4 42 43 44 45
ATOM$RED        STATIC     ATOMS    COLORGROUP SYSTEM
2 29 30
