AV-unprocessed.smi:45|AV-procd|sdf|413|dock1
  -GOLD-   2262016273D 1   1.00000     0.00000
 Structure written by MMmdl.
 59 62  0  0  0  0  0  0  0  0  2 V2000
  148.5309  126.9626  151.6505 C   0  0  0  0  0  0  0  0  0  0  0  0
  147.7265  128.1119  151.8691 O   0  0  0  0  0  0  0  0  0  0  0  0
  148.1442  129.0301  152.8100 C   0  0  0  0  0  0  0  0  0  0  0  0
  149.3508  128.9119  153.5446 C   0  0  0  0  0  0  0  0  0  0  0  0
  149.7232  129.9024  154.4728 C   0  0  0  0  0  0  0  0  0  0  0  0
  148.9001  131.0249  154.6865 C   0  0  0  0  0  0  0  0  0  0  0  0
  149.3437  132.1039  155.6663 C   0  0  0  0  0  0  0  0  0  0  0  0
  149.4889  133.4458  155.1111 N   0  0  0  0  0  0  0  0  0  0  0  0
  148.3614  134.2851  155.0699 C   0  0  0  0  0  0  0  0  0  0  0  0
  147.5400  134.1858  153.9971 N   0  0  0  0  0  0  0  0  0  0  0  0
  146.4356  134.9341  153.9924 C   0  0  0  0  0  0  0  0  0  0  0  0
  145.5785  134.7350  152.9239 N   0  0  0  0  0  0  0  0  0  0  0  0
  145.1167  133.3804  152.6425 C   0  0  0  0  0  0  0  0  0  0  0  0
  144.8613  133.3016  151.1313 C   0  0  0  0  0  0  0  0  0  0  0  0
  144.9097  134.7545  150.6664 C   0  0  0  0  0  0  0  0  0  0  0  0
  145.8937  135.3788  151.6550 C   0  0  1  0  0  0  0  0  0  0  0  0
  145.8299  136.9161  151.7307 C   0  0  0  0  0  0  0  0  0  0  0  0
  146.4268  137.4906  150.5882 O   0  0  0  0  0  0  0  0  0  0  0  0
  146.0575  135.7993  154.9378 N   0  0  0  0  0  0  0  0  0  0  0  0
  146.8681  135.9184  156.0111 C   0  0  0  0  0  0  0  0  0  0  0  0
  148.0571  135.1643  156.1433 C   0  0  0  0  0  0  0  0  0  0  0  0
  148.9295  135.2923  157.3615 C   0  0  0  0  0  0  0  0  0  0  0  0
  149.7754  134.4161  157.5723 O   0  0  0  0  0  0  0  0  0  0  0  0
  148.5970  136.3852  158.1028 N   0  5  0  0  0  0  0  0  0  0  0  0
  149.1199  136.6491  159.4439 C   0  0  0  0  0  0  0  0  0  0  0  0
  148.1490  136.2101  160.5355 C   0  0  0  0  0  0  0  0  0  0  0  0
  147.8927  134.8994  160.6263 N   0  0  0  0  0  0  0  0  0  0  0  0
  147.0629  134.5026  161.6150 C   0  0  0  0  0  0  0  0  0  0  0  0
  146.4861  135.4220  162.5136 C   0  0  0  0  0  0  0  0  0  0  0  0
  146.8223  136.7764  162.3190 C   0  0  0  0  0  0  0  0  0  0  0  0
  147.6518  137.1683  161.3281 N   0  0  0  0  0  0  0  0  0  0  0  0
  147.6835  131.1342  153.9797 C   0  0  0  0  0  0  0  0  0  0  0  0
  147.3146  130.1493  153.0432 C   0  0  0  0  0  0  0  0  0  0  0  0
  145.8376  130.3312  152.1676 Cl  0  0  0  0  0  0  0  0  0  0  0  0
  146.9063  135.0818  151.3761 H   0  0  0  0  0  0  0  0  0  0  0  0
  148.0886  126.3606  150.8569 H   0  0  0  0  0  0  0  0  0  0  0  0
  148.5873  126.3397  152.5441 H   0  0  0  0  0  0  0  0  0  0  0  0
  149.5387  127.2353  151.3341 H   0  0  0  0  0  0  0  0  0  0  0  0
  150.0178  128.0750  153.4054 H   0  0  0  0  0  0  0  0  0  0  0  0
  150.6546  129.8041  155.0108 H   0  0  0  0  0  0  0  0  0  0  0  0
  148.6119  132.1505  156.4727 H   0  0  0  0  0  0  0  0  0  0  0  0
  150.2897  131.8144  156.1256 H   0  0  0  0  0  0  0  0  0  0  0  0
  150.3600  133.9113  155.3250 H   0  0  0  0  0  0  0  0  0  0  0  0
  145.8358  132.6248  152.9615 H   0  0  0  0  0  0  0  0  0  0  0  0
  144.1918  133.2109  153.1943 H   0  0  0  0  0  0  0  0  0  0  0  0
  145.6639  132.7372  150.6550 H   0  0  0  0  0  0  0  0  0  0  0  0
  143.9176  132.8130  150.8877 H   0  0  0  0  0  0  0  0  0  0  0  0
  145.2260  134.8575  149.6280 H   0  0  0  0  0  0  0  0  0  0  0  0
  143.9243  135.2115  150.7695 H   0  0  0  0  0  0  0  0  0  0  0  0
  144.7992  137.2617  151.8142 H   0  0  0  0  0  0  0  0  0  0  0  0
  146.3664  137.2823  152.6063 H   0  0  0  0  0  0  0  0  0  0  0  0
  145.7427  137.8402  150.0378 H   0  0  0  0  0  0  0  0  0  0  0  0
  146.5553  136.6175  156.7732 H   0  0  0  0  0  0  0  0  0  0  0  0
  150.0826  136.1620  159.6111 H   0  0  0  0  0  0  0  0  0  0  0  0
  149.3231  137.7122  159.5791 H   0  0  0  0  0  0  0  0  0  0  0  0
  146.8602  133.4446  161.6914 H   0  0  0  0  0  0  0  0  0  0  0  0
  145.8240  135.1069  163.3059 H   0  0  0  0  0  0  0  0  0  0  0  0
  146.4243  137.5485  162.9606 H   0  0  0  0  0  0  0  0  0  0  0  0
  147.0365  131.9859  154.1362 H   0  0  0  0  0  0  0  0  0  0  0  0
  1  2  1  0  0  0  0
  1 36  1  0  0  0  0
  1 37  1  0  0  0  0
  1 38  1  0  0  0  0
  2  3  1  0  0  0  0
  3 33  1  0  0  0  0
  3  4  2  0  0  0  0
  4  5  1  0  0  0  0
  4 39  1  0  0  0  0
  5  6  2  0  0  0  0
  5 40  1  0  0  0  0
  6  7  1  0  0  0  0
  6 32  1  0  0  0  0
  7  8  1  0  0  0  0
  7 41  1  0  0  0  0
  7 42  1  0  0  0  0
  8  9  1  0  0  0  0
  8 43  1  0  0  0  0
  9 21  1  0  0  0  0
  9 10  2  0  0  0  0
 10 11  1  0  0  0  0
 11 12  1  0  0  0  0
 11 19  2  0  0  0  0
 12 16  1  0  0  0  0
 12 13  1  0  0  0  0
 13 14  1  0  0  0  0
 13 44  1  0  0  0  0
 13 45  1  0  0  0  0
 14 15  1  0  0  0  0
 14 46  1  0  0  0  0
 14 47  1  0  0  0  0
 15 16  1  0  0  0  0
 15 48  1  0  0  0  0
 15 49  1  0  0  0  0
 16 35  1  0  0  0  0
 16 17  1  0  0  0  0
 17 18  1  0  0  0  0
 17 50  1  0  0  0  0
 17 51  1  0  0  0  0
 18 52  1  0  0  0  0
 19 20  1  0  0  0  0
 20 21  2  0  0  0  0
 20 53  1  0  0  0  0
 21 22  1  0  0  0  0
 22 23  2  0  0  0  0
 22 24  1  0  0  0  0
 24 25  1  0  0  0  0
 25 26  1  0  0  0  0
 25 54  1  0  0  0  0
 25 55  1  0  0  0  0
 26 31  1  0  0  0  0
 26 27  2  0  0  0  0
 27 28  1  0  0  0  0
 28 29  2  0  0  0  0
 28 56  1  0  0  0  0
 29 30  1  0  0  0  0
 29 57  1  0  0  0  0
 30 31  2  0  0  0  0
 30 58  1  0  0  0  0
 32 33  2  0  0  0  0
 32 59  1  0  0  0  0
 33 34  1  0  0  0  0
M  CHG  1  24  -1
M  END
> <s_m_source_file>
AV-unprocessed.smi

> <i_m_source_file_index>
45

> <i_lp_mmshare_version>
43012

> <i_f3d_flags>
0

> <s_epik_input>
W0NIM11PYzFbY0hdW2NIXWMoW2NIXWMxQ2wpW0NIMl1bTkhdYzJuYyhOM1tDSDJdW0NIMl1bQ0gyXVtDQEhdM1tDSDJdW09IXSluW2NIXWMyQyg9TylbTkhdW0NIMl1jNG5bY0hdW2NIXVtjSF1uNA==

> <s_epik_cmdline>
J2VwaWtfcHl0aG9uJywgJy1waCcsICc3LjAnLCAnLXRuJywgJzgnLCAnLW1hJywgJzIwMCcsICctbWV0YWxfYmluZGluZycsICctaW1hZScsICc8aW5maWxlLm1hZT4nLCAnLW9tYWUnLCAnPG91dGZpbGUubWFlPic=

> <r_lp_tautomer_probability>
1

> <r_epik_Ionization_Penalty>
7.35269

> <r_epik_Ionization_Penalty_Charging>
6.82087

> <r_epik_Ionization_Penalty_Neutral>
0.53182

> <r_epik_State_Penalty>
6.85781

> <r_epik_Charging_Adjusted_Penalty>
13.6787

> <i_epik_Tot_Q>
-1

> <i_epik_Tot_abs_Q>
1

> <r_epik_Metal_State_Penalty>
2.8146

> <b_epik_Metal_Only>
1

> <s_epik_Chemistry_Notes>
This compound contains an electron-poor aromatic ring that is susceptible to covalent hydrolysis at low pH, typically resulting in measured values for nitrogen ring protonation that are around two units higher than predicted values.

> <s_lp_Force_Field>
OPLS_2005

> <r_lp_Energy>
41.892

> <b_lp_Chiralities_Consistent>
1

> <s_lp_Variant>
AV-unprocessed.smi:45-7

> <Gold.Version>
5.8.1

> <Gold.Id.Protein>
6NUR|6NUR_protein|mol2

> <Gold.PLP.Fitness>
64.9063

> <Gold.PLP.PLP>
-51.2605

> <Gold.PLP.part.hbond>
-5.9483

> <Gold.PLP.part.metal>
0.0000

> <Gold.PLP.part.buried>
-5.5898

> <Gold.PLP.part.nonpolar>
-39.7190

> <Gold.PLP.part.repulsive>
0.3557

> <Gold.PLP.ligand.clash>
0.0000

> <Gold.PLP.ligand.torsion>
1.2016

> <Gold.PLP.Chemscore.Hbond>
4.7840

> <Gold.PLP.Chemscore.CHOScore>
0.0000

> <Gold.PLP.Chemscore.Metal>
0.0000

> <Gold.Chemscore.Hbonds>
donor molecule, donor type, donor heavy atom, donor atom, acceptor molecule, acceptor atom, score
      L1  H    18    52       P1 10171  1.00
      P1  H  6896  6907       L1    23  1.00
      P1  H  6931  6943       L1    31  0.98
      P1  H  6934  6947       L1    31  0.85
      P1  H  7954  7966       L1    18  0.98

> <Gold.PLP.Chemscore.Internal.Correction>
1.6970

> <Gold.Rescore>
     Score         DG    S(hbond)    S(metal)    S(lipo)     H(rot)  DE(clash)    DE(int)     intcor
     19.21     -23.01       3.95        0.00     110.57       3.36       0.04       3.75       ----

> <Gold.Chemscore.Fitness>
19.2091

> <Gold.Chemscore.DG>
-23.0066

> <Gold.Chemscore.ZeroCoef>
-5.4800

> <Gold.Chemscore.Hbond>
3.9465

> <Gold.Chemscore.Metal>
0.0000

> <Gold.Chemscore.Lipo>
110.5699

> <Gold.Chemscore.Internal_Hbond>
0.0000

> <Gold.Chemscore.DEClash>
0.0429

> <Gold.Chemscore.DEInternal>
3.7545

> <Gold.Chemscore.Rot>
3.3560

> <Gold.Chemscore.Internal.Correction>
   9.000000E+99

> <Gold.Chemscore.Hbonds>
donor molecule, donor type, donor heavy atom, donor atom, acceptor molecule, acceptor atom, score
      L1  H    18    52       P1 10171  0.92
      P1  H  6896  6907       L1    23  0.91
      P1  H  6931  6943       L1    31  0.56
      P1  H  6934  6947       L1    31  0.45
      P1  H  7954  7966       L1    18  0.73

> <Gold.Chemscore.Hbond.Weighted>
-13.1812

> <Gold.Chemscore.Metal.Weighted>
-0.0000

> <Gold.Chemscore.Lipo.Weighted>
-12.9367

> <Gold.Chemscore.Internal_Hbond.Weighted>
0.0000

> <Gold.Chemscore.DEClash.Weighted>
0.0429

> <Gold.Chemscore.DEInternal.Weighted>
3.7545

> <Gold.Chemscore.Rot.Weighted>
8.5912

> <Gold.Chemscore.Internal.Correction.Weighted>
   9.000000E+99

> <Gold.Protein.RotatedTorsions>
[ 6907 6896 6895 6894 ] final -103.40 input  -60.11 | X-H torsion
[ 7974 7965 7964 7962 ] final   94.87 input  175.53 | X-H torsion
[ 8008 7997 7996 7995 ] final   56.27 input   59.86 | X-H torsion
[ 10167 10162 10161 10158 ] final   57.08 input  -65.29 | X-H torsion
[ 10718 10713 10712 10709 ] final -108.55 input   66.30 | X-H torsion
[ 10763 10752 10751 10750 ] final  -37.43 input  -60.55 | X-H torsion
[ 11005 11000 10999 10996 ] final  -95.66 input  -57.11 | X-H torsion

> <Gold.Protein.ActiveResidues>
 VAL166  LYS551  ARG553  GLY616  TRP617  ASP618  TYR619  PRO620  LYS621  CYS622 
 ASP623  PHE694  ASN695  SER759  ASP760  ASP761  ALA762  ILE779  LEU786  VAL792 
 PHE793  MET794  SER795  GLU796  ALA797  LYS798  CYS799  TRP800  GLU811  SER814 

> <Gold.Protein.RotatedAtoms>
  150.7239  134.0434  159.3773 H   0  0  0  0  0  0  0  0  0  0  0  0  # atno 6907 bound_to 6896
  151.8408  135.0588  160.0457 H   0  0  0  0  0  0  0  0  0  0  0  0  # atno 6908 bound_to 6896
  152.2863  133.5483  159.5566 H   0  0  0  0  0  0  0  0  0  0  0  0  # atno 6909 bound_to 6896
  145.4598  139.2287  143.2994 H   0  0  0  0  0  0  0  0  0  0  0  0  # atno 7974 bound_to 7965
  155.5147  140.3478  155.4395 H   0  0  0  0  0  0  0  0  0  0  0  0  # atno 8008 bound_to 7997
  156.0826  140.1390  156.9721 H   0  0  0  0  0  0  0  0  0  0  0  0  # atno 8009 bound_to 7997
  154.4588  140.0943  156.6811 H   0  0  0  0  0  0  0  0  0  0  0  0  # atno 8010 bound_to 7997
  140.2019  144.3979  150.6525 H   0  0  0  0  0  0  0  0  0  0  0  0  # atno 10167 bound_to 10162
  156.0491  130.5719  150.7977 H   0  0  0  0  0  0  0  0  0  0  0  0  # atno 10718 bound_to 10713
  153.8961  135.6807  153.4758 H   0  0  0  0  0  0  0  0  0  0  0  0  # atno 10763 bound_to 10752
  153.1155  135.4763  154.9105 H   0  0  0  0  0  0  0  0  0  0  0  0  # atno 10764 bound_to 10752
  154.7598  135.3207  154.8353 H   0  0  0  0  0  0  0  0  0  0  0  0  # atno 10765 bound_to 10752
  141.1435  133.8042  157.0466 H   0  0  0  0  0  0  0  0  0  0  0  0  # atno 11005 bound_to 11000
  146.2458  140.5365  142.8914 LP  0  0  0  0  0  0  0  0  0  0  0  0  # atno 17320 bound_to 7965
  144.8010  140.6213  143.6478 LP  0  0  0  0  0  0  0  0  0  0  0  0  # atno 17321 bound_to 7965
  140.6385  143.2199  151.6343 LP  0  0  0  0  0  0  0  0  0  0  0  0  # atno 17342 bound_to 10162
  139.5214  144.3194  152.0924 LP  0  0  0  0  0  0  0  0  0  0  0  0  # atno 17343 bound_to 10162
  157.5399  131.0940  150.9841 LP  0  0  0  0  0  0  0  0  0  0  0  0  # atno 17370 bound_to 10713
  157.0127  130.5643  149.5322 LP  0  0  0  0  0  0  0  0  0  0  0  0  # atno 17371 bound_to 10713
  140.0659  134.9729  157.1384 LP  0  0  0  0  0  0  0  0  0  0  0  0  # atno 17394 bound_to 11000
  140.3781  134.2317  155.7173 LP  0  0  0  0  0  0  0  0  0  0  0  0  # atno 17395 bound_to 11000

$$$$
