AV-unprocessed.smi:560|AV-procd|sdf|2930|dock9
  -GOLD-   2262023423D 1   1.00000     0.00000
 Structure written by MMmdl.
 42 43  0  0  0  0  0  0  0  0  2 V2000
  151.0105  141.4150  156.1890 C   0  0  0  0  0  0  0  0  0  0  0  0
  150.2677  141.5410  157.5346 C   0  0  2  0  0  0  0  0  0  0  0  0
  148.7414  141.6409  157.3729 C   0  0  0  0  0  0  0  0  0  0  0  0
  147.9946  141.5516  158.3479 O   0  0  0  0  0  0  0  0  0  0  0  0
  148.2904  141.8333  156.1224 N   0  0  0  0  0  0  0  0  0  0  0  0
  146.8845  141.9248  155.7323 C   0  0  2  0  0  0  0  0  0  0  0  0
  146.1720  140.5843  155.9818 C   0  0  0  0  0  0  0  0  0  0  0  0
  146.6077  139.5011  154.9778 C   0  0  0  0  0  0  0  0  0  0  0  0
  146.4076  139.9528  153.5773 N   0  3  2  0  0  0  0  0  0  0  0  0
  146.6827  138.8775  152.5897 C   0  0  0  0  0  0  0  0  0  0  0  0
  145.7464  137.6737  152.7388 C   0  0  0  0  0  0  0  0  0  0  0  0
  144.4528  137.8807  152.4822 N   0  0  0  0  0  0  0  0  0  0  0  0
  146.1816  136.5708  153.0647 O   0  0  0  0  0  0  0  0  0  0  0  0
  147.1527  141.2090  153.2963 C   0  0  0  0  0  0  0  0  0  0  0  0
  146.7224  142.3331  154.2544 C   0  0  0  0  0  0  0  0  0  0  0  0
  150.7718  142.6532  158.3325 N   0  0  0  0  0  0  0  0  0  0  0  0
  150.0769  143.7561  158.7858 C   0  0  0  0  0  0  0  0  0  0  0  0
  150.9595  144.5485  159.4620 C   0  0  0  0  0  0  0  0  0  0  0  0
  152.1912  143.8441  159.3622 C   0  0  0  0  0  0  0  0  0  0  0  0
  152.0782  142.7162  158.6805 N   0  0  0  0  0  0  0  0  0  0  0  0
  150.6737  140.5392  155.6336 H   0  0  0  0  0  0  0  0  0  0  0  0
  152.0840  141.3067  156.3469 H   0  0  0  0  0  0  0  0  0  0  0  0
  150.8585  142.2889  155.5539 H   0  0  0  0  0  0  0  0  0  0  0  0
  150.4655  140.6271  158.0975 H   0  0  0  0  0  0  0  0  0  0  0  0
  148.9747  141.8884  155.3821 H   0  0  0  0  0  0  0  0  0  0  0  0
  146.4111  142.6809  156.3614 H   0  0  0  0  0  0  0  0  0  0  0  0
  146.3518  140.2440  157.0025 H   0  0  0  0  0  0  0  0  0  0  0  0
  145.0944  140.7323  155.8983 H   0  0  0  0  0  0  0  0  0  0  0  0
  147.6556  139.2382  155.1306 H   0  0  0  0  0  0  0  0  0  0  0  0
  146.0259  138.5966  155.1585 H   0  0  0  0  0  0  0  0  0  0  0  0
  146.6354  139.2788  151.5760 H   0  0  0  0  0  0  0  0  0  0  0  0
  147.6966  138.5005  152.7308 H   0  0  0  0  0  0  0  0  0  0  0  0
  143.7887  137.1247  152.5689 H   0  0  0  0  0  0  0  0  0  0  0  0
  144.1386  138.8000  152.2049 H   0  0  0  0  0  0  0  0  0  0  0  0
  148.2250  141.0273  153.3842 H   0  0  0  0  0  0  0  0  0  0  0  0
  146.9738  141.5304  152.2700 H   0  0  0  0  0  0  0  0  0  0  0  0
  145.6765  142.5784  154.0655 H   0  0  0  0  0  0  0  0  0  0  0  0
  147.2855  143.2423  154.0408 H   0  0  0  0  0  0  0  0  0  0  0  0
  149.0221  143.8841  158.5925 H   0  0  0  0  0  0  0  0  0  0  0  0
  150.7568  145.4891  159.9518 H   0  0  0  0  0  0  0  0  0  0  0  0
  153.1577  144.1186  159.7586 H   0  0  0  0  0  0  0  0  0  0  0  0
  145.4245  140.1687  153.4861 H   0  0  0  0  0  0  0  0  0  0  0  0
  1  2  1  0  0  0  0
  1 21  1  0  0  0  0
  1 22  1  0  0  0  0
  1 23  1  0  0  0  0
  2  3  1  0  0  0  0
  2 16  1  0  0  0  0
  2 24  1  0  0  0  0
  3  4  2  0  0  0  0
  3  5  1  0  0  0  0
  5  6  1  0  0  0  0
  5 25  1  0  0  0  0
  6 15  1  0  0  0  0
  6  7  1  0  0  0  0
  6 26  1  0  0  0  0
  7  8  1  0  0  0  0
  7 27  1  0  0  0  0
  7 28  1  0  0  0  0
  8  9  1  0  0  0  0
  8 29  1  0  0  0  0
  8 30  1  0  0  0  0
  9 10  1  0  0  0  0
  9 14  1  0  0  0  0
  9 42  1  0  0  0  0
 10 11  1  0  0  0  0
 10 31  1  0  0  0  0
 10 32  1  0  0  0  0
 11 12  1  0  0  0  0
 11 13  2  0  0  0  0
 12 33  1  0  0  0  0
 12 34  1  0  0  0  0
 14 15  1  0  0  0  0
 14 35  1  0  0  0  0
 14 36  1  0  0  0  0
 15 37  1  0  0  0  0
 15 38  1  0  0  0  0
 16 20  1  0  0  0  0
 16 17  1  0  0  0  0
 17 18  2  0  0  0  0
 17 39  1  0  0  0  0
 18 19  1  0  0  0  0
 18 40  1  0  0  0  0
 19 20  2  0  0  0  0
 19 41  1  0  0  0  0
M  CHG  1   9   1
M  END
> <s_m_source_file>
AV-unprocessed.smi

> <i_m_source_file_index>
560

> <i_lp_mmshare_version>
43012

> <i_f3d_flags>
0

> <s_epik_input>
bjFbY0hdW2NIXVtjSF1uMVtDQEhdKFtDSDNdKUMoPU8pW05IXVtDSF0yW0NIMl1bQ0gyXU4oW0NIMl1bQ0gyXTIpW0NIMl1DKD1PKVtOSDJd

> <s_epik_cmdline>
J2VwaWtfcHl0aG9uJywgJy1waCcsICc3LjAnLCAnLXRuJywgJzgnLCAnLW1hJywgJzIwMCcsICctbWV0YWxfYmluZGluZycsICctaW1hZScsICc8aW5maWxlLm1hZT4nLCAnLW9tYWUnLCAnPG91dGZpbGUubWFlPic=

> <r_lp_tautomer_probability>
1

> <r_epik_Ionization_Penalty>
1.02943

> <r_epik_Ionization_Penalty_Charging>
1.02936

> <r_epik_Ionization_Penalty_Neutral>
7.4537e-05

> <r_epik_State_Penalty>
1.08036

> <r_epik_Charging_Adjusted_Penalty>
2.10972

> <i_epik_Tot_Q>
1

> <i_epik_Tot_abs_Q>
1

> <r_epik_Metal_State_Penalty>
1.09347

> <b_epik_Metal_Only>
0

> <s_lp_Force_Field>
OPLS_2005

> <r_lp_Energy>
16.2494

> <b_lp_Chiralities_Consistent>
1

> <s_lp_Variant>
AV-unprocessed.smi:560-5

> <Gold.Version>
5.8.1

> <Gold.Id.Protein>
6NUR|6NUR_protein|mol2

> <Gold.PLP.Fitness>
47.1908

> <Gold.PLP.PLP>
-35.4206

> <Gold.PLP.part.hbond>
-4.2767

> <Gold.PLP.part.metal>
0.0000

> <Gold.PLP.part.buried>
-7.1526

> <Gold.PLP.part.nonpolar>
-24.9903

> <Gold.PLP.part.repulsive>
0.3869

> <Gold.PLP.ligand.clash>
0.0000

> <Gold.PLP.ligand.torsion>
0.2535

> <Gold.PLP.Chemscore.Hbond>
3.0000

> <Gold.PLP.Chemscore.CHOScore>
1.0490

> <Gold.PLP.Chemscore.Metal>
0.0000

> <Gold.Chemscore.Hbonds>
donor molecule, donor type, donor heavy atom, donor atom, acceptor molecule, acceptor atom, score
      L1  H     9    42       P1 10175  1.95
      L1  H    12    34       P1 10175  1.00
      L1  C    17    39       P1  8029  0.55

> <Gold.PLP.Chemscore.Internal.Correction>
0.1301

> <Gold.Rescore>
     Score         DG    S(hbond)    S(metal)    S(lipo)     H(rot)  DE(clash)    DE(int)     intcor
     14.03     -14.36       1.96        0.00      75.29       2.52       0.05       0.28       ----

> <Gold.Chemscore.Fitness>
14.0317

> <Gold.Chemscore.DG>
-14.3643

> <Gold.Chemscore.ZeroCoef>
-5.4800

> <Gold.Chemscore.Hbond>
1.9575

> <Gold.Chemscore.Metal>
0.0000

> <Gold.Chemscore.Lipo>
75.2856

> <Gold.Chemscore.Internal_Hbond>
0.0000

> <Gold.Chemscore.DEClash>
0.0518

> <Gold.Chemscore.DEInternal>
0.2808

> <Gold.Chemscore.Rot>
2.5243

> <Gold.Chemscore.Internal.Correction>
   9.000000E+99

> <Gold.Chemscore.Hbonds>
donor molecule, donor type, donor heavy atom, donor atom, acceptor molecule, acceptor atom, score
      L1  H     9    42       P1 10175  0.91
      L1  H    12    34       P1 10175  0.99

> <Gold.Chemscore.Hbond.Weighted>
-6.5381

> <Gold.Chemscore.Metal.Weighted>
-0.0000

> <Gold.Chemscore.Lipo.Weighted>
-8.8084

> <Gold.Chemscore.Internal_Hbond.Weighted>
0.0000

> <Gold.Chemscore.DEClash.Weighted>
0.0518

> <Gold.Chemscore.DEInternal.Weighted>
0.2808

> <Gold.Chemscore.Rot.Weighted>
6.4622

> <Gold.Chemscore.Internal.Correction.Weighted>
   9.000000E+99

> <Gold.Protein.RotatedTorsions>
[ 6907 6896 6895 6894 ] final  -76.52 input  -60.11 | X-H torsion
[ 7974 7965 7964 7962 ] final  -93.69 input  175.53 | X-H torsion
[ 8008 7997 7996 7995 ] final -145.03 input   59.86 | X-H torsion
[ 10167 10162 10161 10158 ] final  -44.56 input  -65.29 | X-H torsion
[ 10718 10713 10712 10709 ] final  -90.72 input   66.30 | X-H torsion
[ 10763 10752 10751 10750 ] final  -32.39 input  -60.55 | X-H torsion
[ 11005 11000 10999 10996 ] final  -36.85 input  -57.11 | X-H torsion

> <Gold.Protein.ActiveResidues>
 VAL166  LYS551  ARG553  GLY616  TRP617  ASP618  TYR619  PRO620  LYS621  CYS622 
 ASP623  PHE694  ASN695  SER759  ASP760  ASP761  ALA762  ILE779  LEU786  VAL792 
 PHE793  MET794  SER795  GLU796  ALA797  LYS798  CYS799  TRP800  GLU811  SER814 

> <Gold.Protein.RotatedAtoms>
  150.7025  134.4560  159.5358 H   0  0  0  0  0  0  0  0  0  0  0  0  # atno 6907 bound_to 6896
  152.2244  134.8379  160.0491 H   0  0  0  0  0  0  0  0  0  0  0  0  # atno 6908 bound_to 6896
  151.9218  133.3552  159.3936 H   0  0  0  0  0  0  0  0  0  0  0  0  # atno 6909 bound_to 6896
  145.3832  140.9520  143.2382 H   0  0  0  0  0  0  0  0  0  0  0  0  # atno 7974 bound_to 7965
  155.5366  140.0604  157.2878 H   0  0  0  0  0  0  0  0  0  0  0  0  # atno 8008 bound_to 7997
  154.4466  140.1926  156.0592 H   0  0  0  0  0  0  0  0  0  0  0  0  # atno 8009 bound_to 7997
  156.0615  140.3272  155.7471 H   0  0  0  0  0  0  0  0  0  0  0  0  # atno 8010 bound_to 7997
  140.6892  143.2924  151.3513 H   0  0  0  0  0  0  0  0  0  0  0  0  # atno 10167 bound_to 10162
  155.9989  130.4920  150.5365 H   0  0  0  0  0  0  0  0  0  0  0  0  # atno 10718 bound_to 10713
  153.8130  135.6881  153.4838 H   0  0  0  0  0  0  0  0  0  0  0  0  # atno 10763 bound_to 10752
  153.1616  135.4577  154.9779 H   0  0  0  0  0  0  0  0  0  0  0  0  # atno 10764 bound_to 10752
  154.7959  135.3319  154.7609 H   0  0  0  0  0  0  0  0  0  0  0  0  # atno 10765 bound_to 10752
  140.9907  133.7006  156.1845 H   0  0  0  0  0  0  0  0  0  0  0  0  # atno 11005 bound_to 11000
  144.8493  139.5348  143.6864 LP  0  0  0  0  0  0  0  0  0  0  0  0  # atno 17320 bound_to 7965
  146.2832  139.6933  142.9214 LP  0  0  0  0  0  0  0  0  0  0  0  0  # atno 17321 bound_to 7965
  139.6278  144.0779  152.2450 LP  0  0  0  0  0  0  0  0  0  0  0  0  # atno 17342 bound_to 10162
  140.0244  144.6128  150.7539 LP  0  0  0  0  0  0  0  0  0  0  0  0  # atno 17343 bound_to 10162
  157.3307  131.0699  151.1863 LP  0  0  0  0  0  0  0  0  0  0  0  0  # atno 17370 bound_to 10713
  157.2744  130.6720  149.6035 LP  0  0  0  0  0  0  0  0  0  0  0  0  # atno 17371 bound_to 10713
  140.7045  134.4529  157.5585 LP  0  0  0  0  0  0  0  0  0  0  0  0  # atno 17394 bound_to 11000
  139.8991  134.8599  156.1975 LP  0  0  0  0  0  0  0  0  0  0  0  0  # atno 17395 bound_to 11000

$$$$
