#       Name:                AV-unprocessed.smi:1947
#       Creating user name   scv26
#       Creation time:       Fri Mar 27 10:02:08 2020


#       File generated by GOLD software.
#

@<TRIPOS>MOLECULE
AV-unprocessed.smi:1947
    45    46     1
SMALL
NO_CHARGES


@<TRIPOS>ATOM
      1 ****        -1.1752   1.2309  -1.6141 C.3            1 S1                 0.0000
      2 ****        -1.6216   1.7770  -0.2476 C.3            1 S1                 0.0000
      3 ****        -2.1388   3.2232  -0.3825 C.3            1 S1                 0.0000
      4 ****        -2.5861   3.7969   0.9703 C.3            1 S1                 0.0000
      5 ****        -1.4523   3.7229   2.0021 C.3            1 S1                 0.0000
      6 ****        -0.9375   2.2840   2.1539 C.3            1 S1                 0.0000
      7 ****        -0.4868   1.6973   0.7990 C.3            1 S1                 0.0000
      8 ****        -0.1399   0.3268   0.9528 O.3            1 S1                 0.0000
      9 ****         1.1543   0.0949   1.4905 C.3            1 S1                 0.0000
     10 ****         1.4568  -1.4051   1.4141 C.3            1 S1                 0.0000
     11 ****         1.5608  -1.8332   0.0253 N.am           1 S1                 0.0000
     12 ****         1.7950  -3.0871  -0.3824 C.2            1 S1                 0.0000
     13 ****         1.9437  -3.9850   0.4496 O.2            1 S1                 0.0000
     14 ****         1.8406  -3.2229  -1.7274 N.pl3          1 S1                -1.0000
     15 ****         2.0603  -4.4300  -2.2742 C.2            1 S1                 0.0000
     16 ****         3.2746  -4.8177  -2.6966 N.2            1 S1                 0.0000
     17 ****         3.2826  -6.0972  -3.2357 N.2            1 S1                 0.0000
     18 ****         2.0661  -6.6410  -3.2138 C.2            1 S1                 0.0000
     19 ****         0.8002  -5.6395  -2.5349 S.3            1 S1                 0.0000
     20 ****        -0.3291   1.7940  -2.0089 H              1 S1                 0.0000
     21 ****        -1.9832   1.2894  -2.3435 H              1 S1                 0.0000
     22 ****        -0.8741   0.1850  -1.5457 H              1 S1                 0.0000
     23 ****        -2.4494   1.1579   0.1014 H              1 S1                 0.0000
     24 ****        -1.3562   3.8563  -0.8032 H              1 S1                 0.0000
     25 ****        -2.9722   3.2566  -1.0851 H              1 S1                 0.0000
     26 ****        -2.9100   4.8308   0.8475 H              1 S1                 0.0000
     27 ****        -3.4514   3.2423   1.3355 H              1 S1                 0.0000
     28 ****        -0.6333   4.3736   1.6936 H              1 S1                 0.0000
     29 ****        -1.8005   4.0977   2.9649 H              1 S1                 0.0000
     30 ****        -0.1157   2.2730   2.8694 H              1 S1                 0.0000
     31 ****        -1.7246   1.6595   2.5785 H              1 S1                 0.0000
     32 ****         0.3684   2.2615   0.4221 H              1 S1                 0.0000
     33 ****         1.9116   0.6546   0.9389 H              1 S1                 0.0000
     34 ****         1.1947   0.4243   2.5286 H              1 S1                 0.0000
     35 ****         2.3982  -1.6172   1.9228 H              1 S1                 0.0000
     36 ****         0.6775  -1.9741   1.9233 H              1 S1                 0.0000
     37 ****         1.4386  -1.1252  -0.6837 H              1 S1                 0.0000
     38 ****         1.9123  -7.6362  -3.6032 H              1 S1                 0.0000
     39 ****        -0.1852  -0.1081   0.0534 LP             1 S1                 0.0000
     40 ****        -0.8101  -0.0969   1.5621 LP             1 S1                 0.0000
     41 ****         1.8893  -3.7759   1.4259 LP             1 S1                 0.0000
     42 ****         2.1187  -4.9222   0.1479 LP             1 S1                 0.0000
     43 ****         1.7107  -2.4242  -2.3151 LP             1 S1                 0.0000
     44 ****         4.0904  -4.2431  -2.6297 LP             1 S1                 0.0000
     45 ****         4.0974  -6.5526  -3.5947 LP             1 S1                 0.0000
@<TRIPOS>BOND
    1    1    2 1     
    2    1   20 1     
    3    1   21 1     
    4    1   22 1     
    5    2    7 1     
    6    2    3 1     
    7    2   23 1     
    8    3    4 1     
    9    3   24 1     
   10    3   25 1     
   11    4    5 1     
   12    4   26 1     
   13    4   27 1     
   14    5    6 1     
   15    5   28 1     
   16    5   29 1     
   17    6    7 1     
   18    6   30 1     
   19    6   31 1     
   20    7    8 1     
   21    7   32 1     
   22    8    9 1     
   23    9   10 1     
   24    9   33 1     
   25    9   34 1     
   26   10   11 1     
   27   10   35 1     
   28   10   36 1     
   29   11   12 am    
   30   11   37 1     
   31   12   13 2     
   32   12   14 1     
   33   14   15 1     
   34   15   19 1     
   35   15   16 2     
   36   16   17 1     
   37   17   18 2     
   38   18   19 1     
   39   18   38 1     
   40    8   39 1     
   41    8   40 1     
   42   13   41 1     
   43   13   42 1     
   44   14   43 1     
   45   16   44 1     
   46   17   45 1     
@<TRIPOS>SUBSTRUCTURE
      1 S1             1
@<TRIPOS>SET
LONE_PAIRS      STATIC     ATOMS    <user>   **** ""
7 39 40 41 42 43 44 45
DONOR_HYDROGENS      STATIC     ATOMS    <user>   **** ""
1 37
ATOM$BLUE        STATIC     ATOMS    COLORGROUP SYSTEM
7 39 40 41 42 43 44 45
ATOM$RED        STATIC     ATOMS    COLORGROUP SYSTEM
1 37
