#       Name:                AV-unprocessed.smi:2405
#       Creating user name   scv26
#       Creation time:       Fri Mar 27 13:14:24 2020


#       File generated by GOLD software.
#

@<TRIPOS>MOLECULE
AV-unprocessed.smi:2405
    43    44     1
SMALL
NO_CHARGES


@<TRIPOS>ATOM
      1 ****        -4.7993  -0.4457  -2.7713 C.3            1 S1                 0.0000
      2 ****        -4.3082  -0.4742  -1.3201 C.3            1 S1                 0.0000
      3 ****        -3.1669  -1.4141  -1.1192 C.2            1 S1                 0.0000
      4 ****        -1.8886  -1.0679  -1.2912 N.2            1 S1                 0.0000
      5 ****        -1.0063  -2.1302  -1.0666 C.2            1 S1                 0.0000
      6 ****         0.4734  -1.9186  -1.1997 C.3            1 S1                 0.0000
      7 ****         1.0752  -1.5542   0.1576 C.2            1 S1                 0.0000
      8 ****         1.4918  -2.4396   0.9050 O.2            1 S1                 0.0000
      9 ****         1.1151  -0.2483   0.4619 N.am           1 S1                 0.0000
     10 ****         1.6490   0.3137   1.6991 C.3            1 S1                 0.0000
     11 ****         3.1896   0.4048   1.6664 C.3            1 S1                 0.0000
     12 ****         3.5366   1.8705   1.9543 C.3            1 S1                 0.0000
     13 ****         2.3075   2.6776   1.5032 C.3            1 S1                 0.0000
     14 ****         2.2884   2.9836  -0.0103 C.2            1 S1                 0.0000
     15 ****         1.2602   3.5389  -0.4562 O.co2          1 S1                 0.0000
     16 ****         3.2850   2.6751  -0.7011 O.co2          1 S1                -1.0000
     17 ****         1.1413   1.7548   1.8948 C.3            1 S1                 0.0000
     18 ****        -1.6448  -3.3017  -0.7412 C.2            1 S1                 0.0000
     19 ****        -3.3755  -3.1096  -0.6971 S.3            1 S1                 0.0000
     20 ****        -5.6353   0.2446  -2.8849 H              1 S1                 0.0000
     21 ****        -5.1351  -1.4321  -3.0926 H              1 S1                 0.0000
     22 ****        -4.0068  -0.1242  -3.4478 H              1 S1                 0.0000
     23 ****        -4.0004   0.5255  -1.0114 H              1 S1                 0.0000
     24 ****        -5.1229  -0.7686  -0.6580 H              1 S1                 0.0000
     25 ****         0.9577  -2.8216  -1.5734 H              1 S1                 0.0000
     26 ****         0.6934  -1.1313  -1.9227 H              1 S1                 0.0000
     27 ****         0.7580   0.4093  -0.2168 H              1 S1                 0.0000
     28 ****         1.3195  -0.2963   2.5422 H              1 S1                 0.0000
     29 ****         3.6520  -0.2659   2.3910 H              1 S1                 0.0000
     30 ****         3.5760   0.1284   0.6842 H              1 S1                 0.0000
     31 ****         3.6714   2.0042   3.0283 H              1 S1                 0.0000
     32 ****         4.4710   2.1786   1.4837 H              1 S1                 0.0000
     33 ****         2.2507   3.6282   2.0344 H              1 S1                 0.0000
     34 ****         0.2175   1.9558   1.3493 H              1 S1                 0.0000
     35 ****         0.9109   1.9124   2.9492 H              1 S1                 0.0000
     36 ****        -1.2013  -4.2622  -0.5240 H              1 S1                 0.0000
     37 ****        -1.5939  -0.1487  -1.5523 LP             1 S1                 0.0000
     38 ****         1.4366  -3.3978   0.6244 LP             1 S1                 0.0000
     39 ****         1.8853  -2.2005   1.7927 LP             1 S1                 0.0000
     40 ****         1.1963   3.7665  -1.4278 LP             1 S1                 0.0000
     41 ****         0.5021   3.7553   0.1590 LP             1 S1                 0.0000
     42 ****         3.2940   2.8716  -1.6815 LP             1 S1                 0.0000
     43 ****         4.0725   2.2320  -0.2727 LP             1 S1                 0.0000
@<TRIPOS>BOND
    1    1    2 1     
    2    1   20 1     
    3    1   21 1     
    4    1   22 1     
    5    2    3 1     
    6    2   23 1     
    7    2   24 1     
    8    3   19 1     
    9    3    4 2     
   10    4    5 1     
   11    5    6 1     
   12    5   18 2     
   13    6    7 1     
   14    6   25 1     
   15    6   26 1     
   16    7    8 2     
   17    7    9 am    
   18    9   10 1     
   19    9   27 1     
   20   10   17 1     
   21   10   11 1     
   22   10   28 1     
   23   11   12 1     
   24   11   29 1     
   25   11   30 1     
   26   12   13 1     
   27   12   31 1     
   28   12   32 1     
   29   13   14 1     
   30   13   17 1     
   31   13   33 1     
   32   14   15 ar    
   33   14   16 ar    
   34   17   34 1     
   35   17   35 1     
   36   18   19 1     
   37   18   36 1     
   38    4   37 1     
   39    8   38 1     
   40    8   39 1     
   41   15   40 1     
   42   15   41 1     
   43   16   42 1     
   44   16   43 1     
@<TRIPOS>SUBSTRUCTURE
      1 S1             1
@<TRIPOS>SET
LONE_PAIRS      STATIC     ATOMS    <user>   **** ""
7 37 38 39 40 41 42 43
DONOR_HYDROGENS      STATIC     ATOMS    <user>   **** ""
1 27
ATOM$BLUE        STATIC     ATOMS    COLORGROUP SYSTEM
7 37 38 39 40 41 42 43
ATOM$RED        STATIC     ATOMS    COLORGROUP SYSTEM
1 27
