AV-unprocessed.smi:87|AV-procd|sdf|822|dock9
  -GOLD-   2262017233D 1   1.00000     0.00000
 Structure written by MMmdl.
 58 60  0  0  0  0  0  0  0  0  1 V2000
  150.6145  142.5067  158.4904 C   0  0  0  0  0  0  0  0  0  0  0  0
  152.1491  142.4649  158.5436 C   0  0  0  0  0  0  0  0  0  0  0  0
  152.7179  141.5517  159.6534 C   0  0  0  0  0  0  0  0  0  0  0  0
  153.6023  142.3477  160.6418 C   0  0  0  0  0  0  0  0  0  0  0  0
  152.8484  143.4201  161.4416 C   0  0  0  0  0  0  0  0  0  0  0  0
  153.5130  140.3698  159.0395 C   0  0  0  0  0  0  0  0  0  0  0  0
  153.0930  139.0491  159.5121 N   0  0  0  0  0  0  0  0  0  0  0  0
  154.1361  138.1329  159.9643 C   0  0  0  0  0  0  0  0  0  0  0  0
  155.1067  137.7393  158.8409 C   0  0  0  0  0  0  0  0  0  0  0  0
  154.5218  136.7614  157.9119 C   0  0  0  0  0  0  0  0  0  0  0  0
  154.0614  135.9916  157.1809 N   0  0  0  0  0  0  0  0  0  0  0  0
  152.0531  138.4318  158.8987 C   0  0  0  0  0  0  0  0  0  0  0  0
  151.3329  137.5542  159.6422 N   0  0  0  0  0  0  0  0  0  0  0  0
  150.2857  136.9192  159.1082 C   0  0  0  0  0  0  0  0  0  0  0  0
  149.7980  137.0098  157.8695 N   0  0  0  0  0  0  0  0  0  0  0  0
  150.5270  137.8788  157.1129 C   0  0  0  0  0  0  0  0  0  0  0  0
  151.6623  138.6244  157.5408 C   0  0  0  0  0  0  0  0  0  0  0  0
  152.1432  139.3909  156.4848 N   0  0  0  0  0  0  0  0  0  0  0  0
  151.3315  139.1277  155.4982 C   0  0  0  0  0  0  0  0  0  0  0  0
  150.3305  138.2303  155.7892 N   0  0  0  0  0  0  0  0  0  0  0  0
  149.2965  137.7625  154.8828 C   0  0  0  0  0  0  0  0  0  0  0  0
  147.9380  137.5741  155.5862 C   0  0  2  0  0  0  0  0  0  0  0  0
  147.0024  137.0409  154.6670 O   0  0  0  0  0  0  0  0  0  0  0  0
  147.4097  138.8953  156.1822 C   0  0  1  0  0  0  0  0  0  0  0  0
  147.1913  140.0640  155.2036 C   0  0  0  0  0  0  0  0  0  0  0  0
  145.7583  140.4961  155.4682 C   0  0  0  0  0  0  0  0  0  0  0  0
  145.4702  139.9193  156.8491 C   0  0  0  0  0  0  0  0  0  0  0  0
  146.1607  138.6811  156.8292 O   0  0  0  0  0  0  0  0  0  0  0  0
  150.2760  143.2391  157.7574 H   0  0  0  0  0  0  0  0  0  0  0  0
  150.1944  142.7886  159.4564 H   0  0  0  0  0  0  0  0  0  0  0  0
  150.1883  141.5453  158.2057 H   0  0  0  0  0  0  0  0  0  0  0  0
  152.5417  142.1602  157.5728 H   0  0  0  0  0  0  0  0  0  0  0  0
  152.4915  143.4874  158.6956 H   0  0  0  0  0  0  0  0  0  0  0  0
  151.8685  141.1597  160.2126 H   0  0  0  0  0  0  0  0  0  0  0  0
  154.0483  141.6651  161.3654 H   0  0  0  0  0  0  0  0  0  0  0  0
  154.4384  142.8030  160.1097 H   0  0  0  0  0  0  0  0  0  0  0  0
  153.5064  143.8798  162.1794 H   0  0  0  0  0  0  0  0  0  0  0  0
  152.0029  142.9887  161.9783 H   0  0  0  0  0  0  0  0  0  0  0  0
  152.4716  144.2188  160.8040 H   0  0  0  0  0  0  0  0  0  0  0  0
  153.4528  140.3791  157.9534 H   0  0  0  0  0  0  0  0  0  0  0  0
  154.5706  140.4990  159.2727 H   0  0  0  0  0  0  0  0  0  0  0  0
  154.6892  138.6108  160.7735 H   0  0  0  0  0  0  0  0  0  0  0  0
  153.6870  137.2378  160.3967 H   0  0  0  0  0  0  0  0  0  0  0  0
  155.4003  138.6130  158.2585 H   0  0  0  0  0  0  0  0  0  0  0  0
  156.0166  137.3008  159.2506 H   0  0  0  0  0  0  0  0  0  0  0  0
  149.7624  136.2435  159.7685 H   0  0  0  0  0  0  0  0  0  0  0  0
  151.4409  139.5842  154.5252 H   0  0  0  0  0  0  0  0  0  0  0  0
  149.2044  138.4877  154.0733 H   0  0  0  0  0  0  0  0  0  0  0  0
  149.6261  136.8287  154.4253 H   0  0  0  0  0  0  0  0  0  0  0  0
  148.0635  136.8527  156.3948 H   0  0  0  0  0  0  0  0  0  0  0  0
  147.2310  136.1405  154.4939 H   0  0  0  0  0  0  0  0  0  0  0  0
  148.0963  139.2259  156.9637 H   0  0  0  0  0  0  0  0  0  0  0  0
  147.8869  140.8731  155.4297 H   0  0  0  0  0  0  0  0  0  0  0  0
  147.3355  139.7947  154.1572 H   0  0  0  0  0  0  0  0  0  0  0  0
  145.6216  141.5769  155.4221 H   0  0  0  0  0  0  0  0  0  0  0  0
  145.0940  140.0384  154.7339 H   0  0  0  0  0  0  0  0  0  0  0  0
  145.8824  140.5569  157.6331 H   0  0  0  0  0  0  0  0  0  0  0  0
  144.4046  139.7845  157.0360 H   0  0  0  0  0  0  0  0  0  0  0  0
  1  2  1  0  0  0  0
  1 29  1  0  0  0  0
  1 30  1  0  0  0  0
  1 31  1  0  0  0  0
  2  3  1  0  0  0  0
  2 32  1  0  0  0  0
  2 33  1  0  0  0  0
  3  4  1  0  0  0  0
  3  6  1  0  0  0  0
  3 34  1  0  0  0  0
  4  5  1  0  0  0  0
  4 35  1  0  0  0  0
  4 36  1  0  0  0  0
  5 37  1  0  0  0  0
  5 38  1  0  0  0  0
  5 39  1  0  0  0  0
  6  7  1  0  0  0  0
  6 40  1  0  0  0  0
  6 41  1  0  0  0  0
  7  8  1  0  0  0  0
  7 12  1  0  0  0  0
  8  9  1  0  0  0  0
  8 42  1  0  0  0  0
  8 43  1  0  0  0  0
  9 10  1  0  0  0  0
  9 44  1  0  0  0  0
  9 45  1  0  0  0  0
 10 11  3  0  0  0  0
 12 17  1  0  0  0  0
 12 13  2  0  0  0  0
 13 14  1  0  0  0  0
 14 15  2  0  0  0  0
 14 46  1  0  0  0  0
 15 16  1  0  0  0  0
 16 20  1  0  0  0  0
 16 17  2  0  0  0  0
 17 18  1  0  0  0  0
 18 19  2  0  0  0  0
 19 20  1  0  0  0  0
 19 47  1  0  0  0  0
 20 21  1  0  0  0  0
 21 22  1  0  0  0  0
 21 48  1  0  0  0  0
 21 49  1  0  0  0  0
 22 23  1  0  0  0  0
 22 24  1  0  0  0  0
 22 50  1  0  0  0  0
 23 51  1  0  0  0  0
 24 28  1  0  0  0  0
 24 25  1  0  0  0  0
 24 52  1  0  0  0  0
 25 26  1  0  0  0  0
 25 53  1  0  0  0  0
 25 54  1  0  0  0  0
 26 27  1  0  0  0  0
 26 55  1  0  0  0  0
 26 56  1  0  0  0  0
 27 28  1  0  0  0  0
 27 57  1  0  0  0  0
 27 58  1  0  0  0  0
M  END
> <s_m_source_file>
AV-unprocessed.smi

> <i_m_source_file_index>
87

> <i_lp_mmshare_version>
43012

> <i_f3d_flags>
0

> <s_epik_input>
W0NIM11bQ0gyXVtDSF0oW0NIMl1bQ0gzXSlbQ0gyXU4oW0NIMl1bQ0gyXUMjTiljKG5bY0hdbjEpYyhjMTIpbltjSF1uMltDSDJdW0NASF0oW09IXSlbQ0BASF0zW0NIMl1bQ0gyXVtDSDJdTzM=

> <s_epik_cmdline>
J2VwaWtfcHl0aG9uJywgJy1waCcsICc3LjAnLCAnLXRuJywgJzgnLCAnLW1hJywgJzIwMCcsICctbWV0YWxfYmluZGluZycsICctaW1hZScsICc8aW5maWxlLm1hZT4nLCAnLW9tYWUnLCAnPG91dGZpbGUubWFlPic=

> <r_lp_tautomer_probability>
1

> <r_epik_Ionization_Penalty>
0.000348566

> <r_epik_Ionization_Penalty_Charging>
0

> <r_epik_Ionization_Penalty_Neutral>
0.000348566

> <r_epik_State_Penalty>
-0

> <r_epik_Charging_Adjusted_Penalty>
0

> <i_epik_Tot_Q>
0

> <i_epik_Tot_abs_Q>
0

> <r_epik_Metal_State_Penalty>
-0

> <b_epik_Metal_Only>
0

> <s_lp_Force_Field>
OPLS_2005

> <r_lp_Energy>
36.8585

> <b_lp_Chiralities_Consistent>
1

> <s_lp_Variant>
AV-unprocessed.smi:87-3

> <Gold.Version>
5.8.1

> <Gold.Id.Protein>
6NUR|6NUR_protein|mol2

> <Gold.PLP.Fitness>
54.5624

> <Gold.PLP.PLP>
-50.2349

> <Gold.PLP.part.hbond>
-4.0000

> <Gold.PLP.part.metal>
0.0000

> <Gold.PLP.part.buried>
-5.6371

> <Gold.PLP.part.nonpolar>
-40.6925

> <Gold.PLP.part.repulsive>
0.0426

> <Gold.PLP.ligand.clash>
0.0000

> <Gold.PLP.ligand.torsion>
3.0097

> <Gold.PLP.Chemscore.Hbond>
3.0000

> <Gold.PLP.Chemscore.CHOScore>
0.0000

> <Gold.PLP.Chemscore.Metal>
0.0000

> <Gold.Chemscore.Hbonds>
donor molecule, donor type, donor heavy atom, donor atom, acceptor molecule, acceptor atom, score
      P1  H  7997  8008       L1    18  0.26
      P1  H 10752 10763       L1    11  1.00

> <Gold.PLP.Chemscore.Internal.Correction>
1.3470

> <Gold.Rescore>
     Score         DG    S(hbond)    S(metal)    S(lipo)     H(rot)  DE(clash)    DE(int)     intcor
     13.95     -18.86       2.85        0.00     106.73       3.37       0.60       4.31       ----

> <Gold.Chemscore.Fitness>
13.9470

> <Gold.Chemscore.DG>
-18.8589

> <Gold.Chemscore.ZeroCoef>
-5.4800

> <Gold.Chemscore.Hbond>
2.8478

> <Gold.Chemscore.Metal>
0.0000

> <Gold.Chemscore.Lipo>
106.7299

> <Gold.Chemscore.Internal_Hbond>
0.0000

> <Gold.Chemscore.DEClash>
0.5981

> <Gold.Chemscore.DEInternal>
4.3139

> <Gold.Chemscore.Rot>
3.3672

> <Gold.Chemscore.Internal.Correction>
   9.000000E+99

> <Gold.Chemscore.Hbonds>
donor molecule, donor type, donor heavy atom, donor atom, acceptor molecule, acceptor atom, score
      P1  H  7997  8008       L1    18  0.27
      P1  H 10752 10763       L1    11  0.98

> <Gold.Chemscore.Hbond.Weighted>
-9.5116

> <Gold.Chemscore.Metal.Weighted>
-0.0000

> <Gold.Chemscore.Lipo.Weighted>
-12.4874

> <Gold.Chemscore.Internal_Hbond.Weighted>
0.0000

> <Gold.Chemscore.DEClash.Weighted>
0.5981

> <Gold.Chemscore.DEInternal.Weighted>
4.3139

> <Gold.Chemscore.Rot.Weighted>
8.6201

> <Gold.Chemscore.Internal.Correction.Weighted>
   9.000000E+99

> <Gold.Protein.RotatedTorsions>
[ 6907 6896 6895 6894 ] final   54.00 input  -60.11 | X-H torsion
[ 7974 7965 7964 7962 ] final -168.06 input  175.53 | X-H torsion
[ 8008 7997 7996 7995 ] final  -38.62 input   59.86 | X-H torsion
[ 10167 10162 10161 10158 ] final  -36.66 input  -65.29 | X-H torsion
[ 10718 10713 10712 10709 ] final -107.74 input   66.30 | X-H torsion
[ 10763 10752 10751 10750 ] final  156.09 input  -60.55 | X-H torsion
[ 11005 11000 10999 10996 ] final   98.27 input  -57.11 | X-H torsion

> <Gold.Protein.ActiveResidues>
 VAL166  LYS551  ARG553  GLY616  TRP617  ASP618  TYR619  PRO620  LYS621  CYS622 
 ASP623  PHE694  ASN695  SER759  ASP760  ASP761  ALA762  ILE779  LEU786  VAL792 
 PHE793  MET794  SER795  GLU796  ALA797  LYS798  CYS799  TRP800  GLU811  SER814 

> <Gold.Protein.RotatedAtoms>
  152.3394  134.7154  160.0267 H   0  0  0  0  0  0  0  0  0  0  0  0  # atno 6907 bound_to 6896
  151.7545  133.3324  159.3408 H   0  0  0  0  0  0  0  0  0  0  0  0  # atno 6908 bound_to 6896
  150.7470  134.6095  159.6123 H   0  0  0  0  0  0  0  0  0  0  0  0  # atno 6909 bound_to 6896
  144.7210  140.2426  143.6289 H   0  0  0  0  0  0  0  0  0  0  0  0  # atno 7974 bound_to 7965
  154.4034  140.1573  156.2729 H   0  0  0  0  0  0  0  0  0  0  0  0  # atno 8008 bound_to 7997
  155.8937  140.3437  155.5953 H   0  0  0  0  0  0  0  0  0  0  0  0  # atno 8009 bound_to 7997
  155.7528  140.0807  157.2183 H   0  0  0  0  0  0  0  0  0  0  0  0  # atno 8010 bound_to 7997
  140.7137  143.3393  151.2392 H   0  0  0  0  0  0  0  0  0  0  0  0  # atno 10167 bound_to 10162
  156.0451  130.5678  150.7864 H   0  0  0  0  0  0  0  0  0  0  0  0  # atno 10718 bound_to 10713
  154.1787  135.2800  155.3059 H   0  0  0  0  0  0  0  0  0  0  0  0  # atno 10763 bound_to 10752
  154.6019  135.5527  153.7386 H   0  0  0  0  0  0  0  0  0  0  0  0  # atno 10764 bound_to 10752
  153.0144  135.6394  154.1927 H   0  0  0  0  0  0  0  0  0  0  0  0  # atno 10765 bound_to 10752
  139.8773  134.9041  156.4432 H   0  0  0  0  0  0  0  0  0  0  0  0  # atno 11005 bound_to 11000
  145.8305  139.2084  143.1885 LP  0  0  0  0  0  0  0  0  0  0  0  0  # atno 17320 bound_to 7965
  146.0435  140.8141  142.9817 LP  0  0  0  0  0  0  0  0  0  0  0  0  # atno 17321 bound_to 7965
  139.6897  143.9713  152.2852 LP  0  0  0  0  0  0  0  0  0  0  0  0  # atno 17342 bound_to 10162
  139.9371  144.6705  150.8304 LP  0  0  0  0  0  0  0  0  0  0  0  0  # atno 17343 bound_to 10162
  157.5317  131.0937  150.9946 LP  0  0  0  0  0  0  0  0  0  0  0  0  # atno 17370 bound_to 10713
  157.0251  130.5689  149.5336 LP  0  0  0  0  0  0  0  0  0  0  0  0  # atno 17371 bound_to 10713
  140.8985  133.7797  155.9652 LP  0  0  0  0  0  0  0  0  0  0  0  0  # atno 17394 bound_to 11000
  140.8677  134.2764  157.5205 LP  0  0  0  0  0  0  0  0  0  0  0  0  # atno 17395 bound_to 11000

$$$$
