AV-unprocessed.smi:49|AV-procd|sdf|486|dock7
  -GOLD-   2262016353D 1   1.00000     0.00000
 Structure written by MMmdl.
 27 28  0  0  0  0  0  0  0  0  3 V2000
  151.6457  144.0344  157.5363 C   0  0  0  0  0  0  0  0  0  0  0  0
  151.3729  142.5550  157.8249 C   0  0  0  0  0  0  0  0  0  0  0  0
  150.7653  141.8454  156.6346 C   0  0  0  0  0  0  0  0  0  0  0  0
  149.6728  142.2216  155.9773 N   0  0  0  0  0  0  0  0  0  0  0  0
  149.5173  141.3332  154.9870 C   0  0  0  0  0  0  0  0  0  0  0  0
  148.4027  141.3885  153.9600 C   0  0  1  0  0  0  0  0  0  0  0  0
  147.3827  140.2558  154.1464 C   0  0  0  0  0  0  0  0  0  0  0  0
  146.2506  140.9122  154.9317 C   0  0  2  0  0  0  0  0  0  0  0  0
  145.0175  140.2509  154.7421 O   0  0  0  0  0  0  0  0  0  0  0  0
  146.2369  142.3343  154.3733 C   0  0  0  0  0  0  0  0  0  0  0  0
  147.6470  142.6533  154.0839 N   0  3  0  0  0  0  0  0  0  0  0  0
  150.5094  140.4282  155.0018 N   0  0  0  0  0  0  0  0  0  0  0  0
  151.2688  140.7576  156.0252 N   0  5  0  0  0  0  0  0  0  0  0  0
  148.8486  141.3328  152.9662 H   0  0  0  0  0  0  0  0  0  0  0  0
  146.4988  140.9308  155.9940 H   0  0  0  0  0  0  0  0  0  0  0  0
  152.0842  144.5255  158.4050 H   0  0  0  0  0  0  0  0  0  0  0  0
  150.7250  144.5608  157.2836 H   0  0  0  0  0  0  0  0  0  0  0  0
  152.3384  144.1497  156.7020 H   0  0  0  0  0  0  0  0  0  0  0  0
  152.3000  142.0515  158.1002 H   0  0  0  0  0  0  0  0  0  0  0  0
  150.6980  142.4590  158.6760 H   0  0  0  0  0  0  0  0  0  0  0  0
  147.0124  139.9500  153.1663 H   0  0  0  0  0  0  0  0  0  0  0  0
  147.7952  139.3701  154.6316 H   0  0  0  0  0  0  0  0  0  0  0  0
  144.5998  140.6072  153.9724 H   0  0  0  0  0  0  0  0  0  0  0  0
  145.6828  142.3717  153.4344 H   0  0  0  0  0  0  0  0  0  0  0  0
  145.7912  143.0549  155.0594 H   0  0  0  0  0  0  0  0  0  0  0  0
  148.0359  143.1646  154.8640 H   0  0  0  0  0  0  0  0  0  0  0  0
  147.7253  143.2051  153.2421 H   0  0  0  0  0  0  0  0  0  0  0  0
  1  2  1  0  0  0  0
  1 16  1  0  0  0  0
  1 17  1  0  0  0  0
  1 18  1  0  0  0  0
  2  3  1  0  0  0  0
  2 19  1  0  0  0  0
  2 20  1  0  0  0  0
  3 13  1  0  0  0  0
  3  4  2  0  0  0  0
  4  5  1  0  0  0  0
  5  6  1  0  0  0  0
  5 12  2  0  0  0  0
  6 14  1  0  0  0  0
  6 11  1  0  0  0  0
  6  7  1  0  0  0  0
  7  8  1  0  0  0  0
  7 21  1  0  0  0  0
  7 22  1  0  0  0  0
  8 15  1  0  0  0  0
  8  9  1  0  0  0  0
  8 10  1  0  0  0  0
  9 23  1  0  0  0  0
 10 11  1  0  0  0  0
 10 24  1  0  0  0  0
 10 25  1  0  0  0  0
 11 26  1  0  0  0  0
 11 27  1  0  0  0  0
 12 13  1  0  0  0  0
M  CHG  1  11   1
M  CHG  1  13  -1
M  END
> <s_m_source_file>
AV-unprocessed.smi

> <i_m_source_file_index>
49

> <i_lp_mmshare_version>
43012

> <i_f3d_flags>
0

> <s_epik_input>
W0NIM11bQ0gyXWMxbmMobltuSF0xKVtDQEBIXTJbQ0gyXVtDQEBIXShbT0hdKVtDSDJdW05IXTI=

> <s_epik_cmdline>
J2VwaWtfcHl0aG9uJywgJy1waCcsICc3LjAnLCAnLXRuJywgJzgnLCAnLW1hJywgJzIwMCcsICctbWV0YWxfYmluZGluZycsICctaW1hZScsICc8aW5maWxlLm1hZT4nLCAnLW9tYWUnLCAnPG91dGZpbGUubWFlPic=

> <r_lp_tautomer_probability>
0.948284

> <r_epik_Ionization_Penalty>
3.22013

> <r_epik_Ionization_Penalty_Charging>
3.22013

> <r_epik_Ionization_Penalty_Neutral>
3.9133e-08

> <r_epik_State_Penalty>
2.79459

> <r_epik_Charging_Adjusted_Penalty>
6.01472

> <i_epik_Tot_Q>
0

> <i_epik_Tot_abs_Q>
2

> <r_epik_Metal_State_Penalty>
0.589377

> <b_epik_Metal_Only>
1

> <s_lp_Force_Field>
OPLS_2005

> <r_lp_Energy>
10.3781

> <b_lp_Chiralities_Consistent>
1

> <s_lp_Variant>
AV-unprocessed.smi:49-24

> <Gold.Version>
5.8.1

> <Gold.Id.Protein>
6NUR|6NUR_protein|mol2

> <Gold.PLP.Fitness>
34.5519

> <Gold.PLP.PLP>
-22.9988

> <Gold.PLP.part.hbond>
-3.0000

> <Gold.PLP.part.metal>
0.0000

> <Gold.PLP.part.buried>
-3.8306

> <Gold.PLP.part.nonpolar>
-19.7533

> <Gold.PLP.part.repulsive>
3.4888

> <Gold.PLP.ligand.clash>
0.0000

> <Gold.PLP.ligand.torsion>
0.2309

> <Gold.PLP.Chemscore.Hbond>
4.0000

> <Gold.PLP.Chemscore.CHOScore>
0.0000

> <Gold.PLP.Chemscore.Metal>
0.0000

> <Gold.Chemscore.Hbonds>
donor molecule, donor type, donor heavy atom, donor atom, acceptor molecule, acceptor atom, score
      L1  H     9    23       P1 10175  1.00
      L1  H    11    26       P1  8028  2.00
      P1  H  7989  7998       L1    12  1.00

> <Gold.PLP.Chemscore.Internal.Correction>
0.0148

> <Gold.Rescore>
     Score         DG    S(hbond)    S(metal)    S(lipo)     H(rot)  DE(clash)    DE(int)     intcor
     12.33     -14.23       2.48        0.00      44.57       1.86       1.41       0.50       ----

> <Gold.Chemscore.Fitness>
12.3258

> <Gold.Chemscore.DG>
-14.2304

> <Gold.Chemscore.ZeroCoef>
-5.4800

> <Gold.Chemscore.Hbond>
2.4819

> <Gold.Chemscore.Metal>
0.0000

> <Gold.Chemscore.Lipo>
44.5650

> <Gold.Chemscore.Internal_Hbond>
0.0000

> <Gold.Chemscore.DEClash>
1.4091

> <Gold.Chemscore.DEInternal>
0.4955

> <Gold.Chemscore.Rot>
1.8567

> <Gold.Chemscore.Internal.Correction>
   9.000000E+99

> <Gold.Chemscore.Hbonds>
donor molecule, donor type, donor heavy atom, donor atom, acceptor molecule, acceptor atom, score
      L1  H     9    23       P1 10175  0.97
      L1  H    11    26       P1  8028  0.87
      P1  H  7989  7998       L1    12  0.17

> <Gold.Chemscore.Hbond.Weighted>
-8.2894

> <Gold.Chemscore.Metal.Weighted>
-0.0000

> <Gold.Chemscore.Lipo.Weighted>
-5.2141

> <Gold.Chemscore.Internal_Hbond.Weighted>
0.0000

> <Gold.Chemscore.DEClash.Weighted>
1.4091

> <Gold.Chemscore.DEInternal.Weighted>
0.4955

> <Gold.Chemscore.Rot.Weighted>
4.7531

> <Gold.Chemscore.Internal.Correction.Weighted>
   9.000000E+99

> <Gold.Protein.RotatedTorsions>
[ 6907 6896 6895 6894 ] final   85.64 input  -60.11 | X-H torsion
[ 7974 7965 7964 7962 ] final   78.53 input  175.53 | X-H torsion
[ 8008 7997 7996 7995 ] final -141.58 input   59.86 | X-H torsion
[ 10167 10162 10161 10158 ] final  -79.51 input  -65.29 | X-H torsion
[ 10718 10713 10712 10709 ] final   34.61 input   66.30 | X-H torsion
[ 10763 10752 10751 10750 ] final  143.96 input  -60.55 | X-H torsion
[ 11005 11000 10999 10996 ] final   85.87 input  -57.11 | X-H torsion

> <Gold.Protein.ActiveResidues>
 VAL166  LYS551  ARG553  GLY616  TRP617  ASP618  TYR619  PRO620  LYS621  CYS622 
 ASP623  PHE694  ASN695  SER759  ASP760  ASP761  ALA762  ILE779  LEU786  VAL792 
 PHE793  MET794  SER795  GLU796  ALA797  LYS798  CYS799  TRP800  GLU811  SER814 

> <Gold.Protein.RotatedAtoms>
  152.5379  134.2554  159.8914 H   0  0  0  0  0  0  0  0  0  0  0  0  # atno 6907 bound_to 6896
  151.2516  133.4340  159.2619 H   0  0  0  0  0  0  0  0  0  0  0  0  # atno 6908 bound_to 6896
  151.0534  134.9702  159.8279 H   0  0  0  0  0  0  0  0  0  0  0  0  # atno 6909 bound_to 6896
  145.6759  139.2510  143.1842 H   0  0  0  0  0  0  0  0  0  0  0  0  # atno 7974 bound_to 7965
  155.4802  140.0559  157.2968 H   0  0  0  0  0  0  0  0  0  0  0  0  # atno 8008 bound_to 7997
  154.4663  140.2020  156.0062 H   0  0  0  0  0  0  0  0  0  0  0  0  # atno 8009 bound_to 7997
  156.0980  140.3223  155.7908 H   0  0  0  0  0  0  0  0  0  0  0  0  # atno 8010 bound_to 7997
  140.4587  143.2460  151.8381 H   0  0  0  0  0  0  0  0  0  0  0  0  # atno 10167 bound_to 10162
  157.3124  130.7406  149.6733 H   0  0  0  0  0  0  0  0  0  0  0  0  # atno 10718 bound_to 10713
  153.9809  135.2941  155.3420 H   0  0  0  0  0  0  0  0  0  0  0  0  # atno 10763 bound_to 10752
  154.7269  135.5085  153.8904 H   0  0  0  0  0  0  0  0  0  0  0  0  # atno 10764 bound_to 10752
  153.0855  135.6692  154.0073 H   0  0  0  0  0  0  0  0  0  0  0  0  # atno 10765 bound_to 10752
  139.8960  134.8316  156.2641 H   0  0  0  0  0  0  0  0  0  0  0  0  # atno 11005 bound_to 11000
  146.1006  140.7548  142.9551 LP  0  0  0  0  0  0  0  0  0  0  0  0  # atno 17320 bound_to 7965
  144.7042  140.3781  143.7132 LP  0  0  0  0  0  0  0  0  0  0  0  0  # atno 17321 bound_to 7965
  139.4804  144.5034  151.9030 LP  0  0  0  0  0  0  0  0  0  0  0  0  # atno 17342 bound_to 10162
  140.4120  144.2356  150.5888 LP  0  0  0  0  0  0  0  0  0  0  0  0  # atno 17343 bound_to 10162
  155.9679  130.4247  150.4622 LP  0  0  0  0  0  0  0  0  0  0  0  0  # atno 17370 bound_to 10713
  157.2622  131.0569  151.2313 LP  0  0  0  0  0  0  0  0  0  0  0  0  # atno 17371 bound_to 10713
  141.0143  133.7077  156.1163 LP  0  0  0  0  0  0  0  0  0  0  0  0  # atno 17394 bound_to 11000
  140.7323  134.4241  157.5564 LP  0  0  0  0  0  0  0  0  0  0  0  0  # atno 17395 bound_to 11000

$$$$
