AV-unprocessed.smi:160|AV-procd|sdf|1344|dock1
  -GOLD-   2262019 43D 1   1.00000     0.00000
 Structure written by MMmdl.
 29 30  0  0  0  0  0  0  0  0  1 V2000
  148.6436  133.3632  156.3452 N   0  0  0  0  0  0  0  0  0  0  0  0
  149.7726  133.7557  155.7459 C   0  0  0  0  0  0  0  0  0  0  0  0
  150.6531  132.9631  155.4156 O   0  0  0  0  0  0  0  0  0  0  0  0
  149.9107  135.2313  155.4919 C   0  0  0  0  0  0  0  0  0  0  0  0
  150.9911  135.7363  154.8253 N   0  0  0  0  0  0  0  0  0  0  0  0
  150.6670  137.0228  154.8480 C   0  0  0  0  0  0  0  0  0  0  0  0
  149.5122  137.2864  155.4680 N   0  0  0  0  0  0  0  0  0  0  0  0
  148.8207  138.5988  155.6909 C   0  0  1  0  0  0  0  0  0  0  0  0
  149.7325  139.4811  156.2758 O   0  0  0  0  0  0  0  0  0  0  0  0
  150.2079  140.4000  155.2971 C   0  0  2  0  0  0  0  0  0  0  0  0
  150.7625  141.6555  155.9868 C   0  0  0  0  0  0  0  0  0  0  0  0
  149.7555  142.2602  156.7698 O   0  0  0  0  0  0  0  0  0  0  0  0
  148.9384  140.6513  154.4826 C   0  0  1  0  0  0  0  0  0  0  0  0
  149.1980  141.2457  153.2242 O   0  0  0  0  0  0  0  0  0  0  0  0
  148.3126  139.2602  154.3863 C   0  0  1  0  0  0  0  0  0  0  0  0
  148.6823  138.5733  153.1997 O   0  0  0  0  0  0  0  0  0  0  0  0
  148.9941  136.1094  155.9012 N   0  0  0  0  0  0  0  0  0  0  0  0
  148.0229  138.3683  156.3978 H   0  0  0  0  0  0  0  0  0  0  0  0
  150.9650  139.9288  154.6672 H   0  0  0  0  0  0  0  0  0  0  0  0
  148.2696  141.3024  155.0477 H   0  0  0  0  0  0  0  0  0  0  0  0
  147.2244  139.3228  154.4165 H   0  0  0  0  0  0  0  0  0  0  0  0
  148.4911  132.3853  156.5430 H   0  0  0  0  0  0  0  0  0  0  0  0
  147.9485  134.0518  156.5963 H   0  0  0  0  0  0  0  0  0  0  0  0
  151.2858  137.7895  154.4053 H   0  0  0  0  0  0  0  0  0  0  0  0
  151.5797  141.3864  156.6566 H   0  0  0  0  0  0  0  0  0  0  0  0
  151.1587  142.3663  155.2609 H   0  0  0  0  0  0  0  0  0  0  0  0
  149.3999  142.9924  156.2896 H   0  0  0  0  0  0  0  0  0  0  0  0
  149.1976  140.5672  152.5665 H   0  0  0  0  0  0  0  0  0  0  0  0
  149.1646  139.1666  152.6445 H   0  0  0  0  0  0  0  0  0  0  0  0
  1  2  1  0  0  0  0
  1 22  1  0  0  0  0
  1 23  1  0  0  0  0
  2  3  2  0  0  0  0
  2  4  1  0  0  0  0
  4 17  2  0  0  0  0
  4  5  1  0  0  0  0
  5  6  2  0  0  0  0
  6  7  1  0  0  0  0
  6 24  1  0  0  0  0
  7  8  1  0  0  0  0
  7 17  1  0  0  0  0
  8 18  1  0  0  0  0
  8 15  1  0  0  0  0
  8  9  1  0  0  0  0
  9 10  1  0  0  0  0
 10 19  1  0  0  0  0
 10 11  1  0  0  0  0
 10 13  1  0  0  0  0
 11 12  1  0  0  0  0
 11 25  1  0  0  0  0
 11 26  1  0  0  0  0
 12 27  1  0  0  0  0
 13 20  1  0  0  0  0
 13 14  1  0  0  0  0
 13 15  1  0  0  0  0
 14 28  1  0  0  0  0
 15 21  1  0  0  0  0
 15 16  1  0  0  0  0
 16 29  1  0  0  0  0
M  END
> <s_m_source_file>
AV-unprocessed.smi

> <i_m_source_file_index>
160

> <i_lp_mmshare_version>
43012

> <i_f3d_flags>
0

> <s_epik_input>
W05IMl1DKD1PKWMxbltjSF1uKG4xKVtDQEBIXTJPW0NASF0oW0NIMl1bT0hdKVtDQEBIXShbT0hdKVtDQEhdMltPSF0=

> <s_epik_cmdline>
J2VwaWtfcHl0aG9uJywgJy1waCcsICc3LjAnLCAnLXRuJywgJzgnLCAnLW1hJywgJzIwMCcsICctbWV0YWxfYmluZGluZycsICctaW1hZScsICc8aW5maWxlLm1hZT4nLCAnLW9tYWUnLCAnPG91dGZpbGUubWFlPic=

> <r_lp_tautomer_probability>
1

> <r_epik_Ionization_Penalty>
1.06932e-05

> <r_epik_Ionization_Penalty_Charging>
0

> <r_epik_Ionization_Penalty_Neutral>
1.06932e-05

> <r_epik_State_Penalty>
-0

> <r_epik_Charging_Adjusted_Penalty>
0

> <i_epik_Tot_Q>
0

> <i_epik_Tot_abs_Q>
0

> <r_epik_Metal_State_Penalty>
0.0142097

> <b_epik_Metal_Only>
0

> <s_epik_Chemistry_Notes>
This compound contains an acetal/aminal-like group ( X-CH(R)-Y where X, Y are N, S, or O) that may be acid/base labile, releasing an aldehyde.

> <s_lp_Force_Field>
OPLS_2005

> <r_lp_Energy>
46.1789

> <b_lp_Chiralities_Consistent>
1

> <s_lp_Variant>
AV-unprocessed.smi:160-2

> <Gold.Version>
5.8.1

> <Gold.Id.Protein>
6NUR|6NUR_protein|mol2

> <Gold.PLP.Fitness>
38.3116

> <Gold.PLP.PLP>
-23.6588

> <Gold.PLP.part.hbond>
-6.5152

> <Gold.PLP.part.metal>
0.0000

> <Gold.PLP.part.buried>
-4.6698

> <Gold.PLP.part.nonpolar>
-12.9649

> <Gold.PLP.part.repulsive>
0.2236

> <Gold.PLP.ligand.clash>
0.0000

> <Gold.PLP.ligand.torsion>
0.1245

> <Gold.PLP.Chemscore.Hbond>
4.9604

> <Gold.PLP.Chemscore.CHOScore>
0.0000

> <Gold.PLP.Chemscore.Metal>
0.0000

> <Gold.Chemscore.Hbonds>
donor molecule, donor type, donor heavy atom, donor atom, acceptor molecule, acceptor atom, score
      L1  H    12    27       P1  8028  1.00
      L1  H    14    28       P1  7957  0.99
      L1  H    16    29       P1  7957  1.00
      P1  H  8011  8017       L1    14  0.90
      P1  H 10752 10765       L1     5  1.00

> <Gold.PLP.Chemscore.Internal.Correction>
0.0207

> <Gold.Rescore>
     Score         DG    S(hbond)    S(metal)    S(lipo)     H(rot)  DE(clash)    DE(int)     intcor
     10.34     -11.59       4.03        0.00      26.10       4.06       0.08       1.17       ----

> <Gold.Chemscore.Fitness>
10.3403

> <Gold.Chemscore.DG>
-11.5942

> <Gold.Chemscore.ZeroCoef>
-5.4800

> <Gold.Chemscore.Hbond>
4.0280

> <Gold.Chemscore.Metal>
0.0000

> <Gold.Chemscore.Lipo>
26.1042

> <Gold.Chemscore.Internal_Hbond>
0.0000

> <Gold.Chemscore.DEClash>
0.0827

> <Gold.Chemscore.DEInternal>
1.1712

> <Gold.Chemscore.Rot>
4.0600

> <Gold.Chemscore.Internal.Correction>
   9.000000E+99

> <Gold.Chemscore.Hbonds>
donor molecule, donor type, donor heavy atom, donor atom, acceptor molecule, acceptor atom, score
      L1  H    12    27       P1  8028  1.00
      L1  H    14    28       P1  7957  0.90
      L1  H    16    29       P1  7957  0.99
      P1  H  8011  8017       L1    14  0.17
      P1  H 10752 10765       L1     5  0.69

> <Gold.Chemscore.Hbond.Weighted>
-13.4536

> <Gold.Chemscore.Metal.Weighted>
-0.0000

> <Gold.Chemscore.Lipo.Weighted>
-3.0542

> <Gold.Chemscore.Internal_Hbond.Weighted>
0.0000

> <Gold.Chemscore.DEClash.Weighted>
0.0827

> <Gold.Chemscore.DEInternal.Weighted>
1.1712

> <Gold.Chemscore.Rot.Weighted>
10.3936

> <Gold.Chemscore.Internal.Correction.Weighted>
   9.000000E+99

> <Gold.Protein.RotatedTorsions>
[ 6907 6896 6895 6894 ] final   55.20 input  -60.11 | X-H torsion
[ 7974 7965 7964 7962 ] final  -27.35 input  175.53 | X-H torsion
[ 8008 7997 7996 7995 ] final    7.20 input   59.86 | X-H torsion
[ 10167 10162 10161 10158 ] final  110.66 input  -65.29 | X-H torsion
[ 10718 10713 10712 10709 ] final  -63.89 input   66.30 | X-H torsion
[ 10763 10752 10751 10750 ] final  177.33 input  -60.55 | X-H torsion
[ 11005 11000 10999 10996 ] final   91.00 input  -57.11 | X-H torsion

> <Gold.Protein.ActiveResidues>
 VAL166  LYS551  ARG553  GLY616  TRP617  ASP618  TYR619  PRO620  LYS621  CYS622 
 ASP623  PHE694  ASN695  SER759  ASP760  ASP761  ALA762  ILE779  LEU786  VAL792 
 PHE793  MET794  SER795  GLU796  ALA797  LYS798  CYS799  TRP800  GLU811  SER814 

> <Gold.Protein.RotatedAtoms>
  152.3515  134.6999  160.0234 H   0  0  0  0  0  0  0  0  0  0  0  0  # atno 6907 bound_to 6896
  151.7351  133.3314  159.3359 H   0  0  0  0  0  0  0  0  0  0  0  0  # atno 6908 bound_to 6896
  150.7543  134.6262  159.6206 H   0  0  0  0  0  0  0  0  0  0  0  0  # atno 6909 bound_to 6896
  146.1363  140.5141  142.8671 H   0  0  0  0  0  0  0  0  0  0  0  0  # atno 7974 bound_to 7965
  154.7508  140.2766  155.6294 H   0  0  0  0  0  0  0  0  0  0  0  0  # atno 8008 bound_to 7997
  156.2895  140.2679  156.2187 H   0  0  0  0  0  0  0  0  0  0  0  0  # atno 8009 bound_to 7997
  155.0140  140.0372  157.2400 H   0  0  0  0  0  0  0  0  0  0  0  0  # atno 8010 bound_to 7997
  139.6671  144.7127  151.1756 H   0  0  0  0  0  0  0  0  0  0  0  0  # atno 10167 bound_to 10162
  156.0763  130.4226  150.1341 H   0  0  0  0  0  0  0  0  0  0  0  0  # atno 10718 bound_to 10713
  154.4930  135.2780  155.1481 H   0  0  0  0  0  0  0  0  0  0  0  0  # atno 10763 bound_to 10752
  154.3145  135.6222  153.5484 H   0  0  0  0  0  0  0  0  0  0  0  0  # atno 10764 bound_to 10752
  152.9891  135.5728  154.5356 H   0  0  0  0  0  0  0  0  0  0  0  0  # atno 10765 bound_to 10752
  139.8846  134.8648  156.3366 H   0  0  0  0  0  0  0  0  0  0  0  0  # atno 11005 bound_to 11000
  144.7744  140.5707  143.6648 LP  0  0  0  0  0  0  0  0  0  0  0  0  # atno 17320 bound_to 7965
  145.5148  139.1478  143.3585 LP  0  0  0  0  0  0  0  0  0  0  0  0  # atno 17321 bound_to 7965
  140.7604  143.5902  150.8804 LP  0  0  0  0  0  0  0  0  0  0  0  0  # atno 17342 bound_to 10162
  139.9564  143.6213  152.3015 LP  0  0  0  0  0  0  0  0  0  0  0  0  # atno 17343 bound_to 10162
  156.9382  130.9736  151.3521 LP  0  0  0  0  0  0  0  0  0  0  0  0  # atno 17370 bound_to 10713
  157.5859  130.8409  149.8589 LP  0  0  0  0  0  0  0  0  0  0  0  0  # atno 17371 bound_to 10713
  140.9687  133.7341  156.0504 LP  0  0  0  0  0  0  0  0  0  0  0  0  # atno 17394 bound_to 11000
  140.7898  134.3630  157.5467 LP  0  0  0  0  0  0  0  0  0  0  0  0  # atno 17395 bound_to 11000

$$$$
