#       Name:                AV-unprocessed.smi:1263
#       Creating user name   scv26
#       Creation time:       Fri Mar 27 04:43:36 2020


#       File generated by GOLD software.
#

@<TRIPOS>MOLECULE
AV-unprocessed.smi:1263
    49    51     1
SMALL
NO_CHARGES


@<TRIPOS>ATOM
      1 ****        -4.2566  -4.8140  -0.0462 C.3            1 S1                 0.0000
      2 ****        -3.6302  -3.5359  -0.0527 O.3            1 S1                 0.0000
      3 ****        -4.4296  -2.4093  -0.0942 C.ar           1 S1                 0.0000
      4 ****        -5.7761  -2.5743  -0.1228 N.ar           1 S1                 0.0000
      5 ****        -6.5574  -1.4758  -0.1693 C.ar           1 S1                 0.0000
      6 ****        -6.0442  -0.1662  -0.1968 C.ar           1 S1                 0.0000
      7 ****        -4.6483   0.0077  -0.1665 C.ar           1 S1                 0.0000
      8 ****        -3.8147  -1.1352  -0.1017 C.ar           1 S1                 0.0000
      9 ****        -2.3938  -1.0733  -0.0866 N.am           1 S1                 0.0000
     10 ****        -1.6045  -0.0624   0.3141 C.2            1 S1                 0.0000
     11 ****        -1.9969   1.0137   0.7647 O.2            1 S1                 0.0000
     12 ****        -0.3079  -0.3770   0.1802 N.am           1 S1                 0.0000
     13 ****         0.8085   0.4877   0.5516 C.3            1 S1                 0.0000
     14 ****         1.0678   1.5544  -0.5295 C.3            1 S1                 0.0000
     15 ****         2.3039   2.4019  -0.1850 C.3            1 S1                 0.0000
     16 ****         3.5017   1.5465   0.0048 N.4            1 S1                 1.0000
     17 ****         4.7265   2.3450   0.2287 C.3            1 S1                 0.0000
     18 ****         5.3756   2.8317  -1.0461 C.3            1 S1                 0.0000
     19 ****         5.9862   1.6813  -0.2770 C.3            1 S1                 0.0000
     20 ****         3.2920   0.5341   1.0695 C.3            1 S1                 0.0000
     21 ****         2.0777  -0.3561   0.7553 C.3            1 S1                 0.0000
     22 ****        -3.4922  -5.5902  -0.0148 H              1 S1                 0.0000
     23 ****        -4.8507  -4.9719  -0.9475 H              1 S1                 0.0000
     24 ****        -4.8937  -4.9420   0.8301 H              1 S1                 0.0000
     25 ****        -7.6235  -1.6461  -0.1926 H              1 S1                 0.0000
     26 ****        -6.7058   0.6858  -0.2456 H              1 S1                 0.0000
     27 ****        -4.2475   1.0083  -0.2087 H              1 S1                 0.0000
     28 ****        -1.9246  -1.9281  -0.3483 H              1 S1                 0.0000
     29 ****        -0.0773  -1.2862  -0.1934 H              1 S1                 0.0000
     30 ****         0.5725   0.9852   1.4945 H              1 S1                 0.0000
     31 ****         1.2153   1.0742  -1.4981 H              1 S1                 0.0000
     32 ****         0.1991   2.2051  -0.6370 H              1 S1                 0.0000
     33 ****         2.4888   3.1176  -0.9868 H              1 S1                 0.0000
     34 ****         2.1216   2.9819   0.7212 H              1 S1                 0.0000
     35 ****         4.7476   2.9570   1.1290 H              1 S1                 0.0000
     36 ****         4.8916   2.6005  -1.9934 H              1 S1                 0.0000
     37 ****         5.8965   3.7864  -1.0119 H              1 S1                 0.0000
     38 ****         6.9099   1.8783   0.2636 H              1 S1                 0.0000
     39 ****         5.9065   0.6873  -0.7135 H              1 S1                 0.0000
     40 ****         4.1832  -0.0873   1.1639 H              1 S1                 0.0000
     41 ****         3.1530   1.0354   2.0288 H              1 S1                 0.0000
     42 ****         1.9266  -1.0711   1.5651 H              1 S1                 0.0000
     43 ****         2.2824  -0.9431  -0.1415 H              1 S1                 0.0000
     44 ****         3.6394   1.0402  -0.8581 H              1 S1                 0.0000
     45 ****        -3.0333  -3.5039  -0.8544 LP             1 S1                 0.0000
     46 ****        -3.0765  -3.4745   0.7778 LP             1 S1                 0.0000
     47 ****        -6.1798  -3.4891  -0.1097 LP             1 S1                 0.0000
     48 ****        -2.9770   1.1898   0.8563 LP             1 S1                 0.0000
     49 ****        -1.3356   1.7118   1.0392 LP             1 S1                 0.0000
@<TRIPOS>BOND
    1    1    2 1     
    2    1   22 1     
    3    1   23 1     
    4    1   24 1     
    5    2    3 1     
    6    3    8 ar    
    7    3    4 ar    
    8    4    5 ar    
    9    5    6 ar    
   10    5   25 1     
   11    6    7 ar    
   12    6   26 1     
   13    7    8 ar    
   14    7   27 1     
   15    8    9 1     
   16    9   10 am    
   17    9   28 1     
   18   10   11 2     
   19   10   12 am    
   20   12   13 1     
   21   12   29 1     
   22   13   21 1     
   23   13   14 1     
   24   13   30 1     
   25   14   15 1     
   26   14   31 1     
   27   14   32 1     
   28   15   16 1     
   29   15   33 1     
   30   15   34 1     
   31   16   17 1     
   32   16   20 1     
   33   16   44 1     
   34   17   19 1     
   35   17   18 1     
   36   17   35 1     
   37   18   19 1     
   38   18   36 1     
   39   18   37 1     
   40   19   38 1     
   41   19   39 1     
   42   20   21 1     
   43   20   40 1     
   44   20   41 1     
   45   21   42 1     
   46   21   43 1     
   47    2   45 1     
   48    2   46 1     
   49    4   47 1     
   50   11   48 1     
   51   11   49 1     
@<TRIPOS>SUBSTRUCTURE
      1 S1             1
@<TRIPOS>SET
LONE_PAIRS      STATIC     ATOMS    <user>   **** ""
5 45 46 47 48 49
DONOR_HYDROGENS      STATIC     ATOMS    <user>   **** ""
3 28 29 44
ATOM$BLUE        STATIC     ATOMS    COLORGROUP SYSTEM
5 45 46 47 48 49
ATOM$RED        STATIC     ATOMS    COLORGROUP SYSTEM
3 28 29 44
