AV-unprocessed.smi:2368|AV-procd|sdf|9429|dock3
  -GOLD-   2272013 63D 1   1.00000     0.00000
 Structure written by MMmdl.
 36 37  0  0  0  0  0  0  0  0  2 V2000
  150.6510  141.0358  155.7646 C   0  0  0  0  0  0  0  0  0  0  0  0
  149.4214  140.8978  154.8876 C   0  0  0  0  0  0  0  0  0  0  0  0
  148.6032  141.9679  154.7800 N   0  3  0  0  0  0  0  0  0  0  0  0
  147.4872  141.9668  154.0220 C   0  0  0  0  0  0  0  0  0  0  0  0
  147.1276  140.8108  153.3027 C   0  0  0  0  0  0  0  0  0  0  0  0
  147.9399  139.6521  153.3940 C   0  0  0  0  0  0  0  0  0  0  0  0
  147.6571  138.4500  152.6872 N   0  0  0  0  0  0  0  0  0  0  0  0
  146.4648  137.9780  152.2850 C   0  0  0  0  0  0  0  0  0  0  0  0
  145.3815  138.5319  152.4714 O   0  0  0  0  0  0  0  0  0  0  0  0
  146.5943  136.8003  151.6586 N   0  0  0  0  0  0  0  0  0  0  0  0
  145.4878  136.0238  151.1104 C   0  0  2  0  0  0  0  0  0  0  0  0
  144.5262  135.6366  152.2000 C   0  0  0  0  0  0  0  0  0  0  0  0
  144.3222  134.3230  152.2625 C   0  0  0  0  0  0  0  0  0  0  0  0
  145.1118  133.5583  151.2308 C   0  0  2  0  0  0  0  0  0  0  0  0
  145.9801  132.4469  151.8449 C   0  0  0  0  0  0  0  0  0  0  0  0
  146.4364  131.5620  150.8435 O   0  0  0  0  0  0  0  0  0  0  0  0
  145.9416  134.6605  150.5243 C   0  0  0  0  0  0  0  0  0  0  0  0
  149.1119  139.7068  154.1892 C   0  0  0  0  0  0  0  0  0  0  0  0
  150.1552  138.3302  154.3156 Cl  0  0  0  0  0  0  0  0  0  0  0  0
  144.9456  136.6086  150.3655 H   0  0  0  0  0  0  0  0  0  0  0  0
  144.4050  133.1243  150.5220 H   0  0  0  0  0  0  0  0  0  0  0  0
  150.6358  140.2903  156.5600 H   0  0  0  0  0  0  0  0  0  0  0  0
  150.7029  142.0224  156.2264 H   0  0  0  0  0  0  0  0  0  0  0  0
  151.5555  140.8913  155.1734 H   0  0  0  0  0  0  0  0  0  0  0  0
  146.9219  142.8875  154.0084 H   0  0  0  0  0  0  0  0  0  0  0  0
  146.2425  140.8390  152.6856 H   0  0  0  0  0  0  0  0  0  0  0  0
  148.4475  137.8390  152.5403 H   0  0  0  0  0  0  0  0  0  0  0  0
  147.5198  136.4114  151.5512 H   0  0  0  0  0  0  0  0  0  0  0  0
  144.0536  136.3690  152.8378 H   0  0  0  0  0  0  0  0  0  0  0  0
  143.6604  133.8310  152.9602 H   0  0  0  0  0  0  0  0  0  0  0  0
  146.8477  132.8777  152.3459 H   0  0  0  0  0  0  0  0  0  0  0  0
  145.4202  131.8842  152.5929 H   0  0  0  0  0  0  0  0  0  0  0  0
  147.3777  131.5012  150.9022 H   0  0  0  0  0  0  0  0  0  0  0  0
  145.7864  134.6330  149.4452 H   0  0  0  0  0  0  0  0  0  0  0  0
  147.0085  134.5003  150.6880 H   0  0  0  0  0  0  0  0  0  0  0  0
  148.8437  142.8177  155.2910 H   0  0  0  0  0  0  0  0  0  0  0  0
  1  2  1  0  0  0  0
  1 22  1  0  0  0  0
  1 23  1  0  0  0  0
  1 24  1  0  0  0  0
  2 18  1  0  0  0  0
  2  3  2  0  0  0  0
  3  4  1  0  0  0  0
  3 36  1  0  0  0  0
  4  5  2  0  0  0  0
  4 25  1  0  0  0  0
  5  6  1  0  0  0  0
  5 26  1  0  0  0  0
  6  7  1  0  0  0  0
  6 18  2  0  0  0  0
  7  8  1  0  0  0  0
  7 27  1  0  0  0  0
  8  9  2  0  0  0  0
  8 10  1  0  0  0  0
 10 11  1  0  0  0  0
 10 28  1  0  0  0  0
 11 20  1  0  0  0  0
 11 17  1  0  0  0  0
 11 12  1  0  0  0  0
 12 13  2  0  0  0  0
 12 29  1  0  0  0  0
 13 14  1  0  0  0  0
 13 30  1  0  0  0  0
 14 21  1  0  0  0  0
 14 15  1  0  0  0  0
 14 17  1  0  0  0  0
 15 16  1  0  0  0  0
 15 31  1  0  0  0  0
 15 32  1  0  0  0  0
 16 33  1  0  0  0  0
 17 34  1  0  0  0  0
 17 35  1  0  0  0  0
 18 19  1  0  0  0  0
M  CHG  1   3   1
M  END
> <s_m_source_file>
AV-unprocessed.smi

> <i_m_source_file_index>
2368

> <i_lp_mmshare_version>
43012

> <i_f3d_flags>
0

> <s_epik_input>
W0NIM11jMW5bY0hdW2NIXWMoYzFDbClbTkhdQyg9TylbTkhdW0NAQEhdMltDSF09W0NIXVtDQEBIXShbQ0gyXTIpW0NIMl1bT0hd

> <s_epik_cmdline>
J2VwaWtfcHl0aG9uJywgJy1waCcsICc3LjAnLCAnLXRuJywgJzgnLCAnLW1hJywgJzIwMCcsICctbWV0YWxfYmluZGluZycsICctaW1hZScsICc8aW5maWxlLm1hZT4nLCAnLW9tYWUnLCAnPG91dGZpbGUubWFlPic=

> <r_epik_Ionization_Penalty>
2.4467

> <r_epik_Ionization_Penalty_Charging>
2.44668

> <r_epik_Ionization_Penalty_Neutral>
1.95078e-05

> <r_epik_State_Penalty>
2.60786

> <r_epik_Charging_Adjusted_Penalty>
5.05454

> <i_epik_Tot_Q>
1

> <i_epik_Tot_abs_Q>
1

> <r_epik_Metal_State_Penalty>
2.61736

> <b_epik_Metal_Only>
0

> <s_lp_Force_Field>
OPLS_2005

> <r_lp_Energy>
25.4266

> <b_lp_Chiralities_Consistent>
1

> <s_lp_Variant>
AV-unprocessed.smi:2368-5

> <Gold.Version>
5.8.1

> <Gold.Id.Protein>
6NUR|6NUR_protein|mol2

> <Gold.PLP.Fitness>
47.2269

> <Gold.PLP.PLP>
-32.9734

> <Gold.PLP.part.hbond>
-4.9402

> <Gold.PLP.part.metal>
0.0000

> <Gold.PLP.part.buried>
-2.3609

> <Gold.PLP.part.nonpolar>
-30.3486

> <Gold.PLP.part.repulsive>
4.3433

> <Gold.PLP.ligand.clash>
0.0000

> <Gold.PLP.ligand.torsion>
0.2843

> <Gold.PLP.Chemscore.Hbond>
4.9360

> <Gold.PLP.Chemscore.CHOScore>
0.0000

> <Gold.PLP.Chemscore.Metal>
0.0000

> <Gold.Chemscore.Hbonds>
donor molecule, donor type, donor heavy atom, donor atom, acceptor molecule, acceptor atom, score
      L1  H     3    36       P1  8028  2.00
      L1  H     7    27       P1  7948  0.90
      L1  H    10    28       P1  7948  0.78
      L1  H    16    33       P1 10747  1.00

> <Gold.PLP.Chemscore.Internal.Correction>
0.0140

> <Gold.Rescore>
     Score         DG    S(hbond)    S(metal)    S(lipo)     H(rot)  DE(clash)    DE(int)     intcor
     20.20     -23.13       3.88        0.00      79.62       1.81       1.43       1.51       ----

> <Gold.Chemscore.Fitness>
20.1957

> <Gold.Chemscore.DG>
-23.1344

> <Gold.Chemscore.ZeroCoef>
-5.4800

> <Gold.Chemscore.Hbond>
3.8809

> <Gold.Chemscore.Metal>
0.0000

> <Gold.Chemscore.Lipo>
79.6213

> <Gold.Chemscore.Internal_Hbond>
0.0000

> <Gold.Chemscore.DEClash>
1.4291

> <Gold.Chemscore.DEInternal>
1.5096

> <Gold.Chemscore.Rot>
1.8061

> <Gold.Chemscore.Internal.Correction>
   9.000000E+99

> <Gold.Chemscore.Hbonds>
donor molecule, donor type, donor heavy atom, donor atom, acceptor molecule, acceptor atom, score
      L1  H     3    36       P1  8028  0.98
      L1  H     7    27       P1  7948  0.88
      L1  H    10    28       P1  7948  0.76
      L1  H    16    33       P1 10747  0.94

> <Gold.Chemscore.Hbond.Weighted>
-12.9623

> <Gold.Chemscore.Metal.Weighted>
-0.0000

> <Gold.Chemscore.Lipo.Weighted>
-9.3157

> <Gold.Chemscore.Internal_Hbond.Weighted>
0.0000

> <Gold.Chemscore.DEClash.Weighted>
1.4291

> <Gold.Chemscore.DEInternal.Weighted>
1.5096

> <Gold.Chemscore.Rot.Weighted>
4.6237

> <Gold.Chemscore.Internal.Correction.Weighted>
   9.000000E+99

> <Gold.Protein.RotatedTorsions>
[ 6907 6896 6895 6894 ] final   85.45 input  -60.11 | X-H torsion
[ 7974 7965 7964 7962 ] final   23.99 input  175.53 | X-H torsion
[ 8008 7997 7996 7995 ] final  147.13 input   59.86 | X-H torsion
[ 10167 10162 10161 10158 ] final -140.37 input  -65.29 | X-H torsion
[ 10718 10713 10712 10709 ] final -172.53 input   66.30 | X-H torsion
[ 10763 10752 10751 10750 ] final   10.52 input  -60.55 | X-H torsion
[ 11005 11000 10999 10996 ] final -147.58 input  -57.11 | X-H torsion

> <Gold.Protein.ActiveResidues>
 VAL166  LYS551  ARG553  GLY616  TRP617  ASP618  TYR619  PRO620  LYS621  CYS622 
 ASP623  PHE694  ASN695  SER759  ASP760  ASP761  ALA762  ILE779  LEU786  VAL792 
 PHE793  MET794  SER795  GLU796  ALA797  LYS798  CYS799  TRP800  GLU811  SER814 

> <Gold.Protein.RotatedAtoms>
  152.5375  134.2584  159.8925 H   0  0  0  0  0  0  0  0  0  0  0  0  # atno 6907 bound_to 6896
  151.2545  133.4327  159.2620 H   0  0  0  0  0  0  0  0  0  0  0  0  # atno 6908 bound_to 6896
  151.0509  134.9686  159.8267 H   0  0  0  0  0  0  0  0  0  0  0  0  # atno 6909 bound_to 6896
  146.1958  139.7667  142.8798 H   0  0  0  0  0  0  0  0  0  0  0  0  # atno 7974 bound_to 7965
  156.2834  140.2164  156.5488 H   0  0  0  0  0  0  0  0  0  0  0  0  # atno 8008 bound_to 7997
  154.7308  140.0495  157.0747 H   0  0  0  0  0  0  0  0  0  0  0  0  # atno 8009 bound_to 7997
  155.0356  140.3140  155.4746 H   0  0  0  0  0  0  0  0  0  0  0  0  # atno 8010 bound_to 7997
  139.8289  143.7474  152.2666 H   0  0  0  0  0  0  0  0  0  0  0  0  # atno 10167 bound_to 10162
  156.7569  130.9399  151.3116 H   0  0  0  0  0  0  0  0  0  0  0  0  # atno 10718 bound_to 10713
  153.2024  135.6858  153.8215 H   0  0  0  0  0  0  0  0  0  0  0  0  # atno 10763 bound_to 10752
  153.7477  135.3228  155.3316 H   0  0  0  0  0  0  0  0  0  0  0  0  # atno 10764 bound_to 10752
  154.8178  135.4673  154.0795 H   0  0  0  0  0  0  0  0  0  0  0  0  # atno 10765 bound_to 10752
  140.7702  134.3198  157.5077 H   0  0  0  0  0  0  0  0  0  0  0  0  # atno 11005 bound_to 11000
  145.3646  141.0332  143.3265 LP  0  0  0  0  0  0  0  0  0  0  0  0  # atno 17320 bound_to 7965
  144.8579  139.5222  143.6826 LP  0  0  0  0  0  0  0  0  0  0  0  0  # atno 17321 bound_to 7965
  139.7675  144.7487  151.0273 LP  0  0  0  0  0  0  0  0  0  0  0  0  # atno 17342 bound_to 10162
  140.7808  143.4682  151.0183 LP  0  0  0  0  0  0  0  0  0  0  0  0  # atno 17343 bound_to 10162
  157.6752  130.9088  150.0133 LP  0  0  0  0  0  0  0  0  0  0  0  0  # atno 17370 bound_to 10713
  156.1364  130.3642  149.9650 LP  0  0  0  0  0  0  0  0  0  0  0  0  # atno 17371 bound_to 10713
  139.8757  134.9256  156.3379 LP  0  0  0  0  0  0  0  0  0  0  0  0  # atno 17394 bound_to 11000
  140.9581  133.7406  156.0363 LP  0  0  0  0  0  0  0  0  0  0  0  0  # atno 17395 bound_to 11000

$$$$
