#       Name:                AV-unprocessed.smi:206
#       Creating user name   scv26
#       Creation time:       Thu Mar 26 19:51:19 2020


#       File generated by GOLD software.
#

@<TRIPOS>MOLECULE
AV-unprocessed.smi:206
    56    59     1
SMALL
NO_CHARGES


@<TRIPOS>ATOM
      1 ****        -6.3159   2.5789  -0.8718 O.2            1 S1                 0.0000
      2 ****        -5.2184   2.0288  -0.7962 C.2            1 S1                 0.0000
      3 ****        -4.1286   2.4815   0.1581 C.3            1 S1                 0.0000
      4 ****        -3.0830   1.5027  -0.1139 N.pl3          1 S1                 0.0000
      5 ****        -1.8514   1.5545   0.4563 C.ar           1 S1                 0.0000
      6 ****        -1.5949   2.5579   1.3361 N.ar           1 S1                 0.0000
      7 ****        -0.4009   2.6563   1.9262 C.ar           1 S1                 0.0000
      8 ****         0.6663   1.8701   1.7830 N.ar           1 S1                 0.0000
      9 ****         0.4212   0.8578   0.9030 C.ar           1 S1                 0.0000
     10 ****        -0.7990   0.6242   0.2036 C.ar           1 S1                 0.0000
     11 ****        -0.6677  -0.5107  -0.5892 N.2            1 S1                 0.0000
     12 ****         0.5503  -0.9226  -0.3699 C.2            1 S1                 0.0000
     13 ****         1.2836  -0.1489   0.5012 N.pl3          1 S1                 0.0000
     14 ****         2.6321  -0.3771   0.9405 C.3            1 S1                 0.0000
     15 ****         3.6977  -0.9772   0.0168 C.3            1 S1                 0.0000
     16 ****         4.2859  -1.7791   1.2005 C.3            1 S1                 0.0000
     17 ****         4.5601  -3.2635   0.9129 C.3            1 S1                 0.0000
     18 ****         5.5571  -3.4236  -0.0758 O.3            1 S1                 0.0000
     19 ****         5.5496  -1.2073   1.8812 C.3            1 S1                 0.0000
     20 ****         5.4240   0.1552   2.2354 O.3            1 S1                 0.0000
     21 ****         2.9443  -1.5097   1.9195 C.3            1 S1                 0.0000
     22 ****        -3.4638   0.5520  -1.1494 C.3            1 S1                 0.0000
     23 ****        -4.8084   0.9727  -1.5075 N.am           1 S1                 0.0000
     24 ****        -5.5755   0.2477  -2.5179 C.3            1 S1                 0.0000
     25 ****        -5.5414   0.9432  -3.8905 C.3            1 S1                 0.0000
     26 ****        -6.2150   0.2017  -4.7688 F              1 S1                 0.0000
     27 ****        -6.1065   2.1489  -3.8347 F              1 S1                 0.0000
     28 ****        -4.2842   1.0677  -4.3161 F              1 S1                 0.0000
     29 ****        -3.8064   3.4964  -0.0782 H              1 S1                 0.0000
     30 ****        -4.4679   2.4298   1.1932 H              1 S1                 0.0000
     31 ****        -0.2832   3.4850   2.6090 H              1 S1                 0.0000
     32 ****         0.9429  -1.8107  -0.8424 H              1 S1                 0.0000
     33 ****         2.9905   0.5737   1.3369 H              1 S1                 0.0000
     34 ****         3.2837  -1.6208  -0.7599 H              1 S1                 0.0000
     35 ****         4.3777  -0.2423  -0.4153 H              1 S1                 0.0000
     36 ****         4.8697  -3.7901   1.8163 H              1 S1                 0.0000
     37 ****         3.6587  -3.7651   0.5590 H              1 S1                 0.0000
     38 ****         5.2606  -3.0099  -0.8722 H              1 S1                 0.0000
     39 ****         5.7836  -1.7645   2.7889 H              1 S1                 0.0000
     40 ****         6.4195  -1.2940   1.2297 H              1 S1                 0.0000
     41 ****         6.2301   0.4358   2.6413 H              1 S1                 0.0000
     42 ****         3.0354  -1.1892   2.9579 H              1 S1                 0.0000
     43 ****         2.2381  -2.3370   1.8313 H              1 S1                 0.0000
     44 ****        -2.8000   0.6175  -2.0125 H              1 S1                 0.0000
     45 ****        -3.4683  -0.4691  -0.7657 H              1 S1                 0.0000
     46 ****        -5.1746  -0.7627  -2.6091 H              1 S1                 0.0000
     47 ****        -6.6075   0.1357  -2.1814 H              1 S1                 0.0000
     48 ****        -7.0026   2.2386  -1.5142 LP             1 S1                 0.0000
     49 ****        -6.5215   3.3664  -0.2908 LP             1 S1                 0.0000
     50 ****        -2.3068   3.2288   1.5436 LP             1 S1                 0.0000
     51 ****         1.5349   2.0054   2.2597 LP             1 S1                 0.0000
     52 ****        -1.3531  -0.9192  -1.1920 LP             1 S1                 0.0000
     53 ****         5.7152  -4.3972  -0.2404 LP             1 S1                 0.0000
     54 ****         6.4072  -2.9950   0.2303 LP             1 S1                 0.0000
     55 ****         4.6660   0.2680   2.8778 LP             1 S1                 0.0000
     56 ****         5.2509   0.7019   1.4162 LP             1 S1                 0.0000
@<TRIPOS>BOND
    1    1    2 2     
    2    2   23 am    
    3    2    3 1     
    4    3    4 1     
    5    3   29 1     
    6    3   30 1     
    7    4    5 1     
    8    4   22 1     
    9    5   10 ar    
   10    5    6 ar    
   11    6    7 ar    
   12    7    8 ar    
   13    7   31 1     
   14    8    9 ar    
   15    9   13 1     
   16    9   10 ar    
   17   10   11 1     
   18   11   12 2     
   19   12   13 1     
   20   12   32 1     
   21   13   14 1     
   22   14   21 1     
   23   14   15 1     
   24   14   33 1     
   25   15   16 1     
   26   15   34 1     
   27   15   35 1     
   28   16   17 1     
   29   16   19 1     
   30   16   21 1     
   31   17   18 1     
   32   17   36 1     
   33   17   37 1     
   34   18   38 1     
   35   19   20 1     
   36   19   39 1     
   37   19   40 1     
   38   20   41 1     
   39   21   42 1     
   40   21   43 1     
   41   22   23 1     
   42   22   44 1     
   43   22   45 1     
   44   23   24 1     
   45   24   25 1     
   46   24   46 1     
   47   24   47 1     
   48   25   26 1     
   49   25   27 1     
   50   25   28 1     
   51    1   48 1     
   52    1   49 1     
   53    6   50 1     
   54    8   51 1     
   55   11   52 1     
   56   18   53 1     
   57   18   54 1     
   58   20   55 1     
   59   20   56 1     
@<TRIPOS>SUBSTRUCTURE
      1 S1             1
@<TRIPOS>SET
LONE_PAIRS      STATIC     ATOMS    <user>   **** ""
9 48 49 50 51 52 53 54 55 56
DONOR_HYDROGENS      STATIC     ATOMS    <user>   **** ""
2 38 41
ATOM$BLUE        STATIC     ATOMS    COLORGROUP SYSTEM
9 48 49 50 51 52 53 54 55 56
ATOM$RED        STATIC     ATOMS    COLORGROUP SYSTEM
2 38 41
