AV-unprocessed.smi:2807|AV-procd|sdf|10820|dock3
  -GOLD-   2272015253D 1   1.00000     0.00000
 Structure written by MMmdl.
 31 32  0  0  0  0  0  0  0  0  2 V2000
  151.0309  139.9800  154.9760 O   0  0  0  0  0  0  0  0  0  0  0  0
  150.4778  140.1717  156.0655 C   0  0  0  0  0  0  0  0  0  0  0  0
  149.2035  140.5756  156.3372 N   0  5  0  0  0  0  0  0  0  0  0  0
  148.5254  141.6678  155.6405 C   0  0  2  0  0  0  0  0  0  0  0  0
  147.1305  141.9356  156.2211 C   0  0  0  0  0  0  0  0  0  0  0  0
  146.3142  142.5510  155.0719 C   0  0  0  0  0  0  0  0  0  0  0  0
  147.0917  142.2597  153.7775 C   0  0  0  0  0  0  0  0  0  0  0  0
  148.2194  141.3022  154.1842 C   0  0  1  0  0  0  0  0  0  0  0  0
  149.3550  141.4384  153.3561 O   0  0  0  0  0  0  0  0  0  0  0  0
  151.3061  139.9686  157.3519 C   0  0  0  0  0  0  0  0  0  0  0  0
  150.6554  139.1582  158.1940 F   0  0  0  0  0  0  0  0  0  0  0  0
  152.4559  139.3694  157.0320 F   0  0  0  0  0  0  0  0  0  0  0  0
  151.6138  141.3142  158.0073 C   0  0  0  0  0  0  0  0  0  0  0  0
  152.3958  141.3790  159.1834 C   0  0  0  0  0  0  0  0  0  0  0  0
  152.6747  142.6409  159.7419 C   0  0  0  0  0  0  0  0  0  0  0  0
  152.1645  143.7905  159.1098 C   0  0  0  0  0  0  0  0  0  0  0  0
  151.3950  143.6250  157.9413 C   0  0  0  0  0  0  0  0  0  0  0  0
  151.1210  142.4200  157.3988 N   0  0  0  0  0  0  0  0  0  0  0  0
  149.0955  142.5990  155.6576 H   0  0  0  0  0  0  0  0  0  0  0  0
  146.6610  140.9994  156.5286 H   0  0  0  0  0  0  0  0  0  0  0  0
  147.1667  142.5838  157.0972 H   0  0  0  0  0  0  0  0  0  0  0  0
  145.3138  142.1180  155.0385 H   0  0  0  0  0  0  0  0  0  0  0  0
  146.1948  143.6271  155.2075 H   0  0  0  0  0  0  0  0  0  0  0  0
  146.4566  141.8295  153.0024 H   0  0  0  0  0  0  0  0  0  0  0  0
  147.4952  143.1934  153.3788 H   0  0  0  0  0  0  0  0  0  0  0  0
  147.8556  140.2746  154.1238 H   0  0  0  0  0  0  0  0  0  0  0  0
  149.3084  140.7646  152.6944 H   0  0  0  0  0  0  0  0  0  0  0  0
  152.7823  140.4801  159.6407 H   0  0  0  0  0  0  0  0  0  0  0  0
  153.2721  142.7252  160.6375 H   0  0  0  0  0  0  0  0  0  0  0  0
  152.3597  144.7748  159.5087 H   0  0  0  0  0  0  0  0  0  0  0  0
  150.9883  144.4843  157.4289 H   0  0  0  0  0  0  0  0  0  0  0  0
  1  2  2  0  0  0  0
  2  3  1  0  0  0  0
  2 10  1  0  0  0  0
  3  4  1  0  0  0  0
  4  8  1  0  0  0  0
  4  5  1  0  0  0  0
  4 19  1  0  0  0  0
  5  6  1  0  0  0  0
  5 20  1  0  0  0  0
  5 21  1  0  0  0  0
  6  7  1  0  0  0  0
  6 22  1  0  0  0  0
  6 23  1  0  0  0  0
  7  8  1  0  0  0  0
  7 24  1  0  0  0  0
  7 25  1  0  0  0  0
  8  9  1  0  0  0  0
  8 26  1  0  0  0  0
  9 27  1  0  0  0  0
 10 11  1  0  0  0  0
 10 12  1  0  0  0  0
 10 13  1  0  0  0  0
 13 18  1  0  0  0  0
 13 14  2  0  0  0  0
 14 15  1  0  0  0  0
 14 28  1  0  0  0  0
 15 16  2  0  0  0  0
 15 29  1  0  0  0  0
 16 17  1  0  0  0  0
 16 30  1  0  0  0  0
 17 18  2  0  0  0  0
 17 31  1  0  0  0  0
M  CHG  1   3  -1
M  END
> <s_m_source_file>
AV-unprocessed.smi

> <i_m_source_file_index>
2807

> <i_lp_mmshare_version>
43012

> <i_f3d_flags>
0

> <s_epik_input>
bjFbY0hdW2NIXVtjSF1bY0hdYzFDKEYpKEYpQyg9TylbTkhdW0NAQEhdMltDSDJdW0NIMl1bQ0gyXVtDQEhdMltPSF0=

> <s_epik_cmdline>
J2VwaWtfcHl0aG9uJywgJy1waCcsICc3LjAnLCAnLXRuJywgJzgnLCAnLW1hJywgJzIwMCcsICctbWV0YWxfYmluZGluZycsICctaW1hZScsICc8aW5maWxlLm1hZT4nLCAnLW9tYWUnLCAnPG91dGZpbGUubWFlPic=

> <r_lp_tautomer_probability>
1

> <r_epik_Ionization_Penalty>
5.72231

> <r_epik_Ionization_Penalty_Charging>
5.72231

> <r_epik_Ionization_Penalty_Neutral>
5.49816e-06

> <r_epik_State_Penalty>
5.72227

> <r_epik_Charging_Adjusted_Penalty>
11.4446

> <i_epik_Tot_Q>
-1

> <i_epik_Tot_abs_Q>
1

> <r_epik_Metal_State_Penalty>
1.70075

> <b_epik_Metal_Only>
1

> <s_lp_Force_Field>
OPLS_2005

> <r_lp_Energy>
34.3832

> <b_lp_Chiralities_Consistent>
1

> <s_lp_Variant>
AV-unprocessed.smi:2807-5

> <Gold.Version>
5.8.1

> <Gold.Id.Protein>
6NUR|6NUR_protein|mol2

> <Gold.PLP.Fitness>
46.2672

> <Gold.PLP.PLP>
-35.9769

> <Gold.PLP.part.hbond>
-3.8661

> <Gold.PLP.part.metal>
0.0000

> <Gold.PLP.part.buried>
-3.4008

> <Gold.PLP.part.nonpolar>
-29.4365

> <Gold.PLP.part.repulsive>
0.1835

> <Gold.PLP.ligand.clash>
0.0000

> <Gold.PLP.ligand.torsion>
0.7076

> <Gold.PLP.Chemscore.Hbond>
2.8800

> <Gold.PLP.Chemscore.CHOScore>
1.0000

> <Gold.PLP.Chemscore.Metal>
0.0000

> <Gold.Chemscore.Hbonds>
donor molecule, donor type, donor heavy atom, donor atom, acceptor molecule, acceptor atom, score
      L1  H     9    27       P1  7957  1.00
      P1  H  7989  7998       L1     1  1.00
      P1  H  8011  8017       L1     9  0.42
      L1  C    17    31       P1  8028  0.52

> <Gold.PLP.Chemscore.Internal.Correction>
0.0656

> <Gold.Rescore>
     Score         DG    S(hbond)    S(metal)    S(lipo)     H(rot)  DE(clash)    DE(int)     intcor
     16.03     -18.43       2.43        0.00      85.14       2.00       0.40       2.00       ----

> <Gold.Chemscore.Fitness>
16.0255

> <Gold.Chemscore.DG>
-18.4305

> <Gold.Chemscore.ZeroCoef>
-5.4800

> <Gold.Chemscore.Hbond>
2.4251

> <Gold.Chemscore.Metal>
0.0000

> <Gold.Chemscore.Lipo>
85.1406

> <Gold.Chemscore.Internal_Hbond>
0.0000

> <Gold.Chemscore.DEClash>
0.4002

> <Gold.Chemscore.DEInternal>
2.0049

> <Gold.Chemscore.Rot>
1.9964

> <Gold.Chemscore.Internal.Correction>
   9.000000E+99

> <Gold.Chemscore.Hbonds>
donor molecule, donor type, donor heavy atom, donor atom, acceptor molecule, acceptor atom, score
      L1  H     9    27       P1  7957  0.98
      P1  H  7989  7998       L1     1  1.00
      P1  H  8011  8017       L1     9  0.02

> <Gold.Chemscore.Hbond.Weighted>
-8.0999

> <Gold.Chemscore.Metal.Weighted>
-0.0000

> <Gold.Chemscore.Lipo.Weighted>
-9.9614

> <Gold.Chemscore.Internal_Hbond.Weighted>
0.0000

> <Gold.Chemscore.DEClash.Weighted>
0.4002

> <Gold.Chemscore.DEInternal.Weighted>
2.0049

> <Gold.Chemscore.Rot.Weighted>
5.1108

> <Gold.Chemscore.Internal.Correction.Weighted>
   9.000000E+99

> <Gold.Protein.RotatedTorsions>
[ 6907 6896 6895 6894 ] final -104.88 input  -60.11 | X-H torsion
[ 7974 7965 7964 7962 ] final -145.25 input  175.53 | X-H torsion
[ 8008 7997 7996 7995 ] final -172.58 input   59.86 | X-H torsion
[ 10167 10162 10161 10158 ] final -158.99 input  -65.29 | X-H torsion
[ 10718 10713 10712 10709 ] final  114.10 input   66.30 | X-H torsion
[ 10763 10752 10751 10750 ] final   82.31 input  -60.55 | X-H torsion
[ 11005 11000 10999 10996 ] final  167.98 input  -57.11 | X-H torsion

> <Gold.Protein.ActiveResidues>
 VAL166  LYS551  ARG553  GLY616  TRP617  ASP618  TYR619  PRO620  LYS621  CYS622 
 ASP623  PHE694  ASN695  SER759  ASP760  ASP761  ALA762  ILE779  LEU786  VAL792 
 PHE793  MET794  SER795  GLU796  ALA797  LYS798  CYS799  TRP800  GLU811  SER814 

> <Gold.Protein.RotatedAtoms>
  150.7309  134.0211  159.3701 H   0  0  0  0  0  0  0  0  0  0  0  0  # atno 6907 bound_to 6896
  151.8175  135.0660  160.0430 H   0  0  0  0  0  0  0  0  0  0  0  0  # atno 6908 bound_to 6896
  152.3028  133.5636  159.5666 H   0  0  0  0  0  0  0  0  0  0  0  0  # atno 6909 bound_to 6896
  144.8240  140.5607  143.5559 H   0  0  0  0  0  0  0  0  0  0  0  0  # atno 7974 bound_to 7965
  155.9465  140.1118  157.1013 H   0  0  0  0  0  0  0  0  0  0  0  0  # atno 8008 bound_to 7997
  154.4100  140.1209  156.5061 H   0  0  0  0  0  0  0  0  0  0  0  0  # atno 8009 bound_to 7997
  155.6897  140.3472  155.4890 H   0  0  0  0  0  0  0  0  0  0  0  0  # atno 8010 bound_to 7997
  139.6650  143.9846  152.2249 H   0  0  0  0  0  0  0  0  0  0  0  0  # atno 10167 bound_to 10162
  157.6301  131.0993  150.7137 H   0  0  0  0  0  0  0  0  0  0  0  0  # atno 10718 bound_to 10713
  153.1191  135.4733  154.9166 H   0  0  0  0  0  0  0  0  0  0  0  0  # atno 10763 bound_to 10752
  154.7558  135.3118  154.8475 H   0  0  0  0  0  0  0  0  0  0  0  0  # atno 10764 bound_to 10752
  153.9044  135.6871  153.4807 H   0  0  0  0  0  0  0  0  0  0  0  0  # atno 10765 bound_to 10752
  140.2825  134.7739  157.3770 H   0  0  0  0  0  0  0  0  0  0  0  0  # atno 11005 bound_to 11000
  145.5041  139.1482  143.3641 LP  0  0  0  0  0  0  0  0  0  0  0  0  # atno 17320 bound_to 7965
  146.2546  140.5181  142.8879 LP  0  0  0  0  0  0  0  0  0  0  0  0  # atno 17321 bound_to 7965
  139.9595  144.6567  150.8093 LP  0  0  0  0  0  0  0  0  0  0  0  0  # atno 17342 bound_to 10162
  140.7595  143.3131  151.2797 LP  0  0  0  0  0  0  0  0  0  0  0  0  # atno 17343 bound_to 10162
  156.7478  130.4759  149.5463 LP  0  0  0  0  0  0  0  0  0  0  0  0  # atno 17370 bound_to 10713
  156.1498  130.6302  151.0580 LP  0  0  0  0  0  0  0  0  0  0  0  0  # atno 17371 bound_to 10713
  140.1270  134.5144  155.8136 LP  0  0  0  0  0  0  0  0  0  0  0  0  # atno 17394 bound_to 11000
  141.2160  133.6776  156.6970 LP  0  0  0  0  0  0  0  0  0  0  0  0  # atno 17395 bound_to 11000

$$$$
