AV-unprocessed.smi:1697|AV-procd|sdf|6811|dock6
  -GOLD-   22720 7583D 1   1.00000     0.00000
 Structure written by MMmdl.
 53 55  0  0  0  0  0  0  0  0  1 V2000
  152.7292  131.0943  164.3407 C   0  0  0  0  0  0  0  0  0  0  0  0
  154.0579  131.3326  165.0617 C   0  0  0  0  0  0  0  0  0  0  0  0
  154.9659  131.9426  164.1563 O   0  0  0  0  0  0  0  0  0  0  0  0
  154.4916  133.1477  163.5683 C   0  0  0  0  0  0  0  0  0  0  0  0
  155.3461  133.5633  162.3552 C   0  0  0  0  0  0  0  0  0  0  0  0
  154.9297  134.9571  161.8556 C   0  0  0  0  0  0  0  0  0  0  0  0
  155.0256  135.9846  162.8932 N   0  0  0  0  0  0  0  0  0  0  0  0
  154.6863  137.3002  162.3464 C   0  0  0  0  0  0  0  0  0  0  0  0
  155.6709  138.4371  162.6843 C   0  0  2  0  0  0  0  0  0  0  0  0
  156.1873  138.1958  163.9776 O   0  0  0  0  0  0  0  0  0  0  0  0
  155.0083  139.8287  162.6567 C   0  0  0  0  0  0  0  0  0  0  0  0
  154.4760  140.1550  161.3466 N   0  0  0  0  0  0  0  0  0  0  0  0
  154.6157  139.4511  160.2068 C   0  0  0  0  0  0  0  0  0  0  0  0
  154.0321  139.9394  159.1158 N   0  0  0  0  0  0  0  0  0  0  0  0
  153.4506  141.0974  159.6042 C   0  0  0  0  0  0  0  0  0  0  0  0
  152.6773  142.0826  158.9518 C   0  0  0  0  0  0  0  0  0  0  0  0
  152.1794  143.1997  159.6603 C   0  0  0  0  0  0  0  0  0  0  0  0
  151.3532  144.2356  158.9188 C   0  0  0  0  0  0  0  0  0  0  0  0
  152.4543  143.3441  161.0442 C   0  0  0  0  0  0  0  0  0  0  0  0
  151.9343  144.5379  161.8254 C   0  0  0  0  0  0  0  0  0  0  0  0
  153.2221  142.3675  161.7119 C   0  0  0  0  0  0  0  0  0  0  0  0
  153.7117  141.2613  160.9958 C   0  0  0  0  0  0  0  0  0  0  0  0
  154.1800  135.6157  164.0330 C   0  0  0  0  0  0  0  0  0  0  0  0
  154.5606  134.2524  164.6340 C   0  0  0  0  0  0  0  0  0  0  0  0
  152.0064  130.6198  165.0045 H   0  0  0  0  0  0  0  0  0  0  0  0
  152.8643  130.4458  163.4748 H   0  0  0  0  0  0  0  0  0  0  0  0
  152.2984  132.0337  163.9931 H   0  0  0  0  0  0  0  0  0  0  0  0
  153.8924  131.9671  165.9320 H   0  0  0  0  0  0  0  0  0  0  0  0
  154.4595  130.3824  165.4162 H   0  0  0  0  0  0  0  0  0  0  0  0
  153.4496  133.0291  163.2647 H   0  0  0  0  0  0  0  0  0  0  0  0
  156.4010  133.5747  162.6327 H   0  0  0  0  0  0  0  0  0  0  0  0
  155.2438  132.8437  161.5436 H   0  0  0  0  0  0  0  0  0  0  0  0
  155.5640  135.2288  161.0111 H   0  0  0  0  0  0  0  0  0  0  0  0
  153.9093  134.9142  161.4716 H   0  0  0  0  0  0  0  0  0  0  0  0
  154.6239  137.2272  161.2595 H   0  0  0  0  0  0  0  0  0  0  0  0
  153.6862  137.5793  162.6823 H   0  0  0  0  0  0  0  0  0  0  0  0
  156.5204  138.4181  162.0024 H   0  0  0  0  0  0  0  0  0  0  0  0
  157.1035  137.9783  163.8970 H   0  0  0  0  0  0  0  0  0  0  0  0
  154.1853  139.8719  163.3712 H   0  0  0  0  0  0  0  0  0  0  0  0
  155.7188  140.6017  162.9536 H   0  0  0  0  0  0  0  0  0  0  0  0
  155.1727  138.5257  160.1776 H   0  0  0  0  0  0  0  0  0  0  0  0
  152.4692  141.9727  157.8977 H   0  0  0  0  0  0  0  0  0  0  0  0
  151.8640  145.1986  158.9171 H   0  0  0  0  0  0  0  0  0  0  0  0
  150.3790  144.3603  159.3918 H   0  0  0  0  0  0  0  0  0  0  0  0
  151.1855  143.9438  157.8817 H   0  0  0  0  0  0  0  0  0  0  0  0
  152.2884  144.5227  162.8566 H   0  0  0  0  0  0  0  0  0  0  0  0
  150.8444  144.5352  161.8446 H   0  0  0  0  0  0  0  0  0  0  0  0
  152.2715  145.4698  161.3710 H   0  0  0  0  0  0  0  0  0  0  0  0
  153.4375  142.4624  162.7661 H   0  0  0  0  0  0  0  0  0  0  0  0
  154.2637  136.3608  164.8226 H   0  0  0  0  0  0  0  0  0  0  0  0
  153.1323  135.6017  163.7290 H   0  0  0  0  0  0  0  0  0  0  0  0
  153.8976  134.0126  165.4657 H   0  0  0  0  0  0  0  0  0  0  0  0
  155.5691  134.3071  165.0463 H   0  0  0  0  0  0  0  0  0  0  0  0
  1  2  1  0  0  0  0
  1 25  1  0  0  0  0
  1 26  1  0  0  0  0
  1 27  1  0  0  0  0
  2  3  1  0  0  0  0
  2 28  1  0  0  0  0
  2 29  1  0  0  0  0
  3  4  1  0  0  0  0
  4 24  1  0  0  0  0
  4  5  1  0  0  0  0
  4 30  1  0  0  0  0
  5  6  1  0  0  0  0
  5 31  1  0  0  0  0
  5 32  1  0  0  0  0
  6  7  1  0  0  0  0
  6 33  1  0  0  0  0
  6 34  1  0  0  0  0
  7  8  1  0  0  0  0
  7 23  1  0  0  0  0
  8  9  1  0  0  0  0
  8 35  1  0  0  0  0
  8 36  1  0  0  0  0
  9 10  1  0  0  0  0
  9 11  1  0  0  0  0
  9 37  1  0  0  0  0
 10 38  1  0  0  0  0
 11 12  1  0  0  0  0
 11 39  1  0  0  0  0
 11 40  1  0  0  0  0
 12 22  1  0  0  0  0
 12 13  1  0  0  0  0
 13 14  2  0  0  0  0
 13 41  1  0  0  0  0
 14 15  1  0  0  0  0
 15 22  2  0  0  0  0
 15 16  1  0  0  0  0
 16 17  2  0  0  0  0
 16 42  1  0  0  0  0
 17 18  1  0  0  0  0
 17 19  1  0  0  0  0
 18 43  1  0  0  0  0
 18 44  1  0  0  0  0
 18 45  1  0  0  0  0
 19 20  1  0  0  0  0
 19 21  2  0  0  0  0
 20 46  1  0  0  0  0
 20 47  1  0  0  0  0
 20 48  1  0  0  0  0
 21 22  1  0  0  0  0
 21 49  1  0  0  0  0
 23 24  1  0  0  0  0
 23 50  1  0  0  0  0
 23 51  1  0  0  0  0
 24 52  1  0  0  0  0
 24 53  1  0  0  0  0
M  END
> <s_m_source_file>
AV-unprocessed.smi

> <i_m_source_file_index>
1697

> <i_lp_mmshare_version>
43012

> <i_f3d_flags>
0

> <s_epik_input>
W0NIM11bQ0gyXU9bQ0hdMVtDSDJdW0NIMl1OKFtDSDJdW0NIMl0xKVtDSDJdW0NASF0oW09IXSlbQ0gyXW4oW2NIXW4yKWMoYzIzKVtjSF1jKFtDSDNdKWMoW2NIXTMpW0NIM10=

> <s_epik_cmdline>
J2VwaWtfcHl0aG9uJywgJy1waCcsICc3LjAnLCAnLXRuJywgJzgnLCAnLW1hJywgJzIwMCcsICctbWV0YWxfYmluZGluZycsICctaW1hZScsICc8aW5maWxlLm1hZT4nLCAnLW9tYWUnLCAnPG91dGZpbGUubWFlPic=

> <r_epik_Ionization_Penalty>
1.9836

> <r_epik_Ionization_Penalty_Charging>
0

> <r_epik_Ionization_Penalty_Neutral>
1.9836

> <r_epik_State_Penalty>
2.07269

> <r_epik_Charging_Adjusted_Penalty>
2.07269

> <i_epik_Tot_Q>
0

> <i_epik_Tot_abs_Q>
0

> <r_epik_Metal_State_Penalty>
2.00215

> <b_epik_Metal_Only>
0

> <s_lp_Force_Field>
OPLS_2005

> <r_lp_Energy>
30.2153

> <b_lp_Chiralities_Consistent>
1

> <s_lp_Variant>
AV-unprocessed.smi:1697-9

> <Gold.Version>
5.8.1

> <Gold.Id.Protein>
6NUR|6NUR_protein|mol2

> <Gold.PLP.Fitness>
51.8760

> <Gold.PLP.PLP>
-50.9854

> <Gold.PLP.part.hbond>
-1.0000

> <Gold.PLP.part.metal>
0.0000

> <Gold.PLP.part.buried>
-2.8280

> <Gold.PLP.part.nonpolar>
-47.6153

> <Gold.PLP.part.repulsive>
0.0067

> <Gold.PLP.ligand.clash>
0.0000

> <Gold.PLP.ligand.torsion>
1.1092

> <Gold.PLP.Chemscore.Hbond>
1.0000

> <Gold.PLP.Chemscore.CHOScore>
0.0000

> <Gold.PLP.Chemscore.Metal>
0.0000

> <Gold.Chemscore.Hbonds>
donor molecule, donor type, donor heavy atom, donor atom, acceptor molecule, acceptor atom, score
      P1  H  7997  8009       L1    14  0.96

> <Gold.PLP.Chemscore.Internal.Correction>
0.1090

> <Gold.Rescore>
     Score         DG    S(hbond)    S(metal)    S(lipo)     H(rot)  DE(clash)    DE(int)     intcor
     19.82     -21.36       0.91        0.00     157.82       2.19       0.51       1.03       ----

> <Gold.Chemscore.Fitness>
19.8236

> <Gold.Chemscore.DG>
-21.3629

> <Gold.Chemscore.ZeroCoef>
-5.4800

> <Gold.Chemscore.Hbond>
0.9088

> <Gold.Chemscore.Metal>
0.0000

> <Gold.Chemscore.Lipo>
157.8205

> <Gold.Chemscore.Internal_Hbond>
0.0000

> <Gold.Chemscore.DEClash>
0.5133

> <Gold.Chemscore.DEInternal>
1.0260

> <Gold.Chemscore.Rot>
2.1943

> <Gold.Chemscore.Internal.Correction>
   9.000000E+99

> <Gold.Chemscore.Hbonds>
donor molecule, donor type, donor heavy atom, donor atom, acceptor molecule, acceptor atom, score
      P1  H  7997  8009       L1    14  0.85

> <Gold.Chemscore.Hbond.Weighted>
-3.0352

> <Gold.Chemscore.Metal.Weighted>
-0.0000

> <Gold.Chemscore.Lipo.Weighted>
-18.4650

> <Gold.Chemscore.Internal_Hbond.Weighted>
0.0000

> <Gold.Chemscore.DEClash.Weighted>
0.5133

> <Gold.Chemscore.DEInternal.Weighted>
1.0260

> <Gold.Chemscore.Rot.Weighted>
5.6174

> <Gold.Chemscore.Internal.Correction.Weighted>
   9.000000E+99

> <Gold.Protein.RotatedTorsions>
[ 6907 6896 6895 6894 ] final  -13.15 input  -60.11 | X-H torsion
[ 7974 7965 7964 7962 ] final  114.65 input  175.53 | X-H torsion
[ 8008 7997 7996 7995 ] final  128.97 input   59.86 | X-H torsion
[ 10167 10162 10161 10158 ] final  102.03 input  -65.29 | X-H torsion
[ 10718 10713 10712 10709 ] final   73.02 input   66.30 | X-H torsion
[ 10763 10752 10751 10750 ] final  106.23 input  -60.55 | X-H torsion
[ 11005 11000 10999 10996 ] final   -9.17 input  -57.11 | X-H torsion

> <Gold.Protein.ActiveResidues>
 VAL166  LYS551  ARG553  GLY616  TRP617  ASP618  TYR619  PRO620  LYS621  CYS622 
 ASP623  PHE694  ASN695  SER759  ASP760  ASP761  ALA762  ILE779  LEU786  VAL792 
 PHE793  MET794  SER795  GLU796  ALA797  LYS798  CYS799  TRP800  GLU811  SER814 

> <Gold.Protein.RotatedAtoms>
  151.3595  135.0901  159.9429 H   0  0  0  0  0  0  0  0  0  0  0  0  # atno 6907 bound_to 6896
  152.5166  133.9273  159.7574 H   0  0  0  0  0  0  0  0  0  0  0  0  # atno 6908 bound_to 6896
  150.9664  133.6336  159.2775 H   0  0  0  0  0  0  0  0  0  0  0  0  # atno 6909 bound_to 6896
  145.2017  139.2949  143.4315 H   0  0  0  0  0  0  0  0  0  0  0  0  # atno 7974 bound_to 7965
  156.2926  140.2632  156.2522 H   0  0  0  0  0  0  0  0  0  0  0  0  # atno 8008 bound_to 7997
  154.9871  140.0389  157.2322 H   0  0  0  0  0  0  0  0  0  0  0  0  # atno 8009 bound_to 7997
  154.7719  140.2779  155.6136 H   0  0  0  0  0  0  0  0  0  0  0  0  # atno 8010 bound_to 7997
  139.7385  144.7017  151.0611 H   0  0  0  0  0  0  0  0  0  0  0  0  # atno 10167 bound_to 10162
  157.6528  130.9607  150.1010 H   0  0  0  0  0  0  0  0  0  0  0  0  # atno 10718 bound_to 10713
  153.3902  135.3883  155.1918 H   0  0  0  0  0  0  0  0  0  0  0  0  # atno 10763 bound_to 10752
  154.8718  135.3746  154.4747 H   0  0  0  0  0  0  0  0  0  0  0  0  # atno 10764 bound_to 10752
  153.5233  135.7086  153.5782 H   0  0  0  0  0  0  0  0  0  0  0  0  # atno 10765 bound_to 10752
  140.7312  133.8747  155.8895 H   0  0  0  0  0  0  0  0  0  0  0  0  # atno 11005 bound_to 11000
  146.3416  140.2264  142.8592 LP  0  0  0  0  0  0  0  0  0  0  0  0  # atno 17320 bound_to 7965
  144.9941  140.8573  143.5321 LP  0  0  0  0  0  0  0  0  0  0  0  0  # atno 17321 bound_to 7965
  140.7782  143.4954  150.9840 LP  0  0  0  0  0  0  0  0  0  0  0  0  # atno 17342 bound_to 10162
  139.8642  143.7275  152.3171 LP  0  0  0  0  0  0  0  0  0  0  0  0  # atno 17343 bound_to 10162
  156.1932  130.3656  149.8882 LP  0  0  0  0  0  0  0  0  0  0  0  0  # atno 17370 bound_to 10713
  156.6805  130.8856  151.3575 LP  0  0  0  0  0  0  0  0  0  0  0  0  # atno 17371 bound_to 10713
  140.9919  134.1267  157.4400 LP  0  0  0  0  0  0  0  0  0  0  0  0  # atno 17394 bound_to 11000
  139.8826  135.0043  156.6239 LP  0  0  0  0  0  0  0  0  0  0  0  0  # atno 17395 bound_to 11000

$$$$
