AV-unprocessed.smi:1134|AV-procd|sdf|4857|dock9
  -GOLD-   22720 3433D 1   1.00000     0.00000
 Structure written by MMmdl.
 35 36  0  0  0  0  0  0  0  0  3 V2000
  147.9146  135.2457  154.9238 O   0  0  0  0  0  0  0  0  0  0  0  0
  147.6148  136.2953  155.4912 C   0  0  0  0  0  0  0  0  0  0  0  0
  147.2673  137.5287  154.6391 C   0  0  0  0  0  0  0  0  0  0  0  0
  148.2563  138.6210  154.6891 N   0  0  0  0  0  0  0  0  0  0  0  0
  149.6150  138.2486  154.6945 C   0  0  0  0  0  0  0  0  0  0  0  0
  150.6070  139.1595  154.7344 C   0  0  0  0  0  0  0  0  0  0  0  0
  151.9966  138.7585  154.7314 N   0  3  0  0  0  0  0  0  0  0  0  0
  152.8596  139.6271  154.8064 O   0  0  0  0  0  0  0  0  0  0  0  0
  152.2715  137.5648  154.6535 O   0  5  0  0  0  0  0  0  0  0  0  0
  150.2345  140.5603  154.7754 C   0  0  0  0  0  0  0  0  0  0  0  0
  148.9368  140.9233  154.7663 C   0  0  0  0  0  0  0  0  0  0  0  0
  147.8589  139.9301  154.7159 C   0  0  0  0  0  0  0  0  0  0  0  0
  146.6722  140.2555  154.6922 O   0  0  0  0  0  0  0  0  0  0  0  0
  147.5715  136.4094  156.8297 N   0  0  0  0  0  0  0  0  0  0  0  0
  147.8600  135.3385  157.7741 C   0  0  0  0  0  0  0  0  0  0  0  0
  148.5343  135.8812  159.0470 C   0  0  0  0  0  0  0  0  0  0  0  0
  147.9668  135.2671  160.2535 N   0  0  0  0  0  0  0  0  0  0  0  0
  147.4566  135.9934  161.2745 C   0  0  0  0  0  0  0  0  0  0  0  0
  147.4062  137.2228  161.3058 O   0  0  0  0  0  0  0  0  0  0  0  0
  146.9287  135.1566  162.4463 C   0  0  0  0  0  0  0  0  0  0  0  0
  147.2377  133.4532  161.9728 S   0  0  0  0  0  0  0  0  0  0  0  0
  147.9410  133.9386  160.4537 C   0  0  0  0  0  0  0  0  0  0  0  0
  148.3723  133.1026  159.6603 O   0  0  0  0  0  0  0  0  0  0  0  0
  147.1111  137.2017  153.6096 H   0  0  0  0  0  0  0  0  0  0  0  0
  146.2926  137.8966  154.9633 H   0  0  0  0  0  0  0  0  0  0  0  0
  149.7863  137.1823  154.6559 H   0  0  0  0  0  0  0  0  0  0  0  0
  150.9929  141.3284  154.8126 H   0  0  0  0  0  0  0  0  0  0  0  0
  148.6821  141.9726  154.7968 H   0  0  0  0  0  0  0  0  0  0  0  0
  147.3174  137.3044  157.2218 H   0  0  0  0  0  0  0  0  0  0  0  0
  146.9453  134.7970  158.0212 H   0  0  0  0  0  0  0  0  0  0  0  0
  148.5181  134.6251  157.2772 H   0  0  0  0  0  0  0  0  0  0  0  0
  149.6097  135.6988  159.0034 H   0  0  0  0  0  0  0  0  0  0  0  0
  148.4309  136.9667  159.0934 H   0  0  0  0  0  0  0  0  0  0  0  0
  147.4594  135.4016  163.3664 H   0  0  0  0  0  0  0  0  0  0  0  0
  145.8620  135.3268  162.5926 H   0  0  0  0  0  0  0  0  0  0  0  0
  1  2  2  0  0  0  0
  2  3  1  0  0  0  0
  2 14  1  0  0  0  0
  3  4  1  0  0  0  0
  3 24  1  0  0  0  0
  3 25  1  0  0  0  0
  4 12  1  0  0  0  0
  4  5  1  0  0  0  0
  5  6  2  0  0  0  0
  5 26  1  0  0  0  0
  6  7  1  0  0  0  0
  6 10  1  0  0  0  0
  7  8  2  0  0  0  0
  7  9  1  0  0  0  0
 10 11  2  0  0  0  0
 10 27  1  0  0  0  0
 11 12  1  0  0  0  0
 11 28  1  0  0  0  0
 12 13  2  0  0  0  0
 14 15  1  0  0  0  0
 14 29  1  0  0  0  0
 15 16  1  0  0  0  0
 15 30  1  0  0  0  0
 15 31  1  0  0  0  0
 16 17  1  0  0  0  0
 16 32  1  0  0  0  0
 16 33  1  0  0  0  0
 17 22  1  0  0  0  0
 17 18  1  0  0  0  0
 18 19  2  0  0  0  0
 18 20  1  0  0  0  0
 20 21  1  0  0  0  0
 20 34  1  0  0  0  0
 20 35  1  0  0  0  0
 21 22  1  0  0  0  0
 22 23  2  0  0  0  0
M  CHG  1   7   1
M  CHG  1   9  -1
M  END
> <s_m_source_file>
AV-unprocessed.smi

> <i_m_source_file_index>
1134

> <i_lp_mmshare_version>
43012

> <i_f3d_flags>
0

> <s_epik_input>
Tz1jMVtjSF1bY0hdYyhbTitdKD1PKVtPLV0pW2NIXW4xW0NIMl1DKD1PKVtOSF1bQ0gyXVtDSDJdTjJDKD1PKVtDSDJdU0MyPU8=

> <s_epik_cmdline>
J2VwaWtfcHl0aG9uJywgJy1waCcsICc3LjAnLCAnLXRuJywgJzgnLCAnLW1hJywgJzIwMCcsICctbWV0YWxfYmluZGluZycsICctaW1hZScsICc8aW5maWxlLm1hZT4nLCAnLW9tYWUnLCAnPG91dGZpbGUubWFlPic=

> <r_lp_tautomer_probability>
1

> <r_epik_Ionization_Penalty>
5.49556e-08

> <r_epik_Ionization_Penalty_Charging>
6.94392e-11

> <r_epik_Ionization_Penalty_Neutral>
5.48861e-08

> <r_epik_State_Penalty>
-0

> <r_epik_Charging_Adjusted_Penalty>
6.94392e-11

> <i_epik_Tot_Q>
0

> <i_epik_Tot_abs_Q>
2

> <r_epik_Metal_State_Penalty>
-0

> <b_epik_Metal_Only>
0

> <s_lp_Force_Field>
OPLS_2005

> <r_lp_Energy>
19.8089

> <b_lp_Chiralities_Consistent>
1

> <s_lp_Variant>
AV-unprocessed.smi:1134-1

> <Gold.Version>
5.8.1

> <Gold.Id.Protein>
6NUR|6NUR_protein|mol2

> <Gold.PLP.Fitness>
44.0383

> <Gold.PLP.PLP>
-34.5122

> <Gold.PLP.part.hbond>
-5.1076

> <Gold.PLP.part.metal>
0.0000

> <Gold.PLP.part.buried>
-3.3611

> <Gold.PLP.part.nonpolar>
-26.7839

> <Gold.PLP.part.repulsive>
0.3066

> <Gold.PLP.ligand.clash>
0.0000

> <Gold.PLP.ligand.torsion>
0.8872

> <Gold.PLP.Chemscore.Hbond>
3.7617

> <Gold.PLP.Chemscore.CHOScore>
0.0000

> <Gold.PLP.Chemscore.Metal>
0.0000

> <Gold.Chemscore.Hbonds>
donor molecule, donor type, donor heavy atom, donor atom, acceptor molecule, acceptor atom, score
      P1  H  6931  6943       L1    19  0.88
      P1  H  6934  6947       L1    19  0.96
      P1  H  7989  7998       L1     8  0.15
      P1  H  7997  8009       L1     8  1.00
      P1  H 10752 10765       L1     9  0.71

> <Gold.PLP.Chemscore.Internal.Correction>
0.0156

> <Gold.Rescore>
     Score         DG    S(hbond)    S(metal)    S(lipo)     H(rot)  DE(clash)    DE(int)     intcor
     13.88     -15.79       3.48        0.00      48.52       2.74       0.04       1.87       ----

> <Gold.Chemscore.Fitness>
13.8805

> <Gold.Chemscore.DG>
-15.7864

> <Gold.Chemscore.ZeroCoef>
-5.4800

> <Gold.Chemscore.Hbond>
3.4845

> <Gold.Chemscore.Metal>
0.0000

> <Gold.Chemscore.Lipo>
48.5200

> <Gold.Chemscore.Internal_Hbond>
0.0000

> <Gold.Chemscore.DEClash>
0.0402

> <Gold.Chemscore.DEInternal>
1.8657

> <Gold.Chemscore.Rot>
2.7377

> <Gold.Chemscore.Internal.Correction>
   9.000000E+99

> <Gold.Chemscore.Hbonds>
donor molecule, donor type, donor heavy atom, donor atom, acceptor molecule, acceptor atom, score
      P1  H  6931  6943       L1    19  0.80
      P1  H  6934  6947       L1    19  0.92
      P1  H  7989  7998       L1     8  0.01
      P1  H  7997  8009       L1     8  0.96
      P1  H 10752 10765       L1     9  0.66

> <Gold.Chemscore.Hbond.Weighted>
-11.6381

> <Gold.Chemscore.Metal.Weighted>
-0.0000

> <Gold.Chemscore.Lipo.Weighted>
-5.6768

> <Gold.Chemscore.Internal_Hbond.Weighted>
0.0000

> <Gold.Chemscore.DEClash.Weighted>
0.0402

> <Gold.Chemscore.DEInternal.Weighted>
1.8657

> <Gold.Chemscore.Rot.Weighted>
7.0085

> <Gold.Chemscore.Internal.Correction.Weighted>
   9.000000E+99

> <Gold.Protein.RotatedTorsions>
[ 6907 6896 6895 6894 ] final  123.75 input  -60.11 | X-H torsion
[ 7974 7965 7964 7962 ] final   43.68 input  175.53 | X-H torsion
[ 8008 7997 7996 7995 ] final -135.11 input   59.86 | X-H torsion
[ 10167 10162 10161 10158 ] final -154.30 input  -65.29 | X-H torsion
[ 10718 10713 10712 10709 ] final  151.76 input   66.30 | X-H torsion
[ 10763 10752 10751 10750 ] final  167.94 input  -60.55 | X-H torsion
[ 11005 11000 10999 10996 ] final  -92.39 input  -57.11 | X-H torsion

> <Gold.Protein.ActiveResidues>
 VAL166  LYS551  ARG553  GLY616  TRP617  ASP618  TYR619  PRO620  LYS621  CYS622 
 ASP623  PHE694  ASN695  SER759  ASP760  ASP761  ALA762  ILE779  LEU786  VAL792 
 PHE793  MET794  SER795  GLU796  ALA797  LYS798  CYS799  TRP800  GLU811  SER814 

> <Gold.Protein.RotatedAtoms>
  152.4136  133.7002  159.6419 H   0  0  0  0  0  0  0  0  0  0  0  0  # atno 6907 bound_to 6896
  150.8014  133.8580  159.3232 H   0  0  0  0  0  0  0  0  0  0  0  0  # atno 6908 bound_to 6896
  151.6316  135.1024  160.0174 H   0  0  0  0  0  0  0  0  0  0  0  0  # atno 6909 bound_to 6896
  146.0634  139.5159  142.9644 H   0  0  0  0  0  0  0  0  0  0  0  0  # atno 7974 bound_to 7965
  155.3733  140.0489  157.3045 H   0  0  0  0  0  0  0  0  0  0  0  0  # atno 8008 bound_to 7997
  154.5119  140.2194  155.9102 H   0  0  0  0  0  0  0  0  0  0  0  0  # atno 8009 bound_to 7997
  156.1592  140.3120  155.8784 H   0  0  0  0  0  0  0  0  0  0  0  0  # atno 8010 bound_to 7997
  139.7025  143.9240  152.2435 H   0  0  0  0  0  0  0  0  0  0  0  0  # atno 10167 bound_to 10162
  157.2666  131.0808  151.1629 H   0  0  0  0  0  0  0  0  0  0  0  0  # atno 10718 bound_to 10713
  154.3612  135.2753  155.2319 H   0  0  0  0  0  0  0  0  0  0  0  0  # atno 10763 bound_to 10752
  154.4506  135.5932  153.6192 H   0  0  0  0  0  0  0  0  0  0  0  0  # atno 10764 bound_to 10752
  152.9843  135.6041  154.3833 H   0  0  0  0  0  0  0  0  0  0  0  0  # atno 10765 bound_to 10752
  141.1523  133.7817  157.0012 H   0  0  0  0  0  0  0  0  0  0  0  0  # atno 11005 bound_to 11000
  145.6520  141.0261  143.1755 LP  0  0  0  0  0  0  0  0  0  0  0  0  # atno 17320 bound_to 7965
  144.7188  139.8102  143.7389 LP  0  0  0  0  0  0  0  0  0  0  0  0  # atno 17321 bound_to 7965
  139.9086  144.6870  150.8587 LP  0  0  0  0  0  0  0  0  0  0  0  0  # atno 17342 bound_to 10162
  140.7713  143.3460  151.2110 LP  0  0  0  0  0  0  0  0  0  0  0  0  # atno 17343 bound_to 10162
  157.3118  130.6893  149.6220 LP  0  0  0  0  0  0  0  0  0  0  0  0  # atno 17370 bound_to 10713
  155.9663  130.4361  150.5121 LP  0  0  0  0  0  0  0  0  0  0  0  0  # atno 17371 bound_to 10713
  140.0938  134.9576  157.1818 LP  0  0  0  0  0  0  0  0  0  0  0  0  # atno 17394 bound_to 11000
  140.3409  134.2704  155.7212 LP  0  0  0  0  0  0  0  0  0  0  0  0  # atno 17395 bound_to 11000

$$$$
