#       Name:                AV-unprocessed.smi:167
#       Creating user name   scv26
#       Creation time:       Thu Mar 26 19:13:48 2020


#       File generated by GOLD software.
#

@<TRIPOS>MOLECULE
AV-unprocessed.smi:167
    61    65     1
SMALL
NO_CHARGES


@<TRIPOS>ATOM
      1 ****        -2.5382   1.3698   3.6046 O.3            1 S1                 0.0000
      2 ****        -2.4229   0.6974   2.3689 C.3            1 S1                 0.0000
      3 ****        -3.7471   0.7939   1.5869 C.3            1 S1                 0.0000
      4 ****        -4.0537   2.2007   1.0331 C.3            1 S1                 0.0000
      5 ****        -4.2765   1.9037  -0.4645 C.3            1 S1                 0.0000
      6 ****        -5.6134   1.1620  -0.6387 C.3            1 S1                 0.0000
      7 ****        -5.2463  -0.2428  -0.1320 C.3            1 S1                 0.0000
      8 ****        -3.7771  -0.0419   0.2821 C.3            1 S1                 0.0000
      9 ****        -3.3060   0.8608  -0.7589 N.3            1 S1                 0.0000
     10 ****        -1.9829   1.1456  -0.9001 C.ar           1 S1                 0.0000
     11 ****        -1.6101   2.4264  -1.1626 N.ar           1 S1                 0.0000
     12 ****        -0.3197   2.7445  -1.2931 C.ar           1 S1                 0.0000
     13 ****         0.7472   1.9489  -1.2111 N.ar           1 S1                 0.0000
     14 ****         0.3837   0.6568  -0.9705 C.ar           1 S1                 0.0000
     15 ****        -0.9459   0.1714  -0.8058 C.ar           1 S1                 0.0000
     16 ****        -0.9160  -1.1992  -0.5773 N.2            1 S1                 0.0000
     17 ****         0.3527  -1.5021  -0.5873 C.2            1 S1                 0.0000
     18 ****         1.2054  -0.4492  -0.8314 N.pl3          1 S1                 0.0000
     19 ****         2.6399  -0.4904  -0.8760 C.3            1 S1                 0.0000
     20 ****         3.3975  -1.6856  -1.4653 C.3            1 S1                 0.0000
     21 ****         4.5203  -1.4687  -0.4235 C.3            1 S1                 0.0000
     22 ****         5.1317  -2.7373   0.2032 C.3            1 S1                 0.0000
     23 ****         4.1489  -3.6377   0.6753 O.3            1 S1                 0.0000
     24 ****         5.6886  -0.6036  -0.9329 C.3            1 S1                 0.0000
     25 ****         6.4739  -0.1082   0.1327 O.3            1 S1                 0.0000
     26 ****         3.4487  -0.7175   0.4018 C.3            1 S1                 0.0000
     27 ****        -1.7164   1.2936   4.0654 H              1 S1                 0.0000
     28 ****        -1.5901   1.1264   1.8131 H              1 S1                 0.0000
     29 ****        -2.1757  -0.3460   2.5658 H              1 S1                 0.0000
     30 ****        -4.5501   0.4627   2.2475 H              1 S1                 0.0000
     31 ****        -4.9237   2.6582   1.5052 H              1 S1                 0.0000
     32 ****        -3.2087   2.8767   1.1714 H              1 S1                 0.0000
     33 ****        -4.2065   2.7892  -1.0973 H              1 S1                 0.0000
     34 ****        -6.4249   1.6200  -0.0721 H              1 S1                 0.0000
     35 ****        -5.9081   1.1260  -1.6882 H              1 S1                 0.0000
     36 ****        -5.8813  -0.5810   0.6874 H              1 S1                 0.0000
     37 ****        -5.3236  -0.9714  -0.9399 H              1 S1                 0.0000
     38 ****        -3.2510  -0.9914   0.3630 H              1 S1                 0.0000
     39 ****        -0.1127   3.7860  -1.4900 H              1 S1                 0.0000
     40 ****         0.6985  -2.5104  -0.4128 H              1 S1                 0.0000
     41 ****         2.9638   0.4273  -1.3697 H              1 S1                 0.0000
     42 ****         2.8669  -2.6303  -1.3455 H              1 S1                 0.0000
     43 ****         3.7064  -1.5504  -2.5022 H              1 S1                 0.0000
     44 ****         5.7513  -3.2670  -0.5210 H              1 S1                 0.0000
     45 ****         5.7770  -2.4878   1.0458 H              1 S1                 0.0000
     46 ****         4.5853  -4.3838   1.0577 H              1 S1                 0.0000
     47 ****         6.3314  -1.1710  -1.6069 H              1 S1                 0.0000
     48 ****         5.3281   0.2515  -1.5050 H              1 S1                 0.0000
     49 ****         7.1650   0.4269  -0.2268 H              1 S1                 0.0000
     50 ****         3.7927   0.1998   0.8809 H              1 S1                 0.0000
     51 ****         2.9226  -1.3520   1.1166 H              1 S1                 0.0000
     52 ****        -3.2688   0.9554   4.1472 LP             1 S1                 0.0000
     53 ****        -2.7474   2.3346   3.4454 LP             1 S1                 0.0000
     54 ****        -3.2849   0.5085  -1.6946 LP             1 S1                 0.0000
     55 ****        -2.3079   3.1362  -1.2588 LP             1 S1                 0.0000
     56 ****         1.6922   2.2597  -1.3129 LP             1 S1                 0.0000
     57 ****        -1.6919  -1.8142  -0.4369 LP             1 S1                 0.0000
     58 ****         3.5725  -3.9371  -0.0850 LP             1 S1                 0.0000
     59 ****         3.5827  -3.1875   1.3658 LP             1 S1                 0.0000
     60 ****         6.8695  -0.8716   0.6433 LP             1 S1                 0.0000
     61 ****         5.9047   0.4420   0.7436 LP             1 S1                 0.0000
@<TRIPOS>BOND
    1    1    2 1     
    2    1   27 1     
    3    2    3 1     
    4    2   28 1     
    5    2   29 1     
    6    3    8 1     
    7    3    4 1     
    8    3   30 1     
    9    4    5 1     
   10    4   31 1     
   11    4   32 1     
   12    5    9 1     
   13    5    6 1     
   14    5   33 1     
   15    6    7 1     
   16    6   34 1     
   17    6   35 1     
   18    7    8 1     
   19    7   36 1     
   20    7   37 1     
   21    8    9 1     
   22    8   38 1     
   23    9   10 1     
   24   10   15 ar    
   25   10   11 ar    
   26   11   12 ar    
   27   12   13 ar    
   28   12   39 1     
   29   13   14 ar    
   30   14   18 1     
   31   14   15 ar    
   32   15   16 1     
   33   16   17 2     
   34   17   18 1     
   35   17   40 1     
   36   18   19 1     
   37   19   26 1     
   38   19   20 1     
   39   19   41 1     
   40   20   21 1     
   41   20   42 1     
   42   20   43 1     
   43   21   22 1     
   44   21   24 1     
   45   21   26 1     
   46   22   23 1     
   47   22   44 1     
   48   22   45 1     
   49   23   46 1     
   50   24   25 1     
   51   24   47 1     
   52   24   48 1     
   53   25   49 1     
   54   26   50 1     
   55   26   51 1     
   56    1   52 1     
   57    1   53 1     
   58    9   54 1     
   59   11   55 1     
   60   13   56 1     
   61   16   57 1     
   62   23   58 1     
   63   23   59 1     
   64   25   60 1     
   65   25   61 1     
@<TRIPOS>SUBSTRUCTURE
      1 S1             1
@<TRIPOS>SET
LONE_PAIRS      STATIC     ATOMS    <user>   **** ""
10 52 53 54 55 56 57 58 59 60 61
DONOR_HYDROGENS      STATIC     ATOMS    <user>   **** ""
3 27 46 49
ATOM$BLUE        STATIC     ATOMS    COLORGROUP SYSTEM
10 52 53 54 55 56 57 58 59 60 61
ATOM$RED        STATIC     ATOMS    COLORGROUP SYSTEM
3 27 46 49
