AV-unprocessed.smi:640|AV-procd|sdf|3150|dock10
  -GOLD-   22720 0 73D 1   1.00000     0.00000
 Structure written by MMmdl.
 38 40  0  0  0  0  0  0  0  0  3 V2000
  146.0095  138.2116  154.9699 O   0  0  0  0  0  0  0  0  0  0  0  0
  146.6557  137.9891  153.9453 C   0  0  0  0  0  0  0  0  0  0  0  0
  147.4474  139.1135  153.2638 C   0  0  0  0  0  0  0  0  0  0  0  0
  148.5622  139.6087  154.0885 N   0  0  0  0  0  0  0  0  0  0  0  0
  149.6543  138.7396  154.2823 C   0  0  0  0  0  0  0  0  0  0  0  0
  150.7302  139.0940  155.0121 C   0  0  0  0  0  0  0  0  0  0  0  0
  151.8463  138.1922  155.1950 N   0  3  0  0  0  0  0  0  0  0  0  0
  152.8675  138.6195  155.7239 O   0  0  0  0  0  0  0  0  0  0  0  0
  151.7403  137.0290  154.8176 O   0  5  0  0  0  0  0  0  0  0  0  0
  150.7353  140.4165  155.6073 C   0  0  0  0  0  0  0  0  0  0  0  0
  149.6957  141.2535  155.4221 C   0  0  0  0  0  0  0  0  0  0  0  0
  148.5286  140.8680  154.6222 C   0  0  0  0  0  0  0  0  0  0  0  0
  147.5789  141.6309  154.4430 O   0  0  0  0  0  0  0  0  0  0  0  0
  146.7000  136.7894  153.3457 N   0  0  0  0  0  0  0  0  0  0  0  0
  146.0164  135.5839  153.8025 C   0  0  0  0  0  0  0  0  0  0  0  0
  147.0000  134.5147  154.2414 C   0  0  0  0  0  0  0  0  0  0  0  0
  147.4362  133.4139  153.3032 C   0  0  0  0  0  0  0  0  0  0  0  0
  146.5493  133.0947  154.4862 C   0  0  0  0  0  0  0  0  0  0  0  0
  145.0632  135.0303  152.7570 C   0  0  0  0  0  0  0  0  0  0  0  0
  145.3227  135.2156  151.2808 C   0  0  0  0  0  0  0  0  0  0  0  0
  144.1729  135.9399  151.9432 C   0  0  0  0  0  0  0  0  0  0  0  0
  147.8183  138.7704  152.2959 H   0  0  0  0  0  0  0  0  0  0  0  0
  146.7529  139.9220  153.0316 H   0  0  0  0  0  0  0  0  0  0  0  0
  149.5570  137.7817  153.7920 H   0  0  0  0  0  0  0  0  0  0  0  0
  151.5726  140.7459  156.2048 H   0  0  0  0  0  0  0  0  0  0  0  0
  149.7207  142.2344  155.8738 H   0  0  0  0  0  0  0  0  0  0  0  0
  147.2523  136.7036  152.5047 H   0  0  0  0  0  0  0  0  0  0  0  0
  145.4220  135.8394  154.6824 H   0  0  0  0  0  0  0  0  0  0  0  0
  147.7688  134.8856  154.9171 H   0  0  0  0  0  0  0  0  0  0  0  0
  146.9821  133.3736  152.3151 H   0  0  0  0  0  0  0  0  0  0  0  0
  148.4754  133.0953  153.3520 H   0  0  0  0  0  0  0  0  0  0  0  0
  146.9978  132.5630  155.3227 H   0  0  0  0  0  0  0  0  0  0  0  0
  145.5081  132.8516  154.2831 H   0  0  0  0  0  0  0  0  0  0  0  0
  144.6217  134.0761  153.0395 H   0  0  0  0  0  0  0  0  0  0  0  0
  146.1853  135.8100  150.9863 H   0  0  0  0  0  0  0  0  0  0  0  0
  145.0827  134.3838  150.6218 H   0  0  0  0  0  0  0  0  0  0  0  0
  143.1656  135.5918  151.7242 H   0  0  0  0  0  0  0  0  0  0  0  0
  144.2756  137.0143  152.0814 H   0  0  0  0  0  0  0  0  0  0  0  0
  1  2  2  0  0  0  0
  2  3  1  0  0  0  0
  2 14  1  0  0  0  0
  3  4  1  0  0  0  0
  3 22  1  0  0  0  0
  3 23  1  0  0  0  0
  4 12  1  0  0  0  0
  4  5  1  0  0  0  0
  5  6  2  0  0  0  0
  5 24  1  0  0  0  0
  6  7  1  0  0  0  0
  6 10  1  0  0  0  0
  7  8  2  0  0  0  0
  7  9  1  0  0  0  0
 10 11  2  0  0  0  0
 10 25  1  0  0  0  0
 11 12  1  0  0  0  0
 11 26  1  0  0  0  0
 12 13  2  0  0  0  0
 14 15  1  0  0  0  0
 14 27  1  0  0  0  0
 15 16  1  0  0  0  0
 15 19  1  0  0  0  0
 15 28  1  0  0  0  0
 16 18  1  0  0  0  0
 16 17  1  0  0  0  0
 16 29  1  0  0  0  0
 17 18  1  0  0  0  0
 17 30  1  0  0  0  0
 17 31  1  0  0  0  0
 18 32  1  0  0  0  0
 18 33  1  0  0  0  0
 19 21  1  0  0  0  0
 19 20  1  0  0  0  0
 19 34  1  0  0  0  0
 20 21  1  0  0  0  0
 20 35  1  0  0  0  0
 20 36  1  0  0  0  0
 21 37  1  0  0  0  0
 21 38  1  0  0  0  0
M  CHG  1   7   1
M  CHG  1   9  -1
M  END
> <s_m_source_file>
AV-unprocessed.smi

> <i_m_source_file_index>
640

> <i_lp_mmshare_version>
43012

> <i_f3d_flags>
0

> <s_epik_input>
W0NIMl0xW0NIMl1bQ0hdMVtDSF0oW0NIXTJbQ0gyXVtDSDJdMilbTkhdQyg9TylbQ0gyXW4zW2NIXWMoW04rXSg9TylbTy1dKVtjSF1bY0hdYzM9Tw==

> <s_epik_cmdline>
J2VwaWtfcHl0aG9uJywgJy1waCcsICc3LjAnLCAnLXRuJywgJzgnLCAnLW1hJywgJzIwMCcsICctbWV0YWxfYmluZGluZycsICctaW1hZScsICc8aW5maWxlLm1hZT4nLCAnLW9tYWUnLCAnPG91dGZpbGUubWFlPic=

> <r_lp_tautomer_probability>
1

> <r_epik_Ionization_Penalty>
2.04963e-08

> <r_epik_Ionization_Penalty_Charging>
8.36809e-11

> <r_epik_Ionization_Penalty_Neutral>
2.04126e-08

> <r_epik_State_Penalty>
-0

> <r_epik_Charging_Adjusted_Penalty>
8.36809e-11

> <i_epik_Tot_Q>
0

> <i_epik_Tot_abs_Q>
2

> <r_epik_Metal_State_Penalty>
-0

> <b_epik_Metal_Only>
0

> <s_lp_Force_Field>
OPLS_2005

> <r_lp_Energy>
35.0527

> <b_lp_Chiralities_Consistent>
1

> <s_lp_Variant>
AV-unprocessed.smi:640-1

> <Gold.Version>
5.8.1

> <Gold.Id.Protein>
6NUR|6NUR_protein|mol2

> <Gold.PLP.Fitness>
44.6407

> <Gold.PLP.PLP>
-33.7775

> <Gold.PLP.part.hbond>
-2.9350

> <Gold.PLP.part.metal>
0.0000

> <Gold.PLP.part.buried>
-1.5825

> <Gold.PLP.part.nonpolar>
-29.6273

> <Gold.PLP.part.repulsive>
0.3459

> <Gold.PLP.ligand.clash>
0.0000

> <Gold.PLP.ligand.torsion>
1.2540

> <Gold.PLP.Chemscore.Hbond>
2.7440

> <Gold.PLP.Chemscore.CHOScore>
1.0000

> <Gold.PLP.Chemscore.Metal>
0.0000

> <Gold.Chemscore.Hbonds>
donor molecule, donor type, donor heavy atom, donor atom, acceptor molecule, acceptor atom, score
      L1  H    14    27       P1  7948  0.88
      P1  H  7997  8010       L1     8  0.60
      P1  H 10752 10765       L1     9  1.00
      L1  C     5    24       P1  7948  1.00

> <Gold.PLP.Chemscore.Internal.Correction>
2.1392

> <Gold.Rescore>
     Score         DG    S(hbond)    S(metal)    S(lipo)     H(rot)  DE(clash)    DE(int)     intcor
     15.72     -16.96       2.81        0.00      60.41       1.94       0.06       1.18       ----

> <Gold.Chemscore.Fitness>
15.7174

> <Gold.Chemscore.DG>
-16.9559

> <Gold.Chemscore.ZeroCoef>
-5.4800

> <Gold.Chemscore.Hbond>
2.8052

> <Gold.Chemscore.Metal>
0.0000

> <Gold.Chemscore.Lipo>
60.4088

> <Gold.Chemscore.Internal_Hbond>
0.0000

> <Gold.Chemscore.DEClash>
0.0605

> <Gold.Chemscore.DEInternal>
1.1780

> <Gold.Chemscore.Rot>
1.9380

> <Gold.Chemscore.Internal.Correction>
   9.000000E+99

> <Gold.Chemscore.Hbonds>
donor molecule, donor type, donor heavy atom, donor atom, acceptor molecule, acceptor atom, score
      L1  H    14    27       P1  7948  0.86
      P1  H  7997  8010       L1     8  0.59
      P1  H 10752 10765       L1     9  0.98

> <Gold.Chemscore.Hbond.Weighted>
-9.3694

> <Gold.Chemscore.Metal.Weighted>
-0.0000

> <Gold.Chemscore.Lipo.Weighted>
-7.0678

> <Gold.Chemscore.Internal_Hbond.Weighted>
0.0000

> <Gold.Chemscore.DEClash.Weighted>
0.0605

> <Gold.Chemscore.DEInternal.Weighted>
1.1780

> <Gold.Chemscore.Rot.Weighted>
4.9613

> <Gold.Chemscore.Internal.Correction.Weighted>
   9.000000E+99

> <Gold.Protein.RotatedTorsions>
[ 6907 6896 6895 6894 ] final  147.88 input  -60.11 | X-H torsion
[ 7974 7965 7964 7962 ] final   78.21 input  175.53 | X-H torsion
[ 8008 7997 7996 7995 ] final   96.59 input   59.86 | X-H torsion
[ 10167 10162 10161 10158 ] final  174.11 input  -65.29 | X-H torsion
[ 10718 10713 10712 10709 ] final  -91.37 input   66.30 | X-H torsion
[ 10763 10752 10751 10750 ] final  166.36 input  -60.55 | X-H torsion
[ 11005 11000 10999 10996 ] final  159.59 input  -57.11 | X-H torsion

> <Gold.Protein.ActiveResidues>
 VAL166  LYS551  ARG553  GLY616  TRP617  ASP618  TYR619  PRO620  LYS621  CYS622 
 ASP623  PHE694  ASN695  SER759  ASP760  ASP761  ALA762  ILE779  LEU786  VAL792 
 PHE793  MET794  SER795  GLU796  ALA797  LYS798  CYS799  TRP800  GLU811  SER814 

> <Gold.Protein.RotatedAtoms>
  152.1489  133.4510  159.4803 H   0  0  0  0  0  0  0  0  0  0  0  0  # atno 6907 bound_to 6896
  150.6893  134.2213  159.4407 H   0  0  0  0  0  0  0  0  0  0  0  0  # atno 6908 bound_to 6896
  152.0108  134.9876  160.0618 H   0  0  0  0  0  0  0  0  0  0  0  0  # atno 6909 bound_to 6896
  145.6801  139.2521  143.1819 H   0  0  0  0  0  0  0  0  0  0  0  0  # atno 7974 bound_to 7965
  156.0812  140.3270  155.7696 H   0  0  0  0  0  0  0  0  0  0  0  0  # atno 8008 bound_to 7997
  155.5150  140.0580  157.2934 H   0  0  0  0  0  0  0  0  0  0  0  0  # atno 8009 bound_to 7997
  154.4583  140.1954  156.0333 H   0  0  0  0  0  0  0  0  0  0  0  0  # atno 8010 bound_to 7997
  139.5130  144.3184  152.0226 H   0  0  0  0  0  0  0  0  0  0  0  0  # atno 10167 bound_to 10162
  155.9993  130.4945  150.5464 H   0  0  0  0  0  0  0  0  0  0  0  0  # atno 10718 bound_to 10713
  154.3378  135.2754  155.2438 H   0  0  0  0  0  0  0  0  0  0  0  0  # atno 10763 bound_to 10752
  154.4722  135.5880  153.6333 H   0  0  0  0  0  0  0  0  0  0  0  0  # atno 10764 bound_to 10752
  152.9860  135.6091  154.3576 H   0  0  0  0  0  0  0  0  0  0  0  0  # atno 10765 bound_to 10752
  140.1976  134.8361  157.2982 H   0  0  0  0  0  0  0  0  0  0  0  0  # atno 11005 bound_to 11000
  146.0972  140.7587  142.9567 LP  0  0  0  0  0  0  0  0  0  0  0  0  # atno 17320 bound_to 7965
  144.7029  140.3730  143.7141 LP  0  0  0  0  0  0  0  0  0  0  0  0  # atno 17321 bound_to 7965
  140.2627  144.4050  150.6180 LP  0  0  0  0  0  0  0  0  0  0  0  0  # atno 17342 bound_to 10162
  140.6146  143.2171  151.6818 LP  0  0  0  0  0  0  0  0  0  0  0  0  # atno 17343 bound_to 10162
  157.3393  131.0714  151.1800 LP  0  0  0  0  0  0  0  0  0  0  0  0  # atno 17370 bound_to 10713
  157.2654  130.6679  149.5994 LP  0  0  0  0  0  0  0  0  0  0  0  0  # atno 17371 bound_to 10713
  140.2090  134.4162  155.7623 LP  0  0  0  0  0  0  0  0  0  0  0  0  # atno 17394 bound_to 11000
  141.2227  133.7109  156.8306 LP  0  0  0  0  0  0  0  0  0  0  0  0  # atno 17395 bound_to 11000

$$$$
