AV-unprocessed.smi:3337|AV-procd|sdf|12863|dock5
  -GOLD-   2272019263D 1   1.00000     0.00000
 Structure written by MMmdl.
 46 47  0  0  0  0  0  0  0  0  2 V2000
  153.7263  141.0811  160.8424 C   0  0  0  0  0  0  0  0  0  0  0  0
  153.1541  142.0008  159.7543 C   0  0  2  0  0  0  0  0  0  0  0  0
  152.6987  143.3485  160.3387 C   0  0  0  0  0  0  0  0  0  0  0  0
  152.1111  144.2454  159.2364 C   0  0  2  0  0  0  0  0  0  0  0  0
  151.6293  145.5889  159.8018 C   0  0  0  0  0  0  0  0  0  0  0  0
  150.9781  143.5077  158.4971 C   0  0  0  0  0  0  0  0  0  0  0  0
  151.4468  142.2129  157.9390 N   0  3  2  0  0  0  0  0  0  0  0  0
  150.4094  141.5534  157.1064 C   0  0  0  0  0  0  0  0  0  0  0  0
  148.9899  141.7489  157.6733 C   0  0  0  0  0  0  0  0  0  0  0  0
  148.0341  142.0812  156.6235 N   0  0  0  0  0  0  0  0  0  0  0  0
  147.0467  141.2745  156.2025 C   0  0  0  0  0  0  0  0  0  0  0  0
  146.8388  140.1626  156.6899 O   0  0  0  0  0  0  0  0  0  0  0  0
  146.1677  141.8075  155.0602 C   0  0  2  0  0  0  0  0  0  0  0  0
  146.9692  142.0708  153.7694 C   0  0  0  0  0  0  0  0  0  0  0  0
  145.4305  142.9862  155.4985 N   0  0  0  0  0  0  0  0  0  0  0  0
  144.5346  143.7297  154.8455 C   0  0  0  0  0  0  0  0  0  0  0  0
  144.0228  144.7157  155.5685 N   0  0  0  0  0  0  0  0  0  0  0  0
  144.6857  144.5045  156.7440 C   0  0  0  0  0  0  0  0  0  0  0  0
  145.5320  143.4748  156.7599 N   0  0  0  0  0  0  0  0  0  0  0  0
  151.9904  141.3269  159.0026 C   0  0  0  0  0  0  0  0  0  0  0  0
  152.9756  140.8437  161.5970 H   0  0  0  0  0  0  0  0  0  0  0  0
  154.5707  141.5494  161.3491 H   0  0  0  0  0  0  0  0  0  0  0  0
  154.0791  140.1412  160.4170 H   0  0  0  0  0  0  0  0  0  0  0  0
  153.9527  142.1952  159.0366 H   0  0  0  0  0  0  0  0  0  0  0  0
  151.9524  143.1813  161.1171 H   0  0  0  0  0  0  0  0  0  0  0  0
  153.5407  143.8498  160.8179 H   0  0  0  0  0  0  0  0  0  0  0  0
  152.9026  144.4581  158.5160 H   0  0  0  0  0  0  0  0  0  0  0  0
  150.8264  145.4499  160.5267 H   0  0  0  0  0  0  0  0  0  0  0  0
  151.2535  146.2365  159.0092 H   0  0  0  0  0  0  0  0  0  0  0  0
  152.4407  146.1187  160.3014 H   0  0  0  0  0  0  0  0  0  0  0  0
  150.1367  143.3302  159.1692 H   0  0  0  0  0  0  0  0  0  0  0  0
  150.6097  144.1398  157.6880 H   0  0  0  0  0  0  0  0  0  0  0  0
  150.4807  141.9179  156.0804 H   0  0  0  0  0  0  0  0  0  0  0  0
  150.6068  140.4812  157.0637 H   0  0  0  0  0  0  0  0  0  0  0  0
  148.6549  140.8313  158.1575 H   0  0  0  0  0  0  0  0  0  0  0  0
  148.9642  142.5279  158.4356 H   0  0  0  0  0  0  0  0  0  0  0  0
  148.1404  142.9787  156.1726 H   0  0  0  0  0  0  0  0  0  0  0  0
  145.4303  141.0370  154.8278 H   0  0  0  0  0  0  0  0  0  0  0  0
  147.4740  141.1662  153.4290 H   0  0  0  0  0  0  0  0  0  0  0  0
  147.7292  142.8412  153.9067 H   0  0  0  0  0  0  0  0  0  0  0  0
  146.3101  142.3989  152.9652 H   0  0  0  0  0  0  0  0  0  0  0  0
  144.2481  143.5440  153.8209 H   0  0  0  0  0  0  0  0  0  0  0  0
  144.5351  145.1240  157.6159 H   0  0  0  0  0  0  0  0  0  0  0  0
  152.3445  140.3928  158.5676 H   0  0  0  0  0  0  0  0  0  0  0  0
  151.1925  141.0652  159.6998 H   0  0  0  0  0  0  0  0  0  0  0  0
  152.2127  142.4359  157.3195 H   0  0  0  0  0  0  0  0  0  0  0  0
  1  2  1  0  0  0  0
  1 21  1  0  0  0  0
  1 22  1  0  0  0  0
  1 23  1  0  0  0  0
  2 20  1  0  0  0  0
  2  3  1  0  0  0  0
  2 24  1  0  0  0  0
  3  4  1  0  0  0  0
  3 25  1  0  0  0  0
  3 26  1  0  0  0  0
  4  5  1  0  0  0  0
  4  6  1  0  0  0  0
  4 27  1  0  0  0  0
  5 28  1  0  0  0  0
  5 29  1  0  0  0  0
  5 30  1  0  0  0  0
  6  7  1  0  0  0  0
  6 31  1  0  0  0  0
  6 32  1  0  0  0  0
  7  8  1  0  0  0  0
  7 20  1  0  0  0  0
  7 46  1  0  0  0  0
  8  9  1  0  0  0  0
  8 33  1  0  0  0  0
  8 34  1  0  0  0  0
  9 10  1  0  0  0  0
  9 35  1  0  0  0  0
  9 36  1  0  0  0  0
 10 11  1  0  0  0  0
 10 37  1  0  0  0  0
 11 12  2  0  0  0  0
 11 13  1  0  0  0  0
 13 14  1  0  0  0  0
 13 15  1  0  0  0  0
 13 38  1  0  0  0  0
 14 39  1  0  0  0  0
 14 40  1  0  0  0  0
 14 41  1  0  0  0  0
 15 19  1  0  0  0  0
 15 16  1  0  0  0  0
 16 17  2  0  0  0  0
 16 42  1  0  0  0  0
 17 18  1  0  0  0  0
 18 19  2  0  0  0  0
 18 43  1  0  0  0  0
 20 44  1  0  0  0  0
 20 45  1  0  0  0  0
M  CHG  1   7   1
M  END
> <s_m_source_file>
AV-unprocessed.smi

> <i_m_source_file_index>
3337

> <i_lp_mmshare_version>
43012

> <i_f3d_flags>
0

> <s_epik_input>
W0NIM11bQ0BASF0xW0NIMl1bQ0BASF0oW0NIM10pW0NIMl1OKFtDSDJdMSlbQ0gyXVtDSDJdW05IXUMoPU8pW0NASF0oW0NIM10pbjJbY0hdbltjSF1uMg==

> <s_epik_cmdline>
J2VwaWtfcHl0aG9uJywgJy1waCcsICc3LjAnLCAnLXRuJywgJzgnLCAnLW1hJywgJzIwMCcsICctbWV0YWxfYmluZGluZycsICctaW1hZScsICc8aW5maWxlLm1hZT4nLCAnLW9tYWUnLCAnPG91dGZpbGUubWFlPic=

> <r_lp_tautomer_probability>
1

> <r_epik_Ionization_Penalty>
0.00175613

> <r_epik_Ionization_Penalty_Charging>
0.00174812

> <r_epik_Ionization_Penalty_Neutral>
8.01354e-06

> <r_epik_State_Penalty>
0.00118332

> <r_epik_Charging_Adjusted_Penalty>
0.00293143

> <i_epik_Tot_Q>
1

> <i_epik_Tot_abs_Q>
1

> <r_epik_Metal_State_Penalty>
-0

> <b_epik_Metal_Only>
0

> <s_lp_Force_Field>
OPLS_2005

> <r_lp_Energy>
22.1479

> <b_lp_Chiralities_Consistent>
1

> <s_lp_Variant>
AV-unprocessed.smi:3337-3

> <Gold.Version>
5.8.1

> <Gold.Id.Protein>
6NUR|6NUR_protein|mol2

> <Gold.PLP.Fitness>
44.4688

> <Gold.PLP.PLP>
-39.7992

> <Gold.PLP.part.hbond>
-1.0000

> <Gold.PLP.part.metal>
0.0000

> <Gold.PLP.part.buried>
-6.6337

> <Gold.PLP.part.nonpolar>
-33.3110

> <Gold.PLP.part.repulsive>
0.2929

> <Gold.PLP.ligand.clash>
0.0000

> <Gold.PLP.ligand.torsion>
0.7216

> <Gold.PLP.Chemscore.Hbond>
1.0000

> <Gold.PLP.Chemscore.CHOScore>
1.0000

> <Gold.PLP.Chemscore.Metal>
0.0000

> <Gold.Chemscore.Hbonds>
donor molecule, donor type, donor heavy atom, donor atom, acceptor molecule, acceptor atom, score
      L1  H    10    37       P1  8028  1.00
      L1  C    16    42       P1 10174  0.99

> <Gold.PLP.Chemscore.Internal.Correction>
0.1128

> <Gold.Rescore>
     Score         DG    S(hbond)    S(metal)    S(lipo)     H(rot)  DE(clash)    DE(int)     intcor
     11.91     -13.83       0.92        0.00     100.14       2.51       0.03       1.88       ----

> <Gold.Chemscore.Fitness>
11.9065

> <Gold.Chemscore.DG>
-13.8255

> <Gold.Chemscore.ZeroCoef>
-5.4800

> <Gold.Chemscore.Hbond>
0.9167

> <Gold.Chemscore.Metal>
0.0000

> <Gold.Chemscore.Lipo>
100.1445

> <Gold.Chemscore.Internal_Hbond>
0.0000

> <Gold.Chemscore.DEClash>
0.0342

> <Gold.Chemscore.DEInternal>
1.8848

> <Gold.Chemscore.Rot>
2.5129

> <Gold.Chemscore.Internal.Correction>
   9.000000E+99

> <Gold.Chemscore.Hbonds>
donor molecule, donor type, donor heavy atom, donor atom, acceptor molecule, acceptor atom, score
      L1  H    10    37       P1  8028  0.65

> <Gold.Chemscore.Hbond.Weighted>
-3.0617

> <Gold.Chemscore.Metal.Weighted>
-0.0000

> <Gold.Chemscore.Lipo.Weighted>
-11.7169

> <Gold.Chemscore.Internal_Hbond.Weighted>
0.0000

> <Gold.Chemscore.DEClash.Weighted>
0.0342

> <Gold.Chemscore.DEInternal.Weighted>
1.8848

> <Gold.Chemscore.Rot.Weighted>
6.4331

> <Gold.Chemscore.Internal.Correction.Weighted>
   9.000000E+99

> <Gold.Protein.RotatedTorsions>
[ 6907 6896 6895 6894 ] final  -58.09 input  -60.11 | X-H torsion
[ 7974 7965 7964 7962 ] final   -1.02 input  175.53 | X-H torsion
[ 8008 7997 7996 7995 ] final  -78.55 input   59.86 | X-H torsion
[ 10167 10162 10161 10158 ] final  -15.22 input  -65.29 | X-H torsion
[ 10718 10713 10712 10709 ] final  -81.13 input   66.30 | X-H torsion
[ 10763 10752 10751 10750 ] final  147.96 input  -60.55 | X-H torsion
[ 11005 11000 10999 10996 ] final  147.01 input  -57.11 | X-H torsion

> <Gold.Protein.ActiveResidues>
 VAL166  LYS551  ARG553  GLY616  TRP617  ASP618  TYR619  PRO620  LYS621  CYS622 
 ASP623  PHE694  ASN695  SER759  ASP760  ASP761  ALA762  ILE779  LEU786  VAL792 
 PHE793  MET794  SER795  GLU796  ALA797  LYS798  CYS799  TRP800  GLU811  SER814 

> <Gold.Protein.RotatedAtoms>
  150.8034  134.7143  159.6621 H   0  0  0  0  0  0  0  0  0  0  0  0  # atno 6907 bound_to 6896
  152.4152  134.6051  160.0020 H   0  0  0  0  0  0  0  0  0  0  0  0  # atno 6908 bound_to 6896
  151.6282  133.3297  159.3139 H   0  0  0  0  0  0  0  0  0  0  0  0  # atno 6909 bound_to 6896
  146.2421  140.1357  142.8336 H   0  0  0  0  0  0  0  0  0  0  0  0  # atno 7974 bound_to 7965
  154.5700  140.0692  156.8950 H   0  0  0  0  0  0  0  0  0  0  0  0  # atno 8008 bound_to 7997
  155.2652  140.3361  155.4251 H   0  0  0  0  0  0  0  0  0  0  0  0  # atno 8009 bound_to 7997
  156.2111  140.1759  156.7679 H   0  0  0  0  0  0  0  0  0  0  0  0  # atno 8010 bound_to 7997
  140.7215  143.5241  150.9598 H   0  0  0  0  0  0  0  0  0  0  0  0  # atno 10167 bound_to 10162
  156.0056  130.4594  150.3905 H   0  0  0  0  0  0  0  0  0  0  0  0  # atno 10718 bound_to 10713
  154.0469  135.2885  155.3346 H   0  0  0  0  0  0  0  0  0  0  0  0  # atno 10763 bound_to 10752
  154.6894  135.5232  153.8374 H   0  0  0  0  0  0  0  0  0  0  0  0  # atno 10764 bound_to 10752
  153.0577  135.6601  154.0669 H   0  0  0  0  0  0  0  0  0  0  0  0  # atno 10765 bound_to 10752
  140.0840  134.9080  157.1546 H   0  0  0  0  0  0  0  0  0  0  0  0  # atno 11005 bound_to 11000
  145.0289  140.8854  143.5122 LP  0  0  0  0  0  0  0  0  0  0  0  0  # atno 17320 bound_to 7965
  145.1418  139.2568  143.5486 LP  0  0  0  0  0  0  0  0  0  0  0  0  # atno 17321 bound_to 7965
  139.8959  143.6895  152.3138 LP  0  0  0  0  0  0  0  0  0  0  0  0  # atno 17342 bound_to 10162
  139.7228  144.7599  151.0928 LP  0  0  0  0  0  0  0  0  0  0  0  0  # atno 17343 bound_to 10162
  157.1980  131.0431  151.2665 LP  0  0  0  0  0  0  0  0  0  0  0  0  # atno 17370 bound_to 10713
  157.4001  130.7329  149.6761 LP  0  0  0  0  0  0  0  0  0  0  0  0  # atno 17371 bound_to 10713
  140.3447  134.2665  155.7207 LP  0  0  0  0  0  0  0  0  0  0  0  0  # atno 17394 bound_to 11000
  141.2056  133.7855  157.0222 LP  0  0  0  0  0  0  0  0  0  0  0  0  # atno 17395 bound_to 11000

$$$$
