AV-unprocessed.smi:1634|AV-procd|sdf|6539|dock3
  -GOLD-   22720 7223D 1   1.00000     0.00000
 Structure written by MMmdl.
 37 37  0  0  0  0  0  0  0  0  2 V2000
  147.3919  142.0587  154.0549 C   0  0  0  0  0  0  0  0  0  0  0  0
  148.1087  140.7918  153.5611 C   0  0  0  0  0  0  0  0  0  0  0  0
  147.1202  139.8419  152.8692 C   0  0  0  0  0  0  0  0  0  0  0  0
  148.8466  140.0787  154.7054 C   0  0  0  0  0  0  0  0  0  0  0  0
  150.1846  139.8039  154.3026 O   0  0  0  0  0  0  0  0  0  0  0  0
  151.0761  139.4278  155.3494 C   0  0  1  0  0  0  0  0  0  0  0  0
  152.4000  138.9996  154.6994 C   0  0  0  0  0  0  0  0  0  0  0  0
  151.2849  140.6024  156.3187 C   0  0  0  0  0  0  0  0  0  0  0  0
  150.6421  141.6402  156.1583 O   0  0  0  0  0  0  0  0  0  0  0  0
  152.1834  140.3893  157.2996 N   0  0  0  0  0  0  0  0  0  0  0  0
  152.5323  141.2170  158.3796 C   0  0  0  0  0  0  0  0  0  0  0  0
  151.9601  142.4241  158.6434 C   0  0  0  0  0  0  0  0  0  0  0  0
  152.3423  143.2345  159.7925 C   0  0  0  0  0  0  0  0  0  0  0  0
  151.6683  144.5459  160.1562 C   0  0  0  0  0  0  0  0  0  0  0  0
  151.9928  145.5106  159.2951 F   0  0  0  0  0  0  0  0  0  0  0  0
  150.3447  144.3968  160.1345 F   0  0  0  0  0  0  0  0  0  0  0  0
  152.0212  144.9390  161.3803 F   0  0  0  0  0  0  0  0  0  0  0  0
  153.3054  142.6199  160.5695 C   0  0  0  0  0  0  0  0  0  0  0  0
  153.9256  141.4348  160.3769 N   0  5  0  0  0  0  0  0  0  0  0  0
  153.5648  140.6886  159.2946 C   0  0  0  0  0  0  0  0  0  0  0  0
  154.0784  139.5928  159.0667 O   0  0  0  0  0  0  0  0  0  0  0  0
  146.6388  141.8210  154.8069 H   0  0  0  0  0  0  0  0  0  0  0  0
  146.8919  142.5726  153.2334 H   0  0  0  0  0  0  0  0  0  0  0  0
  148.0943  142.7634  154.5007 H   0  0  0  0  0  0  0  0  0  0  0  0
  148.8503  141.0921  152.8197 H   0  0  0  0  0  0  0  0  0  0  0  0
  146.3484  139.5016  153.5604 H   0  0  0  0  0  0  0  0  0  0  0  0
  147.6293  138.9604  152.4789 H   0  0  0  0  0  0  0  0  0  0  0  0
  146.6242  140.3324  152.0313 H   0  0  0  0  0  0  0  0  0  0  0  0
  148.8174  140.6981  155.6028 H   0  0  0  0  0  0  0  0  0  0  0  0
  148.3458  139.1392  154.9437 H   0  0  0  0  0  0  0  0  0  0  0  0
  150.6621  138.5706  155.8841 H   0  0  0  0  0  0  0  0  0  0  0  0
  153.1359  138.7144  155.4519 H   0  0  0  0  0  0  0  0  0  0  0  0
  152.8296  139.8005  154.0963 H   0  0  0  0  0  0  0  0  0  0  0  0
  152.2487  138.1408  154.0452 H   0  0  0  0  0  0  0  0  0  0  0  0
  152.7043  139.5255  157.2512 H   0  0  0  0  0  0  0  0  0  0  0  0
  151.1792  142.8142  158.0112 H   0  0  0  0  0  0  0  0  0  0  0  0
  153.6207  143.1585  161.4885 H   0  0  0  0  0  0  0  0  0  0  0  0
  1  2  1  0  0  0  0
  1 22  1  0  0  0  0
  1 23  1  0  0  0  0
  1 24  1  0  0  0  0
  2  3  1  0  0  0  0
  2  4  1  0  0  0  0
  2 25  1  0  0  0  0
  3 26  1  0  0  0  0
  3 27  1  0  0  0  0
  3 28  1  0  0  0  0
  4  5  1  0  0  0  0
  4 29  1  0  0  0  0
  4 30  1  0  0  0  0
  5  6  1  0  0  0  0
  6  7  1  0  0  0  0
  6  8  1  0  0  0  0
  6 31  1  0  0  0  0
  7 32  1  0  0  0  0
  7 33  1  0  0  0  0
  7 34  1  0  0  0  0
  8  9  2  0  0  0  0
  8 10  1  0  0  0  0
 10 11  1  0  0  0  0
 10 35  1  0  0  0  0
 11 20  1  0  0  0  0
 11 12  2  0  0  0  0
 12 13  1  0  0  0  0
 12 36  1  0  0  0  0
 13 14  1  0  0  0  0
 13 18  2  0  0  0  0
 14 15  1  0  0  0  0
 14 16  1  0  0  0  0
 14 17  1  0  0  0  0
 18 19  1  0  0  0  0
 18 37  1  0  0  0  0
 19 20  1  0  0  0  0
 20 21  2  0  0  0  0
M  CHG  1  19  -1
M  END
> <s_m_source_file>
AV-unprocessed.smi

> <i_m_source_file_index>
1634

> <i_lp_mmshare_version>
43012

> <i_f3d_flags>
0

> <s_epik_input>
W0NIM11bQ0hdKFtDSDNdKVtDSDJdT1tDQEhdKFtDSDNdKUMoPU8pW05IXWMxW2NIXWMoQyhGKShGKUYpW2NIXVtuSF1jMT1P

> <s_epik_cmdline>
J2VwaWtfcHl0aG9uJywgJy1waCcsICc3LjAnLCAnLXRuJywgJzgnLCAnLW1hJywgJzIwMCcsICctbWV0YWxfYmluZGluZycsICctaW1hZScsICc8aW5maWxlLm1hZT4nLCAnLW9tYWUnLCAnPG91dGZpbGUubWFlPic=

> <r_epik_Ionization_Penalty>
2.55349

> <r_epik_Ionization_Penalty_Charging>
0.0582825

> <r_epik_Ionization_Penalty_Neutral>
2.49521

> <r_epik_State_Penalty>
2.65983

> <r_epik_Charging_Adjusted_Penalty>
2.71812

> <i_epik_Tot_Q>
-1

> <i_epik_Tot_abs_Q>
1

> <r_epik_Metal_State_Penalty>
0.516727

> <b_epik_Metal_Only>
0

> <s_lp_Force_Field>
OPLS_2005

> <r_lp_Energy>
21.4582

> <b_lp_Chiralities_Consistent>
1

> <s_lp_Variant>
AV-unprocessed.smi:1634-4

> <Gold.Version>
5.8.1

> <Gold.Id.Protein>
6NUR|6NUR_protein|mol2

> <Gold.PLP.Fitness>
47.7799

> <Gold.PLP.PLP>
-45.1353

> <Gold.PLP.part.hbond>
-2.0000

> <Gold.PLP.part.metal>
0.0000

> <Gold.PLP.part.buried>
-0.7836

> <Gold.PLP.part.nonpolar>
-41.8270

> <Gold.PLP.part.repulsive>
0.3179

> <Gold.PLP.ligand.clash>
0.0000

> <Gold.PLP.ligand.torsion>
1.0365

> <Gold.PLP.Chemscore.Hbond>
1.4913

> <Gold.PLP.Chemscore.CHOScore>
0.0000

> <Gold.PLP.Chemscore.Metal>
0.0000

> <Gold.Chemscore.Hbonds>
donor molecule, donor type, donor heavy atom, donor atom, acceptor molecule, acceptor atom, score
      P1  H  7989  7998       L1     5  0.50
      P1  H  7997  8008       L1    21  0.94

> <Gold.PLP.Chemscore.Internal.Correction>
0.2438

> <Gold.Rescore>
     Score         DG    S(hbond)    S(metal)    S(lipo)     H(rot)  DE(clash)    DE(int)     intcor
     10.00     -14.55       0.70        0.00      96.00       1.75       1.11       3.44       ----

> <Gold.Chemscore.Fitness>
9.9961

> <Gold.Chemscore.DG>
-14.5504

> <Gold.Chemscore.ZeroCoef>
-5.4800

> <Gold.Chemscore.Hbond>
0.6969

> <Gold.Chemscore.Metal>
0.0000

> <Gold.Chemscore.Lipo>
96.0035

> <Gold.Chemscore.Internal_Hbond>
0.0000

> <Gold.Chemscore.DEClash>
1.1123

> <Gold.Chemscore.DEInternal>
3.4420

> <Gold.Chemscore.Rot>
1.7538

> <Gold.Chemscore.Internal.Correction>
   9.000000E+99

> <Gold.Chemscore.Hbonds>
donor molecule, donor type, donor heavy atom, donor atom, acceptor molecule, acceptor atom, score
      P1  H  7989  7998       L1     5  0.02
      P1  H  7997  8008       L1    21  0.20

> <Gold.Chemscore.Hbond.Weighted>
-2.3278

> <Gold.Chemscore.Metal.Weighted>
-0.0000

> <Gold.Chemscore.Lipo.Weighted>
-11.2324

> <Gold.Chemscore.Internal_Hbond.Weighted>
0.0000

> <Gold.Chemscore.DEClash.Weighted>
1.1123

> <Gold.Chemscore.DEInternal.Weighted>
3.4420

> <Gold.Chemscore.Rot.Weighted>
4.4898

> <Gold.Chemscore.Internal.Correction.Weighted>
   9.000000E+99

> <Gold.Protein.RotatedTorsions>
[ 6907 6896 6895 6894 ] final -102.77 input  -60.11 | X-H torsion
[ 7974 7965 7964 7962 ] final  139.60 input  175.53 | X-H torsion
[ 8008 7997 7996 7995 ] final -115.35 input   59.86 | X-H torsion
[ 10167 10162 10161 10158 ] final  -95.67 input  -65.29 | X-H torsion
[ 10718 10713 10712 10709 ] final -120.32 input   66.30 | X-H torsion
[ 10763 10752 10751 10750 ] final  179.97 input  -60.55 | X-H torsion
[ 11005 11000 10999 10996 ] final -173.48 input  -57.11 | X-H torsion

> <Gold.Protein.ActiveResidues>
 VAL166  LYS551  ARG553  GLY616  TRP617  ASP618  TYR619  PRO620  LYS621  CYS622 
 ASP623  PHE694  ASN695  SER759  ASP760  ASP761  ALA762  ILE779  LEU786  VAL792 
 PHE793  MET794  SER795  GLU796  ALA797  LYS798  CYS799  TRP800  GLU811  SER814 

> <Gold.Protein.RotatedAtoms>
  150.7210  134.0531  159.3804 H   0  0  0  0  0  0  0  0  0  0  0  0  # atno 6907 bound_to 6896
  151.8508  135.0556  160.0468 H   0  0  0  0  0  0  0  0  0  0  0  0  # atno 6908 bound_to 6896
  152.2792  133.5418  159.5523 H   0  0  0  0  0  0  0  0  0  0  0  0  # atno 6909 bound_to 6896
  144.9264  139.5102  143.5639 H   0  0  0  0  0  0  0  0  0  0  0  0  # atno 7974 bound_to 7965
  155.0506  140.0393  157.2542 H   0  0  0  0  0  0  0  0  0  0  0  0  # atno 8008 bound_to 7997
  154.7141  140.2698  155.6578 H   0  0  0  0  0  0  0  0  0  0  0  0  # atno 8009 bound_to 7997
  156.2798  140.2716  156.1791 H   0  0  0  0  0  0  0  0  0  0  0  0  # atno 8010 bound_to 7997
  140.3018  143.3158  152.0240 H   0  0  0  0  0  0  0  0  0  0  0  0  # atno 10167 bound_to 10162
  156.1249  130.6352  150.9526 H   0  0  0  0  0  0  0  0  0  0  0  0  # atno 10718 bound_to 10713
  154.5275  135.2797  155.1209 H   0  0  0  0  0  0  0  0  0  0  0  0  # atno 10763 bound_to 10752
  154.2743  135.6297  153.5326 H   0  0  0  0  0  0  0  0  0  0  0  0  # atno 10764 bound_to 10752
  152.9949  135.5636  154.5779 H   0  0  0  0  0  0  0  0  0  0  0  0  # atno 10765 bound_to 10752
  140.4852  134.6037  157.4934 H   0  0  0  0  0  0  0  0  0  0  0  0  # atno 11005 bound_to 11000
  146.3228  139.8182  142.8932 LP  0  0  0  0  0  0  0  0  0  0  0  0  # atno 17320 bound_to 7965
  145.3213  141.0244  143.3499 LP  0  0  0  0  0  0  0  0  0  0  0  0  # atno 17321 bound_to 7965
  139.4913  144.6450  151.6797 LP  0  0  0  0  0  0  0  0  0  0  0  0  # atno 17342 bound_to 10162
  140.5644  144.0214  150.6185 LP  0  0  0  0  0  0  0  0  0  0  0  0  # atno 17343 bound_to 10162
  157.6431  131.0907  150.8209 LP  0  0  0  0  0  0  0  0  0  0  0  0  # atno 17370 bound_to 10713
  156.8301  130.5013  149.5332 LP  0  0  0  0  0  0  0  0  0  0  0  0  # atno 17371 bound_to 10713
  139.9802  134.7150  155.9874 LP  0  0  0  0  0  0  0  0  0  0  0  0  # atno 17394 bound_to 11000
  141.1511  133.6548  156.4017 LP  0  0  0  0  0  0  0  0  0  0  0  0  # atno 17395 bound_to 11000

$$$$
