AV-unprocessed.smi:1840|AV-procd|sdf|7493|dock9
  -GOLD-   22720 9193D 1   1.00000     0.00000
 Structure written by MMmdl.
 43 44  0  0  0  0  0  0  0  0  1 V2000
  150.4706  137.5405  155.9948 C   0  0  0  0  0  0  0  0  0  0  0  0
  149.2732  138.2331  155.3300 C   0  0  1  0  0  0  0  0  0  0  0  0
  149.7050  139.5123  154.5827 C   0  0  0  0  0  0  0  0  0  0  0  0
  148.5783  140.3518  154.2120 N   0  0  0  0  0  0  0  0  0  0  0  0
  148.3645  141.6805  154.5133 C   0  0  0  0  0  0  0  0  0  0  0  0
  147.1655  142.0340  153.9640 C   0  0  0  0  0  0  0  0  0  0  0  0
  146.7183  140.8401  153.3327 C   0  0  0  0  0  0  0  0  0  0  0  0
  147.5669  139.8357  153.4805 N   0  0  0  0  0  0  0  0  0  0  0  0
  148.6252  137.2926  154.4163 N   0  0  0  0  0  0  0  0  0  0  0  0
  147.5564  136.5359  154.7051 C   0  0  0  0  0  0  0  0  0  0  0  0
  146.9983  136.5182  155.8023 O   0  0  0  0  0  0  0  0  0  0  0  0
  147.1593  135.8169  153.6454 N   0  0  0  0  0  0  0  0  0  0  0  0
  146.0143  134.9045  153.6064 C   0  0  2  0  0  0  0  0  0  0  0  0
  146.5048  133.4563  153.4027 C   0  0  0  0  0  0  0  0  0  0  0  0
  147.0521  133.2185  151.9846 C   0  0  0  0  0  0  0  0  0  0  0  0
  146.0193  133.6095  150.9173 C   0  0  0  0  0  0  0  0  0  0  0  0
  145.5523  135.0624  151.0981 C   0  0  0  0  0  0  0  0  0  0  0  0
  144.9891  135.3054  152.5135 C   0  0  2  0  0  0  0  0  0  0  0  0
  144.4652  136.7432  152.6696 C   0  0  0  0  0  0  0  0  0  0  0  0
  150.9659  138.2064  156.7019 H   0  0  0  0  0  0  0  0  0  0  0  0
  151.2105  137.2299  155.2563 H   0  0  0  0  0  0  0  0  0  0  0  0
  150.1555  136.6533  156.5453 H   0  0  0  0  0  0  0  0  0  0  0  0
  148.5827  138.5142  156.1273 H   0  0  0  0  0  0  0  0  0  0  0  0
  150.3672  140.1068  155.2134 H   0  0  0  0  0  0  0  0  0  0  0  0
  150.2752  139.2587  153.6872 H   0  0  0  0  0  0  0  0  0  0  0  0
  149.0721  142.2542  155.0933 H   0  0  0  0  0  0  0  0  0  0  0  0
  146.6809  142.9978  154.0086 H   0  0  0  0  0  0  0  0  0  0  0  0
  145.8069  140.6735  152.7779 H   0  0  0  0  0  0  0  0  0  0  0  0
  149.0040  137.2372  153.4822 H   0  0  0  0  0  0  0  0  0  0  0  0
  147.6829  135.9152  152.7882 H   0  0  0  0  0  0  0  0  0  0  0  0
  145.5053  134.9339  154.5714 H   0  0  0  0  0  0  0  0  0  0  0  0
  147.2656  133.2066  154.1433 H   0  0  0  0  0  0  0  0  0  0  0  0
  145.6752  132.7708  153.5810 H   0  0  0  0  0  0  0  0  0  0  0  0
  147.9656  133.7960  151.8388 H   0  0  0  0  0  0  0  0  0  0  0  0
  147.3289  132.1707  151.8657 H   0  0  0  0  0  0  0  0  0  0  0  0
  146.4451  133.4775  149.9222 H   0  0  0  0  0  0  0  0  0  0  0  0
  145.1603  132.9399  150.9770 H   0  0  0  0  0  0  0  0  0  0  0  0
  146.3853  135.7401  150.9067 H   0  0  0  0  0  0  0  0  0  0  0  0
  144.7923  135.2943  150.3513 H   0  0  0  0  0  0  0  0  0  0  0  0
  144.1269  134.6473  152.6327 H   0  0  0  0  0  0  0  0  0  0  0  0
  145.2490  137.4767  152.4821 H   0  0  0  0  0  0  0  0  0  0  0  0
  144.0796  136.9149  153.6748 H   0  0  0  0  0  0  0  0  0  0  0  0
  143.6561  136.9429  151.9668 H   0  0  0  0  0  0  0  0  0  0  0  0
  1  2  1  0  0  0  0
  1 20  1  0  0  0  0
  1 21  1  0  0  0  0
  1 22  1  0  0  0  0
  2  3  1  0  0  0  0
  2  9  1  0  0  0  0
  2 23  1  0  0  0  0
  3  4  1  0  0  0  0
  3 24  1  0  0  0  0
  3 25  1  0  0  0  0
  4  8  1  0  0  0  0
  4  5  1  0  0  0  0
  5  6  2  0  0  0  0
  5 26  1  0  0  0  0
  6  7  1  0  0  0  0
  6 27  1  0  0  0  0
  7  8  2  0  0  0  0
  7 28  1  0  0  0  0
  9 10  1  0  0  0  0
  9 29  1  0  0  0  0
 10 11  2  0  0  0  0
 10 12  1  0  0  0  0
 12 13  1  0  0  0  0
 12 30  1  0  0  0  0
 13 18  1  0  0  0  0
 13 14  1  0  0  0  0
 13 31  1  0  0  0  0
 14 15  1  0  0  0  0
 14 32  1  0  0  0  0
 14 33  1  0  0  0  0
 15 16  1  0  0  0  0
 15 34  1  0  0  0  0
 15 35  1  0  0  0  0
 16 17  1  0  0  0  0
 16 36  1  0  0  0  0
 16 37  1  0  0  0  0
 17 18  1  0  0  0  0
 17 38  1  0  0  0  0
 17 39  1  0  0  0  0
 18 19  1  0  0  0  0
 18 40  1  0  0  0  0
 19 41  1  0  0  0  0
 19 42  1  0  0  0  0
 19 43  1  0  0  0  0
M  END
> <s_m_source_file>
AV-unprocessed.smi

> <i_m_source_file_index>
1840

> <i_lp_mmshare_version>
43012

> <i_f3d_flags>
0

> <s_epik_input>
bjFbY0hdW2NIXVtjSF1uMVtDSDJdW0NAQEhdKFtDSDNdKVtOSF1DKD1PKVtOSF1bQ0BASF0yW0NIMl1bQ0gyXVtDSDJdW0NIMl1bQ0BIXTJbQ0gzXQ==

> <s_epik_cmdline>
J2VwaWtfcHl0aG9uJywgJy1waCcsICc3LjAnLCAnLXRuJywgJzgnLCAnLW1hJywgJzIwMCcsICctbWV0YWxfYmluZGluZycsICctaW1hZScsICc8aW5maWxlLm1hZT4nLCAnLW9tYWUnLCAnPG91dGZpbGUubWFlPic=

> <r_lp_tautomer_probability>
1

> <r_epik_Ionization_Penalty>
7.38659e-05

> <r_epik_Ionization_Penalty_Charging>
0

> <r_epik_Ionization_Penalty_Neutral>
7.38659e-05

> <r_epik_State_Penalty>
-0

> <r_epik_Charging_Adjusted_Penalty>
0

> <i_epik_Tot_Q>
0

> <i_epik_Tot_abs_Q>
0

> <r_epik_Metal_State_Penalty>
-0

> <b_epik_Metal_Only>
0

> <s_lp_Force_Field>
OPLS_2005

> <r_lp_Energy>
6.71394

> <b_lp_Chiralities_Consistent>
1

> <s_lp_Variant>
AV-unprocessed.smi:1840-6

> <Gold.Version>
5.8.1

> <Gold.Id.Protein>
6NUR|6NUR_protein|mol2

> <Gold.PLP.Fitness>
38.9547

> <Gold.PLP.PLP>
-28.7377

> <Gold.PLP.part.hbond>
-2.0000

> <Gold.PLP.part.metal>
0.0000

> <Gold.PLP.part.buried>
-3.5515

> <Gold.PLP.part.nonpolar>
-24.7009

> <Gold.PLP.part.repulsive>
0.6284

> <Gold.PLP.ligand.clash>
0.0000

> <Gold.PLP.ligand.torsion>
0.4306

> <Gold.PLP.Chemscore.Hbond>
1.8800

> <Gold.PLP.Chemscore.CHOScore>
1.8033

> <Gold.PLP.Chemscore.Metal>
0.0000

> <Gold.Chemscore.Hbonds>
donor molecule, donor type, donor heavy atom, donor atom, acceptor molecule, acceptor atom, score
      L1  H     9    29       P1  7948  0.90
      L1  H    12    30       P1  7948  1.00
      L1  C     5    26       P1  8028  0.91
      L1  C     7    28       P1 10175  1.00

> <Gold.PLP.Chemscore.Internal.Correction>
0.0284

> <Gold.Rescore>
     Score         DG    S(hbond)    S(metal)    S(lipo)     H(rot)  DE(clash)    DE(int)     intcor
     15.03     -15.54       1.88        0.00      66.51       1.56       0.05       0.45       ----

> <Gold.Chemscore.Fitness>
15.0346

> <Gold.Chemscore.DG>
-15.5389

> <Gold.Chemscore.ZeroCoef>
-5.4800

> <Gold.Chemscore.Hbond>
1.8758

> <Gold.Chemscore.Metal>
0.0000

> <Gold.Chemscore.Lipo>
66.5073

> <Gold.Chemscore.Internal_Hbond>
0.0000

> <Gold.Chemscore.DEClash>
0.0513

> <Gold.Chemscore.DEInternal>
0.4529

> <Gold.Chemscore.Rot>
1.5576

> <Gold.Chemscore.Internal.Correction>
   9.000000E+99

> <Gold.Chemscore.Hbonds>
donor molecule, donor type, donor heavy atom, donor atom, acceptor molecule, acceptor atom, score
      L1  H     9    29       P1  7948  0.88
      L1  H    12    30       P1  7948  0.97

> <Gold.Chemscore.Hbond.Weighted>
-6.2650

> <Gold.Chemscore.Metal.Weighted>
-0.0000

> <Gold.Chemscore.Lipo.Weighted>
-7.7814

> <Gold.Chemscore.Internal_Hbond.Weighted>
0.0000

> <Gold.Chemscore.DEClash.Weighted>
0.0513

> <Gold.Chemscore.DEInternal.Weighted>
0.4529

> <Gold.Chemscore.Rot.Weighted>
3.9875

> <Gold.Chemscore.Internal.Correction.Weighted>
   9.000000E+99

> <Gold.Protein.RotatedTorsions>
[ 6907 6896 6895 6894 ] final   55.56 input  -60.11 | X-H torsion
[ 7974 7965 7964 7962 ] final   89.31 input  175.53 | X-H torsion
[ 8008 7997 7996 7995 ] final   -7.21 input   59.86 | X-H torsion
[ 10167 10162 10161 10158 ] final  -30.58 input  -65.29 | X-H torsion
[ 10718 10713 10712 10709 ] final    4.51 input   66.30 | X-H torsion
[ 10763 10752 10751 10750 ] final  134.98 input  -60.55 | X-H torsion
[ 11005 11000 10999 10996 ] final  -75.52 input  -57.11 | X-H torsion

> <Gold.Protein.ActiveResidues>
 VAL166  LYS551  ARG553  GLY616  TRP617  ASP618  TYR619  PRO620  LYS621  CYS622 
 ASP623  PHE694  ASN695  SER759  ASP760  ASP761  ALA762  ILE779  LEU786  VAL792 
 PHE793  MET794  SER795  GLU796  ALA797  LYS798  CYS799  TRP800  GLU811  SER814 

> <Gold.Protein.RotatedAtoms>
  152.3550  134.6952  160.0224 H   0  0  0  0  0  0  0  0  0  0  0  0  # atno 6907 bound_to 6896
  151.7294  133.3312  159.3344 H   0  0  0  0  0  0  0  0  0  0  0  0  # atno 6908 bound_to 6896
  150.7565  134.6311  159.6231 H   0  0  0  0  0  0  0  0  0  0  0  0  # atno 6909 bound_to 6896
  145.5340  139.2285  143.2603 H   0  0  0  0  0  0  0  0  0  0  0  0  # atno 7974 bound_to 7965
  154.5861  140.2413  155.7986 H   0  0  0  0  0  0  0  0  0  0  0  0  # atno 8008 bound_to 7997
  156.2214  140.2996  155.9916 H   0  0  0  0  0  0  0  0  0  0  0  0  # atno 8009 bound_to 7997
  155.2456  140.0408  157.2971 H   0  0  0  0  0  0  0  0  0  0  0  0  # atno 8010 bound_to 7997
  140.7247  143.3838  151.1553 H   0  0  0  0  0  0  0  0  0  0  0  0  # atno 10167 bound_to 10162
  156.8937  130.5697  149.5649 H   0  0  0  0  0  0  0  0  0  0  0  0  # atno 10718 bound_to 10713
  153.8324  135.3102  155.3420 H   0  0  0  0  0  0  0  0  0  0  0  0  # atno 10763 bound_to 10752
  154.7967  135.4751  154.0181 H   0  0  0  0  0  0  0  0  0  0  0  0  # atno 10764 bound_to 10752
  153.1626  135.6863  153.8812 H   0  0  0  0  0  0  0  0  0  0  0  0  # atno 10765 bound_to 10752
  141.1646  133.6950  156.7530 H   0  0  0  0  0  0  0  0  0  0  0  0  # atno 11005 bound_to 11000
  146.2025  140.6158  142.9096 LP  0  0  0  0  0  0  0  0  0  0  0  0  # atno 17320 bound_to 7965
  144.7611  140.5423  143.6735 LP  0  0  0  0  0  0  0  0  0  0  0  0  # atno 17321 bound_to 7965
  139.7431  143.8894  152.3056 LP  0  0  0  0  0  0  0  0  0  0  0  0  # atno 17342 bound_to 10162
  139.8722  144.7062  150.8975 LP  0  0  0  0  0  0  0  0  0  0  0  0  # atno 17343 bound_to 10162
  156.0616  130.5668  150.9204 LP  0  0  0  0  0  0  0  0  0  0  0  0  # atno 17370 bound_to 10713
  157.6068  131.0938  150.8865 LP  0  0  0  0  0  0  0  0  0  0  0  0  # atno 17371 bound_to 10713
  140.2590  134.8481  157.3740 LP  0  0  0  0  0  0  0  0  0  0  0  0  # atno 17394 bound_to 11000
  140.1629  134.4706  155.7882 LP  0  0  0  0  0  0  0  0  0  0  0  0  # atno 17395 bound_to 11000

$$$$
