AV-unprocessed.smi:848|AV-procd|sdf|3940|dock10
  -GOLD-   22720 1403D 1   1.00000     0.00000
 Structure written by MMmdl.
 46 48  0  0  0  0  0  0  0  0  1 V2000
  148.1097  136.0022  163.0008 C   0  0  0  0  0  0  0  0  0  0  0  0
  148.4135  135.4933  161.6067 C   0  0  0  0  0  0  0  0  0  0  0  0
  148.1382  134.1550  161.2619 C   0  0  0  0  0  0  0  0  0  0  0  0
  148.4278  133.6861  159.9657 C   0  0  0  0  0  0  0  0  0  0  0  0
  148.1264  132.2496  159.5908 C   0  0  0  0  0  0  0  0  0  0  0  0
  148.9937  134.5604  159.0159 C   0  0  0  0  0  0  0  0  0  0  0  0
  149.2749  135.9024  159.3441 C   0  0  0  0  0  0  0  0  0  0  0  0
  149.8307  136.6832  158.3536 O   0  0  0  0  0  0  0  0  0  0  0  0
  150.1106  138.0471  158.6444 C   0  0  0  0  0  0  0  0  0  0  0  0
  151.6079  138.2271  158.9462 C   0  0  1  0  0  0  0  0  0  0  0  0
  152.1541  136.9858  159.3457 O   0  0  0  0  0  0  0  0  0  0  0  0
  152.4071  138.8534  157.7848 C   0  0  0  0  0  0  0  0  0  0  0  0
  151.9009  140.1660  157.4062 N   0  0  0  0  0  0  0  0  0  0  0  0
  151.2417  140.5221  156.2742 C   0  0  0  0  0  0  0  0  0  0  0  0
  150.9288  139.5206  155.1984 C   0  0  0  0  0  0  0  0  0  0  0  0
  150.2383  140.0636  154.0910 O   0  0  0  0  0  0  0  0  0  0  0  0
  150.8881  141.8076  156.1949 N   0  0  0  0  0  0  0  0  0  0  0  0
  151.3650  142.3314  157.3798 C   0  0  0  0  0  0  0  0  0  0  0  0
  151.3079  143.6474  157.8918 C   0  0  0  0  0  0  0  0  0  0  0  0
  151.8717  143.9493  159.1489 C   0  0  0  0  0  0  0  0  0  0  0  0
  152.4993  142.9419  159.9101 C   0  0  0  0  0  0  0  0  0  0  0  0
  152.5673  141.6243  159.4179 C   0  0  0  0  0  0  0  0  0  0  0  0
  152.0032  141.3288  158.1625 C   0  0  0  0  0  0  0  0  0  0  0  0
  148.9778  136.3635  160.6515 C   0  0  0  0  0  0  0  0  0  0  0  0
  147.5883  135.2509  163.5946 H   0  0  0  0  0  0  0  0  0  0  0  0
  147.4816  136.8920  162.9516 H   0  0  0  0  0  0  0  0  0  0  0  0
  149.0345  136.2626  163.5163 H   0  0  0  0  0  0  0  0  0  0  0  0
  147.7044  133.4864  161.9915 H   0  0  0  0  0  0  0  0  0  0  0  0
  148.8448  131.8795  158.8587 H   0  0  0  0  0  0  0  0  0  0  0  0
  147.1276  132.1768  159.1599 H   0  0  0  0  0  0  0  0  0  0  0  0
  148.1716  131.6000  160.4654 H   0  0  0  0  0  0  0  0  0  0  0  0
  149.2148  134.2005  158.0215 H   0  0  0  0  0  0  0  0  0  0  0  0
  149.8516  138.6522  157.7740 H   0  0  0  0  0  0  0  0  0  0  0  0
  149.5130  138.4032  159.4854 H   0  0  0  0  0  0  0  0  0  0  0  0
  151.6907  138.8817  159.8145 H   0  0  0  0  0  0  0  0  0  0  0  0
  153.0764  136.9826  159.1397 H   0  0  0  0  0  0  0  0  0  0  0  0
  153.4649  138.9313  158.0355 H   0  0  0  0  0  0  0  0  0  0  0  0
  152.3535  138.2058  156.9090 H   0  0  0  0  0  0  0  0  0  0  0  0
  151.8537  139.0755  154.8334 H   0  0  0  0  0  0  0  0  0  0  0  0
  150.3271  138.7188  155.6266 H   0  0  0  0  0  0  0  0  0  0  0  0
  149.6332  139.4146  153.7671 H   0  0  0  0  0  0  0  0  0  0  0  0
  150.8288  144.4254  157.3161 H   0  0  0  0  0  0  0  0  0  0  0  0
  151.8220  144.9586  159.5305 H   0  0  0  0  0  0  0  0  0  0  0  0
  152.9277  143.1816  160.8722 H   0  0  0  0  0  0  0  0  0  0  0  0
  153.0468  140.8501  159.9982 H   0  0  0  0  0  0  0  0  0  0  0  0
  149.1763  137.3825  160.9466 H   0  0  0  0  0  0  0  0  0  0  0  0
  1  2  1  0  0  0  0
  1 25  1  0  0  0  0
  1 26  1  0  0  0  0
  1 27  1  0  0  0  0
  2 24  1  0  0  0  0
  2  3  2  0  0  0  0
  3  4  1  0  0  0  0
  3 28  1  0  0  0  0
  4  5  1  0  0  0  0
  4  6  2  0  0  0  0
  5 29  1  0  0  0  0
  5 30  1  0  0  0  0
  5 31  1  0  0  0  0
  6  7  1  0  0  0  0
  6 32  1  0  0  0  0
  7  8  1  0  0  0  0
  7 24  2  0  0  0  0
  8  9  1  0  0  0  0
  9 10  1  0  0  0  0
  9 33  1  0  0  0  0
  9 34  1  0  0  0  0
 10 11  1  0  0  0  0
 10 12  1  0  0  0  0
 10 35  1  0  0  0  0
 11 36  1  0  0  0  0
 12 13  1  0  0  0  0
 12 37  1  0  0  0  0
 12 38  1  0  0  0  0
 13 23  1  0  0  0  0
 13 14  1  0  0  0  0
 14 15  1  0  0  0  0
 14 17  2  0  0  0  0
 15 16  1  0  0  0  0
 15 39  1  0  0  0  0
 15 40  1  0  0  0  0
 16 41  1  0  0  0  0
 17 18  1  0  0  0  0
 18 23  2  0  0  0  0
 18 19  1  0  0  0  0
 19 20  2  0  0  0  0
 19 42  1  0  0  0  0
 20 21  1  0  0  0  0
 20 43  1  0  0  0  0
 21 22  2  0  0  0  0
 21 44  1  0  0  0  0
 22 23  1  0  0  0  0
 22 45  1  0  0  0  0
 24 46  1  0  0  0  0
M  END
> <s_m_source_file>
AV-unprocessed.smi

> <i_m_source_file_index>
848

> <i_lp_mmshare_version>
43012

> <i_f3d_flags>
0

> <s_epik_input>
W0NIM11jMVtjSF1jKFtDSDNdKVtjSF1jKFtjSF0xKU9bQ0gyXVtDQEhdKFtPSF0pW0NIMl1uKGMobjIpW0NIMl1bT0hdKWMoYzIzKVtjSF1bY0hdW2NIXVtjSF0z

> <s_epik_cmdline>
J2VwaWtfcHl0aG9uJywgJy1waCcsICc3LjAnLCAnLXRuJywgJzgnLCAnLW1hJywgJzIwMCcsICctbWV0YWxfYmluZGluZycsICctaW1hZScsICc8aW5maWxlLm1hZT4nLCAnLW9tYWUnLCAnPG91dGZpbGUubWFlPic=

> <r_lp_tautomer_probability>
1

> <r_epik_Ionization_Penalty>
0.0554234

> <r_epik_Ionization_Penalty_Charging>
0

> <r_epik_Ionization_Penalty_Neutral>
0.0554234

> <r_epik_State_Penalty>
0.0476717

> <r_epik_Charging_Adjusted_Penalty>
0.0476717

> <i_epik_Tot_Q>
0

> <i_epik_Tot_abs_Q>
0

> <r_epik_Metal_State_Penalty>
4.96399e-05

> <b_epik_Metal_Only>
0

> <s_lp_Force_Field>
OPLS_2005

> <r_lp_Energy>
17.6838

> <b_lp_Chiralities_Consistent>
1

> <s_lp_Variant>
AV-unprocessed.smi:848-2

> <Gold.Version>
5.8.1

> <Gold.Id.Protein>
6NUR|6NUR_protein|mol2

> <Gold.PLP.Fitness>
51.9848

> <Gold.PLP.PLP>
-47.8205

> <Gold.PLP.part.hbond>
-2.8738

> <Gold.PLP.part.metal>
0.0000

> <Gold.PLP.part.buried>
-4.9434

> <Gold.PLP.part.nonpolar>
-40.1685

> <Gold.PLP.part.repulsive>
0.0745

> <Gold.PLP.ligand.clash>
0.0000

> <Gold.PLP.ligand.torsion>
0.9590

> <Gold.PLP.Chemscore.Hbond>
1.9920

> <Gold.PLP.Chemscore.CHOScore>
0.0000

> <Gold.PLP.Chemscore.Metal>
0.0000

> <Gold.Chemscore.Hbonds>
donor molecule, donor type, donor heavy atom, donor atom, acceptor molecule, acceptor atom, score
      P1  H  6896  6907       L1    11  0.65
      P1  H  7989  7998       L1    16  0.70

> <Gold.PLP.Chemscore.Internal.Correction>
0.1062

> <Gold.Rescore>
     Score         DG    S(hbond)    S(metal)    S(lipo)     H(rot)  DE(clash)    DE(int)     intcor
     16.78     -18.11       1.56        0.00     128.16       2.96       0.38       0.95       ----

> <Gold.Chemscore.Fitness>
16.7812

> <Gold.Chemscore.DG>
-18.1123

> <Gold.Chemscore.ZeroCoef>
-5.4800

> <Gold.Chemscore.Hbond>
1.5584

> <Gold.Chemscore.Metal>
0.0000

> <Gold.Chemscore.Lipo>
128.1630

> <Gold.Chemscore.Internal_Hbond>
0.0000

> <Gold.Chemscore.DEClash>
0.3819

> <Gold.Chemscore.DEInternal>
0.9493

> <Gold.Chemscore.Rot>
2.9561

> <Gold.Chemscore.Internal.Correction>
   9.000000E+99

> <Gold.Chemscore.Hbonds>
donor molecule, donor type, donor heavy atom, donor atom, acceptor molecule, acceptor atom, score
      P1  H  6896  6907       L1    11  0.59
      P1  H  7989  7998       L1    16  0.07

> <Gold.Chemscore.Hbond.Weighted>
-5.2049

> <Gold.Chemscore.Metal.Weighted>
-0.0000

> <Gold.Chemscore.Lipo.Weighted>
-14.9951

> <Gold.Chemscore.Internal_Hbond.Weighted>
0.0000

> <Gold.Chemscore.DEClash.Weighted>
0.3819

> <Gold.Chemscore.DEInternal.Weighted>
0.9493

> <Gold.Chemscore.Rot.Weighted>
7.5677

> <Gold.Chemscore.Internal.Correction.Weighted>
   9.000000E+99

> <Gold.Protein.RotatedTorsions>
[ 6907 6896 6895 6894 ] final  -17.67 input  -60.11 | X-H torsion
[ 7974 7965 7964 7962 ] final  129.67 input  175.53 | X-H torsion
[ 8008 7997 7996 7995 ] final  -90.59 input   59.86 | X-H torsion
[ 10167 10162 10161 10158 ] final  -40.70 input  -65.29 | X-H torsion
[ 10718 10713 10712 10709 ] final   84.98 input   66.30 | X-H torsion
[ 10763 10752 10751 10750 ] final -100.05 input  -60.55 | X-H torsion
[ 11005 11000 10999 10996 ] final  -63.97 input  -57.11 | X-H torsion

> <Gold.Protein.ActiveResidues>
 VAL166  LYS551  ARG553  GLY616  TRP617  ASP618  TYR619  PRO620  LYS621  CYS622 
 ASP623  PHE694  ASN695  SER759  ASP760  ASP761  ALA762  ILE779  LEU786  VAL792 
 PHE793  MET794  SER795  GLU796  ALA797  LYS798  CYS799  TRP800  GLU811  SER814 

> <Gold.Protein.RotatedAtoms>
  151.2899  135.0739  159.9199 H   0  0  0  0  0  0  0  0  0  0  0  0  # atno 6907 bound_to 6896
  152.5318  133.9943  159.7875 H   0  0  0  0  0  0  0  0  0  0  0  0  # atno 6908 bound_to 6896
  151.0211  133.5825  159.2702 H   0  0  0  0  0  0  0  0  0  0  0  0  # atno 6909 bound_to 6896
  145.0261  139.4087  143.5173 H   0  0  0  0  0  0  0  0  0  0  0  0  # atno 7974 bound_to 7965
  154.7004  140.0529  157.0452 H   0  0  0  0  0  0  0  0  0  0  0  0  # atno 8008 bound_to 7997
  155.0692  140.3198  155.4617 H   0  0  0  0  0  0  0  0  0  0  0  0  # atno 8009 bound_to 7997
  156.2758  140.2085  156.5820 H   0  0  0  0  0  0  0  0  0  0  0  0  # atno 8010 bound_to 7997
  140.7026  143.3138  151.2961 H   0  0  0  0  0  0  0  0  0  0  0  0  # atno 10167 bound_to 10162
  157.6907  131.0156  150.2754 H   0  0  0  0  0  0  0  0  0  0  0  0  # atno 10718 bound_to 10713
  154.7548  135.4949  153.9354 H   0  0  0  0  0  0  0  0  0  0  0  0  # atno 10763 bound_to 10752
  153.1183  135.6726  153.9387 H   0  0  0  0  0  0  0  0  0  0  0  0  # atno 10764 bound_to 10752
  153.9127  135.3097  155.3427 H   0  0  0  0  0  0  0  0  0  0  0  0  # atno 10765 bound_to 10752
  141.1410  133.6659  156.5761 H   0  0  0  0  0  0  0  0  0  0  0  0  # atno 11005 bound_to 11000
  146.3492  139.9786  142.8698 LP  0  0  0  0  0  0  0  0  0  0  0  0  # atno 17320 bound_to 7965
  145.1831  140.9776  143.4255 LP  0  0  0  0  0  0  0  0  0  0  0  0  # atno 17321 bound_to 7965
  139.6570  144.0259  152.2666 LP  0  0  0  0  0  0  0  0  0  0  0  0  # atno 17342 bound_to 10162
  139.9813  144.6426  150.7898 LP  0  0  0  0  0  0  0  0  0  0  0  0  # atno 17343 bound_to 10162
  156.3310  130.3800  149.7491 LP  0  0  0  0  0  0  0  0  0  0  0  0  # atno 17370 bound_to 10713
  156.5031  130.8137  151.3140 LP  0  0  0  0  0  0  0  0  0  0  0  0  # atno 17371 bound_to 10713
  140.3874  134.7470  157.4700 LP  0  0  0  0  0  0  0  0  0  0  0  0  # atno 17394 bound_to 11000
  140.0592  134.6020  155.8769 LP  0  0  0  0  0  0  0  0  0  0  0  0  # atno 17395 bound_to 11000

$$$$
