#       Name:                AV-unprocessed.smi:103
#       Creating user name   scv26
#       Creation time:       Thu Mar 26 17:53:29 2020


#       File generated by GOLD software.
#

@<TRIPOS>MOLECULE
AV-unprocessed.smi:103
    64    66     1
SMALL
NO_CHARGES


@<TRIPOS>ATOM
      1 ****        -3.2347   1.5235  -4.5661 C.3            1 S1                 0.0000
      2 ****        -2.8461   0.6035  -3.4160 C.2            1 S1                 0.0000
      3 ****        -1.9899  -0.2702  -3.5579 O.2            1 S1                 0.0000
      4 ****        -3.5309   0.8686  -2.2873 O.3            1 S1                 0.0000
      5 ****        -3.2840   0.1221  -1.1034 C.3            1 S1                 0.0000
      6 ****        -2.2080   0.8055  -0.2373 C.3            1 S1                 0.0000
      7 ****        -0.9238   0.6521  -0.8287 O.3            1 S1                 0.0000
      8 ****        -0.3943  -0.5843  -0.4722 C.3            1 S1                 0.0000
      9 ****         1.0936  -0.4394  -0.3607 N.pl3          1 S1                 0.0000
     10 ****         2.0928  -1.2836  -0.8003 C.2            1 S1                 0.0000
     11 ****         1.8695  -2.8057  -1.7129 S.o2           1 S1                 0.0000
     12 ****         1.5640  -2.1824  -3.4158 C.3            1 S1                 0.0000
     13 ****         3.1549  -3.5209  -1.6776 O.2            1 S1                 0.0000
     14 ****         0.6454  -3.4431  -1.2046 O.2            1 S1                 0.0000
     15 ****         3.3217  -0.8839  -0.6157 N.2            1 S1                 0.0000
     16 ****         3.1626   0.3149   0.0654 C.ar           1 S1                 0.0000
     17 ****         4.0623   1.2695   0.6031 C.ar           1 S1                 0.0000
     18 ****         5.3941   1.1420   0.5281 N.pl3          1 S1                 0.0000
     19 ****         3.5547   2.3601   1.2233 N.ar           1 S1                 0.0000
     20 ****         2.2294   2.5112   1.3096 C.ar           1 S1                 0.0000
     21 ****         1.2664   1.7076   0.8521 N.ar           1 S1                 0.0000
     22 ****         1.7780   0.6046   0.2309 C.ar           1 S1                 0.0000
     23 ****        -1.0710  -1.0166   0.8467 C.3            1 S1                 0.0000
     24 ****        -0.1523  -1.2228   1.9195 O.3            1 S1                 0.0000
     25 ****         0.2231  -2.4609   2.2780 C.2            1 S1                 0.0000
     26 ****         1.2373  -2.4475   3.4133 C.3            1 S1                 0.0000
     27 ****        -0.1686  -3.5146   1.7778 O.2            1 S1                 0.0000
     28 ****        -2.0413   0.1291   1.1296 C.3            1 S1                 0.0000
     29 ****        -1.4845   1.0577   2.0558 O.3            1 S1                 0.0000
     30 ****        -2.2764   1.8554   2.7894 C.2            1 S1                 0.0000
     31 ****        -1.4793   2.7644   3.7149 C.3            1 S1                 0.0000
     32 ****        -3.5062   1.8915   2.7508 O.2            1 S1                 0.0000
     33 ****        -2.4337   2.2359  -4.7638 H              1 S1                 0.0000
     34 ****        -4.1421   2.0804  -4.3310 H              1 S1                 0.0000
     35 ****        -3.4125   0.9425  -5.4711 H              1 S1                 0.0000
     36 ****        -4.2197   0.0899  -0.5450 H              1 S1                 0.0000
     37 ****        -3.0263  -0.9143  -1.3265 H              1 S1                 0.0000
     38 ****        -2.4515   1.8637  -0.1341 H              1 S1                 0.0000
     39 ****        -0.5641  -1.2866  -1.2852 H              1 S1                 0.0000
     40 ****         1.4040  -3.0259  -4.0867 H              1 S1                 0.0000
     41 ****         2.4273  -1.6089  -3.7528 H              1 S1                 0.0000
     42 ****         0.6814  -1.5434  -3.4200 H              1 S1                 0.0000
     43 ****         5.7967   0.3361   0.0716 H              1 S1                 0.0000
     44 ****         5.9922   1.8511   0.9268 H              1 S1                 0.0000
     45 ****         1.8912   3.4030   1.8162 H              1 S1                 0.0000
     46 ****        -1.6506  -1.9159   0.6336 H              1 S1                 0.0000
     47 ****         2.1211  -1.8791   3.1230 H              1 S1                 0.0000
     48 ****         1.5464  -3.4625   3.6638 H              1 S1                 0.0000
     49 ****         0.8043  -1.9879   4.3018 H              1 S1                 0.0000
     50 ****        -2.9861  -0.2585   1.5141 H              1 S1                 0.0000
     51 ****        -0.8912   2.1700   4.4143 H              1 S1                 0.0000
     52 ****        -2.1455   3.4119   4.2852 H              1 S1                 0.0000
     53 ****        -0.8001   3.3903   3.1358 H              1 S1                 0.0000
     54 ****        -1.5352  -0.3860  -4.4411 LP             1 S1                 0.0000
     55 ****        -1.7493  -0.8639  -2.7900 LP             1 S1                 0.0000
     56 ****        -0.3187   1.3797  -0.5054 LP             1 S1                 0.0000
     57 ****        -1.0065   0.7050  -1.8239 LP             1 S1                 0.0000
     58 ****         4.1705  -1.3320  -0.8965 LP             1 S1                 0.0000
     59 ****         4.1666   3.0478   1.6140 LP             1 S1                 0.0000
     60 ****         0.2885   1.8913   0.9523 LP             1 S1                 0.0000
     61 ****        -0.8309  -3.4967   1.0288 LP             1 S1                 0.0000
     62 ****         0.1754  -4.3889   2.1202 LP             1 S1                 0.0000
     63 ****        -4.0049   1.2874   2.1292 LP             1 S1                 0.0000
     64 ****        -4.0066   2.5249   3.3410 LP             1 S1                 0.0000
@<TRIPOS>BOND
    1    1    2 1     
    2    1   33 1     
    3    1   34 1     
    4    1   35 1     
    5    2    3 2     
    6    2    4 1     
    7    4    5 1     
    8    5    6 1     
    9    5   36 1     
   10    5   37 1     
   11    6   28 1     
   12    6    7 1     
   13    6   38 1     
   14    7    8 1     
   15    8    9 1     
   16    8   23 1     
   17    8   39 1     
   18    9   22 1     
   19    9   10 1     
   20   10   11 1     
   21   10   15 2     
   22   11   12 1     
   23   11   13 2     
   24   11   14 2     
   25   12   40 1     
   26   12   41 1     
   27   12   42 1     
   28   15   16 1     
   29   16   22 ar    
   30   16   17 ar    
   31   17   18 1     
   32   17   19 ar    
   33   18   43 1     
   34   18   44 1     
   35   19   20 ar    
   36   20   21 ar    
   37   20   45 1     
   38   21   22 ar    
   39   23   24 1     
   40   23   28 1     
   41   23   46 1     
   42   24   25 1     
   43   25   26 1     
   44   25   27 2     
   45   26   47 1     
   46   26   48 1     
   47   26   49 1     
   48   28   29 1     
   49   28   50 1     
   50   29   30 1     
   51   30   31 1     
   52   30   32 2     
   53   31   51 1     
   54   31   52 1     
   55   31   53 1     
   56    3   54 1     
   57    3   55 1     
   58    7   56 1     
   59    7   57 1     
   60   15   58 1     
   61   19   59 1     
   62   21   60 1     
   63   27   61 1     
   64   27   62 1     
   65   32   63 1     
   66   32   64 1     
@<TRIPOS>SUBSTRUCTURE
      1 S1             1
@<TRIPOS>SET
LONE_PAIRS      STATIC     ATOMS    <user>   **** ""
13 54 55 56 57 13 14 58 59 60 61 62 63 64
DONOR_HYDROGENS      STATIC     ATOMS    <user>   **** ""
2 43 44
ATOM$BLUE        STATIC     ATOMS    COLORGROUP SYSTEM
13 54 55 56 57 13 14 58 59 60 61 62 63 64
ATOM$RED        STATIC     ATOMS    COLORGROUP SYSTEM
2 43 44
