AV-unprocessed.smi:895|AV-procd|sdf|4076|dock1
  -GOLD-   22720 1563D 1   1.00000     0.00000
 Structure written by MMmdl.
 44 45  0  0  0  0  0  0  0  0  1 V2000
  146.7987  139.3623  152.6334 C   0  0  0  0  0  0  0  0  0  0  0  0
  147.2100  140.3006  153.7849 C   0  0  0  0  0  0  0  0  0  0  0  0
  146.7440  141.7378  153.4977 C   0  0  0  0  0  0  0  0  0  0  0  0
  146.5245  139.8960  154.9538 O   0  0  0  0  0  0  0  0  0  0  0  0
  148.7298  140.2874  154.0808 C   0  0  0  0  0  0  0  0  0  0  0  0
  149.1343  141.2943  155.0577 N   0  0  0  0  0  0  0  0  0  0  0  0
  150.3339  141.3523  155.6511 C   0  0  0  0  0  0  0  0  0  0  0  0
  151.2330  140.5313  155.4703 O   0  0  0  0  0  0  0  0  0  0  0  0
  150.4300  142.4153  156.4616 N   0  0  0  0  0  0  0  0  0  0  0  0
  151.5949  142.7690  157.2720 C   0  0  1  0  0  0  0  0  0  0  0  0
  151.5318  144.2721  157.6071 C   0  0  0  0  0  0  0  0  0  0  0  0
  152.6770  144.6961  158.5389 C   0  0  0  0  0  0  0  0  0  0  0  0
  152.6855  143.8543  159.8228 C   0  0  0  0  0  0  0  0  0  0  0  0
  152.7771  142.3566  159.4963 C   0  0  0  0  0  0  0  0  0  0  0  0
  151.6326  141.9103  158.5622 C   0  0  2  0  0  0  0  0  0  0  0  0
  151.7242  140.4848  158.2706 N   0  0  0  0  0  0  0  0  0  0  0  0
  150.8094  139.4968  158.5703 C   0  0  0  0  0  0  0  0  0  0  0  0
  151.3106  138.3177  158.0985 C   0  0  0  0  0  0  0  0  0  0  0  0
  152.5548  138.6886  157.5171 C   0  0  0  0  0  0  0  0  0  0  0  0
  152.8013  139.9836  157.6242 N   0  0  0  0  0  0  0  0  0  0  0  0
  147.3307  139.6117  151.7150 H   0  0  0  0  0  0  0  0  0  0  0  0
  145.7309  139.4371  152.4255 H   0  0  0  0  0  0  0  0  0  0  0  0
  147.0070  138.3171  152.8642 H   0  0  0  0  0  0  0  0  0  0  0  0
  147.2199  142.1332  152.5996 H   0  0  0  0  0  0  0  0  0  0  0  0
  146.9894  142.4090  154.3218 H   0  0  0  0  0  0  0  0  0  0  0  0
  145.6651  141.7855  153.3447 H   0  0  0  0  0  0  0  0  0  0  0  0
  146.7347  138.9912  155.1283 H   0  0  0  0  0  0  0  0  0  0  0  0
  149.0009  139.3232  154.5119 H   0  0  0  0  0  0  0  0  0  0  0  0
  149.3101  140.3725  153.1598 H   0  0  0  0  0  0  0  0  0  0  0  0
  148.4610  142.0148  155.2730 H   0  0  0  0  0  0  0  0  0  0  0  0
  149.6306  143.0275  156.5309 H   0  0  0  0  0  0  0  0  0  0  0  0
  152.5158  142.5951  156.7121 H   0  0  0  0  0  0  0  0  0  0  0  0
  151.5702  144.8601  156.6891 H   0  0  0  0  0  0  0  0  0  0  0  0
  150.5780  144.5059  158.0829 H   0  0  0  0  0  0  0  0  0  0  0  0
  153.6305  144.5846  158.0211 H   0  0  0  0  0  0  0  0  0  0  0  0
  152.5814  145.7532  158.7879 H   0  0  0  0  0  0  0  0  0  0  0  0
  153.5231  144.1486  160.4556 H   0  0  0  0  0  0  0  0  0  0  0  0
  151.7790  144.0506  160.3965 H   0  0  0  0  0  0  0  0  0  0  0  0
  153.7424  142.1513  159.0315 H   0  0  0  0  0  0  0  0  0  0  0  0
  152.7509  141.7778  160.4201 H   0  0  0  0  0  0  0  0  0  0  0  0
  150.6940  142.0654  159.0975 H   0  0  0  0  0  0  0  0  0  0  0  0
  149.8860  139.7135  159.0868 H   0  0  0  0  0  0  0  0  0  0  0  0
  150.8567  137.3397  158.1585 H   0  0  0  0  0  0  0  0  0  0  0  0
  153.2815  138.0597  157.0245 H   0  0  0  0  0  0  0  0  0  0  0  0
  1  2  1  0  0  0  0
  1 21  1  0  0  0  0
  1 22  1  0  0  0  0
  1 23  1  0  0  0  0
  2  3  1  0  0  0  0
  2  4  1  0  0  0  0
  2  5  1  0  0  0  0
  3 24  1  0  0  0  0
  3 25  1  0  0  0  0
  3 26  1  0  0  0  0
  4 27  1  0  0  0  0
  5  6  1  0  0  0  0
  5 28  1  0  0  0  0
  5 29  1  0  0  0  0
  6  7  1  0  0  0  0
  6 30  1  0  0  0  0
  7  8  2  0  0  0  0
  7  9  1  0  0  0  0
  9 10  1  0  0  0  0
  9 31  1  0  0  0  0
 10 15  1  0  0  0  0
 10 11  1  0  0  0  0
 10 32  1  0  0  0  0
 11 12  1  0  0  0  0
 11 33  1  0  0  0  0
 11 34  1  0  0  0  0
 12 13  1  0  0  0  0
 12 35  1  0  0  0  0
 12 36  1  0  0  0  0
 13 14  1  0  0  0  0
 13 37  1  0  0  0  0
 13 38  1  0  0  0  0
 14 15  1  0  0  0  0
 14 39  1  0  0  0  0
 14 40  1  0  0  0  0
 15 16  1  0  0  0  0
 15 41  1  0  0  0  0
 16 20  1  0  0  0  0
 16 17  1  0  0  0  0
 17 18  2  0  0  0  0
 17 42  1  0  0  0  0
 18 19  1  0  0  0  0
 18 43  1  0  0  0  0
 19 20  2  0  0  0  0
 19 44  1  0  0  0  0
M  END
> <s_m_source_file>
AV-unprocessed.smi

> <i_m_source_file_index>
895

> <i_lp_mmshare_version>
43012

> <i_f3d_flags>
0

> <s_epik_input>
W0NIM11DKFtDSDNdKShbT0hdKVtDSDJdW05IXUMoPU8pW05IXVtDQEBIXTFbQ0gyXVtDSDJdW0NIMl1bQ0gyXVtDQEhdMW4yW2NIXVtjSF1bY0hdbjI=

> <s_epik_cmdline>
J2VwaWtfcHl0aG9uJywgJy1waCcsICc3LjAnLCAnLXRuJywgJzgnLCAnLW1hJywgJzIwMCcsICctbWV0YWxfYmluZGluZycsICctaW1hZScsICc8aW5maWxlLm1hZT4nLCAnLW9tYWUnLCAnPG91dGZpbGUubWFlPic=

> <r_lp_tautomer_probability>
1

> <r_epik_Ionization_Penalty>
0.000440451

> <r_epik_Ionization_Penalty_Charging>
0

> <r_epik_Ionization_Penalty_Neutral>
0.000440451

> <r_epik_State_Penalty>
-0

> <r_epik_Charging_Adjusted_Penalty>
0

> <i_epik_Tot_Q>
0

> <i_epik_Tot_abs_Q>
0

> <r_epik_Metal_State_Penalty>
-0

> <b_epik_Metal_Only>
0

> <s_lp_Force_Field>
OPLS_2005

> <r_lp_Energy>
11.0588

> <b_lp_Chiralities_Consistent>
1

> <s_lp_Variant>
AV-unprocessed.smi:895-4

> <Gold.Version>
5.8.1

> <Gold.Id.Protein>
6NUR|6NUR_protein|mol2

> <Gold.PLP.Fitness>
47.5963

> <Gold.PLP.PLP>
-40.4133

> <Gold.PLP.part.hbond>
-3.0000

> <Gold.PLP.part.metal>
0.0000

> <Gold.PLP.part.buried>
-3.7851

> <Gold.PLP.part.nonpolar>
-32.5093

> <Gold.PLP.part.repulsive>
0.2473

> <Gold.PLP.ligand.clash>
0.0000

> <Gold.PLP.ligand.torsion>
0.4218

> <Gold.PLP.Chemscore.Hbond>
2.6523

> <Gold.PLP.Chemscore.CHOScore>
0.0000

> <Gold.PLP.Chemscore.Metal>
0.0000

> <Gold.Chemscore.Hbonds>
donor molecule, donor type, donor heavy atom, donor atom, acceptor molecule, acceptor atom, score
      L1  H     9    31       P1  8028  0.78
      P1  H  7989  7998       L1     8  0.87
      P1  H  7997  8010       L1    20  1.00

> <Gold.PLP.Chemscore.Internal.Correction>
0.0698

> <Gold.Rescore>
     Score         DG    S(hbond)    S(metal)    S(lipo)     H(rot)  DE(clash)    DE(int)     intcor
     14.52     -17.74       1.70        0.00     104.32       2.19       0.28       2.95       ----

> <Gold.Chemscore.Fitness>
14.5193

> <Gold.Chemscore.DG>
-17.7432

> <Gold.Chemscore.ZeroCoef>
-5.4800

> <Gold.Chemscore.Hbond>
1.6973

> <Gold.Chemscore.Metal>
0.0000

> <Gold.Chemscore.Lipo>
104.3196

> <Gold.Chemscore.Internal_Hbond>
0.0000

> <Gold.Chemscore.DEClash>
0.2760

> <Gold.Chemscore.DEInternal>
2.9478

> <Gold.Chemscore.Rot>
2.1919

> <Gold.Chemscore.Internal.Correction>
   9.000000E+99

> <Gold.Chemscore.Hbonds>
donor molecule, donor type, donor heavy atom, donor atom, acceptor molecule, acceptor atom, score
      L1  H     9    31       P1  8028  0.73
      P1  H  7989  7998       L1     8  0.20
      P1  H  7997  8010       L1    20  0.25

> <Gold.Chemscore.Hbond.Weighted>
-5.6691

> <Gold.Chemscore.Metal.Weighted>
-0.0000

> <Gold.Chemscore.Lipo.Weighted>
-12.2054

> <Gold.Chemscore.Internal_Hbond.Weighted>
0.0000

> <Gold.Chemscore.DEClash.Weighted>
0.2760

> <Gold.Chemscore.DEInternal.Weighted>
2.9478

> <Gold.Chemscore.Rot.Weighted>
5.6113

> <Gold.Chemscore.Internal.Correction.Weighted>
   9.000000E+99

> <Gold.Protein.RotatedTorsions>
[ 6907 6896 6895 6894 ] final  -50.63 input  -60.11 | X-H torsion
[ 7974 7965 7964 7962 ] final  103.42 input  175.53 | X-H torsion
[ 8008 7997 7996 7995 ] final   47.78 input   59.86 | X-H torsion
[ 10167 10162 10161 10158 ] final   60.47 input  -65.29 | X-H torsion
[ 10718 10713 10712 10709 ] final  141.31 input   66.30 | X-H torsion
[ 10763 10752 10751 10750 ] final  115.67 input  -60.55 | X-H torsion
[ 11005 11000 10999 10996 ] final -172.98 input  -57.11 | X-H torsion

> <Gold.Protein.ActiveResidues>
 VAL166  LYS551  ARG553  GLY616  TRP617  ASP618  TYR619  PRO620  LYS621  CYS622 
 ASP623  PHE694  ASN695  SER759  ASP760  ASP761  ALA762  ILE779  LEU786  VAL792 
 PHE793  MET794  SER795  GLU796  ALA797  LYS798  CYS799  TRP800  GLU811  SER814 

> <Gold.Protein.RotatedAtoms>
  150.8689  134.8058  159.7139 H   0  0  0  0  0  0  0  0  0  0  0  0  # atno 6907 bound_to 6896
  152.4701  134.4979  159.9725 H   0  0  0  0  0  0  0  0  0  0  0  0  # atno 6908 bound_to 6896
  151.5071  133.3454  159.2914 H   0  0  0  0  0  0  0  0  0  0  0  0  # atno 6909 bound_to 6896
  145.3462  139.2450  143.3583 H   0  0  0  0  0  0  0  0  0  0  0  0  # atno 7974 bound_to 7965
  155.3747  140.3425  155.4244 H   0  0  0  0  0  0  0  0  0  0  0  0  # atno 8008 bound_to 7997
  156.1643  140.1611  156.8592 H   0  0  0  0  0  0  0  0  0  0  0  0  # atno 8009 bound_to 7997
  154.5170  140.0776  156.8082 H   0  0  0  0  0  0  0  0  0  0  0  0  # atno 8010 bound_to 7997
  140.1653  144.4330  150.6688 H   0  0  0  0  0  0  0  0  0  0  0  0  # atno 10167 bound_to 10162
  157.3934  131.1007  151.0624 H   0  0  0  0  0  0  0  0  0  0  0  0  # atno 10718 bound_to 10713
  153.5257  135.3588  155.2652 H   0  0  0  0  0  0  0  0  0  0  0  0  # atno 10763 bound_to 10752
  154.8731  135.4056  154.3209 H   0  0  0  0  0  0  0  0  0  0  0  0  # atno 10764 bound_to 10752
  153.3888  135.7071  153.6578 H   0  0  0  0  0  0  0  0  0  0  0  0  # atno 10765 bound_to 10752
  140.4909  134.5985  157.4954 H   0  0  0  0  0  0  0  0  0  0  0  0  # atno 11005 bound_to 11000
  146.2987  140.4069  142.8712 LP  0  0  0  0  0  0  0  0  0  0  0  0  # atno 17320 bound_to 7965
  144.8752  140.7327  143.6021 LP  0  0  0  0  0  0  0  0  0  0  0  0  # atno 17321 bound_to 7965
  140.6617  143.2254  151.5840 LP  0  0  0  0  0  0  0  0  0  0  0  0  # atno 17342 bound_to 10162
  139.5362  144.2773  152.1257 LP  0  0  0  0  0  0  0  0  0  0  0  0  # atno 17343 bound_to 10162
  157.1649  130.6242  149.5622 LP  0  0  0  0  0  0  0  0  0  0  0  0  # atno 17370 bound_to 10713
  155.9804  130.4804  150.6770 LP  0  0  0  0  0  0  0  0  0  0  0  0  # atno 17371 bound_to 10713
  139.9770  134.7200  155.9932 LP  0  0  0  0  0  0  0  0  0  0  0  0  # atno 17394 bound_to 11000
  141.1484  133.6552  156.3939 LP  0  0  0  0  0  0  0  0  0  0  0  0  # atno 17395 bound_to 11000

$$$$
