AV-unprocessed.smi:2237|AV-procd|sdf|9046|dock4
  -GOLD-   2272012253D 1   1.00000     0.00000
 Structure written by MMmdl.
 55 57  0  0  0  0  0  0  0  0  3 V2000
  153.4972  141.2784  160.0408 C   0  0  0  0  0  0  0  0  0  0  0  0
  152.8328  142.4361  159.3258 C   0  0  0  0  0  0  0  0  0  0  0  0
  153.1722  143.7680  159.6335 C   0  0  0  0  0  0  0  0  0  0  0  0
  152.5166  144.7972  158.9344 C   0  0  0  0  0  0  0  0  0  0  0  0
  151.5547  144.4547  157.9646 C   0  0  0  0  0  0  0  0  0  0  0  0
  151.2714  143.0925  157.7175 C   0  0  0  0  0  0  0  0  0  0  0  0
  150.2889  142.8529  156.7204 N   0  0  0  0  0  0  0  0  0  0  0  0
  150.0391  141.7097  156.0581 C   0  0  0  0  0  0  0  0  0  0  0  0
  150.6298  140.6426  156.2270 O   0  0  0  0  0  0  0  0  0  0  0  0
  149.0449  141.8691  155.1724 N   0  0  0  0  0  0  0  0  0  0  0  0
  148.5357  140.8262  154.2865 C   0  0  2  0  0  0  0  0  0  0  0  0
  147.3447  141.3608  153.4811 C   0  0  0  0  0  0  0  0  0  0  0  0
  146.7228  140.2662  152.5969 C   0  0  0  0  0  0  0  0  0  0  0  0
  146.3071  139.0776  153.3983 N   0  3  1  0  0  0  0  0  0  0  0  0
  145.5823  138.0056  152.6388 C   0  0  2  0  0  0  0  0  0  0  0  0
  145.0966  136.8177  153.5080 C   0  0  0  0  0  0  0  0  0  0  0  0
  144.4132  135.7267  152.6648 C   0  0  0  0  0  0  0  0  0  0  0  0
  145.3150  135.2294  151.5991 N   0  3  1  0  0  0  0  0  0  0  0  0
  144.7282  134.1021  150.8425 C   0  0  0  0  0  0  0  0  0  0  0  0
  145.7697  136.3272  150.7138 C   0  0  0  0  0  0  0  0  0  0  0  0
  146.4796  137.4302  151.5174 C   0  0  0  0  0  0  0  0  0  0  0  0
  147.4651  138.5347  154.1657 C   0  0  0  0  0  0  0  0  0  0  0  0
  148.0866  139.5947  155.0886 C   0  0  0  0  0  0  0  0  0  0  0  0
  151.9093  142.1071  158.3968 N   0  0  0  0  0  0  0  0  0  0  0  0
  154.3746  141.6098  160.5971 H   0  0  0  0  0  0  0  0  0  0  0  0
  153.8165  140.5184  159.3269 H   0  0  0  0  0  0  0  0  0  0  0  0
  152.8000  140.8202  160.7425 H   0  0  0  0  0  0  0  0  0  0  0  0
  153.9144  143.9977  160.3838 H   0  0  0  0  0  0  0  0  0  0  0  0
  152.7470  145.8325  159.1380 H   0  0  0  0  0  0  0  0  0  0  0  0
  151.0424  145.2337  157.4188 H   0  0  0  0  0  0  0  0  0  0  0  0
  149.7138  143.6468  156.4804 H   0  0  0  0  0  0  0  0  0  0  0  0
  148.6158  142.7801  155.1003 H   0  0  0  0  0  0  0  0  0  0  0  0
  149.3215  140.5336  153.5869 H   0  0  0  0  0  0  0  0  0  0  0  0
  146.5838  141.7514  154.1591 H   0  0  0  0  0  0  0  0  0  0  0  0
  147.6619  142.1988  152.8588 H   0  0  0  0  0  0  0  0  0  0  0  0
  145.8671  140.7185  152.0977 H   0  0  0  0  0  0  0  0  0  0  0  0
  147.4270  139.9588  151.8221 H   0  0  0  0  0  0  0  0  0  0  0  0
  144.6968  138.4575  152.1878 H   0  0  0  0  0  0  0  0  0  0  0  0
  145.9375  136.3813  154.0497 H   0  0  0  0  0  0  0  0  0  0  0  0
  144.3762  137.1529  154.2547 H   0  0  0  0  0  0  0  0  0  0  0  0
  144.1209  134.8978  153.3109 H   0  0  0  0  0  0  0  0  0  0  0  0
  143.4976  136.1168  152.2166 H   0  0  0  0  0  0  0  0  0  0  0  0
  143.8323  134.4150  150.3042 H   0  0  0  0  0  0  0  0  0  0  0  0
  144.4568  133.2867  151.5137 H   0  0  0  0  0  0  0  0  0  0  0  0
  145.4434  133.7110  150.1180 H   0  0  0  0  0  0  0  0  0  0  0  0
  146.4526  135.9285  149.9625 H   0  0  0  0  0  0  0  0  0  0  0  0
  144.9155  136.7433  150.1767 H   0  0  0  0  0  0  0  0  0  0  0  0
  146.7908  138.2065  150.8203 H   0  0  0  0  0  0  0  0  0  0  0  0
  147.3959  137.0277  151.9516 H   0  0  0  0  0  0  0  0  0  0  0  0
  147.1651  137.6867  154.7783 H   0  0  0  0  0  0  0  0  0  0  0  0
  148.2192  138.1623  153.4701 H   0  0  0  0  0  0  0  0  0  0  0  0
  148.9348  139.1623  155.6208 H   0  0  0  0  0  0  0  0  0  0  0  0
  147.3610  139.8870  155.8492 H   0  0  0  0  0  0  0  0  0  0  0  0
  145.6493  139.4304  154.0792 H   0  0  0  0  0  0  0  0  0  0  0  0
  146.1375  134.8651  152.0592 H   0  0  0  0  0  0  0  0  0  0  0  0
  1  2  1  0  0  0  0
  1 25  1  0  0  0  0
  1 26  1  0  0  0  0
  1 27  1  0  0  0  0
  2 24  1  0  0  0  0
  2  3  2  0  0  0  0
  3  4  1  0  0  0  0
  3 28  1  0  0  0  0
  4  5  2  0  0  0  0
  4 29  1  0  0  0  0
  5  6  1  0  0  0  0
  5 30  1  0  0  0  0
  6  7  1  0  0  0  0
  6 24  2  0  0  0  0
  7  8  1  0  0  0  0
  7 31  1  0  0  0  0
  8  9  2  0  0  0  0
  8 10  1  0  0  0  0
 10 11  1  0  0  0  0
 10 32  1  0  0  0  0
 11 23  1  0  0  0  0
 11 12  1  0  0  0  0
 11 33  1  0  0  0  0
 12 13  1  0  0  0  0
 12 34  1  0  0  0  0
 12 35  1  0  0  0  0
 13 14  1  0  0  0  0
 13 36  1  0  0  0  0
 13 37  1  0  0  0  0
 14 15  1  0  0  0  0
 14 22  1  0  0  0  0
 14 54  1  0  0  0  0
 15 21  1  0  0  0  0
 15 16  1  0  0  0  0
 15 38  1  0  0  0  0
 16 17  1  0  0  0  0
 16 39  1  0  0  0  0
 16 40  1  0  0  0  0
 17 18  1  0  0  0  0
 17 41  1  0  0  0  0
 17 42  1  0  0  0  0
 18 19  1  0  0  0  0
 18 20  1  0  0  0  0
 18 55  1  0  0  0  0
 19 43  1  0  0  0  0
 19 44  1  0  0  0  0
 19 45  1  0  0  0  0
 20 21  1  0  0  0  0
 20 46  1  0  0  0  0
 20 47  1  0  0  0  0
 21 48  1  0  0  0  0
 21 49  1  0  0  0  0
 22 23  1  0  0  0  0
 22 50  1  0  0  0  0
 22 51  1  0  0  0  0
 23 52  1  0  0  0  0
 23 53  1  0  0  0  0
M  CHG  1  14   1
M  CHG  1  18   1
M  END
> <s_m_source_file>
AV-unprocessed.smi

> <i_m_source_file_index>
2237

> <i_lp_mmshare_version>
43012

> <i_f3d_flags>
0

> <s_epik_input>
W0NIM11jMVtjSF1bY0hdW2NIXWMobjEpW05IXUMoPU8pW05IXVtDSF0yW0NIMl1bQ0gyXU4oW0NIMl1bQ0gyXTIpW0NIXTNbQ0gyXVtDSDJdTihbQ0gzXSlbQ0gyXVtDSDJdMw==

> <s_epik_cmdline>
J2VwaWtfcHl0aG9uJywgJy1waCcsICc3LjAnLCAnLXRuJywgJzgnLCAnLW1hJywgJzIwMCcsICctbWV0YWxfYmluZGluZycsICctaW1hZScsICc8aW5maWxlLm1hZT4nLCAnLW9tYWUnLCAnPG91dGZpbGUubWFlPic=

> <r_epik_Ionization_Penalty>
0.180851

> <r_epik_Ionization_Penalty_Charging>
0.180787

> <r_epik_Ionization_Penalty_Neutral>
6.38624e-05

> <r_epik_State_Penalty>
0.153592

> <r_epik_Charging_Adjusted_Penalty>
0.334379

> <i_epik_Tot_Q>
2

> <i_epik_Tot_abs_Q>
2

> <r_epik_Metal_State_Penalty>
0.153595

> <b_epik_Metal_Only>
0

> <s_lp_Force_Field>
OPLS_2005

> <r_lp_Energy>
40.5749

> <b_lp_Chiralities_Consistent>
1

> <s_lp_Variant>
AV-unprocessed.smi:2237-1

> <Gold.Version>
5.8.1

> <Gold.Id.Protein>
6NUR|6NUR_protein|mol2

> <Gold.PLP.Fitness>
48.9061

> <Gold.PLP.PLP>
-43.4250

> <Gold.PLP.part.hbond>
-2.7558

> <Gold.PLP.part.metal>
0.0000

> <Gold.PLP.part.buried>
-0.1275

> <Gold.PLP.part.nonpolar>
-41.0971

> <Gold.PLP.part.repulsive>
0.2543

> <Gold.PLP.ligand.clash>
0.0000

> <Gold.PLP.ligand.torsion>
0.0969

> <Gold.PLP.Chemscore.Hbond>
1.8800

> <Gold.PLP.Chemscore.CHOScore>
0.0000

> <Gold.PLP.Chemscore.Metal>
0.0000

> <Gold.Chemscore.Hbonds>
donor molecule, donor type, donor heavy atom, donor atom, acceptor molecule, acceptor atom, score
      L1  H     7    31       P1  8028  1.00
      L1  H    10    32       P1  8028  0.85

> <Gold.PLP.Chemscore.Internal.Correction>
0.0348

> <Gold.Rescore>
     Score         DG    S(hbond)    S(metal)    S(lipo)     H(rot)  DE(clash)    DE(int)     intcor
     18.88     -22.77       1.80        0.00     123.30       1.23       1.57       2.32       ----

> <Gold.Chemscore.Fitness>
18.8847

> <Gold.Chemscore.DG>
-22.7719

> <Gold.Chemscore.ZeroCoef>
-5.4800

> <Gold.Chemscore.Hbond>
1.8003

> <Gold.Chemscore.Metal>
0.0000

> <Gold.Chemscore.Lipo>
123.3018

> <Gold.Chemscore.Internal_Hbond>
0.0000

> <Gold.Chemscore.DEClash>
1.5701

> <Gold.Chemscore.DEInternal>
2.3171

> <Gold.Chemscore.Rot>
1.2295

> <Gold.Chemscore.Internal.Correction>
   9.000000E+99

> <Gold.Chemscore.Hbonds>
donor molecule, donor type, donor heavy atom, donor atom, acceptor molecule, acceptor atom, score
      L1  H     7    31       P1  8028  0.97
      L1  H    10    32       P1  8028  0.80

> <Gold.Chemscore.Hbond.Weighted>
-6.0130

> <Gold.Chemscore.Metal.Weighted>
-0.0000

> <Gold.Chemscore.Lipo.Weighted>
-14.4263

> <Gold.Chemscore.Internal_Hbond.Weighted>
0.0000

> <Gold.Chemscore.DEClash.Weighted>
1.5701

> <Gold.Chemscore.DEInternal.Weighted>
2.3171

> <Gold.Chemscore.Rot.Weighted>
3.1474

> <Gold.Chemscore.Internal.Correction.Weighted>
   9.000000E+99

> <Gold.Protein.RotatedTorsions>
[ 6907 6896 6895 6894 ] final -102.99 input  -60.11 | X-H torsion
[ 7974 7965 7964 7962 ] final -176.61 input  175.53 | X-H torsion
[ 8008 7997 7996 7995 ] final  -42.08 input   59.86 | X-H torsion
[ 10167 10162 10161 10158 ] final  -70.48 input  -65.29 | X-H torsion
[ 10718 10713 10712 10709 ] final  -83.51 input   66.30 | X-H torsion
[ 10763 10752 10751 10750 ] final  -73.42 input  -60.55 | X-H torsion
[ 11005 11000 10999 10996 ] final  140.09 input  -57.11 | X-H torsion

> <Gold.Protein.ActiveResidues>
 VAL166  LYS551  ARG553  GLY616  TRP617  ASP618  TYR619  PRO620  LYS621  CYS622 
 ASP623  PHE694  ASN695  SER759  ASP760  ASP761  ALA762  ILE779  LEU786  VAL792 
 PHE793  MET794  SER795  GLU796  ALA797  LYS798  CYS799  TRP800  GLU811  SER814 

> <Gold.Protein.RotatedAtoms>
  150.7220  134.0497  159.3793 H   0  0  0  0  0  0  0  0  0  0  0  0  # atno 6907 bound_to 6896
  151.8473  135.0567  160.0464 H   0  0  0  0  0  0  0  0  0  0  0  0  # atno 6908 bound_to 6896
  152.2817  133.5441  159.5538 H   0  0  0  0  0  0  0  0  0  0  0  0  # atno 6909 bound_to 6896
  144.7127  140.1143  143.6409 H   0  0  0  0  0  0  0  0  0  0  0  0  # atno 7974 bound_to 7965
  154.4000  140.1483  156.3296 H   0  0  0  0  0  0  0  0  0  0  0  0  # atno 8008 bound_to 7997
  155.8456  140.3460  155.5638 H   0  0  0  0  0  0  0  0  0  0  0  0  # atno 8009 bound_to 7997
  155.8040  140.0874  157.1932 H   0  0  0  0  0  0  0  0  0  0  0  0  # atno 8010 bound_to 7997
  140.5349  143.2318  151.7195 H   0  0  0  0  0  0  0  0  0  0  0  0  # atno 10167 bound_to 10162
  156.0017  130.4668  150.4268 H   0  0  0  0  0  0  0  0  0  0  0  0  # atno 10718 bound_to 10713
  154.4593  135.5898  153.6244 H   0  0  0  0  0  0  0  0  0  0  0  0  # atno 10763 bound_to 10752
  152.9821  135.6040  154.3507 H   0  0  0  0  0  0  0  0  0  0  0  0  # atno 10764 bound_to 10752
  154.3377  135.2842  155.2418 H   0  0  0  0  0  0  0  0  0  0  0  0  # atno 10765 bound_to 10752
  140.0302  134.9355  157.0647 H   0  0  0  0  0  0  0  0  0  0  0  0  # atno 11005 bound_to 11000
  145.9427  139.2679  143.1259 LP  0  0  0  0  0  0  0  0  0  0  0  0  # atno 17320 bound_to 7965
  145.9407  140.8982  143.0309 LP  0  0  0  0  0  0  0  0  0  0  0  0  # atno 17321 bound_to 7965
  139.4967  144.4058  152.0133 LP  0  0  0  0  0  0  0  0  0  0  0  0  # atno 17342 bound_to 10162
  140.3163  144.3480  150.6021 LP  0  0  0  0  0  0  0  0  0  0  0  0  # atno 17343 bound_to 10162
  157.2320  131.0506  151.2487 LP  0  0  0  0  0  0  0  0  0  0  0  0  # atno 17370 bound_to 10713
  157.3702  130.7177  149.6560 LP  0  0  0  0  0  0  0  0  0  0  0  0  # atno 17371 bound_to 10713
  140.4239  134.1851  155.7165 LP  0  0  0  0  0  0  0  0  0  0  0  0  # atno 17394 bound_to 11000
  141.1826  133.8381  157.1203 LP  0  0  0  0  0  0  0  0  0  0  0  0  # atno 17395 bound_to 11000

$$$$
