AV-unprocessed.smi:1006|AV-procd|sdf|4396|dock6
  -GOLD-   22720 2333D 1   1.00000     0.00000
 Structure written by MMmdl.
 47 49  0  0  0  0  0  0  0  0  3 V2000
  148.0436  133.2863  152.3210 C   0  0  0  0  0  0  0  0  0  0  0  0
  148.9412  133.2869  153.5402 C   0  0  0  0  0  0  0  0  0  0  0  0
  149.5423  132.1081  154.0264 C   0  0  0  0  0  0  0  0  0  0  0  0
  150.3566  132.2344  155.1654 C   0  0  0  0  0  0  0  0  0  0  0  0
  150.9927  131.1247  155.7155 N   0  0  0  0  0  0  0  0  0  0  0  0
  150.5516  133.4268  155.7630 N   0  0  0  0  0  0  0  0  0  0  0  0
  149.9510  134.5084  155.2487 C   0  0  0  0  0  0  0  0  0  0  0  0
  150.2050  136.1033  156.0079 S   0  0  0  0  0  0  0  0  0  0  0  0
  151.0100  137.0552  154.6813 C   0  0  0  0  0  0  0  0  0  0  0  0
  150.7458  138.5639  154.8170 C   0  0  2  0  0  0  0  0  0  0  0  0
  151.2462  139.2249  153.6708 O   0  0  0  0  0  0  0  0  0  0  0  0
  151.3930  139.1534  156.0853 C   0  0  0  0  0  0  0  0  0  0  0  0
  151.0232  140.5582  156.3140 N   0  0  0  0  0  0  0  0  0  0  0  0
  150.2195  141.3738  155.5786 C   0  0  0  0  0  0  0  0  0  0  0  0
  150.1853  142.5856  156.1983 N   0  3  0  0  0  0  0  0  0  0  0  0
  150.9786  142.5444  157.3467 C   0  0  0  0  0  0  0  0  0  0  0  0
  151.2553  143.5211  158.2960 C   0  0  0  0  0  0  0  0  0  0  0  0
  152.1138  143.1622  159.3594 C   0  0  0  0  0  0  0  0  0  0  0  0
  152.4365  144.2062  160.4147 C   0  0  0  0  0  0  0  0  0  0  0  0
  152.6655  141.8575  159.4434 C   0  0  0  0  0  0  0  0  0  0  0  0
  153.5908  141.4834  160.5889 C   0  0  0  0  0  0  0  0  0  0  0  0
  152.3709  140.8783  158.4680 C   0  0  0  0  0  0  0  0  0  0  0  0
  151.5211  141.2469  157.4274 C   0  0  0  0  0  0  0  0  0  0  0  0
  149.1626  134.4707  154.1647 N   0  3  0  0  0  0  0  0  0  0  0  0
  147.7322  132.2731  152.0647 H   0  0  0  0  0  0  0  0  0  0  0  0
  148.5697  133.7093  151.4649 H   0  0  0  0  0  0  0  0  0  0  0  0
  147.1469  133.8796  152.5032 H   0  0  0  0  0  0  0  0  0  0  0  0
  149.3850  131.1534  153.5454 H   0  0  0  0  0  0  0  0  0  0  0  0
  150.8897  130.2026  155.3167 H   0  0  0  0  0  0  0  0  0  0  0  0
  151.6030  131.2101  156.5158 H   0  0  0  0  0  0  0  0  0  0  0  0
  152.0823  136.8630  154.7307 H   0  0  0  0  0  0  0  0  0  0  0  0
  150.6632  136.6991  153.7103 H   0  0  0  0  0  0  0  0  0  0  0  0
  149.6693  138.7352  154.8603 H   0  0  0  0  0  0  0  0  0  0  0  0
  151.2090  138.6278  152.9390 H   0  0  0  0  0  0  0  0  0  0  0  0
  151.0656  138.5927  156.9618 H   0  0  0  0  0  0  0  0  0  0  0  0
  152.4790  139.0638  156.0564 H   0  0  0  0  0  0  0  0  0  0  0  0
  149.7022  141.1087  154.6678 H   0  0  0  0  0  0  0  0  0  0  0  0
  150.8333  144.5130  158.2241 H   0  0  0  0  0  0  0  0  0  0  0  0
  152.0888  143.8788  161.3947 H   0  0  0  0  0  0  0  0  0  0  0  0
  151.9566  145.1598  160.1922 H   0  0  0  0  0  0  0  0  0  0  0  0
  153.5114  144.3795  160.4679 H   0  0  0  0  0  0  0  0  0  0  0  0
  153.9142  140.4445  160.5176 H   0  0  0  0  0  0  0  0  0  0  0  0
  153.0860  141.6098  161.5471 H   0  0  0  0  0  0  0  0  0  0  0  0
  154.4824  142.1105  160.5809 H   0  0  0  0  0  0  0  0  0  0  0  0
  152.7968  139.8881  158.5303 H   0  0  0  0  0  0  0  0  0  0  0  0
  148.7282  135.3215  153.8067 H   0  0  0  0  0  0  0  0  0  0  0  0
  149.6590  143.3810  155.8596 H   0  0  0  0  0  0  0  0  0  0  0  0
  1  2  1  0  0  0  0
  1 25  1  0  0  0  0
  1 26  1  0  0  0  0
  1 27  1  0  0  0  0
  2 24  1  0  0  0  0
  2  3  2  0  0  0  0
  3  4  1  0  0  0  0
  3 28  1  0  0  0  0
  4  5  1  0  0  0  0
  4  6  2  0  0  0  0
  5 29  1  0  0  0  0
  5 30  1  0  0  0  0
  6  7  1  0  0  0  0
  7  8  1  0  0  0  0
  7 24  2  0  0  0  0
  8  9  1  0  0  0  0
  9 10  1  0  0  0  0
  9 31  1  0  0  0  0
  9 32  1  0  0  0  0
 10 11  1  0  0  0  0
 10 12  1  0  0  0  0
 10 33  1  0  0  0  0
 11 34  1  0  0  0  0
 12 13  1  0  0  0  0
 12 35  1  0  0  0  0
 12 36  1  0  0  0  0
 13 23  1  0  0  0  0
 13 14  1  0  0  0  0
 14 15  2  0  0  0  0
 14 37  1  0  0  0  0
 15 16  1  0  0  0  0
 15 47  1  0  0  0  0
 16 23  2  0  0  0  0
 16 17  1  0  0  0  0
 17 18  2  0  0  0  0
 17 38  1  0  0  0  0
 18 19  1  0  0  0  0
 18 20  1  0  0  0  0
 19 39  1  0  0  0  0
 19 40  1  0  0  0  0
 19 41  1  0  0  0  0
 20 21  1  0  0  0  0
 20 22  2  0  0  0  0
 21 42  1  0  0  0  0
 21 43  1  0  0  0  0
 21 44  1  0  0  0  0
 22 23  1  0  0  0  0
 22 45  1  0  0  0  0
 24 46  1  0  0  0  0
M  CHG  1  15   1
M  CHG  1  24   1
M  END
> <s_m_source_file>
AV-unprocessed.smi

> <i_m_source_file_index>
1006

> <i_lp_mmshare_version>
43012

> <i_f3d_flags>
0

> <s_epik_input>
W0NIM11jMVtjSF1jKFtOSDJdKW5jKG4xKVNbQ0gyXVtDQEhdKFtPSF0pW0NIMl1uKFtjSF1uMiljKGMyMylbY0hdYyhbQ0gzXSljKFtjSF0zKVtDSDNd

> <s_epik_cmdline>
J2VwaWtfcHl0aG9uJywgJy1waCcsICc3LjAnLCAnLXRuJywgJzgnLCAnLW1hJywgJzIwMCcsICctbWV0YWxfYmluZGluZycsICctaW1hZScsICc8aW5maWxlLm1hZT4nLCAnLW9tYWUnLCAnPG91dGZpbGUubWFlPic=

> <r_lp_tautomer_probability>
0.999762

> <r_epik_Ionization_Penalty>
1.50932

> <r_epik_Ionization_Penalty_Charging>
1.50929

> <r_epik_Ionization_Penalty_Neutral>
3.48853e-05

> <r_epik_State_Penalty>
1.56619

> <r_epik_Charging_Adjusted_Penalty>
3.07548

> <i_epik_Tot_Q>
2

> <i_epik_Tot_abs_Q>
2

> <r_epik_Metal_State_Penalty>
1.82892

> <b_epik_Metal_Only>
0

> <s_lp_Force_Field>
OPLS_2005

> <r_lp_Energy>
18.0663

> <b_lp_Chiralities_Consistent>
1

> <s_lp_Variant>
AV-unprocessed.smi:1006-7

> <Gold.Version>
5.8.1

> <Gold.Id.Protein>
6NUR|6NUR_protein|mol2

> <Gold.PLP.Fitness>
58.1351

> <Gold.PLP.PLP>
-47.5878

> <Gold.PLP.part.hbond>
-3.7927

> <Gold.PLP.part.metal>
0.0000

> <Gold.PLP.part.buried>
0.5394

> <Gold.PLP.part.nonpolar>
-42.2722

> <Gold.PLP.part.repulsive>
0.1243

> <Gold.PLP.ligand.clash>
0.0000

> <Gold.PLP.ligand.torsion>
0.2008

> <Gold.PLP.Chemscore.Hbond>
3.6402

> <Gold.PLP.Chemscore.CHOScore>
0.0000

> <Gold.PLP.Chemscore.Metal>
0.0000

> <Gold.Chemscore.Hbonds>
donor molecule, donor type, donor heavy atom, donor atom, acceptor molecule, acceptor atom, score
      L1  H    15    47       P1  8028  2.00
      L1  H    24    46       P1  7948  0.80
      P1  H  7989  7998       L1    11  0.88

> <Gold.PLP.Chemscore.Internal.Correction>
0.0280

> <Gold.Rescore>
     Score         DG    S(hbond)    S(metal)    S(lipo)     H(rot)  DE(clash)    DE(int)     intcor
     17.33     -17.70       1.91        0.00     114.61       2.96       0.16       0.21       ----

> <Gold.Chemscore.Fitness>
17.3341

> <Gold.Chemscore.DG>
-17.6994

> <Gold.Chemscore.ZeroCoef>
-5.4800

> <Gold.Chemscore.Hbond>
1.9125

> <Gold.Chemscore.Metal>
0.0000

> <Gold.Chemscore.Lipo>
114.6072

> <Gold.Chemscore.Internal_Hbond>
0.0000

> <Gold.Chemscore.DEClash>
0.1567

> <Gold.Chemscore.DEInternal>
0.2086

> <Gold.Chemscore.Rot>
2.9599

> <Gold.Chemscore.Internal.Correction>
   9.000000E+99

> <Gold.Chemscore.Hbonds>
donor molecule, donor type, donor heavy atom, donor atom, acceptor molecule, acceptor atom, score
      L1  H    15    47       P1  8028  0.96
      L1  H    24    46       P1  7948  0.36
      P1  H  7989  7998       L1    11  0.85

> <Gold.Chemscore.Hbond.Weighted>
-6.3876

> <Gold.Chemscore.Metal.Weighted>
-0.0000

> <Gold.Chemscore.Lipo.Weighted>
-13.4090

> <Gold.Chemscore.Internal_Hbond.Weighted>
0.0000

> <Gold.Chemscore.DEClash.Weighted>
0.1567

> <Gold.Chemscore.DEInternal.Weighted>
0.2086

> <Gold.Chemscore.Rot.Weighted>
7.5772

> <Gold.Chemscore.Internal.Correction.Weighted>
   9.000000E+99

> <Gold.Protein.RotatedTorsions>
[ 6907 6896 6895 6894 ] final  178.05 input  -60.11 | X-H torsion
[ 7974 7965 7964 7962 ] final -116.87 input  175.53 | X-H torsion
[ 8008 7997 7996 7995 ] final  -53.70 input   59.86 | X-H torsion
[ 10167 10162 10161 10158 ] final  149.14 input  -65.29 | X-H torsion
[ 10718 10713 10712 10709 ] final  -18.48 input   66.30 | X-H torsion
[ 10763 10752 10751 10750 ] final  116.27 input  -60.55 | X-H torsion
[ 11005 11000 10999 10996 ] final -157.34 input  -57.11 | X-H torsion

> <Gold.Protein.ActiveResidues>
 VAL166  LYS551  ARG553  GLY616  TRP617  ASP618  TYR619  PRO620  LYS621  CYS622 
 ASP623  PHE694  ASN695  SER759  ASP760  ASP761  ALA762  ILE779  LEU786  VAL792 
 PHE793  MET794  SER795  GLU796  ALA797  LYS798  CYS799  TRP800  GLU811  SER814 

> <Gold.Protein.RotatedAtoms>
  151.6941  133.3311  159.3249 H   0  0  0  0  0  0  0  0  0  0  0  0  # atno 6907 bound_to 6896
  150.7765  134.6672  159.6381 H   0  0  0  0  0  0  0  0  0  0  0  0  # atno 6908 bound_to 6896
  152.3809  134.6595  160.0195 H   0  0  0  0  0  0  0  0  0  0  0  0  # atno 6909 bound_to 6896
  145.0917  140.8494  143.3978 H   0  0  0  0  0  0  0  0  0  0  0  0  # atno 7974 bound_to 7965
  154.4141  140.1194  156.5196 H   0  0  0  0  0  0  0  0  0  0  0  0  # atno 8008 bound_to 7997
  155.6716  140.3496  155.4801 H   0  0  0  0  0  0  0  0  0  0  0  0  # atno 8009 bound_to 7997
  155.9628  140.1126  157.0871 H   0  0  0  0  0  0  0  0  0  0  0  0  # atno 8010 bound_to 7997
  139.4865  144.5625  151.7205 H   0  0  0  0  0  0  0  0  0  0  0  0  # atno 10167 bound_to 10162
  156.5589  130.4720  149.6416 H   0  0  0  0  0  0  0  0  0  0  0  0  # atno 10718 bound_to 10713
  153.5348  135.3571  155.2692 H   0  0  0  0  0  0  0  0  0  0  0  0  # atno 10763 bound_to 10752
  154.8723  135.4077  154.3111 H   0  0  0  0  0  0  0  0  0  0  0  0  # atno 10764 bound_to 10752
  153.3806  135.7068  153.6636 H   0  0  0  0  0  0  0  0  0  0  0  0  # atno 10765 bound_to 10752
  140.6657  134.4302  157.5233 H   0  0  0  0  0  0  0  0  0  0  0  0  # atno 11005 bound_to 11000
  145.1058  139.2791  143.5663 LP  0  0  0  0  0  0  0  0  0  0  0  0  # atno 17320 bound_to 7965
  146.3531  140.0638  142.8627 LP  0  0  0  0  0  0  0  0  0  0  0  0  # atno 17321 bound_to 7965
  140.5197  144.0898  150.6019 LP  0  0  0  0  0  0  0  0  0  0  0  0  # atno 17342 bound_to 10162
  140.3852  143.2781  152.0125 LP  0  0  0  0  0  0  0  0  0  0  0  0  # atno 17343 bound_to 10162
  156.2816  130.7074  151.1900 LP  0  0  0  0  0  0  0  0  0  0  0  0  # atno 17370 bound_to 10713
  157.7372  131.0554  150.5367 LP  0  0  0  0  0  0  0  0  0  0  0  0  # atno 17371 bound_to 10713
  139.8998  134.8583  156.1945 LP  0  0  0  0  0  0  0  0  0  0  0  0  # atno 17394 bound_to 11000
  141.0431  133.6927  156.1634 LP  0  0  0  0  0  0  0  0  0  0  0  0  # atno 17395 bound_to 11000

$$$$
