#       Name:                AV-unprocessed.smi:2010
#       Creating user name   scv26
#       Creation time:       Fri Mar 27 10:39:28 2020


#       File generated by GOLD software.
#

@<TRIPOS>MOLECULE
AV-unprocessed.smi:2010
    42    43     1
SMALL
NO_CHARGES


@<TRIPOS>ATOM
      1 ****        -0.4498   0.4277   3.4799 C.3            1 S1                 0.0000
      2 ****        -0.7258   1.4376   2.3573 C.3            1 S1                 0.0000
      3 ****        -1.4995   0.7940   1.1961 C.3            1 S1                 0.0000
      4 ****        -1.7540   1.7999   0.0585 C.3            1 S1                 0.0000
      5 ****        -0.5009   2.4311  -0.4070 N.pl3          1 S1                 0.0000
      6 ****         0.3032   1.7944  -1.8168 S.o2           1 S1                 0.0000
      7 ****        -0.7563   1.5208  -2.8016 O.2            1 S1                 0.0000
      8 ****         1.3403   2.7723  -2.1838 O.2            1 S1                 0.0000
      9 ****         0.9095   0.4596  -1.1263 N.pl3          1 S1                -1.0000
     10 ****         1.6021  -0.5374  -1.9278 C.3            1 S1                 0.0000
     11 ****         2.6405  -1.2417  -1.0407 C.3            1 S1                 0.0000
     12 ****         0.5871  -1.5189  -2.5783 C.3            1 S1                 0.0000
     13 ****        -0.2096  -2.3105  -1.6425 N.pl3          1 S1                 0.0000
     14 ****         0.1194  -3.4962  -1.0135 C.2            1 S1                 0.0000
     15 ****        -0.9482  -3.8661  -0.2470 C.2            1 S1                 0.0000
     16 ****        -1.9057  -2.8419  -0.4862 C.2            1 S1                 0.0000
     17 ****        -1.4692  -1.9232  -1.3310 N.2            1 S1                 0.0000
     18 ****         0.2987   3.0473   0.6724 C.3            1 S1                 0.0000
     19 ****         0.5742   2.0552   1.8178 C.3            1 S1                 0.0000
     20 ****         0.1589  -0.4035   3.1225 H              1 S1                 0.0000
     21 ****        -1.3788   0.0150   3.8739 H              1 S1                 0.0000
     22 ****         0.0807   0.8974   4.3085 H              1 S1                 0.0000
     23 ****        -1.3380   2.2398   2.7713 H              1 S1                 0.0000
     24 ****        -0.9486  -0.0664   0.8165 H              1 S1                 0.0000
     25 ****        -2.4532   0.4060   1.5548 H              1 S1                 0.0000
     26 ****        -2.2615   1.3087  -0.7712 H              1 S1                 0.0000
     27 ****        -2.4251   2.5846   0.4089 H              1 S1                 0.0000
     28 ****         2.1548  -0.0620  -2.7389 H              1 S1                 0.0000
     29 ****         3.1621  -2.0219  -1.5951 H              1 S1                 0.0000
     30 ****         2.1822  -1.7028  -0.1653 H              1 S1                 0.0000
     31 ****         3.3916  -0.5363  -0.6836 H              1 S1                 0.0000
     32 ****        -0.0890  -0.9815  -3.2439 H              1 S1                 0.0000
     33 ****         1.1281  -2.2169  -3.2179 H              1 S1                 0.0000
     34 ****         1.0807  -3.9670  -1.1572 H              1 S1                 0.0000
     35 ****        -1.0324  -4.7361   0.3865 H              1 S1                 0.0000
     36 ****        -2.9005  -2.7417  -0.0781 H              1 S1                 0.0000
     37 ****         1.2358   3.4349   0.2737 H              1 S1                 0.0000
     38 ****        -0.2501   3.9062   1.0588 H              1 S1                 0.0000
     39 ****         1.1010   2.5699   2.6216 H              1 S1                 0.0000
     40 ****         1.2454   1.2679   1.4740 H              1 S1                 0.0000
     41 ****         0.8067   0.3202  -0.1414 LP             1 S1                 0.0000
     42 ****        -1.9609  -1.1194  -1.6660 LP             1 S1                 0.0000
@<TRIPOS>BOND
    1    1    2 1     
    2    1   20 1     
    3    1   21 1     
    4    1   22 1     
    5    2   19 1     
    6    2    3 1     
    7    2   23 1     
    8    3    4 1     
    9    3   24 1     
   10    3   25 1     
   11    4    5 1     
   12    4   26 1     
   13    4   27 1     
   14    5    6 1     
   15    5   18 1     
   16    6    7 2     
   17    6    8 2     
   18    6    9 1     
   19    9   10 1     
   20   10   11 1     
   21   10   12 1     
   22   10   28 1     
   23   11   29 1     
   24   11   30 1     
   25   11   31 1     
   26   12   13 1     
   27   12   32 1     
   28   12   33 1     
   29   13   17 1     
   30   13   14 1     
   31   14   15 2     
   32   14   34 1     
   33   15   16 1     
   34   15   35 1     
   35   16   17 2     
   36   16   36 1     
   37   18   19 1     
   38   18   37 1     
   39   18   38 1     
   40   19   39 1     
   41   19   40 1     
   42    9   41 1     
   43   17   42 1     
@<TRIPOS>SUBSTRUCTURE
      1 S1             1
@<TRIPOS>SET
LONE_PAIRS      STATIC     ATOMS    <user>   **** ""
4 7 8 41 42
ATOM$BLUE        STATIC     ATOMS    COLORGROUP SYSTEM
4 7 8 41 42
