#       Name:                AV-unprocessed.smi:49
#       Creating user name   scv26
#       Creation time:       Thu Mar 26 16:33:38 2020


#       File generated by GOLD software.
#

@<TRIPOS>MOLECULE
AV-unprocessed.smi:49
    32    33     1
SMALL
NO_CHARGES


@<TRIPOS>ATOM
      1 ****        -3.8535   1.5274  -1.3982 C.3            1 S1                 0.0000
      2 ****        -3.3430   0.0832  -1.4560 C.3            1 S1                 0.0000
      3 ****        -1.8520   0.0101  -1.4468 C.2            1 S1                 0.0000
      4 ****        -1.1208  -0.0331  -0.2923 N.2            1 S1                 0.0000
      5 ****         0.1133  -0.0437  -0.7923 C.2            1 S1                 0.0000
      6 ****         1.3848  -0.1068  -0.0002 C.3            1 S1                 0.0000
      7 ****         1.6908  -1.4681   0.6256 C.3            1 S1                 0.0000
      8 ****         2.4522  -1.0989   1.8978 C.3            1 S1                 0.0000
      9 ****         3.8270  -0.9361   1.6105 O.3            1 S1                 0.0000
     10 ****         1.8457   0.2483   2.3230 C.3            1 S1                 0.0000
     11 ****         1.1911   0.8230   1.1294 N.4            1 S1                 1.0000
     12 ****         0.1183  -0.0050  -2.1269 N.pl3          1 S1                 0.0000
     13 ****        -1.1521   0.0437  -2.5794 N.2            1 S1                 0.0000
     14 ****         2.2287   0.2392  -0.5993 H              1 S1                 0.0000
     15 ****         2.3465  -1.8573   2.6743 H              1 S1                 0.0000
     16 ****         0.9207  -0.0035  -2.7407 H              1 S1                 0.0000
     17 ****        -4.9434   1.5545  -1.4056 H              1 S1                 0.0000
     18 ****        -3.5003   2.1041  -2.2537 H              1 S1                 0.0000
     19 ****        -3.5139   2.0292  -0.4915 H              1 S1                 0.0000
     20 ****        -3.7322  -0.4811  -0.6077 H              1 S1                 0.0000
     21 ****        -3.7216  -0.4076  -2.3535 H              1 S1                 0.0000
     22 ****         0.7607  -1.9631   0.9104 H              1 S1                 0.0000
     23 ****         2.2306  -2.1406  -0.0424 H              1 S1                 0.0000
     24 ****         4.1892  -1.7769   1.3735 H              1 S1                 0.0000
     25 ****         1.0780   0.0931   3.0817 H              1 S1                 0.0000
     26 ****         2.5854   0.9335   2.7396 H              1 S1                 0.0000
     27 ****         1.5695   1.7323   0.9068 H              1 S1                 0.0000
     28 ****         0.2005   0.9015   1.3131 H              1 S1                 0.0000
     29 ****        -1.4267  -0.0516   0.6596 LP             1 S1                 0.0000
     30 ****         4.2996  -0.5816   2.4173 LP             1 S1                 0.0000
     31 ****         3.9383  -0.2956   0.8507 LP             1 S1                 0.0000
     32 ****        -1.4827   0.0924  -3.5219 LP             1 S1                 0.0000
@<TRIPOS>BOND
    1    1    2 1     
    2    1   17 1     
    3    1   18 1     
    4    1   19 1     
    5    2   20 1     
    6    2   21 1     
    7    2    3 1     
    8    3    4 1     
    9    3   13 2     
   10    4    5 2     
   11    5    6 1     
   12    5   12 1     
   13    6   14 1     
   14    6   11 1     
   15    6    7 1     
   16    7    8 1     
   17    7   22 1     
   18    7   23 1     
   19    8   15 1     
   20    8    9 1     
   21    8   10 1     
   22    9   24 1     
   23   10   11 1     
   24   10   25 1     
   25   10   26 1     
   26   11   27 1     
   27   11   28 1     
   28   12   13 1     
   29   12   16 1     
   30    4   29 1     
   31    9   30 1     
   32    9   31 1     
   33   13   32 1     
@<TRIPOS>SUBSTRUCTURE
      1 S1             1
@<TRIPOS>SET
LONE_PAIRS      STATIC     ATOMS    <user>   **** ""
4 29 30 31 32
DONOR_HYDROGENS      STATIC     ATOMS    <user>   **** ""
4 24 27 28 16
ATOM$BLUE        STATIC     ATOMS    COLORGROUP SYSTEM
4 29 30 31 32
ATOM$RED        STATIC     ATOMS    COLORGROUP SYSTEM
4 24 27 28 16
