AV-unprocessed.smi:1195|AV-procd|sdf|4995|dock9
  -GOLD-   22720 4 03D 1   1.00000     0.00000
 Structure written by MMmdl.
 39 40  0  0  0  0  0  0  0  0  1 V2000
  142.7727  133.0698  148.1041 N   0  0  0  0  0  0  0  0  0  0  0  0
  143.7839  132.4618  148.7292 C   0  0  0  0  0  0  0  0  0  0  0  0
  144.7937  132.0966  148.1288 O   0  0  0  0  0  0  0  0  0  0  0  0
  143.6193  132.2434  150.2393 C   0  0  0  0  0  0  0  0  0  0  0  0
  144.0412  133.3913  151.0257 N   0  0  0  0  0  0  0  0  0  0  0  0
  145.2087  134.1205  150.9110 C   0  0  0  0  0  0  0  0  0  0  0  0
  145.1317  135.0948  151.8657 C   0  0  0  0  0  0  0  0  0  0  0  0
  146.0586  136.1207  152.1798 N   0  0  0  0  0  0  0  0  0  0  0  0
  145.8560  137.1862  152.9722 C   0  0  0  0  0  0  0  0  0  0  0  0
  144.8022  137.4446  153.5542 O   0  0  0  0  0  0  0  0  0  0  0  0
  146.9553  137.9493  153.0540 N   0  0  0  0  0  0  0  0  0  0  0  0
  147.0674  139.1820  153.8279 C   0  0  2  0  0  0  0  0  0  0  0  0
  147.7168  140.2783  152.9644 C   0  0  0  0  0  0  0  0  0  0  0  0
  147.8947  141.5876  153.7536 C   0  0  0  0  0  0  0  0  0  0  0  0
  148.6730  141.3781  155.0665 C   0  0  2  0  0  0  0  0  0  0  0  0
  150.0295  141.0944  154.7860 O   0  0  0  0  0  0  0  0  0  0  0  0
  148.0617  140.2468  155.9145 C   0  0  0  0  0  0  0  0  0  0  0  0
  147.8860  138.9455  155.1128 C   0  0  0  0  0  0  0  0  0  0  0  0
  143.8895  134.8963  152.5223 C   0  0  0  0  0  0  0  0  0  0  0  0
  143.2373  133.8628  152.0119 N   0  0  0  0  0  0  0  0  0  0  0  0
  142.8295  133.2394  147.1103 H   0  0  0  0  0  0  0  0  0  0  0  0
  141.9571  133.3584  148.6241 H   0  0  0  0  0  0  0  0  0  0  0  0
  142.5755  132.0178  150.4630 H   0  0  0  0  0  0  0  0  0  0  0  0
  144.2084  131.3793  150.5491 H   0  0  0  0  0  0  0  0  0  0  0  0
  145.9621  133.8832  150.1746 H   0  0  0  0  0  0  0  0  0  0  0  0
  146.9703  136.0354  151.7546 H   0  0  0  0  0  0  0  0  0  0  0  0
  147.7766  137.6572  152.5448 H   0  0  0  0  0  0  0  0  0  0  0  0
  146.0659  139.5183  154.1036 H   0  0  0  0  0  0  0  0  0  0  0  0
  148.6877  139.9377  152.6020 H   0  0  0  0  0  0  0  0  0  0  0  0
  147.1077  140.4665  152.0794 H   0  0  0  0  0  0  0  0  0  0  0  0
  148.3928  142.3339  153.1334 H   0  0  0  0  0  0  0  0  0  0  0  0
  146.9103  141.9957  153.9862 H   0  0  0  0  0  0  0  0  0  0  0  0
  148.6550  142.3043  155.6417 H   0  0  0  0  0  0  0  0  0  0  0  0
  150.4712  140.9042  155.5995 H   0  0  0  0  0  0  0  0  0  0  0  0
  148.6730  140.0630  156.7989 H   0  0  0  0  0  0  0  0  0  0  0  0
  147.0859  140.5667  156.2821 H   0  0  0  0  0  0  0  0  0  0  0  0
  147.3976  138.1980  155.7391 H   0  0  0  0  0  0  0  0  0  0  0  0
  148.8652  138.5380  154.8576 H   0  0  0  0  0  0  0  0  0  0  0  0
  143.4490  135.4540  153.3355 H   0  0  0  0  0  0  0  0  0  0  0  0
  1  2  1  0  0  0  0
  1 21  1  0  0  0  0
  1 22  1  0  0  0  0
  2  3  2  0  0  0  0
  2  4  1  0  0  0  0
  4  5  1  0  0  0  0
  4 23  1  0  0  0  0
  4 24  1  0  0  0  0
  5 20  1  0  0  0  0
  5  6  1  0  0  0  0
  6  7  2  0  0  0  0
  6 25  1  0  0  0  0
  7  8  1  0  0  0  0
  7 19  1  0  0  0  0
  8  9  1  0  0  0  0
  8 26  1  0  0  0  0
  9 10  2  0  0  0  0
  9 11  1  0  0  0  0
 11 12  1  0  0  0  0
 11 27  1  0  0  0  0
 12 18  1  0  0  0  0
 12 13  1  0  0  0  0
 12 28  1  0  0  0  0
 13 14  1  0  0  0  0
 13 29  1  0  0  0  0
 13 30  1  0  0  0  0
 14 15  1  0  0  0  0
 14 31  1  0  0  0  0
 14 32  1  0  0  0  0
 15 16  1  0  0  0  0
 15 17  1  0  0  0  0
 15 33  1  0  0  0  0
 16 34  1  0  0  0  0
 17 18  1  0  0  0  0
 17 35  1  0  0  0  0
 17 36  1  0  0  0  0
 18 37  1  0  0  0  0
 18 38  1  0  0  0  0
 19 20  2  0  0  0  0
 19 39  1  0  0  0  0
M  END
> <s_m_source_file>
AV-unprocessed.smi

> <i_m_source_file_index>
1195

> <i_lp_mmshare_version>
43012

> <i_f3d_flags>
0

> <s_epik_input>
W05IMl1DKD1PKVtDSDJdbjFbY0hdYyhbY0hdbjEpW05IXUMoPU8pW05IXVtDQEBIXTJbQ0gyXVtDSDJdW0NAQEhdKFtPSF0pW0NIMl1bQ0gyXTI=

> <s_epik_cmdline>
J2VwaWtfcHl0aG9uJywgJy1waCcsICc3LjAnLCAnLXRuJywgJzgnLCAnLW1hJywgJzIwMCcsICctbWV0YWxfYmluZGluZycsICctaW1hZScsICc8aW5maWxlLm1hZT4nLCAnLW9tYWUnLCAnPG91dGZpbGUubWFlPic=

> <r_lp_tautomer_probability>
1

> <r_epik_Ionization_Penalty>
4.75851e-05

> <r_epik_Ionization_Penalty_Charging>
0

> <r_epik_Ionization_Penalty_Neutral>
4.75851e-05

> <r_epik_State_Penalty>
-0

> <r_epik_Charging_Adjusted_Penalty>
0

> <i_epik_Tot_Q>
0

> <i_epik_Tot_abs_Q>
0

> <r_epik_Metal_State_Penalty>
-0

> <b_epik_Metal_Only>
0

> <s_lp_Force_Field>
OPLS_2005

> <r_lp_Energy>
14.5792

> <b_lp_Chiralities_Consistent>
1

> <s_lp_Variant>
AV-unprocessed.smi:1195-2

> <Gold.Version>
5.8.1

> <Gold.Id.Protein>
6NUR|6NUR_protein|mol2

> <Gold.PLP.Fitness>
45.4642

> <Gold.PLP.PLP>
-31.2576

> <Gold.PLP.part.hbond>
-6.6382

> <Gold.PLP.part.metal>
0.0000

> <Gold.PLP.part.buried>
-0.9327

> <Gold.PLP.part.nonpolar>
-24.4457

> <Gold.PLP.part.repulsive>
1.8820

> <Gold.PLP.ligand.clash>
0.0000

> <Gold.PLP.ligand.torsion>
0.6904

> <Gold.PLP.Chemscore.Hbond>
4.5040

> <Gold.PLP.Chemscore.CHOScore>
0.6860

> <Gold.PLP.Chemscore.Metal>
0.0000

> <Gold.Chemscore.Hbonds>
donor molecule, donor type, donor heavy atom, donor atom, acceptor molecule, acceptor atom, score
      L1  H     1    21       P1 10195  0.83
      L1  H     1    22       P1 10186  1.00
      L1  H     8    26       P1  7948  1.00
      L1  H    11    27       P1  7948  1.00
      P1  H  7989  7998       L1    16  0.59
      L1  C     6    25       P1  7921  0.54

> <Gold.PLP.Chemscore.Internal.Correction>
0.0173

> <Gold.Rescore>
     Score         DG    S(hbond)    S(metal)    S(lipo)     H(rot)  DE(clash)    DE(int)     intcor
     17.17     -20.90       4.69        0.00      55.22       2.62       1.74       1.99       ----

> <Gold.Chemscore.Fitness>
17.1724

> <Gold.Chemscore.DG>
-20.9008

> <Gold.Chemscore.ZeroCoef>
-5.4800

> <Gold.Chemscore.Hbond>
4.6918

> <Gold.Chemscore.Metal>
0.0000

> <Gold.Chemscore.Lipo>
55.2176

> <Gold.Chemscore.Internal_Hbond>
0.0000

> <Gold.Chemscore.DEClash>
1.7411

> <Gold.Chemscore.DEInternal>
1.9873

> <Gold.Chemscore.Rot>
2.6212

> <Gold.Chemscore.Internal.Correction>
   9.000000E+99

> <Gold.Chemscore.Hbonds>
donor molecule, donor type, donor heavy atom, donor atom, acceptor molecule, acceptor atom, score
      L1  H     1    21       P1 10195  0.83
      L1  H     1    22       P1 10186  0.98
      L1  H     8    26       P1  7948  0.95
      L1  H    11    27       P1  7948  0.94
      P1  H  7989  7998       L1    16  0.14

> <Gold.Chemscore.Hbond.Weighted>
-15.6706

> <Gold.Chemscore.Metal.Weighted>
-0.0000

> <Gold.Chemscore.Lipo.Weighted>
-6.4605

> <Gold.Chemscore.Internal_Hbond.Weighted>
0.0000

> <Gold.Chemscore.DEClash.Weighted>
1.7411

> <Gold.Chemscore.DEInternal.Weighted>
1.9873

> <Gold.Chemscore.Rot.Weighted>
6.7103

> <Gold.Chemscore.Internal.Correction.Weighted>
   9.000000E+99

> <Gold.Protein.RotatedTorsions>
[ 6907 6896 6895 6894 ] final  -59.32 input  -60.11 | X-H torsion
[ 7974 7965 7964 7962 ] final  108.50 input  175.53 | X-H torsion
[ 8008 7997 7996 7995 ] final  104.19 input   59.86 | X-H torsion
[ 10167 10162 10161 10158 ] final  -95.10 input  -65.29 | X-H torsion
[ 10718 10713 10712 10709 ] final  -31.88 input   66.30 | X-H torsion
[ 10763 10752 10751 10750 ] final  -86.35 input  -60.55 | X-H torsion
[ 11005 11000 10999 10996 ] final  151.12 input  -57.11 | X-H torsion

> <Gold.Protein.ActiveResidues>
 VAL166  LYS551  ARG553  GLY616  TRP617  ASP618  TYR619  PRO620  LYS621  CYS622 
 ASP623  PHE694  ASN695  SER759  ASP760  ASP761  ALA762  ILE779  LEU786  VAL792 
 PHE793  MET794  SER795  GLU796  ALA797  LYS798  CYS799  TRP800  GLU811  SER814 

> <Gold.Protein.RotatedAtoms>
  150.7939  134.6984  159.6535 H   0  0  0  0  0  0  0  0  0  0  0  0  # atno 6907 bound_to 6896
  152.4049  134.6221  160.0063 H   0  0  0  0  0  0  0  0  0  0  0  0  # atno 6908 bound_to 6896
  151.6481  133.3285  159.3182 H   0  0  0  0  0  0  0  0  0  0  0  0  # atno 6909 bound_to 6896
  145.2799  139.2636  143.3921 H   0  0  0  0  0  0  0  0  0  0  0  0  # atno 7974 bound_to 7965
  156.1551  140.3152  155.8712 H   0  0  0  0  0  0  0  0  0  0  0  0  # atno 8008 bound_to 7997
  155.3894  140.0492  157.3058 H   0  0  0  0  0  0  0  0  0  0  0  0  # atno 8009 bound_to 7997
  154.5094  140.2159  155.9198 H   0  0  0  0  0  0  0  0  0  0  0  0  # atno 8010 bound_to 7997
  140.3076  143.3124  152.0182 H   0  0  0  0  0  0  0  0  0  0  0  0  # atno 10167 bound_to 10162
  156.3818  130.4357  149.7463 H   0  0  0  0  0  0  0  0  0  0  0  0  # atno 10718 bound_to 10713
  154.6215  135.5452  153.7580 H   0  0  0  0  0  0  0  0  0  0  0  0  # atno 10763 bound_to 10752
  153.0241  135.6414  154.1433 H   0  0  0  0  0  0  0  0  0  0  0  0  # atno 10764 bound_to 10752
  154.1367  135.2911  155.3151 H   0  0  0  0  0  0  0  0  0  0  0  0  # atno 10765 bound_to 10752
  140.1191  134.8875  157.2046 H   0  0  0  0  0  0  0  0  0  0  0  0  # atno 11005 bound_to 11000
  146.3219  140.3264  142.8637 LP  0  0  0  0  0  0  0  0  0  0  0  0  # atno 17320 bound_to 7965
  144.9262  140.7924  143.5718 LP  0  0  0  0  0  0  0  0  0  0  0  0  # atno 17321 bound_to 7965
  139.4901  144.6409  151.6879 LP  0  0  0  0  0  0  0  0  0  0  0  0  # atno 17342 bound_to 10162
  140.5596  144.0290  150.6163 LP  0  0  0  0  0  0  0  0  0  0  0  0  # atno 17343 bound_to 10162
  156.4550  130.7925  151.2946 LP  0  0  0  0  0  0  0  0  0  0  0  0  # atno 17370 bound_to 10713
  157.7493  131.0083  150.3225 LP  0  0  0  0  0  0  0  0  0  0  0  0  # atno 17371 bound_to 10713
  140.2989  134.3154  155.7295 LP  0  0  0  0  0  0  0  0  0  0  0  0  # atno 17394 bound_to 11000
  141.2148  133.7580  156.9612 LP  0  0  0  0  0  0  0  0  0  0  0  0  # atno 17395 bound_to 11000

$$$$
