AV-unprocessed.smi:2438|AV-procd|sdf|9598|dock4
  -GOLD-   2272013233D 1   1.00000     0.00000
 Structure written by MMmdl.
 43 44  0  0  0  0  0  0  0  0  1 V2000
  158.7933  141.6923  158.5241 C   0  0  0  0  0  0  0  0  0  0  0  0
  158.8201  141.3826  159.9471 N   0  0  0  0  0  0  0  0  0  0  0  0
  160.0034  141.8212  160.6768 C   0  0  0  0  0  0  0  0  0  0  0  0
  158.3464  140.0890  160.2445 C   0  0  0  0  0  0  0  0  0  0  0  0
  159.2596  139.1050  160.4304 N   0  0  0  0  0  0  0  0  0  0  0  0
  158.8026  137.8794  160.6918 C   0  0  0  0  0  0  0  0  0  0  0  0
  157.5261  137.5111  160.7987 N   0  0  0  0  0  0  0  0  0  0  0  0
  156.5991  138.4747  160.6195 C   0  0  0  0  0  0  0  0  0  0  0  0
  156.9559  139.8136  160.3236 C   0  0  0  0  0  0  0  0  0  0  0  0
  156.0057  140.8613  160.1736 N   0  0  0  0  0  0  0  0  0  0  0  0
  154.7264  140.8779  160.5801 C   0  0  0  0  0  0  0  0  0  0  0  0
  154.1740  139.9867  161.2248 O   0  0  0  0  0  0  0  0  0  0  0  0
  154.1042  141.9906  160.1672 N   0  0  0  0  0  0  0  0  0  0  0  0
  152.6906  142.3001  160.3751 C   0  0  1  0  0  0  0  0  0  0  0  0
  152.4139  143.7780  160.0391 C   0  0  0  0  0  0  0  0  0  0  0  0
  152.5083  144.0564  158.5290 C   0  0  0  0  0  0  0  0  0  0  0  0
  151.5909  143.1198  157.7266 C   0  0  0  0  0  0  0  0  0  0  0  0
  151.8896  141.6352  158.0246 C   0  0  2  0  0  0  0  0  0  0  0  0
  150.9904  140.6863  157.2066 C   0  0  0  0  0  0  0  0  0  0  0  0
  151.4055  139.4243  157.3191 F   0  0  0  0  0  0  0  0  0  0  0  0
  149.7317  140.7664  157.6385 F   0  0  0  0  0  0  0  0  0  0  0  0
  151.0104  141.0340  155.9198 F   0  0  0  0  0  0  0  0  0  0  0  0
  151.7802  141.3698  159.5430 C   0  0  0  0  0  0  0  0  0  0  0  0
  157.7999  141.5532  158.0979 H   0  0  0  0  0  0  0  0  0  0  0  0
  159.4895  141.0514  157.9821 H   0  0  0  0  0  0  0  0  0  0  0  0
  159.0850  142.7293  158.3555 H   0  0  0  0  0  0  0  0  0  0  0  0
  159.9175  141.5834  161.7378 H   0  0  0  0  0  0  0  0  0  0  0  0
  160.1236  142.9007  160.5854 H   0  0  0  0  0  0  0  0  0  0  0  0
  160.9024  141.3440  160.2849 H   0  0  0  0  0  0  0  0  0  0  0  0
  159.5433  137.1070  160.8363 H   0  0  0  0  0  0  0  0  0  0  0  0
  155.5735  138.1627  160.7431 H   0  0  0  0  0  0  0  0  0  0  0  0
  156.2982  141.6284  159.5857 H   0  0  0  0  0  0  0  0  0  0  0  0
  154.6422  142.6666  159.6449 H   0  0  0  0  0  0  0  0  0  0  0  0
  152.4677  142.1508  161.4332 H   0  0  0  0  0  0  0  0  0  0  0  0
  151.4138  144.0408  160.3860 H   0  0  0  0  0  0  0  0  0  0  0  0
  153.1025  144.4257  160.5831 H   0  0  0  0  0  0  0  0  0  0  0  0
  152.2429  145.0947  158.3280 H   0  0  0  0  0  0  0  0  0  0  0  0
  153.5389  143.9339  158.1939 H   0  0  0  0  0  0  0  0  0  0  0  0
  150.5499  143.3421  157.9640 H   0  0  0  0  0  0  0  0  0  0  0  0
  151.7126  143.3214  156.6621 H   0  0  0  0  0  0  0  0  0  0  0  0
  152.9193  141.4374  157.7224 H   0  0  0  0  0  0  0  0  0  0  0  0
  152.0120  140.3268  159.7608 H   0  0  0  0  0  0  0  0  0  0  0  0
  150.7464  141.5153  159.8587 H   0  0  0  0  0  0  0  0  0  0  0  0
  1  2  1  0  0  0  0
  1 24  1  0  0  0  0
  1 25  1  0  0  0  0
  1 26  1  0  0  0  0
  2  3  1  0  0  0  0
  2  4  1  0  0  0  0
  3 27  1  0  0  0  0
  3 28  1  0  0  0  0
  3 29  1  0  0  0  0
  4  9  1  0  0  0  0
  4  5  2  0  0  0  0
  5  6  1  0  0  0  0
  6  7  2  0  0  0  0
  6 30  1  0  0  0  0
  7  8  1  0  0  0  0
  8  9  2  0  0  0  0
  8 31  1  0  0  0  0
  9 10  1  0  0  0  0
 10 11  1  0  0  0  0
 10 32  1  0  0  0  0
 11 12  2  0  0  0  0
 11 13  1  0  0  0  0
 13 14  1  0  0  0  0
 13 33  1  0  0  0  0
 14 23  1  0  0  0  0
 14 15  1  0  0  0  0
 14 34  1  0  0  0  0
 15 16  1  0  0  0  0
 15 35  1  0  0  0  0
 15 36  1  0  0  0  0
 16 17  1  0  0  0  0
 16 37  1  0  0  0  0
 16 38  1  0  0  0  0
 17 18  1  0  0  0  0
 17 39  1  0  0  0  0
 17 40  1  0  0  0  0
 18 19  1  0  0  0  0
 18 23  1  0  0  0  0
 18 41  1  0  0  0  0
 19 20  1  0  0  0  0
 19 21  1  0  0  0  0
 19 22  1  0  0  0  0
 23 42  1  0  0  0  0
 23 43  1  0  0  0  0
M  END
> <s_m_source_file>
AV-unprocessed.smi

> <i_m_source_file_index>
2438

> <i_lp_mmshare_version>
43012

> <i_f3d_flags>
0

> <s_epik_input>
W0NIM11OKFtDSDNdKWMxbltjSF1uW2NIXWMxW05IXUMoPU8pW05IXVtDQEBIXTJbQ0gyXVtDSDJdW0NIMl1bQ0BASF0oQyhGKShGKUYpW0NIMl0y

> <s_epik_cmdline>
J2VwaWtfcHl0aG9uJywgJy1waCcsICc3LjAnLCAnLXRuJywgJzgnLCAnLW1hJywgJzIwMCcsICctbWV0YWxfYmluZGluZycsICctaW1hZScsICc8aW5maWxlLm1hZT4nLCAnLW9tYWUnLCAnPG91dGZpbGUubWFlPic=

> <r_lp_tautomer_probability>
1

> <r_epik_Ionization_Penalty>
0.01759

> <r_epik_Ionization_Penalty_Charging>
0

> <r_epik_Ionization_Penalty_Neutral>
0.01759

> <r_epik_State_Penalty>
0.0133536

> <r_epik_Charging_Adjusted_Penalty>
0.0133536

> <i_epik_Tot_Q>
0

> <i_epik_Tot_abs_Q>
0

> <r_epik_Metal_State_Penalty>
0.0129828

> <b_epik_Metal_Only>
0

> <s_lp_Force_Field>
OPLS_2005

> <r_lp_Energy>
8.79066

> <b_lp_Chiralities_Consistent>
1

> <s_lp_Variant>
AV-unprocessed.smi:2438-4

> <Gold.Version>
5.8.1

> <Gold.Id.Protein>
6NUR|6NUR_protein|mol2

> <Gold.PLP.Fitness>
37.3382

> <Gold.PLP.PLP>
-38.7406

> <Gold.PLP.part.hbond>
-1.0509

> <Gold.PLP.part.metal>
0.0000

> <Gold.PLP.part.buried>
-6.1131

> <Gold.PLP.part.nonpolar>
-32.4403

> <Gold.PLP.part.repulsive>
0.4811

> <Gold.PLP.ligand.clash>
0.0000

> <Gold.PLP.ligand.torsion>
0.8747

> <Gold.PLP.Chemscore.Hbond>
0.0000

> <Gold.PLP.Chemscore.CHOScore>
0.0000

> <Gold.PLP.Chemscore.Metal>
0.0000

> <Gold.PLP.Chemscore.Internal.Correction>
0.3471

> <Gold.Rescore>
     Score         DG    S(hbond)    S(metal)    S(lipo)     H(rot)  DE(clash)    DE(int)     intcor
     11.17     -13.29       0.00        0.00      95.16       1.30       0.22       1.91       ----

> <Gold.Chemscore.Fitness>
11.1656

> <Gold.Chemscore.DG>
-13.2887

> <Gold.Chemscore.ZeroCoef>
-5.4800

> <Gold.Chemscore.Hbond>
0.0000

> <Gold.Chemscore.Metal>
0.0000

> <Gold.Chemscore.Lipo>
95.1562

> <Gold.Chemscore.Internal_Hbond>
0.0000

> <Gold.Chemscore.DEClash>
0.2152

> <Gold.Chemscore.DEInternal>
1.9078

> <Gold.Chemscore.Rot>
1.2987

> <Gold.Chemscore.Internal.Correction>
   9.000000E+99

> <Gold.Chemscore.Hbond.Weighted>
-0.0000

> <Gold.Chemscore.Metal.Weighted>
-0.0000

> <Gold.Chemscore.Lipo.Weighted>
-11.1333

> <Gold.Chemscore.Internal_Hbond.Weighted>
0.0000

> <Gold.Chemscore.DEClash.Weighted>
0.2152

> <Gold.Chemscore.DEInternal.Weighted>
1.9078

> <Gold.Chemscore.Rot.Weighted>
3.3246

> <Gold.Chemscore.Internal.Correction.Weighted>
   9.000000E+99

> <Gold.Protein.RotatedTorsions>
[ 6907 6896 6895 6894 ] final -114.34 input  -60.11 | X-H torsion
[ 7974 7965 7964 7962 ] final  -64.01 input  175.53 | X-H torsion
[ 8008 7997 7996 7995 ] final  -99.24 input   59.86 | X-H torsion
[ 10167 10162 10161 10158 ] final   12.89 input  -65.29 | X-H torsion
[ 10718 10713 10712 10709 ] final  102.01 input   66.30 | X-H torsion
[ 10763 10752 10751 10750 ] final   19.68 input  -60.55 | X-H torsion
[ 11005 11000 10999 10996 ] final  -77.62 input  -57.11 | X-H torsion

> <Gold.Protein.ActiveResidues>
 VAL166  LYS551  ARG553  GLY616  TRP617  ASP618  TYR619  PRO620  LYS621  CYS622 
 ASP623  PHE694  ASN695  SER759  ASP760  ASP761  ALA762  ILE779  LEU786  VAL792 
 PHE793  MET794  SER795  GLU796  ALA797  LYS798  CYS799  TRP800  GLU811  SER814 

> <Gold.Protein.RotatedAtoms>
  150.7895  133.8815  159.3287 H   0  0  0  0  0  0  0  0  0  0  0  0  # atno 6907 bound_to 6896
  151.6657  135.0981  160.0197 H   0  0  0  0  0  0  0  0  0  0  0  0  # atno 6908 bound_to 6896
  152.3966  133.6717  159.6317 H   0  0  0  0  0  0  0  0  0  0  0  0  # atno 6909 bound_to 6896
  145.7720  140.8808  143.0375 H   0  0  0  0  0  0  0  0  0  0  0  0  # atno 7974 bound_to 7965
  154.8121  140.0449  157.1350 H   0  0  0  0  0  0  0  0  0  0  0  0  # atno 8008 bound_to 7997
  154.9356  140.3045  155.5126 H   0  0  0  0  0  0  0  0  0  0  0  0  # atno 8009 bound_to 7997
  156.2972  140.2315  156.4420 H   0  0  0  0  0  0  0  0  0  0  0  0  # atno 8010 bound_to 7997
  140.6038  143.8549  150.6993 H   0  0  0  0  0  0  0  0  0  0  0  0  # atno 10167 bound_to 10162
  157.6814  131.0742  150.5340 H   0  0  0  0  0  0  0  0  0  0  0  0  # atno 10718 bound_to 10713
  153.1141  135.6704  153.9448 H   0  0  0  0  0  0  0  0  0  0  0  0  # atno 10763 bound_to 10752
  153.8983  135.3039  155.3449 H   0  0  0  0  0  0  0  0  0  0  0  0  # atno 10764 bound_to 10752
  154.7559  135.5012  153.9451 H   0  0  0  0  0  0  0  0  0  0  0  0  # atno 10765 bound_to 10752
  141.1661  133.7030  156.7848 H   0  0  0  0  0  0  0  0  0  0  0  0  # atno 11005 bound_to 11000
  144.6811  139.9868  143.7484 LP  0  0  0  0  0  0  0  0  0  0  0  0  # atno 17320 bound_to 7965
  146.0161  139.3211  143.0841 LP  0  0  0  0  0  0  0  0  0  0  0  0  # atno 17321 bound_to 7965
  140.2102  143.3890  152.1724 LP  0  0  0  0  0  0  0  0  0  0  0  0  # atno 17342 bound_to 10162
  139.5310  144.7159  151.5056 LP  0  0  0  0  0  0  0  0  0  0  0  0  # atno 17343 bound_to 10162
  156.5649  130.4265  149.6046 LP  0  0  0  0  0  0  0  0  0  0  0  0  # atno 17370 bound_to 10713
  156.2790  130.7060  151.1879 LP  0  0  0  0  0  0  0  0  0  0  0  0  # atno 17371 bound_to 10713
  140.2368  134.8644  157.3533 LP  0  0  0  0  0  0  0  0  0  0  0  0  # atno 17394 bound_to 11000
  140.1836  134.4459  155.7757 LP  0  0  0  0  0  0  0  0  0  0  0  0  # atno 17395 bound_to 11000

$$$$
