AV-unprocessed.smi:2513|AV-procd|sdf|9891|dock2
  -GOLD-   2272013523D 1   1.00000     0.00000
 Structure written by MMmdl.
 35 36  0  0  0  0  0  0  0  0  1 V2000
  151.9009  145.6029  159.5875 C   0  0  0  0  0  0  0  0  0  0  0  0
  151.5392  144.4214  158.8876 O   0  0  0  0  0  0  0  0  0  0  0  0
  152.1650  143.2393  159.2329 C   0  0  0  0  0  0  0  0  0  0  0  0
  153.1067  143.1299  160.2880 C   0  0  0  0  0  0  0  0  0  0  0  0
  153.6928  141.8825  160.5635 C   0  0  0  0  0  0  0  0  0  0  0  0
  153.3165  140.7837  159.7742 C   0  0  0  0  0  0  0  0  0  0  0  0
  152.4227  140.8730  158.7699 N   0  0  0  0  0  0  0  0  0  0  0  0
  151.8494  142.0706  158.4918 C   0  0  0  0  0  0  0  0  0  0  0  0
  150.8989  142.2479  157.4483 N   0  0  0  0  0  0  0  0  0  0  0  0
  150.6056  141.4164  156.4333 C   0  0  0  0  0  0  0  0  0  0  0  0
  151.1327  140.3218  156.2324 O   0  0  0  0  0  0  0  0  0  0  0  0
  149.6479  141.9305  155.6482 N   0  0  0  0  0  0  0  0  0  0  0  0
  149.0977  141.2852  154.4600 C   0  0  2  0  0  0  0  0  0  0  0  0
  147.7457  141.9203  154.1025 C   0  0  0  0  0  0  0  0  0  0  0  0
  147.0987  141.1570  152.9414 C   0  0  0  0  0  0  0  0  0  0  0  0
  147.0312  139.6547  153.2580 C   0  0  0  0  0  0  0  0  0  0  0  0
  148.3358  139.1616  153.5433 O   0  0  0  0  0  0  0  0  0  0  0  0
  148.9243  139.7689  154.6892 C   0  0  0  0  0  0  0  0  0  0  0  0
  151.3208  146.4410  159.2011 H   0  0  0  0  0  0  0  0  0  0  0  0
  152.9564  145.8412  159.4494 H   0  0  0  0  0  0  0  0  0  0  0  0
  151.6853  145.5169  160.6533 H   0  0  0  0  0  0  0  0  0  0  0  0
  153.3925  143.9775  160.8918 H   0  0  0  0  0  0  0  0  0  0  0  0
  154.4136  141.7714  161.3601 H   0  0  0  0  0  0  0  0  0  0  0  0
  153.7436  139.8078  159.9525 H   0  0  0  0  0  0  0  0  0  0  0  0
  150.3817  143.1139  157.4828 H   0  0  0  0  0  0  0  0  0  0  0  0
  149.2709  142.8356  155.8884 H   0  0  0  0  0  0  0  0  0  0  0  0
  149.7792  141.4385  153.6209 H   0  0  0  0  0  0  0  0  0  0  0  0
  147.0809  141.8928  154.9673 H   0  0  0  0  0  0  0  0  0  0  0  0
  147.8739  142.9707  153.8378 H   0  0  0  0  0  0  0  0  0  0  0  0
  146.0998  141.5468  152.7441 H   0  0  0  0  0  0  0  0  0  0  0  0
  147.6807  141.3111  152.0320 H   0  0  0  0  0  0  0  0  0  0  0  0
  146.3659  139.4639  154.1015 H   0  0  0  0  0  0  0  0  0  0  0  0
  146.6272  139.1097  152.4047 H   0  0  0  0  0  0  0  0  0  0  0  0
  149.8912  139.2977  154.8684 H   0  0  0  0  0  0  0  0  0  0  0  0
  148.3088  139.5730  155.5688 H   0  0  0  0  0  0  0  0  0  0  0  0
  1  2  1  0  0  0  0
  1 19  1  0  0  0  0
  1 20  1  0  0  0  0
  1 21  1  0  0  0  0
  2  3  1  0  0  0  0
  3  8  1  0  0  0  0
  3  4  2  0  0  0  0
  4  5  1  0  0  0  0
  4 22  1  0  0  0  0
  5  6  2  0  0  0  0
  5 23  1  0  0  0  0
  6  7  1  0  0  0  0
  6 24  1  0  0  0  0
  7  8  2  0  0  0  0
  8  9  1  0  0  0  0
  9 10  1  0  0  0  0
  9 25  1  0  0  0  0
 10 11  2  0  0  0  0
 10 12  1  0  0  0  0
 12 13  1  0  0  0  0
 12 26  1  0  0  0  0
 13 18  1  0  0  0  0
 13 14  1  0  0  0  0
 13 27  1  0  0  0  0
 14 15  1  0  0  0  0
 14 28  1  0  0  0  0
 14 29  1  0  0  0  0
 15 16  1  0  0  0  0
 15 30  1  0  0  0  0
 15 31  1  0  0  0  0
 16 17  1  0  0  0  0
 16 32  1  0  0  0  0
 16 33  1  0  0  0  0
 17 18  1  0  0  0  0
 18 34  1  0  0  0  0
 18 35  1  0  0  0  0
M  END
> <s_m_source_file>
AV-unprocessed.smi

> <i_m_source_file_index>
2513

> <i_lp_mmshare_version>
43012

> <i_f3d_flags>
0

> <s_epik_input>
W0NIM11PYzFbY0hdW2NIXVtjSF1uYzFbTkhdQyg9TylbTkhdW0NAQEhdMltDSDJdW0NIMl1bQ0gyXU9bQ0gyXTI=

> <s_epik_cmdline>
J2VwaWtfcHl0aG9uJywgJy1waCcsICc3LjAnLCAnLXRuJywgJzgnLCAnLW1hJywgJzIwMCcsICctbWV0YWxfYmluZGluZycsICctaW1hZScsICc8aW5maWxlLm1hZT4nLCAnLW9tYWUnLCAnPG91dGZpbGUubWFlPic=

> <r_lp_tautomer_probability>
1

> <r_epik_Ionization_Penalty>
3.98976e-05

> <r_epik_Ionization_Penalty_Charging>
0

> <r_epik_Ionization_Penalty_Neutral>
3.98976e-05

> <r_epik_State_Penalty>
-0

> <r_epik_Charging_Adjusted_Penalty>
0

> <i_epik_Tot_Q>
0

> <i_epik_Tot_abs_Q>
0

> <r_epik_Metal_State_Penalty>
-0

> <b_epik_Metal_Only>
0

> <s_lp_Force_Field>
OPLS_2005

> <r_lp_Energy>
12.9865

> <b_lp_Chiralities_Consistent>
1

> <s_lp_Variant>
AV-unprocessed.smi:2513-1

> <Gold.Version>
5.8.1

> <Gold.Id.Protein>
6NUR|6NUR_protein|mol2

> <Gold.PLP.Fitness>
40.5343

> <Gold.PLP.PLP>
-38.1837

> <Gold.PLP.part.hbond>
-1.0000

> <Gold.PLP.part.metal>
0.0000

> <Gold.PLP.part.buried>
-6.9473

> <Gold.PLP.part.nonpolar>
-31.7179

> <Gold.PLP.part.repulsive>
2.3497

> <Gold.PLP.ligand.clash>
0.0000

> <Gold.PLP.ligand.torsion>
0.3284

> <Gold.PLP.Chemscore.Hbond>
1.0000

> <Gold.PLP.Chemscore.CHOScore>
0.0000

> <Gold.PLP.Chemscore.Metal>
0.0000

> <Gold.Chemscore.Hbonds>
donor molecule, donor type, donor heavy atom, donor atom, acceptor molecule, acceptor atom, score
      L1  H    12    26       P1  8028  1.00

> <Gold.PLP.Chemscore.Internal.Correction>
0.0072

> <Gold.Rescore>
     Score         DG    S(hbond)    S(metal)    S(lipo)     H(rot)  DE(clash)    DE(int)     intcor
     12.79     -15.90       0.92        0.00      90.09       1.25       0.06       3.05       ----

> <Gold.Chemscore.Fitness>
12.7872

> <Gold.Chemscore.DG>
-15.8965

> <Gold.Chemscore.ZeroCoef>
-5.4800

> <Gold.Chemscore.Hbond>
0.9243

> <Gold.Chemscore.Metal>
0.0000

> <Gold.Chemscore.Lipo>
90.0857

> <Gold.Chemscore.Internal_Hbond>
0.0000

> <Gold.Chemscore.DEClash>
0.0633

> <Gold.Chemscore.DEInternal>
3.0460

> <Gold.Chemscore.Rot>
1.2542

> <Gold.Chemscore.Internal.Correction>
   9.000000E+99

> <Gold.Chemscore.Hbonds>
donor molecule, donor type, donor heavy atom, donor atom, acceptor molecule, acceptor atom, score
      L1  H    12    26       P1  8028  0.98

> <Gold.Chemscore.Hbond.Weighted>
-3.0871

> <Gold.Chemscore.Metal.Weighted>
-0.0000

> <Gold.Chemscore.Lipo.Weighted>
-10.5400

> <Gold.Chemscore.Internal_Hbond.Weighted>
0.0000

> <Gold.Chemscore.DEClash.Weighted>
0.0633

> <Gold.Chemscore.DEInternal.Weighted>
3.0460

> <Gold.Chemscore.Rot.Weighted>
3.2107

> <Gold.Chemscore.Internal.Correction.Weighted>
   9.000000E+99

> <Gold.Protein.RotatedTorsions>
[ 6907 6896 6895 6894 ] final -114.92 input  -60.11 | X-H torsion
[ 7974 7965 7964 7962 ] final  -34.36 input  175.53 | X-H torsion
[ 8008 7997 7996 7995 ] final -146.43 input   59.86 | X-H torsion
[ 10167 10162 10161 10158 ] final -161.54 input  -65.29 | X-H torsion
[ 10718 10713 10712 10709 ] final  -28.86 input   66.30 | X-H torsion
[ 10763 10752 10751 10750 ] final   12.02 input  -60.55 | X-H torsion
[ 11005 11000 10999 10996 ] final -162.92 input  -57.11 | X-H torsion

> <Gold.Protein.ActiveResidues>
 VAL166  LYS551  ARG553  GLY616  TRP617  ASP618  TYR619  PRO620  LYS621  CYS622 
 ASP623  PHE694  ASN695  SER759  ASP760  ASP761  ALA762  ILE779  LEU786  VAL792 
 PHE793  MET794  SER795  GLU796  ALA797  LYS798  CYS799  TRP800  GLU811  SER814 

> <Gold.Protein.RotatedAtoms>
  150.7938  133.8732  159.3264 H   0  0  0  0  0  0  0  0  0  0  0  0  # atno 6907 bound_to 6896
  151.6563  135.0993  160.0180 H   0  0  0  0  0  0  0  0  0  0  0  0  # atno 6908 bound_to 6896
  152.4017  133.6788  159.6357 H   0  0  0  0  0  0  0  0  0  0  0  0  # atno 6909 bound_to 6896
  146.0836  140.6029  142.8897 H   0  0  0  0  0  0  0  0  0  0  0  0  # atno 7974 bound_to 7965
  155.5593  140.0624  157.2832 H   0  0  0  0  0  0  0  0  0  0  0  0  # atno 8008 bound_to 7997
  154.4395  140.1888  156.0811 H   0  0  0  0  0  0  0  0  0  0  0  0  # atno 8009 bound_to 7997
  156.0459  140.3290  155.7299 H   0  0  0  0  0  0  0  0  0  0  0  0  # atno 8010 bound_to 7997
  139.6458  144.0176  152.2125 H   0  0  0  0  0  0  0  0  0  0  0  0  # atno 10167 bound_to 10162
  156.4198  130.4424  149.7192 H   0  0  0  0  0  0  0  0  0  0  0  0  # atno 10718 bound_to 10713
  153.1865  135.6836  153.8408 H   0  0  0  0  0  0  0  0  0  0  0  0  # atno 10763 bound_to 10752
  153.7722  135.3194  155.3355 H   0  0  0  0  0  0  0  0  0  0  0  0  # atno 10764 bound_to 10752
  154.8092  135.4729  154.0568 H   0  0  0  0  0  0  0  0  0  0  0  0  # atno 10765 bound_to 10752
  140.6039  134.4919  157.5208 H   0  0  0  0  0  0  0  0  0  0  0  0  # atno 11005 bound_to 11000
  144.7310  140.4671  143.6938 LP  0  0  0  0  0  0  0  0  0  0  0  0  # atno 17320 bound_to 7965
  145.6172  139.1520  143.3043 LP  0  0  0  0  0  0  0  0  0  0  0  0  # atno 17321 bound_to 7965
  139.9877  144.6384  150.7843 LP  0  0  0  0  0  0  0  0  0  0  0  0  # atno 17342 bound_to 10162
  140.7513  143.2971  151.3176 LP  0  0  0  0  0  0  0  0  0  0  0  0  # atno 17343 bound_to 10162
  156.4137  130.7734  151.2749 LP  0  0  0  0  0  0  0  0  0  0  0  0  # atno 17370 bound_to 10713
  157.7508  131.0204  150.3706 LP  0  0  0  0  0  0  0  0  0  0  0  0  # atno 17371 bound_to 10713
  139.9221  134.8129  156.1180 LP  0  0  0  0  0  0  0  0  0  0  0  0  # atno 17394 bound_to 11000
  141.0854  133.6736  156.2425 LP  0  0  0  0  0  0  0  0  0  0  0  0  # atno 17395 bound_to 11000

$$$$
