AV-unprocessed.smi:3333|AV-procd|sdf|12833|dock2
  -GOLD-   2272019213D 1   1.00000     0.00000
 Structure written by MMmdl.
 41 43  0  0  0  0  0  0  0  0  1 V2000
  144.8667  145.0957  153.3552 C   0  0  0  0  0  0  0  0  0  0  0  0
  144.3802  144.1150  154.4274 C   0  0  0  0  0  0  0  0  0  0  0  0
  145.4162  143.1052  154.7924 C   0  0  0  0  0  0  0  0  0  0  0  0
  146.6395  143.0772  154.2573 N   0  0  0  0  0  0  0  0  0  0  0  0
  147.4120  142.0102  154.7308 C   0  0  0  0  0  0  0  0  0  0  0  0
  148.8147  141.8164  154.2321 C   0  0  0  0  0  0  0  0  0  0  0  0
  149.7226  141.4026  155.3904 C   0  0  0  0  0  0  0  0  0  0  0  0
  150.6120  140.5707  155.2115 O   0  0  0  0  0  0  0  0  0  0  0  0
  149.4980  142.0068  156.5673 N   0  0  0  0  0  0  0  0  0  0  0  0
  150.3086  141.8406  157.7673 C   0  0  0  0  0  0  0  0  0  0  0  0
  151.5841  142.7085  157.7169 C   0  0  2  0  0  0  0  0  0  0  0  0
  152.6533  142.3351  158.7650 C   0  0  0  0  0  0  0  0  0  0  0  0
  152.9908  143.6943  159.4077 C   0  0  2  0  0  0  0  0  0  0  0  0
  151.8279  144.1212  160.3222 C   0  0  0  0  0  0  0  0  0  0  0  0
  150.7329  144.5156  159.3144 C   0  0  0  0  0  0  0  0  0  0  0  0
  151.4002  144.2277  157.9534 C   0  0  1  0  0  0  0  0  0  0  0  0
  152.8370  144.6558  158.2336 C   0  0  0  0  0  0  0  0  0  0  0  0
  146.7472  141.2254  155.6404 C   0  0  0  0  0  0  0  0  0  0  0  0
  145.1232  141.7882  155.9219 S   0  0  0  0  0  0  0  0  0  0  0  0
  144.0877  145.8159  153.1050 H   0  0  0  0  0  0  0  0  0  0  0  0
  145.1452  144.5729  152.4397 H   0  0  0  0  0  0  0  0  0  0  0  0
  145.7363  145.6537  153.7004 H   0  0  0  0  0  0  0  0  0  0  0  0
  144.0865  144.6609  155.3249 H   0  0  0  0  0  0  0  0  0  0  0  0
  143.4914  143.5906  154.0758 H   0  0  0  0  0  0  0  0  0  0  0  0
  148.8503  141.0578  153.4491 H   0  0  0  0  0  0  0  0  0  0  0  0
  149.1961  142.7365  153.7877 H   0  0  0  0  0  0  0  0  0  0  0  0
  148.7445  142.6775  156.6167 H   0  0  0  0  0  0  0  0  0  0  0  0
  149.6964  142.1008  158.6303 H   0  0  0  0  0  0  0  0  0  0  0  0
  150.5744  140.7903  157.8962 H   0  0  0  0  0  0  0  0  0  0  0  0
  152.0286  142.5826  156.7280 H   0  0  0  0  0  0  0  0  0  0  0  0
  152.2951  141.6145  159.5017 H   0  0  0  0  0  0  0  0  0  0  0  0
  153.5297  141.9033  158.2799 H   0  0  0  0  0  0  0  0  0  0  0  0
  153.9638  143.7165  159.8992 H   0  0  0  0  0  0  0  0  0  0  0  0
  151.5101  143.3192  160.9895 H   0  0  0  0  0  0  0  0  0  0  0  0
  152.1090  144.9772  160.9371 H   0  0  0  0  0  0  0  0  0  0  0  0
  149.8022  143.9700  159.4644 H   0  0  0  0  0  0  0  0  0  0  0  0
  150.5023  145.5772  159.4094 H   0  0  0  0  0  0  0  0  0  0  0  0
  150.9294  144.7445  157.1162 H   0  0  0  0  0  0  0  0  0  0  0  0
  152.9299  145.7057  158.5178 H   0  0  0  0  0  0  0  0  0  0  0  0
  153.5222  144.4466  157.4103 H   0  0  0  0  0  0  0  0  0  0  0  0
  147.1111  140.3466  156.1520 H   0  0  0  0  0  0  0  0  0  0  0  0
  1  2  1  0  0  0  0
  1 20  1  0  0  0  0
  1 21  1  0  0  0  0
  1 22  1  0  0  0  0
  2  3  1  0  0  0  0
  2 23  1  0  0  0  0
  2 24  1  0  0  0  0
  3 19  1  0  0  0  0
  3  4  2  0  0  0  0
  4  5  1  0  0  0  0
  5  6  1  0  0  0  0
  5 18  2  0  0  0  0
  6  7  1  0  0  0  0
  6 25  1  0  0  0  0
  6 26  1  0  0  0  0
  7  8  2  0  0  0  0
  7  9  1  0  0  0  0
  9 10  1  0  0  0  0
  9 27  1  0  0  0  0
 10 11  1  0  0  0  0
 10 28  1  0  0  0  0
 10 29  1  0  0  0  0
 11 16  1  0  0  0  0
 11 12  1  0  0  0  0
 11 30  1  0  0  0  0
 12 13  1  0  0  0  0
 12 31  1  0  0  0  0
 12 32  1  0  0  0  0
 13 17  1  0  0  0  0
 13 14  1  0  0  0  0
 13 33  1  0  0  0  0
 14 15  1  0  0  0  0
 14 34  1  0  0  0  0
 14 35  1  0  0  0  0
 15 16  1  0  0  0  0
 15 36  1  0  0  0  0
 15 37  1  0  0  0  0
 16 17  1  0  0  0  0
 16 38  1  0  0  0  0
 17 39  1  0  0  0  0
 17 40  1  0  0  0  0
 18 19  1  0  0  0  0
 18 41  1  0  0  0  0
M  END
> <s_m_source_file>
AV-unprocessed.smi

> <i_m_source_file_index>
3333

> <i_lp_mmshare_version>
43012

> <i_f3d_flags>
0

> <s_epik_input>
W0NIM11bQ0gyXWMxbmMoW2NIXXMxKVtDSDJdQyg9TylbTkhdW0NIMl1bQ0BIXShbQ0gyXVtDQEBIXTIzKVtDQEBIXShbQ0gyXTMpW0NIMl1bQ0gyXTI=

> <s_epik_cmdline>
J2VwaWtfcHl0aG9uJywgJy1waCcsICc3LjAnLCAnLXRuJywgJzgnLCAnLW1hJywgJzIwMCcsICctbWV0YWxfYmluZGluZycsICctaW1hZScsICc8aW5maWxlLm1hZT4nLCAnLW9tYWUnLCAnPG91dGZpbGUubWFlPic=

> <r_lp_tautomer_probability>
1

> <r_epik_Ionization_Penalty>
6.68371e-05

> <r_epik_Ionization_Penalty_Charging>
0

> <r_epik_Ionization_Penalty_Neutral>
6.68371e-05

> <r_epik_State_Penalty>
-0

> <r_epik_Charging_Adjusted_Penalty>
0

> <i_epik_Tot_Q>
0

> <i_epik_Tot_abs_Q>
0

> <r_epik_Metal_State_Penalty>
-0

> <b_epik_Metal_Only>
0

> <s_lp_Force_Field>
OPLS_2005

> <r_lp_Energy>
42.1731

> <b_lp_Chiralities_Consistent>
1

> <s_lp_Variant>
AV-unprocessed.smi:3333-3

> <Gold.Version>
5.8.1

> <Gold.Id.Protein>
6NUR|6NUR_protein|mol2

> <Gold.PLP.Fitness>
48.8352

> <Gold.PLP.PLP>
-46.3924

> <Gold.PLP.part.hbond>
-2.5439

> <Gold.PLP.part.metal>
0.0000

> <Gold.PLP.part.buried>
-2.5168

> <Gold.PLP.part.nonpolar>
-42.6762

> <Gold.PLP.part.repulsive>
0.2968

> <Gold.PLP.ligand.clash>
0.0000

> <Gold.PLP.ligand.torsion>
0.8346

> <Gold.PLP.Chemscore.Hbond>
1.3546

> <Gold.PLP.Chemscore.CHOScore>
0.0000

> <Gold.PLP.Chemscore.Metal>
0.0000

> <Gold.Chemscore.Hbonds>
donor molecule, donor type, donor heavy atom, donor atom, acceptor molecule, acceptor atom, score
      L1  H     9    27       P1  8028  0.20
      P1  H  7989  7998       L1     8  0.96

> <Gold.PLP.Chemscore.Internal.Correction>
0.0482

> <Gold.Rescore>
     Score         DG    S(hbond)    S(metal)    S(lipo)     H(rot)  DE(clash)    DE(int)     intcor
     17.28     -20.87       1.10        0.00     131.27       1.42       1.48       2.10       ----

> <Gold.Chemscore.Fitness>
17.2847

> <Gold.Chemscore.DG>
-20.8667

> <Gold.Chemscore.ZeroCoef>
-5.4800

> <Gold.Chemscore.Hbond>
1.0988

> <Gold.Chemscore.Metal>
0.0000

> <Gold.Chemscore.Lipo>
131.2715

> <Gold.Chemscore.Internal_Hbond>
0.0000

> <Gold.Chemscore.DEClash>
1.4839

> <Gold.Chemscore.DEInternal>
2.0980

> <Gold.Chemscore.Rot>
1.4227

> <Gold.Chemscore.Internal.Correction>
   9.000000E+99

> <Gold.Chemscore.Hbonds>
donor molecule, donor type, donor heavy atom, donor atom, acceptor molecule, acceptor atom, score
      L1  H     9    27       P1  8028  0.19
      P1  H  7989  7998       L1     8  0.72

> <Gold.Chemscore.Hbond.Weighted>
-3.6700

> <Gold.Chemscore.Metal.Weighted>
-0.0000

> <Gold.Chemscore.Lipo.Weighted>
-15.3588

> <Gold.Chemscore.Internal_Hbond.Weighted>
0.0000

> <Gold.Chemscore.DEClash.Weighted>
1.4839

> <Gold.Chemscore.DEInternal.Weighted>
2.0980

> <Gold.Chemscore.Rot.Weighted>
3.6421

> <Gold.Chemscore.Internal.Correction.Weighted>
   9.000000E+99

> <Gold.Protein.RotatedTorsions>
[ 6907 6896 6895 6894 ] final  -53.21 input  -60.11 | X-H torsion
[ 7974 7965 7964 7962 ] final  -82.73 input  175.53 | X-H torsion
[ 8008 7997 7996 7995 ] final -123.70 input   59.86 | X-H torsion
[ 10167 10162 10161 10158 ] final -143.38 input  -65.29 | X-H torsion
[ 10718 10713 10712 10709 ] final -128.27 input   66.30 | X-H torsion
[ 10763 10752 10751 10750 ] final  -63.77 input  -60.55 | X-H torsion
[ 11005 11000 10999 10996 ] final   69.78 input  -57.11 | X-H torsion

> <Gold.Protein.ActiveResidues>
 VAL166  LYS551  ARG553  GLY616  TRP617  ASP618  TYR619  PRO620  LYS621  CYS622 
 ASP623  PHE694  ASN695  SER759  ASP760  ASP761  ALA762  ILE779  LEU786  VAL792 
 PHE793  MET794  SER795  GLU796  ALA797  LYS798  CYS799  TRP800  GLU811  SER814 

> <Gold.Protein.RotatedAtoms>
  150.8447  134.7752  159.6960 H   0  0  0  0  0  0  0  0  0  0  0  0  # atno 6907 bound_to 6896
  152.4527  134.5356  159.9834 H   0  0  0  0  0  0  0  0  0  0  0  0  # atno 6908 bound_to 6896
  151.5489  133.3383  159.2985 H   0  0  0  0  0  0  0  0  0  0  0  0  # atno 6909 bound_to 6896
  145.5294  140.9523  143.1611 H   0  0  0  0  0  0  0  0  0  0  0  0  # atno 7974 bound_to 7965
  155.1848  140.0411  157.2889 H   0  0  0  0  0  0  0  0  0  0  0  0  # atno 8008 bound_to 7997
  154.6179  140.2493  155.7558 H   0  0  0  0  0  0  0  0  0  0  0  0  # atno 8009 bound_to 7997
  156.2417  140.2901  156.0473 H   0  0  0  0  0  0  0  0  0  0  0  0  # atno 8010 bound_to 7997
  139.7999  143.7848  152.2657 H   0  0  0  0  0  0  0  0  0  0  0  0  # atno 10167 bound_to 10162
  156.1935  130.6810  151.0453 H   0  0  0  0  0  0  0  0  0  0  0  0  # atno 10718 bound_to 10713
  154.3201  135.6198  153.5504 H   0  0  0  0  0  0  0  0  0  0  0  0  # atno 10763 bound_to 10752
  152.9821  135.5722  154.5079 H   0  0  0  0  0  0  0  0  0  0  0  0  # atno 10764 bound_to 10752
  154.4746  135.2860  155.1594 H   0  0  0  0  0  0  0  0  0  0  0  0  # atno 10765 bound_to 10752
  139.9634  134.7021  156.0596 H   0  0  0  0  0  0  0  0  0  0  0  0  # atno 11005 bound_to 11000
  144.7634  139.6903  143.7225 LP  0  0  0  0  0  0  0  0  0  0  0  0  # atno 17320 bound_to 7965
  146.2054  139.5375  142.9716 LP  0  0  0  0  0  0  0  0  0  0  0  0  # atno 17321 bound_to 7965
  139.7965  144.7390  150.9883 LP  0  0  0  0  0  0  0  0  0  0  0  0  # atno 17342 bound_to 10162
  140.7820  143.4388  151.0582 LP  0  0  0  0  0  0  0  0  0  0  0  0  # atno 17343 bound_to 10162
  157.6943  131.0799  150.7015 LP  0  0  0  0  0  0  0  0  0  0  0  0  # atno 17370 bound_to 10713
  156.7072  130.4641  149.5557 LP  0  0  0  0  0  0  0  0  0  0  0  0  # atno 17371 bound_to 10713
  141.1313  133.6586  156.3472 LP  0  0  0  0  0  0  0  0  0  0  0  0  # atno 17394 bound_to 11000
  140.5449  134.6084  157.5391 LP  0  0  0  0  0  0  0  0  0  0  0  0  # atno 17395 bound_to 11000

$$$$
