AV-unprocessed.smi:2450|AV-procd|sdf|9667|dock1
  -GOLD-   2272013303D 1   1.00000     0.00000
 Structure written by MMmdl.
 42 43  0  0  0  0  0  0  0  0  2 V2000
  149.3480  130.1485  153.9204 C   0  0  0  0  0  0  0  0  0  0  0  0
  148.5827  131.4033  153.4757 C   0  0  0  0  0  0  0  0  0  0  0  0
  149.2758  132.7217  153.8680 C   0  0  2  0  0  0  0  0  0  0  0  0
  149.4818  132.8250  155.3858 C   0  0  0  0  0  0  0  0  0  0  0  0
  148.4884  133.8642  153.4062 N   0  0  0  0  0  0  0  0  0  0  0  0
  147.1509  133.9590  153.4242 C   0  0  0  0  0  0  0  0  0  0  0  0
  146.4050  133.0656  153.8244 O   0  0  0  0  0  0  0  0  0  0  0  0
  146.7446  135.1431  152.9365 N   0  0  0  0  0  0  0  0  0  0  0  0
  145.4134  135.6260  152.7849 C   0  0  0  0  0  0  0  0  0  0  0  0
  144.2874  134.7648  152.7302 C   0  0  0  0  0  0  0  0  0  0  0  0
  142.9953  135.3118  152.6012 C   0  0  0  0  0  0  0  0  0  0  0  0
  142.8459  136.7094  152.5379 C   0  0  0  0  0  0  0  0  0  0  0  0
  143.9354  137.5023  152.6077 N   0  3  0  0  0  0  0  0  0  0  0  0
  145.1993  137.0272  152.7316 C   0  0  0  0  0  0  0  0  0  0  0  0
  146.2654  137.9408  152.8026 N   0  0  0  0  0  0  0  0  0  0  0  0
  146.5025  138.7282  151.6043 C   0  0  0  0  0  0  0  0  0  0  0  0
  147.4234  139.8674  152.0459 C   0  0  0  0  0  0  0  0  0  0  0  0
  147.1850  140.0019  153.5550 C   0  0  0  0  0  0  0  0  0  0  0  0
  146.1889  138.8904  153.9002 C   0  0  0  0  0  0  0  0  0  0  0  0
  148.7926  129.2458  153.6654 H   0  0  0  0  0  0  0  0  0  0  0  0
  149.5059  130.1476  154.9993 H   0  0  0  0  0  0  0  0  0  0  0  0
  150.3234  130.0809  153.4386 H   0  0  0  0  0  0  0  0  0  0  0  0
  148.4333  131.3705  152.3957 H   0  0  0  0  0  0  0  0  0  0  0  0
  147.5869  131.3767  153.9196 H   0  0  0  0  0  0  0  0  0  0  0  0
  150.2628  132.7296  153.4022 H   0  0  0  0  0  0  0  0  0  0  0  0
  150.0845  131.9955  155.7568 H   0  0  0  0  0  0  0  0  0  0  0  0
  148.5307  132.8091  155.9193 H   0  0  0  0  0  0  0  0  0  0  0  0
  149.9979  133.7485  155.6503 H   0  0  0  0  0  0  0  0  0  0  0  0
  149.0114  134.6522  153.0534 H   0  0  0  0  0  0  0  0  0  0  0  0
  147.4677  135.7378  152.5587 H   0  0  0  0  0  0  0  0  0  0  0  0
  144.3892  133.6926  152.8002 H   0  0  0  0  0  0  0  0  0  0  0  0
  142.1301  134.6663  152.5573 H   0  0  0  0  0  0  0  0  0  0  0  0
  141.8952  137.2139  152.4416 H   0  0  0  0  0  0  0  0  0  0  0  0
  146.9598  138.1234  150.8208 H   0  0  0  0  0  0  0  0  0  0  0  0
  145.5668  139.1329  151.2162 H   0  0  0  0  0  0  0  0  0  0  0  0
  148.4650  139.6036  151.8586 H   0  0  0  0  0  0  0  0  0  0  0  0
  147.2124  140.7907  151.5055 H   0  0  0  0  0  0  0  0  0  0  0  0
  148.1219  139.8577  154.0947 H   0  0  0  0  0  0  0  0  0  0  0  0
  146.7947  140.9834  153.8256 H   0  0  0  0  0  0  0  0  0  0  0  0
  145.1812  139.3005  153.9816 H   0  0  0  0  0  0  0  0  0  0  0  0
  146.4351  138.4129  154.8491 H   0  0  0  0  0  0  0  0  0  0  0  0
  143.7996  138.5124  152.5659 H   0  0  0  0  0  0  0  0  0  0  0  0
  1  2  1  0  0  0  0
  1 20  1  0  0  0  0
  1 21  1  0  0  0  0
  1 22  1  0  0  0  0
  2  3  1  0  0  0  0
  2 23  1  0  0  0  0
  2 24  1  0  0  0  0
  3  4  1  0  0  0  0
  3  5  1  0  0  0  0
  3 25  1  0  0  0  0
  4 26  1  0  0  0  0
  4 27  1  0  0  0  0
  4 28  1  0  0  0  0
  5  6  1  0  0  0  0
  5 29  1  0  0  0  0
  6  7  2  0  0  0  0
  6  8  1  0  0  0  0
  8  9  1  0  0  0  0
  8 30  1  0  0  0  0
  9 14  1  0  0  0  0
  9 10  2  0  0  0  0
 10 11  1  0  0  0  0
 10 31  1  0  0  0  0
 11 12  2  0  0  0  0
 11 32  1  0  0  0  0
 12 13  1  0  0  0  0
 12 33  1  0  0  0  0
 13 14  2  0  0  0  0
 13 42  1  0  0  0  0
 14 15  1  0  0  0  0
 15 19  1  0  0  0  0
 15 16  1  0  0  0  0
 16 17  1  0  0  0  0
 16 34  1  0  0  0  0
 16 35  1  0  0  0  0
 17 18  1  0  0  0  0
 17 36  1  0  0  0  0
 17 37  1  0  0  0  0
 18 19  1  0  0  0  0
 18 38  1  0  0  0  0
 18 39  1  0  0  0  0
 19 40  1  0  0  0  0
 19 41  1  0  0  0  0
M  CHG  1  13   1
M  END
> <s_m_source_file>
AV-unprocessed.smi

> <i_m_source_file_index>
2450

> <i_lp_mmshare_version>
43012

> <i_f3d_flags>
0

> <s_epik_input>
W0NIM11bQ0gyXVtDQEhdKFtDSDNdKVtOSF1DKD1PKVtOSF1jMVtjSF1bY0hdW2NIXW5jMU4yW0NIMl1bQ0gyXVtDSDJdW0NIMl0y

> <s_epik_cmdline>
J2VwaWtfcHl0aG9uJywgJy1waCcsICc3LjAnLCAnLXRuJywgJzgnLCAnLW1hJywgJzIwMCcsICctbWV0YWxfYmluZGluZycsICctaW1hZScsICc8aW5maWxlLm1hZT4nLCAnLW9tYWUnLCAnPG91dGZpbGUubWFlPic=

> <r_lp_tautomer_probability>
0.999994

> <r_epik_Ionization_Penalty>
1.08838

> <r_epik_Ionization_Penalty_Charging>
1.08836

> <r_epik_Ionization_Penalty_Neutral>
2.1796e-05

> <r_epik_State_Penalty>
1.14442

> <r_epik_Charging_Adjusted_Penalty>
2.23278

> <i_epik_Tot_Q>
1

> <i_epik_Tot_abs_Q>
1

> <r_epik_Metal_State_Penalty>
1.23344

> <b_epik_Metal_Only>
0

> <s_lp_Force_Field>
OPLS_2005

> <r_lp_Energy>
40.8961

> <b_lp_Chiralities_Consistent>
1

> <s_lp_Variant>
AV-unprocessed.smi:2450-3

> <Gold.Version>
5.8.1

> <Gold.Id.Protein>
6NUR|6NUR_protein|mol2

> <Gold.PLP.Fitness>
37.5790

> <Gold.PLP.PLP>
-27.6544

> <Gold.PLP.part.hbond>
-4.0000

> <Gold.PLP.part.metal>
0.0000

> <Gold.PLP.part.buried>
1.5967

> <Gold.PLP.part.nonpolar>
-26.2098

> <Gold.PLP.part.repulsive>
0.3604

> <Gold.PLP.ligand.clash>
0.0000

> <Gold.PLP.ligand.torsion>
0.4613

> <Gold.PLP.Chemscore.Hbond>
3.5824

> <Gold.PLP.Chemscore.CHOScore>
0.0000

> <Gold.PLP.Chemscore.Metal>
0.0000

> <Gold.Chemscore.Hbonds>
donor molecule, donor type, donor heavy atom, donor atom, acceptor molecule, acceptor atom, score
      L1  H     5    29       P1  7948  0.55
      L1  H     8    30       P1  7948  1.00
      L1  H    13    42       P1 10175  2.00

> <Gold.PLP.Chemscore.Internal.Correction>
0.1000

> <Gold.Rescore>
     Score         DG    S(hbond)    S(metal)    S(lipo)     H(rot)  DE(clash)    DE(int)     intcor
     13.13     -17.63       2.31        0.00      67.25       1.34       2.23       2.27       ----

> <Gold.Chemscore.Fitness>
13.1252

> <Gold.Chemscore.DG>
-17.6255

> <Gold.Chemscore.ZeroCoef>
-5.4800

> <Gold.Chemscore.Hbond>
2.3070

> <Gold.Chemscore.Metal>
0.0000

> <Gold.Chemscore.Lipo>
67.2518

> <Gold.Chemscore.Internal_Hbond>
0.0000

> <Gold.Chemscore.DEClash>
2.2308

> <Gold.Chemscore.DEInternal>
2.2694

> <Gold.Chemscore.Rot>
1.3393

> <Gold.Chemscore.Internal.Correction>
   9.000000E+99

> <Gold.Chemscore.Hbonds>
donor molecule, donor type, donor heavy atom, donor atom, acceptor molecule, acceptor atom, score
      L1  H     5    29       P1  7948  0.04
      L1  H     8    30       P1  7948  1.00
      L1  H    13    42       P1 10175  0.99

> <Gold.Chemscore.Hbond.Weighted>
-7.7055

> <Gold.Chemscore.Metal.Weighted>
-0.0000

> <Gold.Chemscore.Lipo.Weighted>
-7.8685

> <Gold.Chemscore.Internal_Hbond.Weighted>
0.0000

> <Gold.Chemscore.DEClash.Weighted>
2.2308

> <Gold.Chemscore.DEInternal.Weighted>
2.2694

> <Gold.Chemscore.Rot.Weighted>
3.4285

> <Gold.Chemscore.Internal.Correction.Weighted>
   9.000000E+99

> <Gold.Protein.RotatedTorsions>
[ 6907 6896 6895 6894 ] final   67.77 input  -60.11 | X-H torsion
[ 7974 7965 7964 7962 ] final  -86.52 input  175.53 | X-H torsion
[ 8008 7997 7996 7995 ] final  141.09 input   59.86 | X-H torsion
[ 10167 10162 10161 10158 ] final   81.18 input  -65.29 | X-H torsion
[ 10718 10713 10712 10709 ] final -119.48 input   66.30 | X-H torsion
[ 10763 10752 10751 10750 ] final  -81.78 input  -60.55 | X-H torsion
[ 11005 11000 10999 10996 ] final   -6.56 input  -57.11 | X-H torsion

> <Gold.Protein.ActiveResidues>
 VAL166  LYS551  ARG553  GLY616  TRP617  ASP618  TYR619  PRO620  LYS621  CYS622 
 ASP623  PHE694  ASN695  SER759  ASP760  ASP761  ALA762  ILE779  LEU786  VAL792 
 PHE793  MET794  SER795  GLU796  ALA797  LYS798  CYS799  TRP800  GLU811  SER814 

> <Gold.Protein.RotatedAtoms>
  152.4575  134.5260  159.9796 H   0  0  0  0  0  0  0  0  0  0  0  0  # atno 6907 bound_to 6896
  151.5317  133.3442  159.2927 H   0  0  0  0  0  0  0  0  0  0  0  0  # atno 6908 bound_to 6896
  150.8524  134.7883  159.7082 H   0  0  0  0  0  0  0  0  0  0  0  0  # atno 6909 bound_to 6896
  145.4788  140.9557  143.1876 H   0  0  0  0  0  0  0  0  0  0  0  0  # atno 7974 bound_to 7965
  156.2970  140.2324  156.4508 H   0  0  0  0  0  0  0  0  0  0  0  0  # atno 8008 bound_to 7997
  154.8103  140.0443  157.1359 H   0  0  0  0  0  0  0  0  0  0  0  0  # atno 8009 bound_to 7997
  154.9431  140.3032  155.5115 H   0  0  0  0  0  0  0  0  0  0  0  0  # atno 8010 bound_to 7997
  139.9419  144.6084  150.8243 H   0  0  0  0  0  0  0  0  0  0  0  0  # atno 10167 bound_to 10162
  156.1184  130.6304  150.9421 H   0  0  0  0  0  0  0  0  0  0  0  0  # atno 10718 bound_to 10713
  154.5677  135.5614  153.7066 H   0  0  0  0  0  0  0  0  0  0  0  0  # atno 10763 bound_to 10752
  153.0038  135.6289  154.2157 H   0  0  0  0  0  0  0  0  0  0  0  0  # atno 10764 bound_to 10752
  154.2096  135.2874  155.2943 H   0  0  0  0  0  0  0  0  0  0  0  0  # atno 10765 bound_to 10752
  140.7033  133.8971  155.8699 H   0  0  0  0  0  0  0  0  0  0  0  0  # atno 11005 bound_to 11000
  144.7901  139.6346  143.7117 LP  0  0  0  0  0  0  0  0  0  0  0  0  # atno 17320 bound_to 7965
  146.2353  139.5893  142.9528 LP  0  0  0  0  0  0  0  0  0  0  0  0  # atno 17321 bound_to 7965
  140.7608  143.3160  151.2732 LP  0  0  0  0  0  0  0  0  0  0  0  0  # atno 17342 bound_to 10162
  139.6697  144.0041  152.2745 LP  0  0  0  0  0  0  0  0  0  0  0  0  # atno 17343 bound_to 10162
  157.6368  131.0915  150.8333 LP  0  0  0  0  0  0  0  0  0  0  0  0  # atno 17370 bound_to 10713
  156.8433  130.5055  149.5319 LP  0  0  0  0  0  0  0  0  0  0  0  0  # atno 17371 bound_to 10713
  141.0145  134.0974  157.4186 LP  0  0  0  0  0  0  0  0  0  0  0  0  # atno 17394 bound_to 11000
  139.8891  135.0102  156.6658 LP  0  0  0  0  0  0  0  0  0  0  0  0  # atno 17395 bound_to 11000

$$$$
