#       Name:                AV-unprocessed.smi:2775
#       Creating user name   scv26
#       Creation time:       Fri Mar 27 15:13:56 2020


#       File generated by GOLD software.
#

@<TRIPOS>MOLECULE
AV-unprocessed.smi:2775
    47    50     1
SMALL
NO_CHARGES


@<TRIPOS>ATOM
      1 ****        -5.4753   2.0970  -0.2963 C.3            1 S1                 0.0000
      2 ****        -4.7358   0.7881  -0.0963 C.ar           1 S1                 0.0000
      3 ****        -5.4692  -0.3116   0.1850 N.pl3          1 S1                 1.0000
      4 ****        -4.9235  -1.5310   0.3757 C.ar           1 S1                 0.0000
      5 ****        -3.5276  -1.6971   0.2896 C.ar           1 S1                 0.0000
      6 ****        -2.7094  -0.5730   0.0139 C.ar           1 S1                 0.0000
      7 ****        -1.2959  -0.6557  -0.1071 N.am           1 S1                 0.0000
      8 ****        -0.4504  -1.5104   0.5000 C.2            1 S1                 0.0000
      9 ****        -0.7954  -2.4330   1.2351 O.2            1 S1                 0.0000
     10 ****         0.8471  -1.2474   0.2675 N.am           1 S1                 0.0000
     11 ****         2.0081  -1.9819   0.7764 C.3            1 S1                 0.0000
     12 ****         2.3664  -3.2510  -0.0337 C.3            1 S1                 0.0000
     13 ****         1.7649  -3.5677  -1.3793 C.3            1 S1                 0.0000
     14 ****         2.5874  -2.7056  -2.3312 C.3            1 S1                 0.0000
     15 ****         3.8735  -2.6180  -1.7184 O.3            1 S1                 0.0000
     16 ****         3.7513  -2.6628  -0.2940 C.3            1 S1                 0.0000
     17 ****         3.3477  -1.3388   0.3806 C.3            1 S1                 0.0000
     18 ****         3.4663   0.0126  -0.3550 C.3            1 S1                 0.0000
     19 ****         4.7661   0.2579   0.4142 C.3            1 S1                 0.0000
     20 ****         4.2644  -0.7407   1.4596 C.3            1 S1                 0.0000
     21 ****        -3.3281   0.6843  -0.1945 C.ar           1 S1                 0.0000
     22 ****        -2.3738   2.0841  -0.5553 Cl             1 S1                 0.0000
     23 ****        -5.1380   2.8383   0.4284 H              1 S1                 0.0000
     24 ****        -6.5516   1.9701  -0.1743 H              1 S1                 0.0000
     25 ****        -5.2926   2.4863  -1.2980 H              1 S1                 0.0000
     26 ****        -5.6161  -2.3336   0.5837 H              1 S1                 0.0000
     27 ****        -3.1109  -2.6838   0.4244 H              1 S1                 0.0000
     28 ****        -0.8609   0.0996  -0.6172 H              1 S1                 0.0000
     29 ****         1.0534  -0.4257  -0.2826 H              1 S1                 0.0000
     30 ****         1.9706  -2.1802   1.8492 H              1 S1                 0.0000
     31 ****         2.4116  -4.1188   0.6256 H              1 S1                 0.0000
     32 ****         1.9136  -4.6221  -1.6147 H              1 S1                 0.0000
     33 ****         0.6966  -3.3660  -1.4486 H              1 S1                 0.0000
     34 ****         2.6491  -3.1265  -3.3349 H              1 S1                 0.0000
     35 ****         2.1547  -1.7079  -2.4100 H              1 S1                 0.0000
     36 ****         4.5639  -3.1929   0.2040 H              1 S1                 0.0000
     37 ****         3.5893  -0.0431  -1.4363 H              1 S1                 0.0000
     38 ****         2.6887   0.7264  -0.0790 H              1 S1                 0.0000
     39 ****         5.6471  -0.0990  -0.1219 H              1 S1                 0.0000
     40 ****         4.8976   1.2768   0.7795 H              1 S1                 0.0000
     41 ****         3.7082  -0.2590   2.2654 H              1 S1                 0.0000
     42 ****         5.0269  -1.4167   1.8472 H              1 S1                 0.0000
     43 ****        -6.4829  -0.2165   0.2514 H              1 S1                 0.0000
     44 ****        -1.7659  -2.5903   1.4182 LP             1 S1                 0.0000
     45 ****        -0.1057  -3.0264   1.6501 LP             1 S1                 0.0000
     46 ****         4.3076  -1.7575  -1.9850 LP             1 S1                 0.0000
     47 ****         4.4375  -3.3848  -2.0249 LP             1 S1                 0.0000
@<TRIPOS>BOND
    1    1    2 1     
    2    1   23 1     
    3    1   24 1     
    4    1   25 1     
    5    2   21 ar    
    6    2    3 ar    
    7    3    4 ar    
    8    3   43 1     
    9    4    5 ar    
   10    4   26 1     
   11    5    6 ar    
   12    5   27 1     
   13    6    7 1     
   14    6   21 ar    
   15    7    8 am    
   16    7   28 1     
   17    8    9 2     
   18    8   10 am    
   19   10   11 1     
   20   10   29 1     
   21   11   17 1     
   22   11   12 1     
   23   11   30 1     
   24   12   16 1     
   25   12   13 1     
   26   12   31 1     
   27   13   14 1     
   28   13   32 1     
   29   13   33 1     
   30   14   15 1     
   31   14   34 1     
   32   14   35 1     
   33   15   16 1     
   34   16   17 1     
   35   16   36 1     
   36   17   20 1     
   37   17   18 1     
   38   18   19 1     
   39   18   37 1     
   40   18   38 1     
   41   19   20 1     
   42   19   39 1     
   43   19   40 1     
   44   20   41 1     
   45   20   42 1     
   46   21   22 1     
   47    9   44 1     
   48    9   45 1     
   49   15   46 1     
   50   15   47 1     
@<TRIPOS>SUBSTRUCTURE
      1 S1             1
@<TRIPOS>SET
LONE_PAIRS      STATIC     ATOMS    <user>   **** ""
4 44 45 46 47
DONOR_HYDROGENS      STATIC     ATOMS    <user>   **** ""
3 43 28 29
ATOM$BLUE        STATIC     ATOMS    COLORGROUP SYSTEM
4 44 45 46 47
ATOM$RED        STATIC     ATOMS    COLORGROUP SYSTEM
3 43 28 29
