#       Name:                AV-unprocessed.smi:2520
#       Creating user name   scv26
#       Creation time:       Fri Mar 27 13:54:50 2020


#       File generated by GOLD software.
#

@<TRIPOS>MOLECULE
AV-unprocessed.smi:2520
    47    50     1
SMALL
NO_CHARGES


@<TRIPOS>ATOM
      1 ****        -1.9538  -1.9787   0.8763 O.2            1 S1                 0.0000
      2 ****        -0.7294  -1.8628   0.8793 C.2            1 S1                 0.0000
      3 ****         0.0733  -2.9475   0.9138 N.am           1 S1                 0.0000
      4 ****        -0.2296  -4.3400   0.9493 C.ar           1 S1                 0.0000
      5 ****         0.8939  -5.1915   0.8807 C.ar           1 S1                 0.0000
      6 ****         0.6848  -6.5807   0.9197 C.ar           1 S1                 0.0000
      7 ****        -0.6424  -7.0289   1.0280 C.ar           1 S1                 0.0000
      8 ****        -1.6899  -6.1794   1.0958 N.ar           1 S1                 0.0000
      9 ****        -1.4817  -4.8591   1.0591 N.ar           1 S1                 0.0000
     10 ****        -0.1140  -0.6703   0.8512 N.am           1 S1                 0.0000
     11 ****        -0.7934   0.6168   0.7727 C.3            1 S1                 0.0000
     12 ****         0.1672   1.7985   0.9841 C.3            1 S1                 0.0000
     13 ****         0.0152   2.6799   2.1934 C.3            1 S1                 0.0000
     14 ****        -0.8396   3.8364   1.6672 C.3            1 S1                 0.0000
     15 ****        -1.4939   3.3067   0.5163 O.3            1 S1                 0.0000
     16 ****        -0.5545   2.4814  -0.1683 C.3            1 S1                 0.0000
     17 ****        -1.0620   1.1123  -0.6679 C.3            1 S1                 0.0000
     18 ****        -2.4871   1.0474  -1.2108 C.3            1 S1                 0.0000
     19 ****        -2.4108   1.2639  -2.7267 C.3            1 S1                 0.0000
     20 ****        -0.9496   1.0138  -3.1131 C.3            1 S1                 0.0000
     21 ****        -0.2752   0.5115  -1.8364 C.3            1 S1                 0.0000
     22 ****         1.0586  -2.7347   0.9694 H              1 S1                 0.0000
     23 ****         1.8943  -4.7920   0.7989 H              1 S1                 0.0000
     24 ****         1.5097  -7.2758   0.8688 H              1 S1                 0.0000
     25 ****        -0.8691  -8.0841   1.0621 H              1 S1                 0.0000
     26 ****         0.8961  -0.6567   0.8600 H              1 S1                 0.0000
     27 ****        -1.6801   0.6936   1.4064 H              1 S1                 0.0000
     28 ****         1.1988   1.5547   0.7223 H              1 S1                 0.0000
     29 ****        -0.4978   2.1519   2.9979 H              1 S1                 0.0000
     30 ****         0.9723   3.0319   2.5793 H              1 S1                 0.0000
     31 ****        -1.5554   4.2003   2.4044 H              1 S1                 0.0000
     32 ****        -0.2079   4.6717   1.3620 H              1 S1                 0.0000
     33 ****         0.1018   3.0315  -0.8445 H              1 S1                 0.0000
     34 ****        -2.9127   0.0637  -1.0080 H              1 S1                 0.0000
     35 ****        -3.1499   1.7737  -0.7401 H              1 S1                 0.0000
     36 ****        -3.0874   0.5889  -3.2516 H              1 S1                 0.0000
     37 ****        -2.6974   2.2838  -2.9853 H              1 S1                 0.0000
     38 ****        -0.8516   0.3029  -3.9341 H              1 S1                 0.0000
     39 ****        -0.4891   1.9502  -3.4305 H              1 S1                 0.0000
     40 ****         0.7830   0.7744  -1.8117 H              1 S1                 0.0000
     41 ****        -0.3317  -0.5775  -1.8188 H              1 S1                 0.0000
     42 ****        -2.3701  -2.8877   0.8997 LP             1 S1                 0.0000
     43 ****        -2.5331  -1.1640   0.8505 LP             1 S1                 0.0000
     44 ****        -2.6204  -6.5374   1.1734 LP             1 S1                 0.0000
     45 ****        -2.2645  -4.2393   1.1135 LP             1 S1                 0.0000
     46 ****        -1.7922   4.0518  -0.0802 LP             1 S1                 0.0000
     47 ****        -2.2868   2.7640   0.7937 LP             1 S1                 0.0000
@<TRIPOS>BOND
    1    1    2 2     
    2    2    3 am    
    3    2   10 am    
    4    3    4 1     
    5    3   22 1     
    6    4    9 ar    
    7    4    5 ar    
    8    5    6 ar    
    9    5   23 1     
   10    6    7 ar    
   11    6   24 1     
   12    7    8 ar    
   13    7   25 1     
   14    8    9 ar    
   15   10   11 1     
   16   10   26 1     
   17   11   17 1     
   18   11   12 1     
   19   11   27 1     
   20   12   16 1     
   21   12   13 1     
   22   12   28 1     
   23   13   14 1     
   24   13   29 1     
   25   13   30 1     
   26   14   15 1     
   27   14   31 1     
   28   14   32 1     
   29   15   16 1     
   30   16   17 1     
   31   16   33 1     
   32   17   21 1     
   33   17   18 1     
   34   18   19 1     
   35   18   34 1     
   36   18   35 1     
   37   19   20 1     
   38   19   36 1     
   39   19   37 1     
   40   20   21 1     
   41   20   38 1     
   42   20   39 1     
   43   21   40 1     
   44   21   41 1     
   45    1   42 1     
   46    1   43 1     
   47    8   44 1     
   48    9   45 1     
   49   15   46 1     
   50   15   47 1     
@<TRIPOS>SUBSTRUCTURE
      1 S1             1
@<TRIPOS>SET
LONE_PAIRS      STATIC     ATOMS    <user>   **** ""
6 42 43 44 45 46 47
DONOR_HYDROGENS      STATIC     ATOMS    <user>   **** ""
2 22 26
ATOM$BLUE        STATIC     ATOMS    COLORGROUP SYSTEM
6 42 43 44 45 46 47
ATOM$RED        STATIC     ATOMS    COLORGROUP SYSTEM
2 22 26
