AV-unprocessed.smi:2004|AV-procd|sdf|8121|dock9
  -GOLD-   2272010353D 1   1.00000     0.00000
 Structure written by MMmdl.
 39 41  0  0  0  0  0  0  0  0  1 V2000
  151.6311  140.1296  155.1243 O   0  0  0  0  0  0  0  0  0  0  0  0
  150.4044  140.6584  155.5832 C   0  0  2  0  0  0  0  0  0  0  0  0
  149.4321  140.7287  154.3915 C   0  0  0  0  0  0  0  0  0  0  0  0
  148.1407  141.0618  154.8735 O   0  0  0  0  0  0  0  0  0  0  0  0
  147.3197  141.6562  153.8810 C   0  0  0  0  0  0  0  0  0  0  0  0
  146.2598  142.5530  154.4909 C   0  0  0  0  0  0  0  0  0  0  0  0
  146.0628  142.5664  155.8881 C   0  0  0  0  0  0  0  0  0  0  0  0
  145.0892  143.4097  156.4583 C   0  0  0  0  0  0  0  0  0  0  0  0
  144.3124  144.2470  155.6343 C   0  0  0  0  0  0  0  0  0  0  0  0
  144.5111  144.2422  154.2401 C   0  0  0  0  0  0  0  0  0  0  0  0
  145.4849  143.3992  153.6695 C   0  0  0  0  0  0  0  0  0  0  0  0
  150.7100  142.0300  156.2172 C   0  0  0  0  0  0  0  0  0  0  0  0
  151.3045  141.9198  157.5371 N   0  0  0  0  0  0  0  0  0  0  0  0
  151.8385  140.8147  158.0919 C   0  0  0  0  0  0  0  0  0  0  0  0
  152.3367  140.9282  159.3196 N   0  0  0  0  0  0  0  0  0  0  0  0
  152.1033  142.2650  159.5929 C   0  0  0  0  0  0  0  0  0  0  0  0
  152.3984  143.0303  160.7440 C   0  0  0  0  0  0  0  0  0  0  0  0
  152.0622  144.3988  160.7975 C   0  0  0  0  0  0  0  0  0  0  0  0
  151.4271  145.0225  159.7041 C   0  0  0  0  0  0  0  0  0  0  0  0
  151.1223  144.2807  158.5466 C   0  0  0  0  0  0  0  0  0  0  0  0
  151.4602  142.9153  158.4965 C   0  0  0  0  0  0  0  0  0  0  0  0
  151.5033  139.2151  154.9225 H   0  0  0  0  0  0  0  0  0  0  0  0
  150.0016  139.9936  156.3487 H   0  0  0  0  0  0  0  0  0  0  0  0
  149.7394  141.5089  153.6947 H   0  0  0  0  0  0  0  0  0  0  0  0
  149.4224  139.7880  153.8382 H   0  0  0  0  0  0  0  0  0  0  0  0
  147.9283  142.2560  153.2027 H   0  0  0  0  0  0  0  0  0  0  0  0
  146.8419  140.8763  153.2855 H   0  0  0  0  0  0  0  0  0  0  0  0
  146.6580  141.9290  156.5255 H   0  0  0  0  0  0  0  0  0  0  0  0
  144.9396  143.4154  157.5279 H   0  0  0  0  0  0  0  0  0  0  0  0
  143.5664  144.8941  156.0716 H   0  0  0  0  0  0  0  0  0  0  0  0
  143.9179  144.8863  153.6079 H   0  0  0  0  0  0  0  0  0  0  0  0
  145.6325  143.4041  152.5995 H   0  0  0  0  0  0  0  0  0  0  0  0
  151.3992  142.5917  155.5849 H   0  0  0  0  0  0  0  0  0  0  0  0
  149.8001  142.6269  156.2903 H   0  0  0  0  0  0  0  0  0  0  0  0
  151.8604  139.8726  157.5639 H   0  0  0  0  0  0  0  0  0  0  0  0
  152.8850  142.5632  161.5874 H   0  0  0  0  0  0  0  0  0  0  0  0
  152.2933  144.9733  161.6825 H   0  0  0  0  0  0  0  0  0  0  0  0
  151.1735  146.0715  159.7544 H   0  0  0  0  0  0  0  0  0  0  0  0
  150.6344  144.7561  157.7088 H   0  0  0  0  0  0  0  0  0  0  0  0
  1  2  1  0  0  0  0
  1 22  1  0  0  0  0
  2  3  1  0  0  0  0
  2 12  1  0  0  0  0
  2 23  1  0  0  0  0
  3  4  1  0  0  0  0
  3 24  1  0  0  0  0
  3 25  1  0  0  0  0
  4  5  1  0  0  0  0
  5  6  1  0  0  0  0
  5 26  1  0  0  0  0
  5 27  1  0  0  0  0
  6 11  1  0  0  0  0
  6  7  2  0  0  0  0
  7  8  1  0  0  0  0
  7 28  1  0  0  0  0
  8  9  2  0  0  0  0
  8 29  1  0  0  0  0
  9 10  1  0  0  0  0
  9 30  1  0  0  0  0
 10 11  2  0  0  0  0
 10 31  1  0  0  0  0
 11 32  1  0  0  0  0
 12 13  1  0  0  0  0
 12 33  1  0  0  0  0
 12 34  1  0  0  0  0
 13 21  1  0  0  0  0
 13 14  1  0  0  0  0
 14 15  2  0  0  0  0
 14 35  1  0  0  0  0
 15 16  1  0  0  0  0
 16 21  2  0  0  0  0
 16 17  1  0  0  0  0
 17 18  2  0  0  0  0
 17 36  1  0  0  0  0
 18 19  1  0  0  0  0
 18 37  1  0  0  0  0
 19 20  2  0  0  0  0
 19 38  1  0  0  0  0
 20 21  1  0  0  0  0
 20 39  1  0  0  0  0
M  END
> <s_m_source_file>
AV-unprocessed.smi

> <i_m_source_file_index>
2004

> <i_lp_mmshare_version>
43012

> <i_f3d_flags>
0

> <s_epik_input>
W2NIXTFbY0hdW2NIXVtjSF1jKGMxMiluKFtjSF1uMilbQ0gyXVtDQEhdKFtPSF0pW0NIMl1PW0NIMl1jM1tjSF1bY0hdW2NIXVtjSF1bY0hdMw==

> <s_epik_cmdline>
J2VwaWtfcHl0aG9uJywgJy1waCcsICc3LjAnLCAnLXRuJywgJzgnLCAnLW1hJywgJzIwMCcsICctbWV0YWxfYmluZGluZycsICctaW1hZScsICc8aW5maWxlLm1hZT4nLCAnLW9tYWUnLCAnPG91dGZpbGUubWFlPic=

> <r_epik_Ionization_Penalty>
0.0713119

> <r_epik_Ionization_Penalty_Charging>
0

> <r_epik_Ionization_Penalty_Neutral>
0.0713119

> <r_epik_State_Penalty>
0.06259

> <r_epik_Charging_Adjusted_Penalty>
0.06259

> <i_epik_Tot_Q>
0

> <i_epik_Tot_abs_Q>
0

> <r_epik_Metal_State_Penalty>
6.60119e-05

> <b_epik_Metal_Only>
0

> <s_lp_Force_Field>
OPLS_2005

> <r_lp_Energy>
16.1981

> <b_lp_Chiralities_Consistent>
1

> <s_lp_Variant>
AV-unprocessed.smi:2004-1

> <Gold.Version>
5.8.1

> <Gold.Id.Protein>
6NUR|6NUR_protein|mol2

> <Gold.PLP.Fitness>
53.6675

> <Gold.PLP.PLP>
-52.2804

> <Gold.PLP.part.hbond>
-1.0000

> <Gold.PLP.part.metal>
0.0000

> <Gold.PLP.part.buried>
-8.2028

> <Gold.PLP.part.nonpolar>
-43.2357

> <Gold.PLP.part.repulsive>
0.1109

> <Gold.PLP.ligand.clash>
0.0000

> <Gold.PLP.ligand.torsion>
0.7122

> <Gold.PLP.Chemscore.Hbond>
0.9000

> <Gold.PLP.Chemscore.CHOScore>
0.0000

> <Gold.PLP.Chemscore.Metal>
0.0000

> <Gold.Chemscore.Hbonds>
donor molecule, donor type, donor heavy atom, donor atom, acceptor molecule, acceptor atom, score
      P1  H  7989  7998       L1     1  0.93

> <Gold.PLP.Chemscore.Internal.Correction>
0.1115

> <Gold.Rescore>
     Score         DG    S(hbond)    S(metal)    S(lipo)     H(rot)  DE(clash)    DE(int)     intcor
     15.05     -17.06       0.88        0.00     124.68       2.33       0.07       1.93       ----

> <Gold.Chemscore.Fitness>
15.0514

> <Gold.Chemscore.DG>
-17.0585

> <Gold.Chemscore.ZeroCoef>
-5.4800

> <Gold.Chemscore.Hbond>
0.8840

> <Gold.Chemscore.Metal>
0.0000

> <Gold.Chemscore.Lipo>
124.6807

> <Gold.Chemscore.Internal_Hbond>
0.0000

> <Gold.Chemscore.DEClash>
0.0727

> <Gold.Chemscore.DEInternal>
1.9344

> <Gold.Chemscore.Rot>
2.3288

> <Gold.Chemscore.Internal.Correction>
   9.000000E+99

> <Gold.Chemscore.Hbonds>
donor molecule, donor type, donor heavy atom, donor atom, acceptor molecule, acceptor atom, score
      P1  H  7989  7998       L1     1  0.07

> <Gold.Chemscore.Hbond.Weighted>
-2.9525

> <Gold.Chemscore.Metal.Weighted>
-0.0000

> <Gold.Chemscore.Lipo.Weighted>
-14.5876

> <Gold.Chemscore.Internal_Hbond.Weighted>
0.0000

> <Gold.Chemscore.DEClash.Weighted>
0.0727

> <Gold.Chemscore.DEInternal.Weighted>
1.9344

> <Gold.Chemscore.Rot.Weighted>
5.9616

> <Gold.Chemscore.Internal.Correction.Weighted>
   9.000000E+99

> <Gold.Protein.RotatedTorsions>
[ 6907 6896 6895 6894 ] final  -88.96 input  -60.11 | X-H torsion
[ 7974 7965 7964 7962 ] final -149.71 input  175.53 | X-H torsion
[ 8008 7997 7996 7995 ] final  -17.70 input   59.86 | X-H torsion
[ 10167 10162 10161 10158 ] final -131.09 input  -65.29 | X-H torsion
[ 10718 10713 10712 10709 ] final  152.22 input   66.30 | X-H torsion
[ 10763 10752 10751 10750 ] final   51.12 input  -60.55 | X-H torsion
[ 11005 11000 10999 10996 ] final -147.17 input  -57.11 | X-H torsion

> <Gold.Protein.ActiveResidues>
 VAL166  LYS551  ARG553  GLY616  TRP617  ASP618  TYR619  PRO620  LYS621  CYS622 
 ASP623  PHE694  ASN695  SER759  ASP760  ASP761  ALA762  ILE779  LEU786  VAL792 
 PHE793  MET794  SER795  GLU796  ALA797  LYS798  CYS799  TRP800  GLU811  SER814 

> <Gold.Protein.RotatedAtoms>
  150.6871  134.2660  159.4568 H   0  0  0  0  0  0  0  0  0  0  0  0  # atno 6907 bound_to 6896
  152.0586  134.9606  160.0584 H   0  0  0  0  0  0  0  0  0  0  0  0  # atno 6908 bound_to 6896
  152.1042  133.4231  159.4638 H   0  0  0  0  0  0  0  0  0  0  0  0  # atno 6909 bound_to 6896
  144.7951  140.5028  143.5746 H   0  0  0  0  0  0  0  0  0  0  0  0  # atno 7974 bound_to 7965
  154.4959  140.2135  155.9449 H   0  0  0  0  0  0  0  0  0  0  0  0  # atno 8008 bound_to 7997
  156.1369  140.3187  155.8403 H   0  0  0  0  0  0  0  0  0  0  0  0  # atno 8009 bound_to 7997
  155.4193  140.0496  157.3017 H   0  0  0  0  0  0  0  0  0  0  0  0  # atno 8010 bound_to 7997
  139.9226  143.6365  152.2550 H   0  0  0  0  0  0  0  0  0  0  0  0  # atno 10167 bound_to 10162
  157.2606  131.0797  151.1668 H   0  0  0  0  0  0  0  0  0  0  0  0  # atno 10718 bound_to 10713
  152.9785  135.5856  154.4363 H   0  0  0  0  0  0  0  0  0  0  0  0  # atno 10763 bound_to 10752
  154.3970  135.2768  155.2122 H   0  0  0  0  0  0  0  0  0  0  0  0  # atno 10764 bound_to 10752
  154.3969  135.6112  153.5929 H   0  0  0  0  0  0  0  0  0  0  0  0  # atno 10765 bound_to 10752
  140.7744  134.3152  157.5065 H   0  0  0  0  0  0  0  0  0  0  0  0  # atno 11005 bound_to 11000
  145.5695  139.1483  143.3296 LP  0  0  0  0  0  0  0  0  0  0  0  0  # atno 17320 bound_to 7965
  146.2216  140.5828  142.9014 LP  0  0  0  0  0  0  0  0  0  0  0  0  # atno 17321 bound_to 7965
  139.6849  144.7652  151.1542 LP  0  0  0  0  0  0  0  0  0  0  0  0  # atno 17342 bound_to 10162
  140.7658  143.5671  150.9035 LP  0  0  0  0  0  0  0  0  0  0  0  0  # atno 17343 bound_to 10162
  157.3179  130.6922  149.6252 LP  0  0  0  0  0  0  0  0  0  0  0  0  # atno 17370 bound_to 10713
  155.9664  130.4344  150.5047 LP  0  0  0  0  0  0  0  0  0  0  0  0  # atno 17371 bound_to 10713
  139.8751  134.9280  156.3441 LP  0  0  0  0  0  0  0  0  0  0  0  0  # atno 17394 bound_to 11000
  140.9543  133.7430  156.0314 LP  0  0  0  0  0  0  0  0  0  0  0  0  # atno 17395 bound_to 11000

$$$$
