AV-unprocessed.smi:3122|AV-procd|sdf|11899|dock4
  -GOLD-   2272017283D 1   1.00000     0.00000
 Structure written by MMmdl.
 29 30  0  0  0  0  0  0  0  0  1 V2000
  152.2267  143.9259  161.5300 C   0  0  0  0  0  0  0  0  0  0  0  0
  151.9254  144.2183  160.0530 C   0  0  0  0  0  0  0  0  0  0  0  0
  150.6412  145.0399  159.8709 C   0  0  0  0  0  0  0  0  0  0  0  0
  151.9002  142.9680  159.2313 C   0  0  0  0  0  0  0  0  0  0  0  0
  152.2258  141.7317  159.6200 N   0  0  0  0  0  0  0  0  0  0  0  0
  151.9870  140.9206  158.5335 N   0  0  0  0  0  0  0  0  0  0  0  0
  151.5423  141.7276  157.5669 C   0  0  0  0  0  0  0  0  0  0  0  0
  151.0826  141.3317  156.2010 C   0  0  1  0  0  0  0  0  0  0  0  0
  151.3563  139.8457  155.8981 C   0  0  0  0  0  0  0  0  0  0  0  0
  150.8091  139.4858  154.5908 N   0  0  0  0  0  0  0  0  0  0  0  0
  149.3870  139.8146  154.5037 C   0  0  0  0  0  0  0  0  0  0  0  0
  149.1582  141.2980  154.8457 C   0  0  0  0  0  0  0  0  0  0  0  0
  149.6795  141.5753  156.1411 O   0  0  0  0  0  0  0  0  0  0  0  0
  151.4353  143.0253  157.9563 O   0  0  0  0  0  0  0  0  0  0  0  0
  153.1761  143.4008  161.6394 H   0  0  0  0  0  0  0  0  0  0  0  0
  151.4496  143.3065  161.9791 H   0  0  0  0  0  0  0  0  0  0  0  0
  152.2916  144.8482  162.1077 H   0  0  0  0  0  0  0  0  0  0  0  0
  152.7486  144.8277  159.6772 H   0  0  0  0  0  0  0  0  0  0  0  0
  150.4855  145.2973  158.8229 H   0  0  0  0  0  0  0  0  0  0  0  0
  150.6866  145.9710  160.4363 H   0  0  0  0  0  0  0  0  0  0  0  0
  149.7653  144.4866  160.2114 H   0  0  0  0  0  0  0  0  0  0  0  0
  151.5941  141.9656  155.4739 H   0  0  0  0  0  0  0  0  0  0  0  0
  152.4281  139.6473  155.9223 H   0  0  0  0  0  0  0  0  0  0  0  0
  150.9043  139.2227  156.6710 H   0  0  0  0  0  0  0  0  0  0  0  0
  150.9392  138.4922  154.4292 H   0  0  0  0  0  0  0  0  0  0  0  0
  149.0129  139.5985  153.5028 H   0  0  0  0  0  0  0  0  0  0  0  0
  148.8184  139.1888  155.1928 H   0  0  0  0  0  0  0  0  0  0  0  0
  149.6252  141.9472  154.1032 H   0  0  0  0  0  0  0  0  0  0  0  0
  148.0920  141.5242  154.8394 H   0  0  0  0  0  0  0  0  0  0  0  0
  1  2  1  0  0  0  0
  1 15  1  0  0  0  0
  1 16  1  0  0  0  0
  1 17  1  0  0  0  0
  2  3  1  0  0  0  0
  2  4  1  0  0  0  0
  2 18  1  0  0  0  0
  3 19  1  0  0  0  0
  3 20  1  0  0  0  0
  3 21  1  0  0  0  0
  4 14  1  0  0  0  0
  4  5  2  0  0  0  0
  5  6  1  0  0  0  0
  6  7  2  0  0  0  0
  7  8  1  0  0  0  0
  7 14  1  0  0  0  0
  8 13  1  0  0  0  0
  8  9  1  0  0  0  0
  8 22  1  0  0  0  0
  9 10  1  0  0  0  0
  9 23  1  0  0  0  0
  9 24  1  0  0  0  0
 10 11  1  0  0  0  0
 10 25  1  0  0  0  0
 11 12  1  0  0  0  0
 11 26  1  0  0  0  0
 11 27  1  0  0  0  0
 12 13  1  0  0  0  0
 12 28  1  0  0  0  0
 12 29  1  0  0  0  0
M  END
> <s_m_source_file>
AV-unprocessed.smi

> <i_m_source_file_index>
3122

> <i_lp_mmshare_version>
43012

> <i_f3d_flags>
0

> <s_epik_input>
W0NIM11bQ0hdKFtDSDNdKWMxbm5jKG8xKVtDQEBIXTJbQ0gyXVtOSF1bQ0gyXVtDSDJdTzI=

> <s_epik_cmdline>
J2VwaWtfcHl0aG9uJywgJy1waCcsICc3LjAnLCAnLXRuJywgJzgnLCAnLW1hJywgJzIwMCcsICctbWV0YWxfYmluZGluZycsICctaW1hZScsICc8aW5maWxlLm1hZT4nLCAnLW9tYWUnLCAnPG91dGZpbGUubWFlPic=

> <r_lp_tautomer_probability>
1

> <r_epik_Ionization_Penalty>
1.64488

> <r_epik_Ionization_Penalty_Charging>
0

> <r_epik_Ionization_Penalty_Neutral>
1.64488

> <r_epik_State_Penalty>
1.74649

> <r_epik_Charging_Adjusted_Penalty>
1.74649

> <i_epik_Tot_Q>
0

> <i_epik_Tot_abs_Q>
0

> <r_epik_Metal_State_Penalty>
1.74649

> <b_epik_Metal_Only>
0

> <s_lp_Force_Field>
OPLS_2005

> <r_lp_Energy>
11.3744

> <b_lp_Chiralities_Consistent>
1

> <s_lp_Variant>
AV-unprocessed.smi:3122-4

> <Gold.Version>
5.8.1

> <Gold.Id.Protein>
6NUR|6NUR_protein|mol2

> <Gold.PLP.Fitness>
32.9254

> <Gold.PLP.PLP>
-30.5391

> <Gold.PLP.part.hbond>
-1.0000

> <Gold.PLP.part.metal>
0.0000

> <Gold.PLP.part.buried>
-5.9768

> <Gold.PLP.part.nonpolar>
-24.2364

> <Gold.PLP.part.repulsive>
0.1926

> <Gold.PLP.ligand.clash>
0.0000

> <Gold.PLP.ligand.torsion>
0.3496

> <Gold.PLP.Chemscore.Hbond>
1.0000

> <Gold.PLP.Chemscore.CHOScore>
0.0000

> <Gold.PLP.Chemscore.Metal>
0.0000

> <Gold.Chemscore.Hbonds>
donor molecule, donor type, donor heavy atom, donor atom, acceptor molecule, acceptor atom, score
      P1  H  7989  7998       L1    10  1.00

> <Gold.PLP.Chemscore.Internal.Correction>
0.0856

> <Gold.Rescore>
     Score         DG    S(hbond)    S(metal)    S(lipo)     H(rot)  DE(clash)    DE(int)     intcor
     10.50     -10.88       0.34        0.00      63.69       1.24       0.01       0.36       ----

> <Gold.Chemscore.Fitness>
10.5043

> <Gold.Chemscore.DG>
-10.8785

> <Gold.Chemscore.ZeroCoef>
-5.4800

> <Gold.Chemscore.Hbond>
0.3373

> <Gold.Chemscore.Metal>
0.0000

> <Gold.Chemscore.Lipo>
63.6899

> <Gold.Chemscore.Internal_Hbond>
0.0000

> <Gold.Chemscore.DEClash>
0.0147

> <Gold.Chemscore.DEInternal>
0.3595

> <Gold.Chemscore.Rot>
1.2422

> <Gold.Chemscore.Internal.Correction>
   9.000000E+99

> <Gold.Chemscore.Hbonds>
donor molecule, donor type, donor heavy atom, donor atom, acceptor molecule, acceptor atom, score
      P1  H  7989  7998       L1    10  0.10

> <Gold.Chemscore.Hbond.Weighted>
-1.1267

> <Gold.Chemscore.Metal.Weighted>
-0.0000

> <Gold.Chemscore.Lipo.Weighted>
-7.4517

> <Gold.Chemscore.Internal_Hbond.Weighted>
0.0000

> <Gold.Chemscore.DEClash.Weighted>
0.0147

> <Gold.Chemscore.DEInternal.Weighted>
0.3595

> <Gold.Chemscore.Rot.Weighted>
3.1799

> <Gold.Chemscore.Internal.Correction.Weighted>
   9.000000E+99

> <Gold.Protein.RotatedTorsions>
[ 6907 6896 6895 6894 ] final  160.48 input  -60.11 | X-H torsion
[ 7974 7965 7964 7962 ] final -126.11 input  175.53 | X-H torsion
[ 8008 7997 7996 7995 ] final  136.63 input   59.86 | X-H torsion
[ 10167 10162 10161 10158 ] final   51.47 input  -65.29 | X-H torsion
[ 10718 10713 10712 10709 ] final   28.29 input   66.30 | X-H torsion
[ 10763 10752 10751 10750 ] final -138.66 input  -60.55 | X-H torsion
[ 11005 11000 10999 10996 ] final   88.73 input  -57.11 | X-H torsion

> <Gold.Protein.ActiveResidues>
 VAL166  LYS551  ARG553  GLY616  TRP617  ASP618  TYR619  PRO620  LYS621  CYS622 
 ASP623  PHE694  ASN695  SER759  ASP760  ASP761  ALA762  ILE779  LEU786  VAL792 
 PHE793  MET794  SER795  GLU796  ALA797  LYS798  CYS799  TRP800  GLU811  SER814 

> <Gold.Protein.RotatedAtoms>
  151.9700  133.3723  159.4067 H   0  0  0  0  0  0  0  0  0  0  0  0  # atno 6907 bound_to 6896
  150.6950  134.4150  159.5188 H   0  0  0  0  0  0  0  0  0  0  0  0  # atno 6908 bound_to 6896
  152.1852  134.8719  160.0573 H   0  0  0  0  0  0  0  0  0  0  0  0  # atno 6909 bound_to 6896
  144.9906  140.7728  143.4556 H   0  0  0  0  0  0  0  0  0  0  0  0  # atno 7974 bound_to 7965
  156.3004  140.2440  156.3776 H   0  0  0  0  0  0  0  0  0  0  0  0  # atno 8008 bound_to 7997
  154.8731  140.0415  157.1756 H   0  0  0  0  0  0  0  0  0  0  0  0  # atno 8009 bound_to 7997
  154.8775  140.2944  155.5449 H   0  0  0  0  0  0  0  0  0  0  0  0  # atno 8010 bound_to 7997
  140.2615  144.3367  150.6316 H   0  0  0  0  0  0  0  0  0  0  0  0  # atno 10167 bound_to 10162
  157.2314  130.7026  149.6315 H   0  0  0  0  0  0  0  0  0  0  0  0  # atno 10718 bound_to 10713
  154.8631  135.3605  154.5421 H   0  0  0  0  0  0  0  0  0  0  0  0  # atno 10763 bound_to 10752
  153.6042  135.7011  153.5377 H   0  0  0  0  0  0  0  0  0  0  0  0  # atno 10764 bound_to 10752
  153.3264  135.4136  155.1421 H   0  0  0  0  0  0  0  0  0  0  0  0  # atno 10765 bound_to 10752
  139.8890  134.8506  156.3041 H   0  0  0  0  0  0  0  0  0  0  0  0  # atno 11005 bound_to 11000
  145.2291  139.2123  143.5052 LP  0  0  0  0  0  0  0  0  0  0  0  0  # atno 17320 bound_to 7965
  146.3430  140.2165  142.8591 LP  0  0  0  0  0  0  0  0  0  0  0  0  # atno 17321 bound_to 7965
  140.5962  143.2167  151.7160 LP  0  0  0  0  0  0  0  0  0  0  0  0  # atno 17342 bound_to 10162
  139.5015  144.3864  152.0324 LP  0  0  0  0  0  0  0  0  0  0  0  0  # atno 17343 bound_to 10162
  155.9675  130.4487  150.5631 LP  0  0  0  0  0  0  0  0  0  0  0  0  # atno 17370 bound_to 10713
  157.3474  131.0727  151.1740 LP  0  0  0  0  0  0  0  0  0  0  0  0  # atno 17371 bound_to 10713
  140.9893  133.7218  156.0790 LP  0  0  0  0  0  0  0  0  0  0  0  0  # atno 17394 bound_to 11000
  140.7646  134.3901  157.5519 LP  0  0  0  0  0  0  0  0  0  0  0  0  # atno 17395 bound_to 11000

$$$$
