#       Name:                AV-unprocessed.smi:2812
#       Creating user name   scv26
#       Creation time:       Fri Mar 27 15:27:19 2020


#       File generated by GOLD software.
#

@<TRIPOS>MOLECULE
AV-unprocessed.smi:2812
    59    60     1
SMALL
NO_CHARGES


@<TRIPOS>ATOM
      1 ****        -0.8371   3.6981   1.2781 C.3            1 S1                 0.0000
      2 ****        -2.2203   3.6954   0.6445 C.2            1 S1                 0.0000
      3 ****        -2.8145   4.9613   0.2664 C.2            1 S1                 0.0000
      4 ****        -4.0475   4.9829  -0.2587 C.2            1 S1                 0.0000
      5 ****        -4.7856   3.8065  -0.4550 N.am           1 S1                 0.0000
      6 ****        -6.1262   3.9318  -1.0325 C.3            1 S1                 0.0000
      7 ****        -4.2949   2.5766  -0.1286 C.2            1 S1                 0.0000
      8 ****        -4.9621   1.5541  -0.3034 O.2            1 S1                 0.0000
      9 ****        -2.9324   2.5528   0.4383 C.2            1 S1                 0.0000
     10 ****        -2.4297   1.2893   0.7696 N.am           1 S1                 0.0000
     11 ****        -1.4319   0.6720   0.1169 C.2            1 S1                 0.0000
     12 ****        -0.8127   1.1555  -0.8318 O.2            1 S1                 0.0000
     13 ****        -1.1839  -0.5425   0.6254 N.am           1 S1                 0.0000
     14 ****        -0.1364  -1.4420   0.1519 C.3            1 S1                 0.0000
     15 ****         1.2924  -0.9728   0.5558 C.3            1 S1                 0.0000
     16 ****         1.3610  -0.8541   2.1021 C.3            1 S1                 0.0000
     17 ****         2.7617  -0.5246   2.6201 C.3            1 S1                 0.0000
     18 ****         3.7436  -1.5738   2.1059 C.3            1 S1                 0.0000
     19 ****         3.7122  -1.6019   0.5753 C.3            1 S1                 0.0000
     20 ****         2.3542  -1.8964   0.0365 N.4            1 S1                 1.0000
     21 ****         2.4088  -2.0104  -1.4495 C.3            1 S1                 0.0000
     22 ****         2.5448  -3.4777  -1.9019 C.3            1 S1                 0.0000
     23 ****         2.8469  -3.5581  -3.4055 C.3            1 S1                 0.0000
     24 ****         1.2925  -4.3025  -1.5610 C.3            1 S1                 0.0000
     25 ****        -0.5787   4.6919   1.6443 H              1 S1                 0.0000
     26 ****        -0.0822   3.4037   0.5492 H              1 S1                 0.0000
     27 ****        -0.7898   3.0130   2.1251 H              1 S1                 0.0000
     28 ****        -2.2708   5.8846   0.4033 H              1 S1                 0.0000
     29 ****        -4.5394   5.8962  -0.5596 H              1 S1                 0.0000
     30 ****        -6.1925   3.3782  -1.9703 H              1 S1                 0.0000
     31 ****        -6.3983   4.9659  -1.2458 H              1 S1                 0.0000
     32 ****        -6.8772   3.5336  -0.3485 H              1 S1                 0.0000
     33 ****        -2.9481   0.7663   1.4602 H              1 S1                 0.0000
     34 ****        -1.7481  -0.8614   1.3998 H              1 S1                 0.0000
     35 ****        -0.3318  -2.4286   0.5728 H              1 S1                 0.0000
     36 ****        -0.2664  -1.5487  -0.9231 H              1 S1                 0.0000
     37 ****         1.4874   0.0113   0.1264 H              1 S1                 0.0000
     38 ****         0.6735  -0.0853   2.4559 H              1 S1                 0.0000
     39 ****         1.0297  -1.7899   2.5549 H              1 S1                 0.0000
     40 ****         3.0613   0.4693   2.2847 H              1 S1                 0.0000
     41 ****         2.7660  -0.5049   3.7104 H              1 S1                 0.0000
     42 ****         4.7511  -1.3443   2.4541 H              1 S1                 0.0000
     43 ****         3.4903  -2.5568   2.5056 H              1 S1                 0.0000
     44 ****         4.0567  -0.6408   0.1896 H              1 S1                 0.0000
     45 ****         4.4155  -2.3548   0.2174 H              1 S1                 0.0000
     46 ****         1.5497  -1.5593  -1.9403 H              1 S1                 0.0000
     47 ****         3.2532  -1.4318  -1.8280 H              1 S1                 0.0000
     48 ****         3.3922  -3.9231  -1.3792 H              1 S1                 0.0000
     49 ****         2.0389  -3.1250  -3.9963 H              1 S1                 0.0000
     50 ****         2.9758  -4.5922  -3.7265 H              1 S1                 0.0000
     51 ****         3.7643  -3.0227  -3.6528 H              1 S1                 0.0000
     52 ****         0.4042  -3.8921  -2.0422 H              1 S1                 0.0000
     53 ****         1.1086  -4.3259  -0.4867 H              1 S1                 0.0000
     54 ****         1.4014  -5.3355  -1.8925 H              1 S1                 0.0000
     55 ****         2.1033  -2.8124   0.3799 H              1 S1                 0.0000
     56 ****        -5.8817   1.6173  -0.6913 LP             1 S1                 0.0000
     57 ****        -4.5836   0.6619  -0.0572 LP             1 S1                 0.0000
     58 ****        -1.0430   2.0697  -1.1654 LP             1 S1                 0.0000
     59 ****        -0.0798   0.6339  -1.2685 LP             1 S1                 0.0000
@<TRIPOS>BOND
    1    1    2 1     
    2    1   25 1     
    3    1   26 1     
    4    1   27 1     
    5    2    9 2     
    6    2    3 1     
    7    3    4 2     
    8    3   28 1     
    9    4    5 1     
   10    4   29 1     
   11    5    6 1     
   12    5    7 am    
   13    6   30 1     
   14    6   31 1     
   15    6   32 1     
   16    7    8 2     
   17    7    9 1     
   18    9   10 1     
   19   10   11 am    
   20   10   33 1     
   21   11   12 2     
   22   11   13 am    
   23   13   14 1     
   24   13   34 1     
   25   14   15 1     
   26   14   35 1     
   27   14   36 1     
   28   15   20 1     
   29   15   16 1     
   30   15   37 1     
   31   16   17 1     
   32   16   38 1     
   33   16   39 1     
   34   17   18 1     
   35   17   40 1     
   36   17   41 1     
   37   18   19 1     
   38   18   42 1     
   39   18   43 1     
   40   19   20 1     
   41   19   44 1     
   42   19   45 1     
   43   20   21 1     
   44   20   55 1     
   45   21   22 1     
   46   21   46 1     
   47   21   47 1     
   48   22   23 1     
   49   22   24 1     
   50   22   48 1     
   51   23   49 1     
   52   23   50 1     
   53   23   51 1     
   54   24   52 1     
   55   24   53 1     
   56   24   54 1     
   57    8   56 1     
   58    8   57 1     
   59   12   58 1     
   60   12   59 1     
@<TRIPOS>SUBSTRUCTURE
      1 S1             1
@<TRIPOS>SET
LONE_PAIRS      STATIC     ATOMS    <user>   **** ""
4 56 57 58 59
DONOR_HYDROGENS      STATIC     ATOMS    <user>   **** ""
3 33 34 55
ATOM$BLUE        STATIC     ATOMS    COLORGROUP SYSTEM
4 56 57 58 59
ATOM$RED        STATIC     ATOMS    COLORGROUP SYSTEM
3 33 34 55
