#       Name:                AV-unprocessed.smi:72
#       Creating user name   scv26
#       Creation time:       Thu Mar 26 16:58:38 2020


#       File generated by GOLD software.
#

@<TRIPOS>MOLECULE
AV-unprocessed.smi:72
    41    42     1
SMALL
NO_CHARGES


@<TRIPOS>ATOM
      1 ****        -3.9073   2.8351  -1.8207 N.2            1 S1                 0.0000
      2 ****        -2.8917   2.2476  -1.2957 C.2            1 S1                 0.0000
      3 ****        -1.7856   1.7538  -2.0035 N.2            1 S1                 0.0000
      4 ****        -0.8264   1.1822  -1.3425 C.2            1 S1                 0.0000
      5 ****        -0.8615   1.0388   0.1065 N.am           1 S1                 0.0000
      6 ****         0.2600   0.3754   0.8867 C.3            1 S1                 0.0000
      7 ****         1.4387   0.3854   0.1318 O.3            1 S1                 0.0000
      8 ****         1.7491  -0.9320  -0.3152 C.3            1 S1                 0.0000
      9 ****         3.2559  -1.0453  -0.5909 C.3            1 S1                 0.0000
     10 ****         3.5513  -0.5412  -1.8759 O.3            1 S1                 0.0000
     11 ****         1.2740  -1.7773   0.8656 C.3            1 S1                 0.0000
     12 ****         1.1271  -3.1484   0.5463 O.3            1 S1                 0.0000
     13 ****        -0.0354  -1.0982   1.2569 C.3            1 S1                 0.0000
     14 ****        -1.1497  -1.6478   0.5693 O.3            1 S1                 0.0000
     15 ****        -1.9745   1.5260   0.8337 C.2            1 S1                 0.0000
     16 ****        -2.0613   1.4146   2.0564 O.2            1 S1                 0.0000
     17 ****        -2.9430   2.1132   0.0982 N.am           1 S1                 0.0000
     18 ****         0.4262   1.0116   1.7578 H              1 S1                 0.0000
     19 ****         1.1636  -1.1790  -1.2029 H              1 S1                 0.0000
     20 ****         1.9836  -1.6815   1.6892 H              1 S1                 0.0000
     21 ****        -0.2199  -1.1759   2.3288 H              1 S1                 0.0000
     22 ****        -4.5728   3.0981  -1.1089 H              1 S1                 0.0000
     23 ****         0.0581   0.7770  -1.8335 H              1 S1                 0.0000
     24 ****         3.8391  -0.5216   0.1671 H              1 S1                 0.0000
     25 ****         3.5640  -2.0911  -0.5720 H              1 S1                 0.0000
     26 ****         4.4793  -0.6337  -2.0287 H              1 S1                 0.0000
     27 ****         0.7305  -3.5869   1.2836 H              1 S1                 0.0000
     28 ****        -1.9239  -1.1692   0.8231 H              1 S1                 0.0000
     29 ****        -3.7490   2.4697   0.5902 H              1 S1                 0.0000
     30 ****        -4.0221   3.0077  -2.7990 LP             1 S1                 0.0000
     31 ****        -1.7373   1.8407  -2.9986 LP             1 S1                 0.0000
     32 ****         2.1896   0.7280   0.6965 LP             1 S1                 0.0000
     33 ****         1.3182   0.9832  -0.6608 LP             1 S1                 0.0000
     34 ****         3.2959   0.4243  -1.9263 LP             1 S1                 0.0000
     35 ****         3.0430  -1.0569  -2.5656 LP             1 S1                 0.0000
     36 ****         2.0239  -3.5489   0.3579 LP             1 S1                 0.0000
     37 ****         0.5425  -3.2465  -0.2591 LP             1 S1                 0.0000
     38 ****        -1.2542  -2.6121   0.8126 LP             1 S1                 0.0000
     39 ****        -1.0109  -1.5662  -0.4177 LP             1 S1                 0.0000
     40 ****        -1.3297   0.9672   2.5709 LP             1 S1                 0.0000
     41 ****        -2.8633   1.7715   2.5353 LP             1 S1                 0.0000
@<TRIPOS>BOND
    1    1    2 2     
    2    1   22 1     
    3    2   17 1     
    4    2    3 1     
    5    3    4 2     
    6    4    5 1     
    7    4   23 1     
    8    5    6 1     
    9    5   15 am    
   10    6   18 1     
   11    6   13 1     
   12    6    7 1     
   13    7    8 1     
   14    8   19 1     
   15    8    9 1     
   16    8   11 1     
   17    9   10 1     
   18    9   24 1     
   19    9   25 1     
   20   10   26 1     
   21   11   20 1     
   22   11   12 1     
   23   11   13 1     
   24   12   27 1     
   25   13   21 1     
   26   13   14 1     
   27   14   28 1     
   28   15   16 2     
   29   15   17 am    
   30   17   29 1     
   31    1   30 1     
   32    3   31 1     
   33    7   32 1     
   34    7   33 1     
   35   10   34 1     
   36   10   35 1     
   37   12   36 1     
   38   12   37 1     
   39   14   38 1     
   40   14   39 1     
   41   16   40 1     
   42   16   41 1     
@<TRIPOS>SUBSTRUCTURE
      1 S1             1
@<TRIPOS>SET
LONE_PAIRS      STATIC     ATOMS    <user>   **** ""
12 30 31 32 33 34 35 36 37 38 39 40 41
DONOR_HYDROGENS      STATIC     ATOMS    <user>   **** ""
5 22 26 27 28 29
ATOM$BLUE        STATIC     ATOMS    COLORGROUP SYSTEM
12 30 31 32 33 34 35 36 37 38 39 40 41
ATOM$RED        STATIC     ATOMS    COLORGROUP SYSTEM
5 22 26 27 28 29
