AV-unprocessed.smi:1461|AV-procd|sdf|5930|dock5
  -GOLD-   22720 6 13D 1   1.00000     0.00000
 Structure written by MMmdl.
 41 42  0  0  0  0  0  0  0  0  1 V2000
  152.7753  143.7548  159.0430 C   0  0  0  0  0  0  0  0  0  0  0  0
  151.6676  144.8213  158.9823 C   0  0  0  0  0  0  0  0  0  0  0  0
  151.8182  145.8188  160.1401 C   0  0  0  0  0  0  0  0  0  0  0  0
  150.2492  144.2132  158.9712 C   0  0  0  0  0  0  0  0  0  0  0  0
  149.9589  143.5072  157.7264 N   0  0  0  0  0  0  0  0  0  0  0  0
  150.3515  142.2604  157.4286 C   0  0  0  0  0  0  0  0  0  0  0  0
  151.0000  141.5453  158.1929 O   0  0  0  0  0  0  0  0  0  0  0  0
  149.9687  141.9156  156.1883 N   0  0  0  0  0  0  0  0  0  0  0  0
  150.2908  140.7235  155.4824 C   0  0  0  0  0  0  0  0  0  0  0  0
  151.5732  140.1327  155.5894 C   0  0  0  0  0  0  0  0  0  0  0  0
  151.8295  138.9174  154.9319 C   0  0  0  0  0  0  0  0  0  0  0  0
  150.7861  138.3254  154.2010 C   0  0  0  0  0  0  0  0  0  0  0  0
  149.5563  138.8682  154.1005 N   0  0  0  0  0  0  0  0  0  0  0  0
  149.2972  140.0482  154.7168 C   0  0  0  0  0  0  0  0  0  0  0  0
  147.9954  140.5783  154.5597 N   0  0  0  0  0  0  0  0  0  0  0  0
  147.7834  141.8096  153.8064 C   0  0  0  0  0  0  0  0  0  0  0  0
  146.3718  142.2586  154.1719 C   0  0  0  0  0  0  0  0  0  0  0  0
  146.2689  141.8467  155.6371 C   0  0  0  0  0  0  0  0  0  0  0  0
  147.0983  140.5604  155.7119 C   0  0  0  0  0  0  0  0  0  0  0  0
  152.6685  143.1241  159.9261 H   0  0  0  0  0  0  0  0  0  0  0  0
  153.7623  144.2164  159.0817 H   0  0  0  0  0  0  0  0  0  0  0  0
  152.7593  143.1070  158.1665 H   0  0  0  0  0  0  0  0  0  0  0  0
  151.7999  145.3798  158.0545 H   0  0  0  0  0  0  0  0  0  0  0  0
  151.7009  145.3252  161.1052 H   0  0  0  0  0  0  0  0  0  0  0  0
  151.0713  146.6104  160.0782 H   0  0  0  0  0  0  0  0  0  0  0  0
  152.7995  146.2934  160.1265 H   0  0  0  0  0  0  0  0  0  0  0  0
  150.1091  143.5622  159.8358 H   0  0  0  0  0  0  0  0  0  0  0  0
  149.5098  145.0083  159.0714 H   0  0  0  0  0  0  0  0  0  0  0  0
  149.4321  144.0158  157.0316 H   0  0  0  0  0  0  0  0  0  0  0  0
  149.5230  142.6376  155.6411 H   0  0  0  0  0  0  0  0  0  0  0  0
  152.3546  140.5822  156.1835 H   0  0  0  0  0  0  0  0  0  0  0  0
  152.7984  138.4449  154.9974 H   0  0  0  0  0  0  0  0  0  0  0  0
  150.9406  137.3879  153.6876 H   0  0  0  0  0  0  0  0  0  0  0  0
  148.4974  142.5762  154.1104 H   0  0  0  0  0  0  0  0  0  0  0  0
  147.8918  141.6440  152.7343 H   0  0  0  0  0  0  0  0  0  0  0  0
  146.2102  143.3252  154.0143 H   0  0  0  0  0  0  0  0  0  0  0  0
  145.6392  141.7107  153.5776 H   0  0  0  0  0  0  0  0  0  0  0  0
  146.7243  142.6136  156.2653 H   0  0  0  0  0  0  0  0  0  0  0  0
  145.2402  141.7068  155.9701 H   0  0  0  0  0  0  0  0  0  0  0  0
  146.4426  139.6929  155.6336 H   0  0  0  0  0  0  0  0  0  0  0  0
  147.6411  140.4908  156.6556 H   0  0  0  0  0  0  0  0  0  0  0  0
  1  2  1  0  0  0  0
  1 20  1  0  0  0  0
  1 21  1  0  0  0  0
  1 22  1  0  0  0  0
  2  3  1  0  0  0  0
  2  4  1  0  0  0  0
  2 23  1  0  0  0  0
  3 24  1  0  0  0  0
  3 25  1  0  0  0  0
  3 26  1  0  0  0  0
  4  5  1  0  0  0  0
  4 27  1  0  0  0  0
  4 28  1  0  0  0  0
  5  6  1  0  0  0  0
  5 29  1  0  0  0  0
  6  7  2  0  0  0  0
  6  8  1  0  0  0  0
  8  9  1  0  0  0  0
  8 30  1  0  0  0  0
  9 14  1  0  0  0  0
  9 10  2  0  0  0  0
 10 11  1  0  0  0  0
 10 31  1  0  0  0  0
 11 12  2  0  0  0  0
 11 32  1  0  0  0  0
 12 13  1  0  0  0  0
 12 33  1  0  0  0  0
 13 14  2  0  0  0  0
 14 15  1  0  0  0  0
 15 19  1  0  0  0  0
 15 16  1  0  0  0  0
 16 17  1  0  0  0  0
 16 34  1  0  0  0  0
 16 35  1  0  0  0  0
 17 18  1  0  0  0  0
 17 36  1  0  0  0  0
 17 37  1  0  0  0  0
 18 19  1  0  0  0  0
 18 38  1  0  0  0  0
 18 39  1  0  0  0  0
 19 40  1  0  0  0  0
 19 41  1  0  0  0  0
M  END
> <s_m_source_file>
AV-unprocessed.smi

> <i_m_source_file_index>
1461

> <i_lp_mmshare_version>
43012

> <i_f3d_flags>
0

> <s_epik_input>
W0NIM11bQ0hdKFtDSDNdKVtDSDJdW05IXUMoPU8pW05IXWMxW2NIXVtjSF1bY0hdbmMxTjJbQ0gyXVtDSDJdW0NIMl1bQ0gyXTI=

> <s_epik_cmdline>
J2VwaWtfcHl0aG9uJywgJy1waCcsICc3LjAnLCAnLXRuJywgJzgnLCAnLW1hJywgJzIwMCcsICctbWV0YWxfYmluZGluZycsICctaW1hZScsICc8aW5maWxlLm1hZT4nLCAnLW9tYWUnLCAnPG91dGZpbGUubWFlPic=

> <r_lp_tautomer_probability>
1

> <r_epik_Ionization_Penalty>
0.101487

> <r_epik_Ionization_Penalty_Charging>
0

> <r_epik_Ionization_Penalty_Neutral>
0.101487

> <r_epik_State_Penalty>
0.0909146

> <r_epik_Charging_Adjusted_Penalty>
0.0909146

> <i_epik_Tot_Q>
0

> <i_epik_Tot_abs_Q>
0

> <r_epik_Metal_State_Penalty>
0.0775598

> <b_epik_Metal_Only>
0

> <s_lp_Force_Field>
OPLS_2005

> <r_lp_Energy>
32.2638

> <b_lp_Chiralities_Consistent>
1

> <s_lp_Variant>
AV-unprocessed.smi:1461-1

> <Gold.Version>
5.8.1

> <Gold.Id.Protein>
6NUR|6NUR_protein|mol2

> <Gold.PLP.Fitness>
49.0495

> <Gold.PLP.PLP>
-42.0979

> <Gold.PLP.part.hbond>
-2.2074

> <Gold.PLP.part.metal>
0.0000

> <Gold.PLP.part.buried>
-3.9371

> <Gold.PLP.part.nonpolar>
-35.9609

> <Gold.PLP.part.repulsive>
0.7601

> <Gold.PLP.ligand.clash>
0.0000

> <Gold.PLP.ligand.torsion>
0.6878

> <Gold.PLP.Chemscore.Hbond>
1.5824

> <Gold.PLP.Chemscore.CHOScore>
1.0773

> <Gold.PLP.Chemscore.Metal>
0.0000

> <Gold.Chemscore.Hbonds>
donor molecule, donor type, donor heavy atom, donor atom, acceptor molecule, acceptor atom, score
      L1  H     5    29       P1  8028  1.00
      L1  H     8    30       P1  8028  0.56
      L1  C    12    33       P1  7948  0.05
      L1  C    12    33       P1  7949  0.79

> <Gold.PLP.Chemscore.Internal.Correction>
0.3482

> <Gold.Rescore>
     Score         DG    S(hbond)    S(metal)    S(lipo)     H(rot)  DE(clash)    DE(int)     intcor
     15.53     -17.69       1.23        0.00      98.29       1.32       0.36       1.81       ----

> <Gold.Chemscore.Fitness>
15.5268

> <Gold.Chemscore.DG>
-17.6905

> <Gold.Chemscore.ZeroCoef>
-5.4800

> <Gold.Chemscore.Hbond>
1.2282

> <Gold.Chemscore.Metal>
0.0000

> <Gold.Chemscore.Lipo>
98.2897

> <Gold.Chemscore.Internal_Hbond>
0.0000

> <Gold.Chemscore.DEClash>
0.3581

> <Gold.Chemscore.DEInternal>
1.8056

> <Gold.Chemscore.Rot>
1.3248

> <Gold.Chemscore.Internal.Correction>
   9.000000E+99

> <Gold.Chemscore.Hbonds>
donor molecule, donor type, donor heavy atom, donor atom, acceptor molecule, acceptor atom, score
      L1  H     5    29       P1  8028  0.55
      L1  H     8    30       P1  8028  0.54

> <Gold.Chemscore.Hbond.Weighted>
-4.1021

> <Gold.Chemscore.Metal.Weighted>
-0.0000

> <Gold.Chemscore.Lipo.Weighted>
-11.4999

> <Gold.Chemscore.Internal_Hbond.Weighted>
0.0000

> <Gold.Chemscore.DEClash.Weighted>
0.3581

> <Gold.Chemscore.DEInternal.Weighted>
1.8056

> <Gold.Chemscore.Rot.Weighted>
3.3915

> <Gold.Chemscore.Internal.Correction.Weighted>
   9.000000E+99

> <Gold.Protein.RotatedTorsions>
[ 6907 6896 6895 6894 ] final  -86.93 input  -60.11 | X-H torsion
[ 7974 7965 7964 7962 ] final  101.65 input  175.53 | X-H torsion
[ 8008 7997 7996 7995 ] final  -16.05 input   59.86 | X-H torsion
[ 10167 10162 10161 10158 ] final   37.00 input  -65.29 | X-H torsion
[ 10718 10713 10712 10709 ] final  105.87 input   66.30 | X-H torsion
[ 10763 10752 10751 10750 ] final -170.64 input  -60.55 | X-H torsion
[ 11005 11000 10999 10996 ] final  111.53 input  -57.11 | X-H torsion

> <Gold.Protein.ActiveResidues>
 VAL166  LYS551  ARG553  GLY616  TRP617  ASP618  TYR619  PRO620  LYS621  CYS622 
 ASP623  PHE694  ASN695  SER759  ASP760  ASP761  ALA762  ILE779  LEU786  VAL792 
 PHE793  MET794  SER795  GLU796  ALA797  LYS798  CYS799  TRP800  GLU811  SER814 

> <Gold.Protein.RotatedAtoms>
  150.6866  134.2974  159.4691 H   0  0  0  0  0  0  0  0  0  0  0  0  # atno 6907 bound_to 6896
  152.0873  134.9428  160.0582 H   0  0  0  0  0  0  0  0  0  0  0  0  # atno 6908 bound_to 6896
  152.0758  133.4094  159.4516 H   0  0  0  0  0  0  0  0  0  0  0  0  # atno 6909 bound_to 6896
  145.3696  139.2401  143.3462 H   0  0  0  0  0  0  0  0  0  0  0  0  # atno 7974 bound_to 7965
  154.5083  140.2180  155.9207 H   0  0  0  0  0  0  0  0  0  0  0  0  # atno 8008 bound_to 7997
  156.1521  140.3159  155.8631 H   0  0  0  0  0  0  0  0  0  0  0  0  # atno 8009 bound_to 7997
  155.3919  140.0479  157.3031 H   0  0  0  0  0  0  0  0  0  0  0  0  # atno 8010 bound_to 7997
  140.4074  144.1639  150.6137 H   0  0  0  0  0  0  0  0  0  0  0  0  # atno 10167 bound_to 10162
  157.6689  131.0838  150.5922 H   0  0  0  0  0  0  0  0  0  0  0  0  # atno 10718 bound_to 10713
  154.6393  135.2896  155.0122 H   0  0  0  0  0  0  0  0  0  0  0  0  # atno 10763 bound_to 10752
  154.1255  135.6541  153.4915 H   0  0  0  0  0  0  0  0  0  0  0  0  # atno 10764 bound_to 10752
  153.0318  135.5298  154.7253 H   0  0  0  0  0  0  0  0  0  0  0  0  # atno 10765 bound_to 10752
  139.8906  134.9510  156.6446 H   0  0  0  0  0  0  0  0  0  0  0  0  # atno 11005 bound_to 11000
  146.2891  140.4344  142.8746 LP  0  0  0  0  0  0  0  0  0  0  0  0  # atno 17320 bound_to 7965
  144.8586  140.7107  143.6122 LP  0  0  0  0  0  0  0  0  0  0  0  0  # atno 17321 bound_to 7965
  140.4674  143.2425  151.9136 LP  0  0  0  0  0  0  0  0  0  0  0  0  # atno 17342 bound_to 10162
  139.4783  144.5405  151.8535 LP  0  0  0  0  0  0  0  0  0  0  0  0  # atno 17343 bound_to 10162
  156.6223  130.4409  149.5818 LP  0  0  0  0  0  0  0  0  0  0  0  0  # atno 17370 bound_to 10713
  156.2346  130.6815  151.1497 LP  0  0  0  0  0  0  0  0  0  0  0  0  # atno 17371 bound_to 10713
  140.7567  133.8852  155.8387 LP  0  0  0  0  0  0  0  0  0  0  0  0  # atno 17394 bound_to 11000
  140.9956  134.1220  157.4367 LP  0  0  0  0  0  0  0  0  0  0  0  0  # atno 17395 bound_to 11000

$$$$
