AV-unprocessed.smi:862|AV-procd|sdf|3981|dock8
  -GOLD-   22720 1463D 1   1.00000     0.00000
 Structure written by MMmdl.
 45 47  0  0  0  0  0  0  0  0  3 V2000
  149.5264  130.9828  157.4044 N   0  0  0  0  0  0  0  0  0  0  0  0
  149.8443  132.2261  157.0309 C   0  0  0  0  0  0  0  0  0  0  0  0
  149.9071  133.1381  157.8532 O   0  0  0  0  0  0  0  0  0  0  0  0
  150.1310  132.3790  155.7134 N   0  0  0  0  0  0  0  0  0  0  0  0
  149.8829  131.3895  154.6522 C   0  0  0  0  0  0  0  0  0  0  0  0
  148.6549  131.8370  153.8384 C   0  0  0  0  0  0  0  0  0  0  0  0
  148.8538  133.2516  153.2536 C   0  0  0  0  0  0  0  0  0  0  0  0
  147.6076  133.6973  152.5890 N   0  3  0  0  0  0  0  0  0  0  0  0
  146.9884  132.7385  151.6417 C   0  0  1  0  0  0  0  0  0  0  0  0
  146.0557  131.7220  152.3094 C   0  0  0  0  0  0  0  0  0  0  0  0
  145.1319  131.2313  151.1861 C   0  0  0  0  0  0  0  0  0  0  0  0
  145.2469  132.2519  150.0400 C   0  0  0  0  0  0  0  0  0  0  0  0
  146.1174  133.4081  150.5612 C   0  0  1  0  0  0  0  0  0  0  0  0
  145.3006  134.5356  151.0600 N   0  0  0  0  0  0  0  0  0  0  0  0
  144.4380  134.5642  152.1303 C   0  0  0  0  0  0  0  0  0  0  0  0
  143.9337  135.8370  152.1983 C   0  0  0  0  0  0  0  0  0  0  0  0
  144.5095  136.5365  151.1732 N   0  3  0  0  0  0  0  0  0  0  0  0
  145.3406  135.7469  150.4856 C   0  0  0  0  0  0  0  0  0  0  0  0
  149.3037  134.2414  154.3538 C   0  0  0  0  0  0  0  0  0  0  0  0
  150.4982  133.6827  155.1482 C   0  0  0  0  0  0  0  0  0  0  0  0
  149.3130  130.7926  158.3729 H   0  0  0  0  0  0  0  0  0  0  0  0
  149.5119  130.2375  156.7240 H   0  0  0  0  0  0  0  0  0  0  0  0
  150.7592  131.3312  154.0047 H   0  0  0  0  0  0  0  0  0  0  0  0
  149.7292  130.3758  155.0220 H   0  0  0  0  0  0  0  0  0  0  0  0
  148.4650  131.1240  153.0352 H   0  0  0  0  0  0  0  0  0  0  0  0
  147.7737  131.8200  154.4818 H   0  0  0  0  0  0  0  0  0  0  0  0
  149.6444  133.1820  152.5057 H   0  0  0  0  0  0  0  0  0  0  0  0
  146.9273  133.8979  153.3079 H   0  0  0  0  0  0  0  0  0  0  0  0
  147.7767  132.1923  151.1230 H   0  0  0  0  0  0  0  0  0  0  0  0
  146.6003  130.8998  152.7750 H   0  0  0  0  0  0  0  0  0  0  0  0
  145.4648  132.2031  153.0897 H   0  0  0  0  0  0  0  0  0  0  0  0
  145.4404  130.2445  150.8384 H   0  0  0  0  0  0  0  0  0  0  0  0
  144.1044  131.1404  151.5404 H   0  0  0  0  0  0  0  0  0  0  0  0
  145.7465  131.7789  149.1933 H   0  0  0  0  0  0  0  0  0  0  0  0
  144.2714  132.5834  149.6814 H   0  0  0  0  0  0  0  0  0  0  0  0
  146.7437  133.7948  149.7550 H   0  0  0  0  0  0  0  0  0  0  0  0
  144.2407  133.7006  152.7486 H   0  0  0  0  0  0  0  0  0  0  0  0
  143.2256  136.2851  152.8806 H   0  0  0  0  0  0  0  0  0  0  0  0
  145.9252  136.0341  149.6294 H   0  0  0  0  0  0  0  0  0  0  0  0
  149.5837  135.2009  153.9198 H   0  0  0  0  0  0  0  0  0  0  0  0
  148.4767  134.4390  155.0376 H   0  0  0  0  0  0  0  0  0  0  0  0
  150.8068  134.3979  155.9123 H   0  0  0  0  0  0  0  0  0  0  0  0
  151.3621  133.5620  154.4932 H   0  0  0  0  0  0  0  0  0  0  0  0
  147.8131  134.5541  152.0954 H   0  0  0  0  0  0  0  0  0  0  0  0
  144.3276  137.5097  150.9597 H   0  0  0  0  0  0  0  0  0  0  0  0
  1  2  1  0  0  0  0
  1 21  1  0  0  0  0
  1 22  1  0  0  0  0
  2  3  2  0  0  0  0
  2  4  1  0  0  0  0
  4 20  1  0  0  0  0
  4  5  1  0  0  0  0
  5  6  1  0  0  0  0
  5 23  1  0  0  0  0
  5 24  1  0  0  0  0
  6  7  1  0  0  0  0
  6 25  1  0  0  0  0
  6 26  1  0  0  0  0
  7  8  1  0  0  0  0
  7 19  1  0  0  0  0
  7 27  1  0  0  0  0
  8  9  1  0  0  0  0
  8 28  1  0  0  0  0
  8 44  1  0  0  0  0
  9 13  1  0  0  0  0
  9 10  1  0  0  0  0
  9 29  1  0  0  0  0
 10 11  1  0  0  0  0
 10 30  1  0  0  0  0
 10 31  1  0  0  0  0
 11 12  1  0  0  0  0
 11 32  1  0  0  0  0
 11 33  1  0  0  0  0
 12 13  1  0  0  0  0
 12 34  1  0  0  0  0
 12 35  1  0  0  0  0
 13 14  1  0  0  0  0
 13 36  1  0  0  0  0
 14 18  1  0  0  0  0
 14 15  1  0  0  0  0
 15 16  2  0  0  0  0
 15 37  1  0  0  0  0
 16 17  1  0  0  0  0
 16 38  1  0  0  0  0
 17 18  2  0  0  0  0
 17 45  1  0  0  0  0
 18 39  1  0  0  0  0
 19 20  1  0  0  0  0
 19 40  1  0  0  0  0
 19 41  1  0  0  0  0
 20 42  1  0  0  0  0
 20 43  1  0  0  0  0
M  CHG  1   8   1
M  CHG  1  17   1
M  END
> <s_m_source_file>
AV-unprocessed.smi

> <i_m_source_file_index>
862

> <i_lp_mmshare_version>
43012

> <i_f3d_flags>
0

> <s_epik_input>
W05IMl1DKD1PKU4xW0NIMl1bQ0gyXVtDSF0oW0NIMl1bQ0gyXTEpW05IXVtDQEBIXTJbQ0gyXVtDSDJdW0NIMl1bQ0BIXTJuM1tjSF1bY0hdbltjSF0z

> <s_epik_cmdline>
J2VwaWtfcHl0aG9uJywgJy1waCcsICc3LjAnLCAnLXRuJywgJzgnLCAnLW1hJywgJzIwMCcsICctbWV0YWxfYmluZGluZycsICctaW1hZScsICc8aW5maWxlLm1hZT4nLCAnLW9tYWUnLCAnPG91dGZpbGUubWFlPic=

> <r_lp_tautomer_probability>
1

> <r_epik_Ionization_Penalty>
1.30217

> <r_epik_Ionization_Penalty_Charging>
0.00439521

> <r_epik_Ionization_Penalty_Neutral>
1.29777

> <r_epik_State_Penalty>
0.977606

> <r_epik_Charging_Adjusted_Penalty>
0.982001

> <i_epik_Tot_Q>
2

> <i_epik_Tot_abs_Q>
2

> <r_epik_Metal_State_Penalty>
1.03289

> <b_epik_Metal_Only>
0

> <s_lp_Force_Field>
OPLS_2005

> <r_lp_Energy>
67.0187

> <b_lp_Chiralities_Consistent>
1

> <s_lp_Variant>
AV-unprocessed.smi:862-6

> <Gold.Version>
5.8.1

> <Gold.Id.Protein>
6NUR|6NUR_protein|mol2

> <Gold.PLP.Fitness>
52.2475

> <Gold.PLP.PLP>
-38.4402

> <Gold.PLP.part.hbond>
-3.0000

> <Gold.PLP.part.metal>
0.0000

> <Gold.PLP.part.buried>
-1.3949

> <Gold.PLP.part.nonpolar>
-32.4527

> <Gold.PLP.part.repulsive>
0.0793

> <Gold.PLP.ligand.clash>
0.0000

> <Gold.PLP.ligand.torsion>
0.4253

> <Gold.PLP.Chemscore.Hbond>
3.9280

> <Gold.PLP.Chemscore.CHOScore>
0.9365

> <Gold.PLP.Chemscore.Metal>
0.0000

> <Gold.Chemscore.Hbonds>
donor molecule, donor type, donor heavy atom, donor atom, acceptor molecule, acceptor atom, score
      L1  H     8    44       P1  7948  2.00
      L1  H    17    45       P1 10171  0.91
      P1  H  6896  6907       L1     3  1.00
      L1  C    18    39       P1  7921  0.94

> <Gold.PLP.Chemscore.Internal.Correction>
0.0644

> <Gold.Rescore>
     Score         DG    S(hbond)    S(metal)    S(lipo)     H(rot)  DE(clash)    DE(int)     intcor
     17.20     -17.83       2.31        0.00      76.47       1.68       0.17       0.46       ----

> <Gold.Chemscore.Fitness>
17.1951

> <Gold.Chemscore.DG>
-17.8261

> <Gold.Chemscore.ZeroCoef>
-5.4800

> <Gold.Chemscore.Hbond>
2.3063

> <Gold.Chemscore.Metal>
0.0000

> <Gold.Chemscore.Lipo>
76.4728

> <Gold.Chemscore.Internal_Hbond>
0.0000

> <Gold.Chemscore.DEClash>
0.1683

> <Gold.Chemscore.DEInternal>
0.4627

> <Gold.Chemscore.Rot>
1.6814

> <Gold.Chemscore.Internal.Correction>
   9.000000E+99

> <Gold.Chemscore.Hbonds>
donor molecule, donor type, donor heavy atom, donor atom, acceptor molecule, acceptor atom, score
      L1  H     8    44       P1  7948  0.36
      L1  H    17    45       P1 10171  0.89
      P1  H  6896  6907       L1     3  0.96

> <Gold.Chemscore.Hbond.Weighted>
-7.7031

> <Gold.Chemscore.Metal.Weighted>
-0.0000

> <Gold.Chemscore.Lipo.Weighted>
-8.9473

> <Gold.Chemscore.Internal_Hbond.Weighted>
0.0000

> <Gold.Chemscore.DEClash.Weighted>
0.1683

> <Gold.Chemscore.DEInternal.Weighted>
0.4627

> <Gold.Chemscore.Rot.Weighted>
4.3043

> <Gold.Chemscore.Internal.Correction.Weighted>
   9.000000E+99

> <Gold.Protein.RotatedTorsions>
[ 6907 6896 6895 6894 ] final -146.37 input  -60.11 | X-H torsion
[ 7974 7965 7964 7962 ] final  157.26 input  175.53 | X-H torsion
[ 8008 7997 7996 7995 ] final  120.90 input   59.86 | X-H torsion
[ 10167 10162 10161 10158 ] final   66.41 input  -65.29 | X-H torsion
[ 10718 10713 10712 10709 ] final -112.43 input   66.30 | X-H torsion
[ 10763 10752 10751 10750 ] final -178.48 input  -60.55 | X-H torsion
[ 11005 11000 10999 10996 ] final  131.32 input  -57.11 | X-H torsion

> <Gold.Protein.ActiveResidues>
 VAL166  LYS551  ARG553  GLY616  TRP617  ASP618  TYR619  PRO620  LYS621  CYS622 
 ASP623  PHE694  ASN695  SER759  ASP760  ASP761  ALA762  ILE779  LEU786  VAL792 
 PHE793  MET794  SER795  GLU796  ALA797  LYS798  CYS799  TRP800  GLU811  SER814 

> <Gold.Protein.RotatedAtoms>
  151.1406  133.4973  159.2596 H   0  0  0  0  0  0  0  0  0  0  0  0  # atno 6907 bound_to 6896
  151.1658  135.0295  159.8740 H   0  0  0  0  0  0  0  0  0  0  0  0  # atno 6908 bound_to 6896
  152.5462  134.1275  159.8478 H   0  0  0  0  0  0  0  0  0  0  0  0  # atno 6909 bound_to 6896
  144.7914  139.7316  143.6220 H   0  0  0  0  0  0  0  0  0  0  0  0  # atno 7974 bound_to 7965
  156.2663  140.2820  156.1223 H   0  0  0  0  0  0  0  0  0  0  0  0  # atno 8008 bound_to 7997
  155.1142  140.0391  157.2750 H   0  0  0  0  0  0  0  0  0  0  0  0  # atno 8009 bound_to 7997
  154.6719  140.2590  155.7004 H   0  0  0  0  0  0  0  0  0  0  0  0  # atno 8010 bound_to 7997
  140.1007  144.4906  150.7039 H   0  0  0  0  0  0  0  0  0  0  0  0  # atno 10167 bound_to 10162
  156.0705  130.5920  150.8508 H   0  0  0  0  0  0  0  0  0  0  0  0  # atno 10718 bound_to 10713
  154.5472  135.2810  155.1042 H   0  0  0  0  0  0  0  0  0  0  0  0  # atno 10763 bound_to 10752
  154.2502  135.6341  153.5241 H   0  0  0  0  0  0  0  0  0  0  0  0  # atno 10764 bound_to 10752
  152.9993  135.5581  154.6028 H   0  0  0  0  0  0  0  0  0  0  0  0  # atno 10765 bound_to 10752
  139.9723  134.9574  156.9421 H   0  0  0  0  0  0  0  0  0  0  0  0  # atno 11005 bound_to 11000
  146.2167  139.5562  142.9645 LP  0  0  0  0  0  0  0  0  0  0  0  0  # atno 17320 bound_to 7965
  145.5785  141.0385  143.2135 LP  0  0  0  0  0  0  0  0  0  0  0  0  # atno 17321 bound_to 7965
  140.6979  143.2416  151.4948 LP  0  0  0  0  0  0  0  0  0  0  0  0  # atno 17342 bound_to 10162
  139.5673  144.2012  152.1784 LP  0  0  0  0  0  0  0  0  0  0  0  0  # atno 17343 bound_to 10162
  157.5774  131.0946  150.9325 LP  0  0  0  0  0  0  0  0  0  0  0  0  # atno 17370 bound_to 10713
  156.9528  130.5426  149.5283 LP  0  0  0  0  0  0  0  0  0  0  0  0  # atno 17371 bound_to 10713
  140.5267  134.0854  155.7305 LP  0  0  0  0  0  0  0  0  0  0  0  0  # atno 17394 bound_to 11000
  141.1402  133.9151  157.2342 LP  0  0  0  0  0  0  0  0  0  0  0  0  # atno 17395 bound_to 11000

$$$$
