AV-unprocessed.smi:1452|AV-procd|sdf|5910|dock6
  -GOLD-   22720 5593D 1   1.00000     0.00000
 Structure written by MMmdl.
 40 42  0  0  0  0  0  0  0  0  2 V2000
  150.7491  142.5534  156.5098 O   0  0  0  0  0  0  0  0  0  0  0  0
  151.2426  141.5895  157.0927 C   0  0  0  0  0  0  0  0  0  0  0  0
  151.7501  141.7133  158.3378 N   0  0  0  0  0  0  0  0  0  0  0  0
  151.8565  142.8374  159.2097 C   0  0  0  0  0  0  0  0  0  0  0  0
  152.5072  142.5669  160.4348 C   0  0  0  0  0  0  0  0  0  0  0  0
  152.6730  143.5987  161.3788 C   0  0  0  0  0  0  0  0  0  0  0  0
  152.1800  144.8801  161.0755 C   0  0  0  0  0  0  0  0  0  0  0  0
  151.5429  145.0677  159.8358 C   0  0  0  0  0  0  0  0  0  0  0  0
  151.3851  144.0799  158.9293 N   0  0  0  0  0  0  0  0  0  0  0  0
  151.3004  140.3647  156.5453 N   0  0  0  0  0  0  0  0  0  0  0  0
  150.7870  139.9948  155.2308 C   0  0  1  0  0  0  0  0  0  0  0  0
  150.9914  138.5041  154.9074 C   0  0  0  0  0  0  0  0  0  0  0  0
  149.7167  138.0693  154.1574 C   0  0  0  0  0  0  0  0  0  0  0  0
  148.9199  139.3003  153.9946 N   0  3  1  0  0  0  0  0  0  0  0  0
  147.4599  139.1397  153.8191 C   0  0  0  0  0  0  0  0  0  0  0  0
  146.8205  140.5230  153.5844 C   0  0  0  0  0  0  0  0  0  0  0  0
  147.2022  141.5251  154.6928 C   0  0  0  0  0  0  0  0  0  0  0  0
  148.7292  141.5797  154.8921 C   0  0  0  0  0  0  0  0  0  0  0  0
  149.2681  140.1598  155.1359 C   0  0  2  0  0  0  0  0  0  0  0  0
  152.1431  140.8615  158.7117 H   0  0  0  0  0  0  0  0  0  0  0  0
  152.8804  141.5767  160.6542 H   0  0  0  0  0  0  0  0  0  0  0  0
  153.1689  143.4087  162.3191 H   0  0  0  0  0  0  0  0  0  0  0  0
  152.2876  145.6968  161.7740 H   0  0  0  0  0  0  0  0  0  0  0  0
  151.1493  146.0359  159.5639 H   0  0  0  0  0  0  0  0  0  0  0  0
  151.7263  139.6301  157.0933 H   0  0  0  0  0  0  0  0  0  0  0  0
  151.2691  140.5854  154.4487 H   0  0  0  0  0  0  0  0  0  0  0  0
  151.8879  138.3531  154.3048 H   0  0  0  0  0  0  0  0  0  0  0  0
  151.1047  137.9101  155.8158 H   0  0  0  0  0  0  0  0  0  0  0  0
  149.9362  137.6200  153.1886 H   0  0  0  0  0  0  0  0  0  0  0  0
  149.1644  137.3401  154.7521 H   0  0  0  0  0  0  0  0  0  0  0  0
  147.2627  138.4849  152.9695 H   0  0  0  0  0  0  0  0  0  0  0  0
  147.0293  138.6640  154.7019 H   0  0  0  0  0  0  0  0  0  0  0  0
  147.1488  140.9131  152.6201 H   0  0  0  0  0  0  0  0  0  0  0  0
  145.7360  140.4278  153.5241 H   0  0  0  0  0  0  0  0  0  0  0  0
  146.8191  142.5169  154.4511 H   0  0  0  0  0  0  0  0  0  0  0  0
  146.7251  141.2289  155.6278 H   0  0  0  0  0  0  0  0  0  0  0  0
  149.2048  142.0177  154.0136 H   0  0  0  0  0  0  0  0  0  0  0  0
  148.9696  142.2284  155.7348 H   0  0  0  0  0  0  0  0  0  0  0  0
  148.8065  139.7463  156.0358 H   0  0  0  0  0  0  0  0  0  0  0  0
  149.2739  139.7645  153.1704 H   0  0  0  0  0  0  0  0  0  0  0  0
  1  2  2  0  0  0  0
  2  3  1  0  0  0  0
  2 10  1  0  0  0  0
  3  4  1  0  0  0  0
  3 20  1  0  0  0  0
  4  9  1  0  0  0  0
  4  5  2  0  0  0  0
  5  6  1  0  0  0  0
  5 21  1  0  0  0  0
  6  7  2  0  0  0  0
  6 22  1  0  0  0  0
  7  8  1  0  0  0  0
  7 23  1  0  0  0  0
  8  9  2  0  0  0  0
  8 24  1  0  0  0  0
 10 11  1  0  0  0  0
 10 25  1  0  0  0  0
 11 19  1  0  0  0  0
 11 12  1  0  0  0  0
 11 26  1  0  0  0  0
 12 13  1  0  0  0  0
 12 27  1  0  0  0  0
 12 28  1  0  0  0  0
 13 14  1  0  0  0  0
 13 29  1  0  0  0  0
 13 30  1  0  0  0  0
 14 19  1  0  0  0  0
 14 15  1  0  0  0  0
 14 40  1  0  0  0  0
 15 16  1  0  0  0  0
 15 31  1  0  0  0  0
 15 32  1  0  0  0  0
 16 17  1  0  0  0  0
 16 33  1  0  0  0  0
 16 34  1  0  0  0  0
 17 18  1  0  0  0  0
 17 35  1  0  0  0  0
 17 36  1  0  0  0  0
 18 19  1  0  0  0  0
 18 37  1  0  0  0  0
 18 38  1  0  0  0  0
 19 39  1  0  0  0  0
M  CHG  1  14   1
M  END
> <s_m_source_file>
AV-unprocessed.smi

> <i_m_source_file_index>
1452

> <i_lp_mmshare_version>
43012

> <i_f3d_flags>
0

> <s_epik_input>
W0NIMl0xW0NIMl1bQ0gyXVtDSDJdW0NASF0oTjEyKVtDQEBIXShbQ0gyXVtDSDJdMilbTkhdQyg9TylbTkhdYzNbY0hdW2NIXVtjSF1bY0hdbjM=

> <s_epik_cmdline>
J2VwaWtfcHl0aG9uJywgJy1waCcsICc3LjAnLCAnLXRuJywgJzgnLCAnLW1hJywgJzIwMCcsICctbWV0YWxfYmluZGluZycsICctaW1hZScsICc8aW5maWxlLm1hZT4nLCAnLW9tYWUnLCAnPG91dGZpbGUubWFlPic=

> <r_epik_Ionization_Penalty>
0.00100813

> <r_epik_Ionization_Penalty_Charging>
0.000974069

> <r_epik_Ionization_Penalty_Neutral>
3.40643e-05

> <r_epik_State_Penalty>
0.000633842

> <r_epik_Charging_Adjusted_Penalty>
0.00160791

> <i_epik_Tot_Q>
1

> <i_epik_Tot_abs_Q>
1

> <r_epik_Metal_State_Penalty>
-0

> <b_epik_Metal_Only>
0

> <s_lp_Force_Field>
OPLS_2005

> <r_lp_Energy>
38.162

> <b_lp_Chiralities_Consistent>
1

> <s_lp_Variant>
AV-unprocessed.smi:1452-8

> <Gold.Version>
5.8.1

> <Gold.Id.Protein>
6NUR|6NUR_protein|mol2

> <Gold.PLP.Fitness>
41.9332

> <Gold.PLP.PLP>
-39.0588

> <Gold.PLP.part.hbond>
-1.0000

> <Gold.PLP.part.metal>
0.0000

> <Gold.PLP.part.buried>
-1.2456

> <Gold.PLP.part.nonpolar>
-36.0243

> <Gold.PLP.part.repulsive>
0.4648

> <Gold.PLP.ligand.clash>
0.0000

> <Gold.PLP.ligand.torsion>
0.0076

> <Gold.PLP.Chemscore.Hbond>
0.9600

> <Gold.PLP.Chemscore.CHOScore>
0.0000

> <Gold.PLP.Chemscore.Metal>
0.0000

> <Gold.Chemscore.Hbonds>
donor molecule, donor type, donor heavy atom, donor atom, acceptor molecule, acceptor atom, score
      L1  H    14    40       P1  7957  0.94

> <Gold.PLP.Chemscore.Internal.Correction>
0.0096

> <Gold.Rescore>
     Score         DG    S(hbond)    S(metal)    S(lipo)     H(rot)  DE(clash)    DE(int)     intcor
     14.06     -18.20       0.98        0.00     102.75       1.00       1.47       2.68       ----

> <Gold.Chemscore.Fitness>
14.0566

> <Gold.Chemscore.DG>
-18.1993

> <Gold.Chemscore.ZeroCoef>
-5.4800

> <Gold.Chemscore.Hbond>
0.9753

> <Gold.Chemscore.Metal>
0.0000

> <Gold.Chemscore.Lipo>
102.7492

> <Gold.Chemscore.Internal_Hbond>
0.0000

> <Gold.Chemscore.DEClash>
1.4656

> <Gold.Chemscore.DEInternal>
2.6771

> <Gold.Chemscore.Rot>
1.0000

> <Gold.Chemscore.Internal.Correction>
   9.000000E+99

> <Gold.Chemscore.Hbonds>
donor molecule, donor type, donor heavy atom, donor atom, acceptor molecule, acceptor atom, score
      L1  H    14    40       P1  7957  0.89

> <Gold.Chemscore.Hbond.Weighted>
-3.2576

> <Gold.Chemscore.Metal.Weighted>
-0.0000

> <Gold.Chemscore.Lipo.Weighted>
-12.0217

> <Gold.Chemscore.Internal_Hbond.Weighted>
0.0000

> <Gold.Chemscore.DEClash.Weighted>
1.4656

> <Gold.Chemscore.DEInternal.Weighted>
2.6771

> <Gold.Chemscore.Rot.Weighted>
2.5600

> <Gold.Chemscore.Internal.Correction.Weighted>
   9.000000E+99

> <Gold.Protein.RotatedTorsions>
[ 6907 6896 6895 6894 ] final -169.14 input  -60.11 | X-H torsion
[ 7974 7965 7964 7962 ] final -147.39 input  175.53 | X-H torsion
[ 8008 7997 7996 7995 ] final -174.61 input   59.86 | X-H torsion
[ 10167 10162 10161 10158 ] final   95.08 input  -65.29 | X-H torsion
[ 10718 10713 10712 10709 ] final  142.93 input   66.30 | X-H torsion
[ 10763 10752 10751 10750 ] final   48.09 input  -60.55 | X-H torsion
[ 11005 11000 10999 10996 ] final -172.83 input  -57.11 | X-H torsion

> <Gold.Protein.ActiveResidues>
 VAL166  LYS551  ARG553  GLY616  TRP617  ASP618  TYR619  PRO620  LYS621  CYS622 
 ASP623  PHE694  ASN695  SER759  ASP760  ASP761  ALA762  ILE779  LEU786  VAL792 
 PHE793  MET794  SER795  GLU796  ALA797  LYS798  CYS799  TRP800  GLU811  SER814 

> <Gold.Protein.RotatedAtoms>
  151.4868  133.3534  159.2846 H   0  0  0  0  0  0  0  0  0  0  0  0  # atno 6907 bound_to 6896
  150.8861  134.8260  159.7270 H   0  0  0  0  0  0  0  0  0  0  0  0  # atno 6908 bound_to 6896
  152.4793  134.4772  159.9706 H   0  0  0  0  0  0  0  0  0  0  0  0  # atno 6909 bound_to 6896
  144.8097  140.5333  143.5651 H   0  0  0  0  0  0  0  0  0  0  0  0  # atno 7974 bound_to 7965
  155.9722  140.1165  157.0802 H   0  0  0  0  0  0  0  0  0  0  0  0  # atno 8008 bound_to 7997
  154.4159  140.1161  156.5389 H   0  0  0  0  0  0  0  0  0  0  0  0  # atno 8009 bound_to 7997
  155.6582  140.3473  155.4775 H   0  0  0  0  0  0  0  0  0  0  0  0  # atno 8010 bound_to 7997
  139.8023  144.6809  150.9749 H   0  0  0  0  0  0  0  0  0  0  0  0  # atno 10167 bound_to 10162
  157.3749  131.0984  151.0794 H   0  0  0  0  0  0  0  0  0  0  0  0  # atno 10718 bound_to 10713
  152.9794  135.5955  154.3869 H   0  0  0  0  0  0  0  0  0  0  0  0  # atno 10763 bound_to 10752
  154.3528  135.2767  155.2364 H   0  0  0  0  0  0  0  0  0  0  0  0  # atno 10764 bound_to 10752
  154.4396  135.6016  153.6175 H   0  0  0  0  0  0  0  0  0  0  0  0  # atno 10765 bound_to 10752
  140.4925  134.5971  157.4960 H   0  0  0  0  0  0  0  0  0  0  0  0  # atno 11005 bound_to 11000
  145.5354  139.1475  143.3476 LP  0  0  0  0  0  0  0  0  0  0  0  0  # atno 17320 bound_to 7965
  146.2393  140.5494  142.8941 LP  0  0  0  0  0  0  0  0  0  0  0  0  # atno 17321 bound_to 7965
  140.7820  143.4269  151.0754 LP  0  0  0  0  0  0  0  0  0  0  0  0  # atno 17342 bound_to 10162
  139.7940  143.8177  152.3155 LP  0  0  0  0  0  0  0  0  0  0  0  0  # atno 17343 bound_to 10162
  157.1884  130.6341  149.5696 LP  0  0  0  0  0  0  0  0  0  0  0  0  # atno 17370 bound_to 10713
  155.9763  130.4730  150.6519 LP  0  0  0  0  0  0  0  0  0  0  0  0  # atno 17371 bound_to 10713
  139.9760  134.7214  155.9948 LP  0  0  0  0  0  0  0  0  0  0  0  0  # atno 17394 bound_to 11000
  141.1477  133.6553  156.3916 LP  0  0  0  0  0  0  0  0  0  0  0  0  # atno 17395 bound_to 11000

$$$$
