AV-unprocessed.smi:102|AV-procd|sdf|959|dock3
  -GOLD-   2262017493D 1   1.00000     0.00000
 Structure written by MMmdl.
 44 45  0  0  0  0  0  0  0  0  1 V2000
  151.9162  145.1400  159.5749 C   0  0  0  0  0  0  0  0  0  0  0  0
  152.0122  143.6210  159.5281 C   0  0  0  0  0  0  0  0  0  0  0  0
  152.9284  143.0146  160.0829 O   0  0  0  0  0  0  0  0  0  0  0  0
  151.0113  143.0710  158.8307 O   0  0  0  0  0  0  0  0  0  0  0  0
  150.9778  141.6698  158.6179 C   0  0  0  0  0  0  0  0  0  0  0  0
  152.0171  141.2455  157.5621 C   0  0  2  0  0  0  0  0  0  0  0  0
  151.4364  141.3877  156.2683 O   0  0  0  0  0  0  0  0  0  0  0  0
  151.4892  140.1840  155.5613 C   0  0  2  0  0  0  0  0  0  0  0  0
  150.1871  139.9845  154.8165 N   0  0  0  0  0  0  0  0  0  0  0  0
  149.1279  140.8765  154.9326 C   0  0  0  0  0  0  0  0  0  0  0  0
  147.9411  140.6934  154.3079 C   0  0  0  0  0  0  0  0  0  0  0  0
  146.9593  141.5956  154.4729 F   0  0  0  0  0  0  0  0  0  0  0  0
  147.7153  139.5220  153.4659 C   0  0  0  0  0  0  0  0  0  0  0  0
  146.6774  139.2716  152.8568 O   0  0  0  0  0  0  0  0  0  0  0  0
  148.8037  138.6477  153.3892 N   0  0  0  0  0  0  0  0  0  0  0  0
  150.0297  138.8212  154.0335 C   0  0  0  0  0  0  0  0  0  0  0  0
  150.9159  137.9762  153.9147 O   0  0  0  0  0  0  0  0  0  0  0  0
  151.7676  139.0564  156.5705 C   0  0  2  0  0  0  0  0  0  0  0  0
  150.5450  138.4979  157.0513 O   0  0  0  0  0  0  0  0  0  0  0  0
  150.5497  137.4370  157.8739 C   0  0  0  0  0  0  0  0  0  0  0  0
  149.1427  136.9824  158.2366 C   0  0  0  0  0  0  0  0  0  0  0  0
  151.5454  136.8662  158.3183 O   0  0  0  0  0  0  0  0  0  0  0  0
  152.5462  139.8024  157.6456 C   0  0  2  0  0  0  0  0  0  0  0  0
  152.4339  139.1868  158.9252 O   0  0  0  0  0  0  0  0  0  0  0  0
  153.5017  138.6055  159.4963 C   0  0  0  0  0  0  0  0  0  0  0  0
  153.1184  137.7302  160.6816 C   0  0  0  0  0  0  0  0  0  0  0  0
  154.6743  138.7411  159.1471 O   0  0  0  0  0  0  0  0  0  0  0  0
  148.6900  137.8180  152.8251 H   0  0  0  0  0  0  0  0  0  0  0  0
  151.5972  145.5323  158.6086 H   0  0  0  0  0  0  0  0  0  0  0  0
  152.8842  145.5765  159.8214 H   0  0  0  0  0  0  0  0  0  0  0  0
  151.1937  145.4486  160.3305 H   0  0  0  0  0  0  0  0  0  0  0  0
  151.1767  141.1475  159.5547 H   0  0  0  0  0  0  0  0  0  0  0  0
  149.9768  141.3806  158.2955 H   0  0  0  0  0  0  0  0  0  0  0  0
  152.8618  141.9314  157.6310 H   0  0  0  0  0  0  0  0  0  0  0  0
  152.2712  140.2814  154.8055 H   0  0  0  0  0  0  0  0  0  0  0  0
  149.2302  141.7559  155.5502 H   0  0  0  0  0  0  0  0  0  0  0  0
  152.3784  138.2949  156.0830 H   0  0  0  0  0  0  0  0  0  0  0  0
  148.7270  137.6269  159.0114 H   0  0  0  0  0  0  0  0  0  0  0  0
  149.1558  135.9576  158.6082 H   0  0  0  0  0  0  0  0  0  0  0  0
  148.4909  137.0245  157.3636 H   0  0  0  0  0  0  0  0  0  0  0  0
  153.5908  139.8052  157.3296 H   0  0  0  0  0  0  0  0  0  0  0  0
  152.3784  136.9882  160.3808 H   0  0  0  0  0  0  0  0  0  0  0  0
  152.6946  138.3399  161.4797 H   0  0  0  0  0  0  0  0  0  0  0  0
  153.9925  137.2083  161.0717 H   0  0  0  0  0  0  0  0  0  0  0  0
  1  2  1  0  0  0  0
  1 29  1  0  0  0  0
  1 30  1  0  0  0  0
  1 31  1  0  0  0  0
  2  3  2  0  0  0  0
  2  4  1  0  0  0  0
  4  5  1  0  0  0  0
  5  6  1  0  0  0  0
  5 32  1  0  0  0  0
  5 33  1  0  0  0  0
  6 23  1  0  0  0  0
  6  7  1  0  0  0  0
  6 34  1  0  0  0  0
  7  8  1  0  0  0  0
  8  9  1  0  0  0  0
  8 18  1  0  0  0  0
  8 35  1  0  0  0  0
  9 16  1  0  0  0  0
  9 10  1  0  0  0  0
 10 11  2  0  0  0  0
 10 36  1  0  0  0  0
 11 12  1  0  0  0  0
 11 13  1  0  0  0  0
 13 14  2  0  0  0  0
 13 15  1  0  0  0  0
 15 28  1  0  0  0  0
 15 16  1  0  0  0  0
 16 17  2  0  0  0  0
 18 19  1  0  0  0  0
 18 23  1  0  0  0  0
 18 37  1  0  0  0  0
 19 20  1  0  0  0  0
 20 21  1  0  0  0  0
 20 22  2  0  0  0  0
 21 38  1  0  0  0  0
 21 39  1  0  0  0  0
 21 40  1  0  0  0  0
 23 24  1  0  0  0  0
 23 41  1  0  0  0  0
 24 25  1  0  0  0  0
 25 26  1  0  0  0  0
 25 27  2  0  0  0  0
 26 42  1  0  0  0  0
 26 43  1  0  0  0  0
 26 44  1  0  0  0  0
M  END
> <s_m_source_file>
AV-unprocessed.smi

> <i_m_source_file_index>
102

> <i_lp_mmshare_version>
43012

> <i_f3d_flags>
0

> <s_epik_input>
W0NIM11DKD1PKU9bQ0gyXVtDQEBIXTFPW0NASF0oW0NAQEhdKE9DKD1PKVtDSDNdKVtDQEhdMU9DKD1PKVtDSDNdKW4yW2NIXWMoRiljKD1PKVtuSF1jMj1P

> <s_epik_cmdline>
J2VwaWtfcHl0aG9uJywgJy1waCcsICc3LjAnLCAnLXRuJywgJzgnLCAnLW1hJywgJzIwMCcsICctbWV0YWxfYmluZGluZycsICctaW1hZScsICc8aW5maWxlLm1hZT4nLCAnLW9tYWUnLCAnPG91dGZpbGUubWFlPic=

> <r_lp_tautomer_probability>
0.999537

> <r_epik_Ionization_Penalty>
0.058267

> <r_epik_Ionization_Penalty_Charging>
0.058267

> <r_epik_Ionization_Penalty_Neutral>
6.57791e-16

> <r_epik_State_Penalty>
0.0503774

> <r_epik_Charging_Adjusted_Penalty>
0.108644

> <i_epik_Tot_Q>
0

> <i_epik_Tot_abs_Q>
0

> <r_epik_Metal_State_Penalty>
2.6644

> <b_epik_Metal_Only>
0

> <s_epik_Chemistry_Notes>
This compound has an ester and may undergo hydrolysis at high or low pH. This compound contains an acetal/aminal-like group ( X-CH(R)-Y where X, Y are N, S, or O) that may be acid/base labile, releasing an aldehyde.

> <s_lp_Force_Field>
OPLS_2005

> <r_lp_Energy>
17.4488

> <b_lp_Chiralities_Consistent>
1

> <s_lp_Variant>
AV-unprocessed.smi:102-15

> <Gold.Version>
5.8.1

> <Gold.Id.Protein>
6NUR|6NUR_protein|mol2

> <Gold.PLP.Fitness>
41.6938

> <Gold.PLP.PLP>
-38.0649

> <Gold.PLP.part.hbond>
-3.4255

> <Gold.PLP.part.metal>
0.0000

> <Gold.PLP.part.buried>
-3.9749

> <Gold.PLP.part.nonpolar>
-30.1430

> <Gold.PLP.part.repulsive>
0.6962

> <Gold.PLP.ligand.clash>
0.0000

> <Gold.PLP.ligand.torsion>
1.2901

> <Gold.PLP.Chemscore.Hbond>
2.0000

> <Gold.PLP.Chemscore.CHOScore>
0.0000

> <Gold.PLP.Chemscore.Metal>
0.0000

> <Gold.Chemscore.Hbonds>
donor molecule, donor type, donor heavy atom, donor atom, acceptor molecule, acceptor atom, score
      L1  H    15    28       P1  7948  1.00
      P1  H  7997  8010       L1    27  0.42

> <Gold.PLP.Chemscore.Internal.Correction>
0.2092

> <Gold.Rescore>
     Score         DG    S(hbond)    S(metal)    S(lipo)     H(rot)  DE(clash)    DE(int)     intcor
      5.63      -8.16       2.00        0.00      54.60       4.05       0.10       2.43       ----

> <Gold.Chemscore.Fitness>
5.6294

> <Gold.Chemscore.DG>
-8.1590

> <Gold.Chemscore.ZeroCoef>
-5.4800

> <Gold.Chemscore.Hbond>
1.9953

> <Gold.Chemscore.Metal>
0.0000

> <Gold.Chemscore.Lipo>
54.5965

> <Gold.Chemscore.Internal_Hbond>
0.0000

> <Gold.Chemscore.DEClash>
0.1017

> <Gold.Chemscore.DEInternal>
2.4280

> <Gold.Chemscore.Rot>
4.0520

> <Gold.Chemscore.Internal.Correction>
   9.000000E+99

> <Gold.Chemscore.Hbonds>
donor molecule, donor type, donor heavy atom, donor atom, acceptor molecule, acceptor atom, score
      L1  H    15    28       P1  7948  1.00
      P1  H  7997  8010       L1    27  0.41

> <Gold.Chemscore.Hbond.Weighted>
-6.6644

> <Gold.Chemscore.Metal.Weighted>
-0.0000

> <Gold.Chemscore.Lipo.Weighted>
-6.3878

> <Gold.Chemscore.Internal_Hbond.Weighted>
0.0000

> <Gold.Chemscore.DEClash.Weighted>
0.1017

> <Gold.Chemscore.DEInternal.Weighted>
2.4280

> <Gold.Chemscore.Rot.Weighted>
10.3732

> <Gold.Chemscore.Internal.Correction.Weighted>
   9.000000E+99

> <Gold.Protein.RotatedTorsions>
[ 6907 6896 6895 6894 ] final  -57.88 input  -60.11 | X-H torsion
[ 7974 7965 7964 7962 ] final  -40.50 input  175.53 | X-H torsion
[ 8008 7997 7996 7995 ] final   -7.49 input   59.86 | X-H torsion
[ 10167 10162 10161 10158 ] final   46.81 input  -65.29 | X-H torsion
[ 10718 10713 10712 10709 ] final  -93.53 input   66.30 | X-H torsion
[ 10763 10752 10751 10750 ] final   73.28 input  -60.55 | X-H torsion
[ 11005 11000 10999 10996 ] final  146.92 input  -57.11 | X-H torsion

> <Gold.Protein.ActiveResidues>
 VAL166  LYS551  ARG553  GLY616  TRP617  ASP618  TYR619  PRO620  LYS621  CYS622 
 ASP623  PHE694  ASN695  SER759  ASP760  ASP761  ALA762  ILE779  LEU786  VAL792 
 PHE793  MET794  SER795  GLU796  ALA797  LYS798  CYS799  TRP800  GLU811  SER814 

> <Gold.Protein.RotatedAtoms>
  150.8051  134.7170  159.6635 H   0  0  0  0  0  0  0  0  0  0  0  0  # atno 6907 bound_to 6896
  152.4170  134.6021  160.0012 H   0  0  0  0  0  0  0  0  0  0  0  0  # atno 6908 bound_to 6896
  151.6247  133.3299  159.3132 H   0  0  0  0  0  0  0  0  0  0  0  0  # atno 6909 bound_to 6896
  146.0299  140.6745  142.9138 H   0  0  0  0  0  0  0  0  0  0  0  0  # atno 7974 bound_to 7965
  154.5833  140.2406  155.8022 H   0  0  0  0  0  0  0  0  0  0  0  0  # atno 8008 bound_to 7997
  156.2195  140.3002  155.9875 H   0  0  0  0  0  0  0  0  0  0  0  0  # atno 8009 bound_to 7997
  155.2502  140.0410  157.2976 H   0  0  0  0  0  0  0  0  0  0  0  0  # atno 8010 bound_to 7997
  140.3101  144.2831  150.6201 H   0  0  0  0  0  0  0  0  0  0  0  0  # atno 10167 bound_to 10162
  156.0015  130.5031  150.5791 H   0  0  0  0  0  0  0  0  0  0  0  0  # atno 10718 bound_to 10713
  153.0511  135.5069  154.7869 H   0  0  0  0  0  0  0  0  0  0  0  0  # atno 10763 bound_to 10752
  154.6731  135.2956  154.9718 H   0  0  0  0  0  0  0  0  0  0  0  0  # atno 10764 bound_to 10752
  154.0529  135.6701  153.4855 H   0  0  0  0  0  0  0  0  0  0  0  0  # atno 10765 bound_to 10752
  140.0833  134.9084  157.1536 H   0  0  0  0  0  0  0  0  0  0  0  0  # atno 11005 bound_to 11000
  144.7025  140.3716  143.7144 LP  0  0  0  0  0  0  0  0  0  0  0  0  # atno 17320 bound_to 7965
  145.7058  139.1672  143.2567 LP  0  0  0  0  0  0  0  0  0  0  0  0  # atno 17321 bound_to 7965
  140.5576  143.2197  151.7821 LP  0  0  0  0  0  0  0  0  0  0  0  0  # atno 17342 bound_to 10162
  139.4896  144.4393  151.9783 LP  0  0  0  0  0  0  0  0  0  0  0  0  # atno 17343 bound_to 10162
  157.3674  131.0760  151.1586 LP  0  0  0  0  0  0  0  0  0  0  0  0  # atno 17370 bound_to 10713
  157.2351  130.6543  149.5866 LP  0  0  0  0  0  0  0  0  0  0  0  0  # atno 17371 bound_to 10713
  140.3456  134.2655  155.7205 LP  0  0  0  0  0  0  0  0  0  0  0  0  # atno 17394 bound_to 11000
  141.2054  133.7861  157.0234 LP  0  0  0  0  0  0  0  0  0  0  0  0  # atno 17395 bound_to 11000

$$$$
