AV-unprocessed.smi:2681|AV-procd|sdf|10373|dock9
  -GOLD-   2272014403D 1   1.00000     0.00000
 Structure written by MMmdl.
 42 43  0  0  0  0  0  0  0  0  1 V2000
  150.8017  132.9110  157.0765 N   0  0  0  0  0  0  0  0  0  0  0  0
  150.9825  133.9931  156.7091 C   0  0  0  0  0  0  0  0  0  0  0  0
  151.2097  135.3561  156.2468 C   0  0  0  0  0  0  0  0  0  0  0  0
  152.0268  136.2152  157.0112 C   0  0  0  0  0  0  0  0  0  0  0  0
  152.2624  137.5292  156.5590 C   0  0  0  0  0  0  0  0  0  0  0  0
  153.1239  138.4123  157.3315 C   0  0  0  0  0  0  0  0  0  0  0  0
  153.8079  139.1148  157.9458 N   0  0  0  0  0  0  0  0  0  0  0  0
  151.6530  137.9274  155.3455 C   0  0  0  0  0  0  0  0  0  0  0  0
  151.8853  139.5401  154.6489 S   0  0  0  0  0  0  0  0  0  0  0  0
  150.6753  140.6332  155.4538 C   0  0  0  0  0  0  0  0  0  0  0  0
  151.0560  140.9610  156.9044 C   0  0  0  0  0  0  0  0  0  0  0  0
  151.1605  142.3692  157.0594 O   0  0  0  0  0  0  0  0  0  0  0  0
  151.3107  142.8244  158.3980 C   0  0  0  0  0  0  0  0  0  0  0  0
  151.3889  144.3681  158.4038 C   0  0  0  0  0  0  0  0  0  0  0  0
  152.0747  145.0284  159.6134 C   0  0  0  0  0  0  0  0  0  0  0  0
  151.7836  144.3801  160.9761 C   0  0  0  0  0  0  0  0  0  0  0  0
  152.7471  143.2261  161.3003 C   0  0  0  0  0  0  0  0  0  0  0  0
  152.5060  141.9418  160.4940 C   0  0  0  0  0  0  0  0  0  0  0  0
  152.5541  142.1151  158.9661 C   0  0  0  0  0  0  0  0  0  0  0  0
  150.8582  137.1187  154.6119 N   0  0  0  0  0  0  0  0  0  0  0  0
  150.6446  135.8592  155.0469 C   0  0  0  0  0  0  0  0  0  0  0  0
  149.8255  135.0779  154.2295 N   0  0  0  0  0  0  0  0  0  0  0  0
  152.4776  135.8657  157.9298 H   0  0  0  0  0  0  0  0  0  0  0  0
  150.5555  141.5463  154.8703 H   0  0  0  0  0  0  0  0  0  0  0  0
  149.7116  140.1240  155.4399 H   0  0  0  0  0  0  0  0  0  0  0  0
  150.2935  140.5685  157.5772 H   0  0  0  0  0  0  0  0  0  0  0  0
  151.9983  140.4731  157.1580 H   0  0  0  0  0  0  0  0  0  0  0  0
  150.4443  142.4988  158.9762 H   0  0  0  0  0  0  0  0  0  0  0  0
  151.9087  144.7048  157.5059 H   0  0  0  0  0  0  0  0  0  0  0  0
  150.3760  144.7629  158.3205 H   0  0  0  0  0  0  0  0  0  0  0  0
  153.1526  145.0596  159.4498 H   0  0  0  0  0  0  0  0  0  0  0  0
  151.7618  146.0727  159.6449 H   0  0  0  0  0  0  0  0  0  0  0  0
  151.9119  145.1424  161.7453 H   0  0  0  0  0  0  0  0  0  0  0  0
  150.7435  144.0592  161.0450 H   0  0  0  0  0  0  0  0  0  0  0  0
  153.7773  143.5568  161.1632 H   0  0  0  0  0  0  0  0  0  0  0  0
  152.6556  142.9833  162.3595 H   0  0  0  0  0  0  0  0  0  0  0  0
  153.2640  141.2134  160.7835 H   0  0  0  0  0  0  0  0  0  0  0  0
  151.5516  141.5004  160.7837 H   0  0  0  0  0  0  0  0  0  0  0  0
  152.5973  141.1134  158.5391 H   0  0  0  0  0  0  0  0  0  0  0  0
  153.4723  142.6103  158.6481 H   0  0  0  0  0  0  0  0  0  0  0  0
  149.6029  134.1205  154.4619 H   0  0  0  0  0  0  0  0  0  0  0  0
  149.4279  135.4480  153.3780 H   0  0  0  0  0  0  0  0  0  0  0  0
  1  2  3  0  0  0  0
  2  3  1  0  0  0  0
  3 21  1  0  0  0  0
  3  4  2  0  0  0  0
  4  5  1  0  0  0  0
  4 23  1  0  0  0  0
  5  6  1  0  0  0  0
  5  8  2  0  0  0  0
  6  7  3  0  0  0  0
  8  9  1  0  0  0  0
  8 20  1  0  0  0  0
  9 10  1  0  0  0  0
 10 11  1  0  0  0  0
 10 24  1  0  0  0  0
 10 25  1  0  0  0  0
 11 12  1  0  0  0  0
 11 26  1  0  0  0  0
 11 27  1  0  0  0  0
 12 13  1  0  0  0  0
 13 19  1  0  0  0  0
 13 14  1  0  0  0  0
 13 28  1  0  0  0  0
 14 15  1  0  0  0  0
 14 29  1  0  0  0  0
 14 30  1  0  0  0  0
 15 16  1  0  0  0  0
 15 31  1  0  0  0  0
 15 32  1  0  0  0  0
 16 17  1  0  0  0  0
 16 33  1  0  0  0  0
 16 34  1  0  0  0  0
 17 18  1  0  0  0  0
 17 35  1  0  0  0  0
 17 36  1  0  0  0  0
 18 19  1  0  0  0  0
 18 37  1  0  0  0  0
 18 38  1  0  0  0  0
 19 39  1  0  0  0  0
 19 40  1  0  0  0  0
 20 21  2  0  0  0  0
 21 22  1  0  0  0  0
 22 41  1  0  0  0  0
 22 42  1  0  0  0  0
M  END
> <s_m_source_file>
AV-unprocessed.smi

> <i_m_source_file_index>
2681

> <i_lp_mmshare_version>
43012

> <i_f3d_flags>
0

> <s_epik_input>
TiNDYzFbY0hdYyhDI04pYyhuYzFbTkgyXSlTW0NIMl1bQ0gyXU9bQ0hdMltDSDJdW0NIMl1bQ0gyXVtDSDJdW0NIMl1bQ0gyXTI=

> <s_epik_cmdline>
J2VwaWtfcHl0aG9uJywgJy1waCcsICc3LjAnLCAnLXRuJywgJzgnLCAnLW1hJywgJzIwMCcsICctbWV0YWxfYmluZGluZycsICctaW1hZScsICc8aW5maWxlLm1hZT4nLCAnLW9tYWUnLCAnPG91dGZpbGUubWFlPic=

> <r_epik_Ionization_Penalty>
0.00177186

> <r_epik_Ionization_Penalty_Charging>
0

> <r_epik_Ionization_Penalty_Neutral>
0.00177186

> <r_epik_State_Penalty>
0.00120048

> <r_epik_Charging_Adjusted_Penalty>
0.00120048

> <i_epik_Tot_Q>
0

> <i_epik_Tot_abs_Q>
0

> <r_epik_Metal_State_Penalty>
-0

> <b_epik_Metal_Only>
0

> <s_lp_Force_Field>
OPLS_2005

> <r_lp_Energy>
17.568

> <b_lp_Chiralities_Consistent>
1

> <s_lp_Variant>
AV-unprocessed.smi:2681-1

> <Gold.Version>
5.8.1

> <Gold.Id.Protein>
6NUR|6NUR_protein|mol2

> <Gold.PLP.Fitness>
46.7905

> <Gold.PLP.PLP>
-40.7149

> <Gold.PLP.part.hbond>
-3.0000

> <Gold.PLP.part.metal>
0.0000

> <Gold.PLP.part.buried>
-1.1302

> <Gold.PLP.part.nonpolar>
-36.0928

> <Gold.PLP.part.repulsive>
0.3023

> <Gold.PLP.ligand.clash>
0.0000

> <Gold.PLP.ligand.torsion>
0.7833

> <Gold.PLP.Chemscore.Hbond>
2.5387

> <Gold.PLP.Chemscore.CHOScore>
0.0000

> <Gold.PLP.Chemscore.Metal>
0.0000

> <Gold.Chemscore.Hbonds>
donor molecule, donor type, donor heavy atom, donor atom, acceptor molecule, acceptor atom, score
      L1  H    22    42       P1  7948  0.80
      P1  H  6896  6909       L1     1  0.36
      P1  H  7997  8008       L1     7  1.00

> <Gold.PLP.Chemscore.Internal.Correction>
0.0262

> <Gold.Rescore>
     Score         DG    S(hbond)    S(metal)    S(lipo)     H(rot)  DE(clash)    DE(int)     intcor
     18.28     -20.46       1.87        0.00     120.91       2.12       1.40       0.78       ----

> <Gold.Chemscore.Fitness>
18.2771

> <Gold.Chemscore.DG>
-20.4610

> <Gold.Chemscore.ZeroCoef>
-5.4800

> <Gold.Chemscore.Hbond>
1.8712

> <Gold.Chemscore.Metal>
0.0000

> <Gold.Chemscore.Lipo>
120.9072

> <Gold.Chemscore.Internal_Hbond>
0.0000

> <Gold.Chemscore.DEClash>
1.3999

> <Gold.Chemscore.DEInternal>
0.7840

> <Gold.Chemscore.Rot>
2.1152

> <Gold.Chemscore.Internal.Correction>
   9.000000E+99

> <Gold.Chemscore.Hbonds>
donor molecule, donor type, donor heavy atom, donor atom, acceptor molecule, acceptor atom, score
      L1  H    22    42       P1  7948  0.12
      P1  H  6896  6909       L1     1  0.04
      P1  H  7997  8008       L1     7  0.52

> <Gold.Chemscore.Hbond.Weighted>
-6.2498

> <Gold.Chemscore.Metal.Weighted>
-0.0000

> <Gold.Chemscore.Lipo.Weighted>
-14.1461

> <Gold.Chemscore.Internal_Hbond.Weighted>
0.0000

> <Gold.Chemscore.DEClash.Weighted>
1.3999

> <Gold.Chemscore.DEInternal.Weighted>
0.7840

> <Gold.Chemscore.Rot.Weighted>
5.4149

> <Gold.Chemscore.Internal.Correction.Weighted>
   9.000000E+99

> <Gold.Protein.RotatedTorsions>
[ 6907 6896 6895 6894 ] final  -34.80 input  -60.11 | X-H torsion
[ 7974 7965 7964 7962 ] final  144.45 input  175.53 | X-H torsion
[ 8008 7997 7996 7995 ] final  -76.57 input   59.86 | X-H torsion
[ 10167 10162 10161 10158 ] final  -68.32 input  -65.29 | X-H torsion
[ 10718 10713 10712 10709 ] final -110.88 input   66.30 | X-H torsion
[ 10763 10752 10751 10750 ] final   78.15 input  -60.55 | X-H torsion
[ 11005 11000 10999 10996 ] final -132.79 input  -57.11 | X-H torsion

> <Gold.Protein.ActiveResidues>
 VAL166  LYS551  ARG553  GLY616  TRP617  ASP618  TYR619  PRO620  LYS621  CYS622 
 ASP623  PHE694  ASN695  SER759  ASP760  ASP761  ALA762  ILE779  LEU786  VAL792 
 PHE793  MET794  SER795  GLU796  ALA797  LYS798  CYS799  TRP800  GLU811  SER814 

> <Gold.Protein.RotatedAtoms>
  151.0480  134.9653  159.8196 H   0  0  0  0  0  0  0  0  0  0  0  0  # atno 6907 bound_to 6896
  152.5376  134.2573  159.8932 H   0  0  0  0  0  0  0  0  0  0  0  0  # atno 6908 bound_to 6896
  151.2588  133.4270  159.2649 H   0  0  0  0  0  0  0  0  0  0  0  0  # atno 6909 bound_to 6896
  144.8834  139.5664  143.5832 H   0  0  0  0  0  0  0  0  0  0  0  0  # atno 7974 bound_to 7965
  154.5517  140.0725  156.8678 H   0  0  0  0  0  0  0  0  0  0  0  0  # atno 8008 bound_to 7997
  155.2981  140.3382  155.4231 H   0  0  0  0  0  0  0  0  0  0  0  0  # atno 8009 bound_to 7997
  156.1967  140.1706  156.7970 H   0  0  0  0  0  0  0  0  0  0  0  0  # atno 8010 bound_to 7997
  140.5516  143.2312  151.6900 H   0  0  0  0  0  0  0  0  0  0  0  0  # atno 10167 bound_to 10162
  156.0615  130.5838  150.8297 H   0  0  0  0  0  0  0  0  0  0  0  0  # atno 10718 bound_to 10713
  153.0852  135.4888  154.8583 H   0  0  0  0  0  0  0  0  0  0  0  0  # atno 10763 bound_to 10752
  154.7202  135.3038  154.9062 H   0  0  0  0  0  0  0  0  0  0  0  0  # atno 10764 bound_to 10752
  153.9729  135.6799  153.4800 H   0  0  0  0  0  0  0  0  0  0  0  0  # atno 10765 bound_to 10752
  140.9138  134.1533  157.4368 H   0  0  0  0  0  0  0  0  0  0  0  0  # atno 11005 bound_to 11000
  146.3009  139.7424  142.9092 LP  0  0  0  0  0  0  0  0  0  0  0  0  # atno 17320 bound_to 7965
  145.3912  141.0372  143.3123 LP  0  0  0  0  0  0  0  0  0  0  0  0  # atno 17321 bound_to 7965
  139.5030  144.3808  152.0378 LP  0  0  0  0  0  0  0  0  0  0  0  0  # atno 17342 bound_to 10162
  140.2926  144.3737  150.6084 LP  0  0  0  0  0  0  0  0  0  0  0  0  # atno 17343 bound_to 10162
  157.5627  131.0946  150.9535 LP  0  0  0  0  0  0  0  0  0  0  0  0  # atno 17370 bound_to 10713
  156.9769  130.5512  149.5294 LP  0  0  0  0  0  0  0  0  0  0  0  0  # atno 17371 bound_to 10713
  139.8762  134.9946  156.5701 LP  0  0  0  0  0  0  0  0  0  0  0  0  # atno 17394 bound_to 11000
  140.8076  133.8455  155.8781 LP  0  0  0  0  0  0  0  0  0  0  0  0  # atno 17395 bound_to 11000

$$$$
