AV-unprocessed.smi:1217|AV-procd|sdf|5104|dock3
  -GOLD-   22720 4153D 1   1.00000     0.00000
 Structure written by MMmdl.
 34 35  0  0  0  0  0  0  0  0  1 V2000
  146.2268  138.1645  154.8974 C   0  0  0  0  0  0  0  0  0  0  0  0
  146.4377  138.5370  153.4224 C   0  0  2  0  0  0  0  0  0  0  0  0
  146.6530  137.3111  152.6544 N   0  0  0  0  0  0  0  0  0  0  0  0
  145.7367  136.3603  152.4173 C   0  0  0  0  0  0  0  0  0  0  0  0
  144.5764  136.4147  152.8257 O   0  0  0  0  0  0  0  0  0  0  0  0
  146.2546  135.3622  151.6800 N   0  0  0  0  0  0  0  0  0  0  0  0
  145.6070  134.1869  151.2136 C   0  0  0  0  0  0  0  0  0  0  0  0
  146.4209  133.3156  150.4543 C   0  0  0  0  0  0  0  0  0  0  0  0
  145.8726  132.1220  149.9461 C   0  0  0  0  0  0  0  0  0  0  0  0
  144.5225  131.8301  150.2096 C   0  0  0  0  0  0  0  0  0  0  0  0
  143.7819  132.7514  150.9730 C   0  0  0  0  0  0  0  0  0  0  0  0
  144.3055  133.8954  151.4615 N   0  0  0  0  0  0  0  0  0  0  0  0
  147.6247  139.5056  153.2389 C   0  0  1  0  0  0  0  0  0  0  0  0
  147.5095  140.8254  154.0057 C   0  0  0  0  0  0  0  0  0  0  0  0
  148.9586  141.2341  154.1314 C   0  0  0  0  0  0  0  0  0  0  0  0
  149.6369  139.8904  154.3785 C   0  0  0  0  0  0  0  0  0  0  0  0
  148.8310  138.9161  153.7205 O   0  0  0  0  0  0  0  0  0  0  0  0
  146.0220  139.0484  155.5020 H   0  0  0  0  0  0  0  0  0  0  0  0
  147.1068  137.6738  155.3145 H   0  0  0  0  0  0  0  0  0  0  0  0
  145.3802  137.4870  155.0134 H   0  0  0  0  0  0  0  0  0  0  0  0
  145.5302  139.0361  153.0781 H   0  0  0  0  0  0  0  0  0  0  0  0
  147.5784  137.1787  152.2737 H   0  0  0  0  0  0  0  0  0  0  0  0
  147.2246  135.4561  151.4180 H   0  0  0  0  0  0  0  0  0  0  0  0
  147.4563  133.5554  150.2604 H   0  0  0  0  0  0  0  0  0  0  0  0
  146.4781  131.4431  149.3639 H   0  0  0  0  0  0  0  0  0  0  0  0
  144.0665  130.9250  149.8368 H   0  0  0  0  0  0  0  0  0  0  0  0
  142.7422  132.5653  151.1977 H   0  0  0  0  0  0  0  0  0  0  0  0
  147.7673  139.7263  152.1794 H   0  0  0  0  0  0  0  0  0  0  0  0
  146.8996  141.5674  153.4896 H   0  0  0  0  0  0  0  0  0  0  0  0
  147.0832  140.6603  154.9965 H   0  0  0  0  0  0  0  0  0  0  0  0
  149.3081  141.6669  153.1931 H   0  0  0  0  0  0  0  0  0  0  0  0
  149.1357  141.9551  154.9298 H   0  0  0  0  0  0  0  0  0  0  0  0
  150.6641  139.8706  154.0135 H   0  0  0  0  0  0  0  0  0  0  0  0
  149.6520  139.6617  155.4447 H   0  0  0  0  0  0  0  0  0  0  0  0
  1  2  1  0  0  0  0
  1 18  1  0  0  0  0
  1 19  1  0  0  0  0
  1 20  1  0  0  0  0
  2  3  1  0  0  0  0
  2 13  1  0  0  0  0
  2 21  1  0  0  0  0
  3  4  1  0  0  0  0
  3 22  1  0  0  0  0
  4  5  2  0  0  0  0
  4  6  1  0  0  0  0
  6  7  1  0  0  0  0
  6 23  1  0  0  0  0
  7 12  1  0  0  0  0
  7  8  2  0  0  0  0
  8  9  1  0  0  0  0
  8 24  1  0  0  0  0
  9 10  2  0  0  0  0
  9 25  1  0  0  0  0
 10 11  1  0  0  0  0
 10 26  1  0  0  0  0
 11 12  2  0  0  0  0
 11 27  1  0  0  0  0
 13 17  1  0  0  0  0
 13 14  1  0  0  0  0
 13 28  1  0  0  0  0
 14 15  1  0  0  0  0
 14 29  1  0  0  0  0
 14 30  1  0  0  0  0
 15 16  1  0  0  0  0
 15 31  1  0  0  0  0
 15 32  1  0  0  0  0
 16 17  1  0  0  0  0
 16 33  1  0  0  0  0
 16 34  1  0  0  0  0
M  END
> <s_m_source_file>
AV-unprocessed.smi

> <i_m_source_file_index>
1217

> <i_lp_mmshare_version>
43012

> <i_f3d_flags>
0

> <s_epik_input>
TzFbQ0gyXVtDSDJdW0NIMl1bQ0BIXTFbQ0BIXShbQ0gzXSlbTkhdQyg9TylbTkhdYzJbY0hdW2NIXVtjSF1bY0hdbjI=

> <s_epik_cmdline>
J2VwaWtfcHl0aG9uJywgJy1waCcsICc3LjAnLCAnLXRuJywgJzgnLCAnLW1hJywgJzIwMCcsICctbWV0YWxfYmluZGluZycsICctaW1hZScsICc8aW5maWxlLm1hZT4nLCAnLW9tYWUnLCAnPG91dGZpbGUubWFlPic=

> <r_lp_tautomer_probability>
1

> <r_epik_Ionization_Penalty>
4.51768e-05

> <r_epik_Ionization_Penalty_Charging>
0

> <r_epik_Ionization_Penalty_Neutral>
4.51768e-05

> <r_epik_State_Penalty>
-0

> <r_epik_Charging_Adjusted_Penalty>
0

> <i_epik_Tot_Q>
0

> <i_epik_Tot_abs_Q>
0

> <r_epik_Metal_State_Penalty>
-0

> <b_epik_Metal_Only>
0

> <s_lp_Force_Field>
OPLS_2005

> <r_lp_Energy>
19.7674

> <b_lp_Chiralities_Consistent>
1

> <s_lp_Variant>
AV-unprocessed.smi:1217-3

> <Gold.Version>
5.8.1

> <Gold.Id.Protein>
6NUR|6NUR_protein|mol2

> <Gold.PLP.Fitness>
38.3445

> <Gold.PLP.PLP>
-29.6362

> <Gold.PLP.part.hbond>
-2.0000

> <Gold.PLP.part.metal>
0.0000

> <Gold.PLP.part.buried>
-0.6652

> <Gold.PLP.part.nonpolar>
-27.7806

> <Gold.PLP.part.repulsive>
1.2113

> <Gold.PLP.ligand.clash>
0.0000

> <Gold.PLP.ligand.torsion>
0.0917

> <Gold.PLP.Chemscore.Hbond>
2.0000

> <Gold.PLP.Chemscore.CHOScore>
0.9603

> <Gold.PLP.Chemscore.Metal>
0.0000

> <Gold.Chemscore.Hbonds>
donor molecule, donor type, donor heavy atom, donor atom, acceptor molecule, acceptor atom, score
      L1  H     3    22       P1  7948  1.00
      L1  H     6    23       P1  7948  0.96

> <Gold.PLP.Chemscore.Internal.Correction>
0.0106

> <Gold.Rescore>
     Score         DG    S(hbond)    S(metal)    S(lipo)     H(rot)  DE(clash)    DE(int)     intcor
     15.37     -16.83       1.93        0.00      69.18       1.25       0.05       1.41       ----

> <Gold.Chemscore.Fitness>
15.3677

> <Gold.Chemscore.DG>
-16.8257

> <Gold.Chemscore.ZeroCoef>
-5.4800

> <Gold.Chemscore.Hbond>
1.9321

> <Gold.Chemscore.Metal>
0.0000

> <Gold.Chemscore.Lipo>
69.1809

> <Gold.Chemscore.Internal_Hbond>
0.0000

> <Gold.Chemscore.DEClash>
0.0453

> <Gold.Chemscore.DEInternal>
1.4127

> <Gold.Chemscore.Rot>
1.2506

> <Gold.Chemscore.Internal.Correction>
   9.000000E+99

> <Gold.Chemscore.Hbonds>
donor molecule, donor type, donor heavy atom, donor atom, acceptor molecule, acceptor atom, score
      L1  H     3    22       P1  7948  0.98
      L1  H     6    23       P1  7948  0.87

> <Gold.Chemscore.Hbond.Weighted>
-6.4531

> <Gold.Chemscore.Metal.Weighted>
-0.0000

> <Gold.Chemscore.Lipo.Weighted>
-8.0942

> <Gold.Chemscore.Internal_Hbond.Weighted>
0.0000

> <Gold.Chemscore.DEClash.Weighted>
0.0453

> <Gold.Chemscore.DEInternal.Weighted>
1.4127

> <Gold.Chemscore.Rot.Weighted>
3.2016

> <Gold.Chemscore.Internal.Correction.Weighted>
   9.000000E+99

> <Gold.Protein.RotatedTorsions>
[ 6907 6896 6895 6894 ] final  118.28 input  -60.11 | X-H torsion
[ 7974 7965 7964 7962 ] final  -30.43 input  175.53 | X-H torsion
[ 8008 7997 7996 7995 ] final  108.29 input   59.86 | X-H torsion
[ 10167 10162 10161 10158 ] final  139.94 input  -65.29 | X-H torsion
[ 10718 10713 10712 10709 ] final -137.84 input   66.30 | X-H torsion
[ 10763 10752 10751 10750 ] final  -23.21 input  -60.55 | X-H torsion
[ 11005 11000 10999 10996 ] final   24.18 input  -57.11 | X-H torsion

> <Gold.Protein.ActiveResidues>
 VAL166  LYS551  ARG553  GLY616  TRP617  ASP618  TYR619  PRO620  LYS621  CYS622 
 ASP623  PHE694  ASN695  SER759  ASP760  ASP761  ALA762  ILE779  LEU786  VAL792 
 PHE793  MET794  SER795  GLU796  ALA797  LYS798  CYS799  TRP800  GLU811  SER814 

> <Gold.Protein.RotatedAtoms>
  152.4554  133.7712  159.6799 H   0  0  0  0  0  0  0  0  0  0  0  0  # atno 6907 bound_to 6896
  150.8478  133.7823  159.3043 H   0  0  0  0  0  0  0  0  0  0  0  0  # atno 6908 bound_to 6896
  151.5428  135.1071  159.9982 H   0  0  0  0  0  0  0  0  0  0  0  0  # atno 6909 bound_to 6896
  146.1143  140.5540  142.8764 H   0  0  0  0  0  0  0  0  0  0  0  0  # atno 7974 bound_to 7965
  156.1891  140.3079  155.9297 H   0  0  0  0  0  0  0  0  0  0  0  0  # atno 8008 bound_to 7997
  155.3213  140.0456  157.3056 H   0  0  0  0  0  0  0  0  0  0  0  0  # atno 8009 bound_to 7997
  154.5431  140.2268  155.8617 H   0  0  0  0  0  0  0  0  0  0  0  0  # atno 8010 bound_to 7997
  139.5063  144.6264  151.5926 H   0  0  0  0  0  0  0  0  0  0  0  0  # atno 10167 bound_to 10162
  156.2926  130.7384  151.1414 H   0  0  0  0  0  0  0  0  0  0  0  0  # atno 10718 bound_to 10713
  153.6642  135.6975  153.5167 H   0  0  0  0  0  0  0  0  0  0  0  0  # atno 10763 bound_to 10752
  153.2608  135.4245  155.0891 H   0  0  0  0  0  0  0  0  0  0  0  0  # atno 10764 bound_to 10752
  154.8444  135.3554  154.6186 H   0  0  0  0  0  0  0  0  0  0  0  0  # atno 10765 bound_to 10752
  140.3615  134.2120  155.7672 H   0  0  0  0  0  0  0  0  0  0  0  0  # atno 11005 bound_to 11000
  144.7539  140.5259  143.6782 LP  0  0  0  0  0  0  0  0  0  0  0  0  # atno 17320 bound_to 7965
  145.5599  139.1479  143.3347 LP  0  0  0  0  0  0  0  0  0  0  0  0  # atno 17321 bound_to 7965
  140.5983  143.9657  150.6369 LP  0  0  0  0  0  0  0  0  0  0  0  0  # atno 17342 bound_to 10162
  140.2860  143.3357  152.1107 LP  0  0  0  0  0  0  0  0  0  0  0  0  # atno 17343 bound_to 10162
  157.7347  131.0580  150.5512 LP  0  0  0  0  0  0  0  0  0  0  0  0  # atno 17370 bound_to 10713
  156.5630  130.4260  149.6054 LP  0  0  0  0  0  0  0  0  0  0  0  0  # atno 17371 bound_to 10713
  141.1982  133.8040  157.0591 LP  0  0  0  0  0  0  0  0  0  0  0  0  # atno 17394 bound_to 11000
  140.0623  134.9748  157.1325 LP  0  0  0  0  0  0  0  0  0  0  0  0  # atno 17395 bound_to 11000

$$$$
