AV-unprocessed.smi:1392|AV-procd|sdf|5659|dock3
  -GOLD-   22720 5283D 1   1.00000     0.00000
 Structure written by MMmdl.
 40 41  0  0  0  0  0  0  0  0  2 V2000
  151.7568  144.0788  157.3282 C   0  0  0  0  0  0  0  0  0  0  0  0
  151.6230  142.6653  157.6551 N   0  0  0  0  0  0  0  0  0  0  0  0
  152.0504  142.1689  158.9583 C   0  0  0  0  0  0  0  0  0  0  0  0
  150.9872  141.7930  156.7455 C   0  0  0  0  0  0  0  0  0  0  0  0
  151.3243  140.4228  156.6211 C   0  0  0  0  0  0  0  0  0  0  0  0
  150.6453  139.6147  155.6863 C   0  0  0  0  0  0  0  0  0  0  0  0
  149.6419  140.1776  154.8708 C   0  0  0  0  0  0  0  0  0  0  0  0
  148.9759  139.3280  153.9472 N   0  0  0  0  0  0  0  0  0  0  0  0
  147.7159  139.4297  153.4898 C   0  0  0  0  0  0  0  0  0  0  0  0
  146.9157  140.3097  153.8065 O   0  0  0  0  0  0  0  0  0  0  0  0
  147.4344  138.4542  152.6144 N   0  0  0  0  0  0  0  0  0  0  0  0
  146.1670  138.3056  151.9060 C   0  0  0  0  0  0  0  0  0  0  0  0
  145.4211  137.0174  152.3037 C   0  0  2  0  0  0  0  0  0  0  0  0
  145.2991  135.9837  151.2017 C   0  0  0  0  0  0  0  0  0  0  0  0
  144.1608  135.1121  151.7214 C   0  0  0  0  0  0  0  0  0  0  0  0
  143.3027  135.9894  152.4449 O   0  0  0  0  0  0  0  0  0  0  0  0
  143.9525  137.2383  152.6658 C   0  0  0  0  0  0  0  0  0  0  0  0
  149.3300  141.5469  155.0422 C   0  0  0  0  0  0  0  0  0  0  0  0
  150.0029  142.2832  155.9527 N   0  3  0  0  0  0  0  0  0  0  0  0
  152.4055  144.2110  156.4617 H   0  0  0  0  0  0  0  0  0  0  0  0
  152.1897  144.6384  158.1578 H   0  0  0  0  0  0  0  0  0  0  0  0
  150.7828  144.5159  157.1060 H   0  0  0  0  0  0  0  0  0  0  0  0
  152.7319  141.3253  158.8436 H   0  0  0  0  0  0  0  0  0  0  0  0
  151.1905  141.8442  159.5449 H   0  0  0  0  0  0  0  0  0  0  0  0
  152.5714  142.9410  159.5251 H   0  0  0  0  0  0  0  0  0  0  0  0
  152.0943  139.9742  157.2307 H   0  0  0  0  0  0  0  0  0  0  0  0
  150.9033  138.5696  155.5941 H   0  0  0  0  0  0  0  0  0  0  0  0
  149.5427  138.6027  153.5331 H   0  0  0  0  0  0  0  0  0  0  0  0
  148.1509  137.7729  152.4102 H   0  0  0  0  0  0  0  0  0  0  0  0
  145.5370  139.1775  152.0899 H   0  0  0  0  0  0  0  0  0  0  0  0
  146.3787  138.3009  150.8362 H   0  0  0  0  0  0  0  0  0  0  0  0
  145.9169  136.5550  153.1592 H   0  0  0  0  0  0  0  0  0  0  0  0
  145.0099  136.4579  150.2626 H   0  0  0  0  0  0  0  0  0  0  0  0
  146.2186  135.4222  151.0339 H   0  0  0  0  0  0  0  0  0  0  0  0
  143.6269  134.5996  150.9211 H   0  0  0  0  0  0  0  0  0  0  0  0
  144.5447  134.3582  152.4097 H   0  0  0  0  0  0  0  0  0  0  0  0
  143.8245  137.5770  153.6943 H   0  0  0  0  0  0  0  0  0  0  0  0
  143.4979  137.9803  152.0077 H   0  0  0  0  0  0  0  0  0  0  0  0
  148.5653  142.0824  154.4996 H   0  0  0  0  0  0  0  0  0  0  0  0
  149.7544  143.2679  156.0479 H   0  0  0  0  0  0  0  0  0  0  0  0
  1  2  1  0  0  0  0
  1 20  1  0  0  0  0
  1 21  1  0  0  0  0
  1 22  1  0  0  0  0
  2  3  1  0  0  0  0
  2  4  1  0  0  0  0
  3 23  1  0  0  0  0
  3 24  1  0  0  0  0
  3 25  1  0  0  0  0
  4 19  1  0  0  0  0
  4  5  2  0  0  0  0
  5  6  1  0  0  0  0
  5 26  1  0  0  0  0
  6  7  2  0  0  0  0
  6 27  1  0  0  0  0
  7  8  1  0  0  0  0
  7 18  1  0  0  0  0
  8  9  1  0  0  0  0
  8 28  1  0  0  0  0
  9 10  2  0  0  0  0
  9 11  1  0  0  0  0
 11 12  1  0  0  0  0
 11 29  1  0  0  0  0
 12 13  1  0  0  0  0
 12 30  1  0  0  0  0
 12 31  1  0  0  0  0
 13 17  1  0  0  0  0
 13 14  1  0  0  0  0
 13 32  1  0  0  0  0
 14 15  1  0  0  0  0
 14 33  1  0  0  0  0
 14 34  1  0  0  0  0
 15 16  1  0  0  0  0
 15 35  1  0  0  0  0
 15 36  1  0  0  0  0
 16 17  1  0  0  0  0
 17 37  1  0  0  0  0
 17 38  1  0  0  0  0
 18 19  2  0  0  0  0
 18 39  1  0  0  0  0
 19 40  1  0  0  0  0
M  CHG  1  19   1
M  END
> <s_m_source_file>
AV-unprocessed.smi

> <i_m_source_file_index>
1392

> <i_lp_mmshare_version>
43012

> <i_f3d_flags>
0

> <s_epik_input>
W0NIM11OKFtDSDNdKWMxW2NIXVtjSF1jKFtjSF1uMSlbTkhdQyg9TylbTkhdW0NIMl1bQ0BASF0yW0NIMl1bQ0gyXU9bQ0gyXTI=

> <s_epik_cmdline>
J2VwaWtfcHl0aG9uJywgJy1waCcsICc3LjAnLCAnLXRuJywgJzgnLCAnLW1hJywgJzIwMCcsICctbWV0YWxfYmluZGluZycsICctaW1hZScsICc8aW5maWxlLm1hZT4nLCAnLW9tYWUnLCAnPG91dGZpbGUubWFlPic=

> <r_lp_tautomer_probability>
0.999994

> <r_epik_Ionization_Penalty>
0.261114

> <r_epik_Ionization_Penalty_Charging>
0.261094

> <r_epik_Ionization_Penalty_Neutral>
2.01539e-05

> <r_epik_State_Penalty>
0.252829

> <r_epik_Charging_Adjusted_Penalty>
0.513923

> <i_epik_Tot_Q>
1

> <i_epik_Tot_abs_Q>
1

> <r_epik_Metal_State_Penalty>
0.54073

> <b_epik_Metal_Only>
0

> <s_lp_Force_Field>
OPLS_2005

> <r_lp_Energy>
27.7026

> <b_lp_Chiralities_Consistent>
1

> <s_lp_Variant>
AV-unprocessed.smi:1392-1

> <Gold.Version>
5.8.1

> <Gold.Id.Protein>
6NUR|6NUR_protein|mol2

> <Gold.PLP.Fitness>
45.3260

> <Gold.PLP.PLP>
-39.0625

> <Gold.PLP.part.hbond>
-4.0000

> <Gold.PLP.part.metal>
0.0000

> <Gold.PLP.part.buried>
-1.8584

> <Gold.PLP.part.nonpolar>
-34.9992

> <Gold.PLP.part.repulsive>
0.5983

> <Gold.PLP.ligand.clash>
0.0000

> <Gold.PLP.ligand.torsion>
1.3417

> <Gold.PLP.Chemscore.Hbond>
2.9760

> <Gold.PLP.Chemscore.CHOScore>
0.0000

> <Gold.PLP.Chemscore.Metal>
0.0000

> <Gold.Chemscore.Hbonds>
donor molecule, donor type, donor heavy atom, donor atom, acceptor molecule, acceptor atom, score
      L1  H    11    29       P1  7948  1.00
      L1  H    19    40       P1  8028  2.00

> <Gold.PLP.Chemscore.Internal.Correction>
0.0187

> <Gold.Rescore>
     Score         DG    S(hbond)    S(metal)    S(lipo)     H(rot)  DE(clash)    DE(int)     intcor
     15.70     -18.15       1.97        0.00      78.90       1.23       0.26       2.19       ----

> <Gold.Chemscore.Fitness>
15.7005

> <Gold.Chemscore.DG>
-18.1497

> <Gold.Chemscore.ZeroCoef>
-5.4800

> <Gold.Chemscore.Hbond>
1.9698

> <Gold.Chemscore.Metal>
0.0000

> <Gold.Chemscore.Lipo>
78.8990

> <Gold.Chemscore.Internal_Hbond>
0.0000

> <Gold.Chemscore.DEClash>
0.2551

> <Gold.Chemscore.DEInternal>
2.1942

> <Gold.Chemscore.Rot>
1.2268

> <Gold.Chemscore.Internal.Correction>
   9.000000E+99

> <Gold.Chemscore.Hbonds>
donor molecule, donor type, donor heavy atom, donor atom, acceptor molecule, acceptor atom, score
      L1  H    11    29       P1  7948  1.00
      L1  H    19    40       P1  8028  0.99

> <Gold.Chemscore.Hbond.Weighted>
-6.5791

> <Gold.Chemscore.Metal.Weighted>
-0.0000

> <Gold.Chemscore.Lipo.Weighted>
-9.2312

> <Gold.Chemscore.Internal_Hbond.Weighted>
0.0000

> <Gold.Chemscore.DEClash.Weighted>
0.2551

> <Gold.Chemscore.DEInternal.Weighted>
2.1942

> <Gold.Chemscore.Rot.Weighted>
3.1406

> <Gold.Chemscore.Internal.Correction.Weighted>
   9.000000E+99

> <Gold.Protein.RotatedTorsions>
[ 6907 6896 6895 6894 ] final  -34.72 input  -60.11 | X-H torsion
[ 7974 7965 7964 7962 ] final -134.79 input  175.53 | X-H torsion
[ 8008 7997 7996 7995 ] final -172.79 input   59.86 | X-H torsion
[ 10167 10162 10161 10158 ] final  -16.85 input  -65.29 | X-H torsion
[ 10718 10713 10712 10709 ] final   44.88 input   66.30 | X-H torsion
[ 10763 10752 10751 10750 ] final   68.58 input  -60.55 | X-H torsion
[ 11005 11000 10999 10996 ] final  -20.43 input  -57.11 | X-H torsion

> <Gold.Protein.ActiveResidues>
 VAL166  LYS551  ARG553  GLY616  TRP617  ASP618  TYR619  PRO620  LYS621  CYS622 
 ASP623  PHE694  ASN695  SER759  ASP760  ASP761  ALA762  ILE779  LEU786  VAL792 
 PHE793  MET794  SER795  GLU796  ALA797  LYS798  CYS799  TRP800  GLU811  SER814 

> <Gold.Protein.RotatedAtoms>
  151.0490  134.9659  159.8200 H   0  0  0  0  0  0  0  0  0  0  0  0  # atno 6907 bound_to 6896
  152.5377  134.2562  159.8928 H   0  0  0  0  0  0  0  0  0  0  0  0  # atno 6908 bound_to 6896
  151.2577  133.4275  159.2648 H   0  0  0  0  0  0  0  0  0  0  0  0  # atno 6909 bound_to 6896
  144.9072  140.6848  143.5048 H   0  0  0  0  0  0  0  0  0  0  0  0  # atno 7974 bound_to 7965
  155.9491  140.1123  157.0992 H   0  0  0  0  0  0  0  0  0  0  0  0  # atno 8008 bound_to 7997
  154.4106  140.1204  156.5095 H   0  0  0  0  0  0  0  0  0  0  0  0  # atno 8009 bound_to 7997
  155.6865  140.3473  155.4878 H   0  0  0  0  0  0  0  0  0  0  0  0  # atno 8010 bound_to 7997
  140.7239  143.5074  150.9792 H   0  0  0  0  0  0  0  0  0  0  0  0  # atno 10167 bound_to 10162
  157.4315  130.8028  149.7608 H   0  0  0  0  0  0  0  0  0  0  0  0  # atno 10718 bound_to 10713
  153.0243  135.5242  154.7157 H   0  0  0  0  0  0  0  0  0  0  0  0  # atno 10763 bound_to 10752
  154.6226  135.2891  155.0310 H   0  0  0  0  0  0  0  0  0  0  0  0  # atno 10764 bound_to 10752
  154.1291  135.6595  153.4971 H   0  0  0  0  0  0  0  0  0  0  0  0  # atno 10765 bound_to 10752
  140.8463  133.7889  155.9916 H   0  0  0  0  0  0  0  0  0  0  0  0  # atno 11005 bound_to 11000
  145.3516  139.1705  143.4431 LP  0  0  0  0  0  0  0  0  0  0  0  0  # atno 17320 bound_to 7965
  146.3139  140.3569  142.8661 LP  0  0  0  0  0  0  0  0  0  0  0  0  # atno 17321 bound_to 7965
  139.8787  143.7100  152.3159 LP  0  0  0  0  0  0  0  0  0  0  0  0  # atno 17342 bound_to 10162
  139.7374  144.7568  151.0705 LP  0  0  0  0  0  0  0  0  0  0  0  0  # atno 17343 bound_to 10162
  155.9915  130.3937  150.2982 LP  0  0  0  0  0  0  0  0  0  0  0  0  # atno 17370 bound_to 10713
  157.1139  131.0228  151.3037 LP  0  0  0  0  0  0  0  0  0  0  0  0  # atno 17371 bound_to 10713
  140.8839  134.2577  157.5130 LP  0  0  0  0  0  0  0  0  0  0  0  0  # atno 17394 bound_to 11000
  139.8703  134.9629  156.4443 LP  0  0  0  0  0  0  0  0  0  0  0  0  # atno 17395 bound_to 11000

$$$$
