#       Name:                AV-unprocessed.smi:2667
#       Creating user name   scv26
#       Creation time:       Fri Mar 27 14:35:21 2020


#       File generated by GOLD software.
#

@<TRIPOS>MOLECULE
AV-unprocessed.smi:2667
    51    53     1
SMALL
NO_CHARGES


@<TRIPOS>ATOM
      1 ****        -3.4613   6.4156  -0.1544 C.3            1 S1                 0.0000
      2 ****        -2.8542   5.0036  -0.1559 C.3            1 S1                 0.0000
      3 ****        -1.3177   4.9848  -0.1597 C.2            1 S1                 0.0000
      4 ****        -0.6931   6.0467  -0.1553 O.2            1 S1                 0.0000
      5 ****        -0.6477   3.6519  -0.1674 C.ar           1 S1                 0.0000
      6 ****        -1.3831   2.4436  -0.1641 C.ar           1 S1                 0.0000
      7 ****        -0.7182   1.2027  -0.1661 C.ar           1 S1                 0.0000
      8 ****         0.6888   1.1339  -0.1721 C.ar           1 S1                 0.0000
      9 ****         1.2557  -0.1222  -0.1681 O.3            1 S1                 0.0000
     10 ****         2.6738  -0.2238  -0.2055 C.3            1 S1                 0.0000
     11 ****         3.0948  -1.7025  -0.1678 C.3            1 S1                 0.0000
     12 ****         2.8560  -2.2780  -1.4395 O.3            1 S1                 0.0000
     13 ****         2.4980  -2.4991   1.0234 C.3            1 S1                 0.0000
     14 ****         1.7032  -3.6536   0.6374 N.pl3          1 S1                 0.0000
     15 ****         2.1493  -4.9025   0.4001 C.2            1 S1                 0.0000
     16 ****         1.2492  -5.8146   0.0451 N.2            1 S1                 0.0000
     17 ****         0.0803  -5.0728   0.0589 C.ar           1 S1                 0.0000
     18 ****        -1.2502  -5.4531  -0.2290 C.ar           1 S1                 0.0000
     19 ****        -2.2967  -4.5110  -0.1459 C.ar           1 S1                 0.0000
     20 ****        -2.0305  -3.1781   0.2293 C.ar           1 S1                 0.0000
     21 ****        -0.7134  -2.7768   0.5224 C.ar           1 S1                 0.0000
     22 ****         0.3291  -3.7174   0.4320 C.ar           1 S1                 0.0000
     23 ****         1.4273   2.3423  -0.1795 C.ar           1 S1                 0.0000
     24 ****         0.7639   3.5846  -0.1766 C.ar           1 S1                 0.0000
     25 ****        -4.5501   6.3643  -0.1539 H              1 S1                 0.0000
     26 ****        -3.1596   6.9801  -1.0375 H              1 S1                 0.0000
     27 ****        -3.1584   6.9790   0.7287 H              1 S1                 0.0000
     28 ****        -3.2061   4.4613   0.7221 H              1 S1                 0.0000
     29 ****        -3.2104   4.4611  -1.0319 H              1 S1                 0.0000
     30 ****        -2.4627   2.4414  -0.1590 H              1 S1                 0.0000
     31 ****        -1.2986   0.2918  -0.1637 H              1 S1                 0.0000
     32 ****         3.0751   0.2620  -1.0968 H              1 S1                 0.0000
     33 ****         3.0931   0.2813   0.6660 H              1 S1                 0.0000
     34 ****         4.1796  -1.7195  -0.0552 H              1 S1                 0.0000
     35 ****         3.1607  -3.1722  -1.4271 H              1 S1                 0.0000
     36 ****         3.3067  -2.8516   1.6649 H              1 S1                 0.0000
     37 ****         1.8858  -1.8570   1.6576 H              1 S1                 0.0000
     38 ****         3.1963  -5.1541   0.4868 H              1 S1                 0.0000
     39 ****        -1.4658  -6.4719  -0.5149 H              1 S1                 0.0000
     40 ****        -3.3092  -4.8130  -0.3696 H              1 S1                 0.0000
     41 ****        -2.8380  -2.4636   0.2925 H              1 S1                 0.0000
     42 ****        -0.5071  -1.7588   0.8145 H              1 S1                 0.0000
     43 ****         2.5065   2.3451  -0.1858 H              1 S1                 0.0000
     44 ****         1.3569   4.4881  -0.1807 H              1 S1                 0.0000
     45 ****        -1.1860   6.9168  -0.1492 LP             1 S1                 0.0000
     46 ****         0.3069   6.0387  -0.1577 LP             1 S1                 0.0000
     47 ****         0.9032  -0.6083  -0.9677 LP             1 S1                 0.0000
     48 ****         0.9481  -0.5828   0.6645 LP             1 S1                 0.0000
     49 ****         3.3498  -1.7633  -2.1404 LP             1 S1                 0.0000
     50 ****         1.8765  -2.2584  -1.6397 LP             1 S1                 0.0000
     51 ****         1.3817  -6.7812  -0.1740 LP             1 S1                 0.0000
@<TRIPOS>BOND
    1    1    2 1     
    2    1   25 1     
    3    1   26 1     
    4    1   27 1     
    5    2    3 1     
    6    2   28 1     
    7    2   29 1     
    8    3    4 2     
    9    3    5 1     
   10    5   24 ar    
   11    5    6 ar    
   12    6    7 ar    
   13    6   30 1     
   14    7    8 ar    
   15    7   31 1     
   16    8    9 1     
   17    8   23 ar    
   18    9   10 1     
   19   10   11 1     
   20   10   32 1     
   21   10   33 1     
   22   11   12 1     
   23   11   13 1     
   24   11   34 1     
   25   12   35 1     
   26   13   14 1     
   27   13   36 1     
   28   13   37 1     
   29   14   22 1     
   30   14   15 1     
   31   15   16 2     
   32   15   38 1     
   33   16   17 1     
   34   17   22 ar    
   35   17   18 ar    
   36   18   19 ar    
   37   18   39 1     
   38   19   20 ar    
   39   19   40 1     
   40   20   21 ar    
   41   20   41 1     
   42   21   22 ar    
   43   21   42 1     
   44   23   24 ar    
   45   23   43 1     
   46   24   44 1     
   47    4   45 1     
   48    4   46 1     
   49    9   47 1     
   50    9   48 1     
   51   12   49 1     
   52   12   50 1     
   53   16   51 1     
@<TRIPOS>SUBSTRUCTURE
      1 S1             1
@<TRIPOS>SET
LONE_PAIRS      STATIC     ATOMS    <user>   **** ""
7 45 46 47 48 49 50 51
DONOR_HYDROGENS      STATIC     ATOMS    <user>   **** ""
1 35
ATOM$BLUE        STATIC     ATOMS    COLORGROUP SYSTEM
7 45 46 47 48 49 50 51
ATOM$RED        STATIC     ATOMS    COLORGROUP SYSTEM
1 35
