AV-unprocessed.smi:2528|AV-procd|sdf|9951|dock6
  -GOLD-   2272013593D 1   1.00000     0.00000
 Structure written by MMmdl.
 44 46  0  0  0  0  0  0  0  0  2 V2000
  146.5589  139.3324  154.1038 O   0  0  0  0  0  0  0  0  0  0  0  0
  147.2987  138.6313  153.4130 C   0  0  0  0  0  0  0  0  0  0  0  0
  146.8464  137.7467  152.5125 N   0  0  0  0  0  0  0  0  0  0  0  0
  145.4399  137.5070  152.2062 C   0  0  0  0  0  0  0  0  0  0  0  0
  145.0041  136.0888  152.6155 C   0  0  1  0  0  0  0  0  0  0  0  0
  144.5855  135.2446  151.3982 C   0  0  0  0  0  0  0  0  0  0  0  0
  144.2273  133.8674  151.8186 N   0  3  1  0  0  0  0  0  0  0  0  0
  143.7464  133.0048  150.7079 C   0  0  0  0  0  0  0  0  0  0  0  0
  144.8961  132.5259  149.8011 C   0  0  0  0  0  0  0  0  0  0  0  0
  145.9941  131.8348  150.6207 C   0  0  0  0  0  0  0  0  0  0  0  0
  146.4773  132.7551  151.7507 C   0  0  0  0  0  0  0  0  0  0  0  0
  145.2964  133.2220  152.6299 C   0  0  1  0  0  0  0  0  0  0  0  0
  145.7381  134.1591  153.7712 C   0  0  0  0  0  0  0  0  0  0  0  0
  146.0960  135.4338  153.2530 O   0  0  0  0  0  0  0  0  0  0  0  0
  148.6426  138.6506  153.4444 N   0  0  0  0  0  0  0  0  0  0  0  0
  149.4896  139.4540  154.2537 C   0  0  0  0  0  0  0  0  0  0  0  0
  150.7312  138.8669  154.5869 C   0  0  0  0  0  0  0  0  0  0  0  0
  151.6443  139.5833  155.3848 C   0  0  0  0  0  0  0  0  0  0  0  0
  151.2904  140.8686  155.8322 C   0  0  0  0  0  0  0  0  0  0  0  0
  150.0335  141.3784  155.4580 C   0  0  0  0  0  0  0  0  0  0  0  0
  149.1578  140.6946  154.6912 N   0  0  0  0  0  0  0  0  0  0  0  0
  147.5240  137.2085  151.9925 H   0  0  0  0  0  0  0  0  0  0  0  0
  144.8575  138.2433  152.7604 H   0  0  0  0  0  0  0  0  0  0  0  0
  145.2341  137.6861  151.1493 H   0  0  0  0  0  0  0  0  0  0  0  0
  144.1655  136.1652  153.3108 H   0  0  0  0  0  0  0  0  0  0  0  0
  143.7278  135.7046  150.9065 H   0  0  0  0  0  0  0  0  0  0  0  0
  145.3938  135.2225  150.6671 H   0  0  0  0  0  0  0  0  0  0  0  0
  143.2447  132.1390  151.1420 H   0  0  0  0  0  0  0  0  0  0  0  0
  142.9931  133.5345  150.1233 H   0  0  0  0  0  0  0  0  0  0  0  0
  144.5099  131.8381  149.0483 H   0  0  0  0  0  0  0  0  0  0  0  0
  145.3194  133.3679  149.2529 H   0  0  0  0  0  0  0  0  0  0  0  0
  145.6070  130.9064  151.0429 H   0  0  0  0  0  0  0  0  0  0  0  0
  146.8287  131.5589  149.9757 H   0  0  0  0  0  0  0  0  0  0  0  0
  147.2090  132.2256  152.3617 H   0  0  0  0  0  0  0  0  0  0  0  0
  147.0006  133.6135  151.3280 H   0  0  0  0  0  0  0  0  0  0  0  0
  144.8596  132.3331  153.0876 H   0  0  0  0  0  0  0  0  0  0  0  0
  144.9399  134.2732  154.5066 H   0  0  0  0  0  0  0  0  0  0  0  0
  146.5921  133.7378  154.3021 H   0  0  0  0  0  0  0  0  0  0  0  0
  149.1164  138.0262  152.8088 H   0  0  0  0  0  0  0  0  0  0  0  0
  150.9872  137.8781  154.2350 H   0  0  0  0  0  0  0  0  0  0  0  0
  152.5992  139.1531  155.6484 H   0  0  0  0  0  0  0  0  0  0  0  0
  151.9636  141.4482  156.4462 H   0  0  0  0  0  0  0  0  0  0  0  0
  149.7227  142.3604  155.7824 H   0  0  0  0  0  0  0  0  0  0  0  0
  143.4398  133.9801  152.4410 H   0  0  0  0  0  0  0  0  0  0  0  0
  1  2  2  0  0  0  0
  2  3  1  0  0  0  0
  2 15  1  0  0  0  0
  3  4  1  0  0  0  0
  3 22  1  0  0  0  0
  4  5  1  0  0  0  0
  4 23  1  0  0  0  0
  4 24  1  0  0  0  0
  5 14  1  0  0  0  0
  5  6  1  0  0  0  0
  5 25  1  0  0  0  0
  6  7  1  0  0  0  0
  6 26  1  0  0  0  0
  6 27  1  0  0  0  0
  7 12  1  0  0  0  0
  7  8  1  0  0  0  0
  7 44  1  0  0  0  0
  8  9  1  0  0  0  0
  8 28  1  0  0  0  0
  8 29  1  0  0  0  0
  9 10  1  0  0  0  0
  9 30  1  0  0  0  0
  9 31  1  0  0  0  0
 10 11  1  0  0  0  0
 10 32  1  0  0  0  0
 10 33  1  0  0  0  0
 11 12  1  0  0  0  0
 11 34  1  0  0  0  0
 11 35  1  0  0  0  0
 12 13  1  0  0  0  0
 12 36  1  0  0  0  0
 13 14  1  0  0  0  0
 13 37  1  0  0  0  0
 13 38  1  0  0  0  0
 15 16  1  0  0  0  0
 15 39  1  0  0  0  0
 16 21  1  0  0  0  0
 16 17  2  0  0  0  0
 17 18  1  0  0  0  0
 17 40  1  0  0  0  0
 18 19  2  0  0  0  0
 18 41  1  0  0  0  0
 19 20  1  0  0  0  0
 19 42  1  0  0  0  0
 20 21  2  0  0  0  0
 20 43  1  0  0  0  0
M  CHG  1   7   1
M  END
> <s_m_source_file>
AV-unprocessed.smi

> <i_m_source_file_index>
2528

> <i_lp_mmshare_version>
43012

> <i_f3d_flags>
0

> <s_epik_input>
bjFbY0hdW2NIXVtjSF1bY0hdYzFbTkhdQyg9TylbTkhdW0NIMl1bQ0BIXShbQ0gyXTIpT1tDSDJdW0NAQEhdKE4yMylbQ0gyXVtDSDJdW0NIMl1bQ0gyXTM=

> <s_epik_cmdline>
J2VwaWtfcHl0aG9uJywgJy1waCcsICc3LjAnLCAnLXRuJywgJzgnLCAnLW1hJywgJzIwMCcsICctbWV0YWxfYmluZGluZycsICctaW1hZScsICc8aW5maWxlLm1hZT4nLCAnLW9tYWUnLCAnPG91dGZpbGUubWFlPic=

> <r_epik_Ionization_Penalty>
0.0932337

> <r_epik_Ionization_Penalty_Charging>
0.0931942

> <r_epik_Ionization_Penalty_Neutral>
3.9565e-05

> <r_epik_State_Penalty>
0.0834605

> <r_epik_Charging_Adjusted_Penalty>
0.176655

> <i_epik_Tot_Q>
1

> <i_epik_Tot_abs_Q>
1

> <r_epik_Metal_State_Penalty>
0.0834607

> <b_epik_Metal_Only>
0

> <s_lp_Force_Field>
OPLS_2005

> <r_lp_Energy>
26.7775

> <b_lp_Chiralities_Consistent>
1

> <s_lp_Variant>
AV-unprocessed.smi:2528-4

> <Gold.Version>
5.8.1

> <Gold.Id.Protein>
6NUR|6NUR_protein|mol2

> <Gold.PLP.Fitness>
43.2391

> <Gold.PLP.PLP>
-36.4005

> <Gold.PLP.part.hbond>
-3.0000

> <Gold.PLP.part.metal>
0.0000

> <Gold.PLP.part.buried>
-3.5722

> <Gold.PLP.part.nonpolar>
-30.5151

> <Gold.PLP.part.repulsive>
0.4457

> <Gold.PLP.ligand.clash>
0.0000

> <Gold.PLP.ligand.torsion>
0.9490

> <Gold.PLP.Chemscore.Hbond>
1.9120

> <Gold.PLP.Chemscore.CHOScore>
1.0000

> <Gold.PLP.Chemscore.Metal>
0.0000

> <Gold.Chemscore.Hbonds>
donor molecule, donor type, donor heavy atom, donor atom, acceptor molecule, acceptor atom, score
      L1  H     3    22       P1  7948  1.00
      L1  H    15    39       P1  7948  0.90
      L1  C    20    43       P1  8028  1.00

> <Gold.PLP.Chemscore.Internal.Correction>
0.0006

> <Gold.Rescore>
     Score         DG    S(hbond)    S(metal)    S(lipo)     H(rot)  DE(clash)    DE(int)     intcor
     16.00     -18.16       1.92        0.00      81.72       1.29       0.14       2.02       ----

> <Gold.Chemscore.Fitness>
16.0009

> <Gold.Chemscore.DG>
-18.1580

> <Gold.Chemscore.ZeroCoef>
-5.4800

> <Gold.Chemscore.Hbond>
1.9197

> <Gold.Chemscore.Metal>
0.0000

> <Gold.Chemscore.Lipo>
81.7185

> <Gold.Chemscore.Internal_Hbond>
0.0000

> <Gold.Chemscore.DEClash>
0.1377

> <Gold.Chemscore.DEInternal>
2.0194

> <Gold.Chemscore.Rot>
1.2870

> <Gold.Chemscore.Internal.Correction>
   9.000000E+99

> <Gold.Chemscore.Hbonds>
donor molecule, donor type, donor heavy atom, donor atom, acceptor molecule, acceptor atom, score
      L1  H     3    22       P1  7948  0.98
      L1  H    15    39       P1  7948  0.84

> <Gold.Chemscore.Hbond.Weighted>
-6.4118

> <Gold.Chemscore.Metal.Weighted>
-0.0000

> <Gold.Chemscore.Lipo.Weighted>
-9.5611

> <Gold.Chemscore.Internal_Hbond.Weighted>
0.0000

> <Gold.Chemscore.DEClash.Weighted>
0.1377

> <Gold.Chemscore.DEInternal.Weighted>
2.0194

> <Gold.Chemscore.Rot.Weighted>
3.2948

> <Gold.Chemscore.Internal.Correction.Weighted>
   9.000000E+99

> <Gold.Protein.RotatedTorsions>
[ 6907 6896 6895 6894 ] final -111.18 input  -60.11 | X-H torsion
[ 7974 7965 7964 7962 ] final   23.33 input  175.53 | X-H torsion
[ 8008 7997 7996 7995 ] final   63.58 input   59.86 | X-H torsion
[ 10167 10162 10161 10158 ] final  133.53 input  -65.29 | X-H torsion
[ 10718 10713 10712 10709 ] final   53.59 input   66.30 | X-H torsion
[ 10763 10752 10751 10750 ] final  -55.72 input  -60.55 | X-H torsion
[ 11005 11000 10999 10996 ] final   35.31 input  -57.11 | X-H torsion

> <Gold.Protein.ActiveResidues>
 VAL166  LYS551  ARG553  GLY616  TRP617  ASP618  TYR619  PRO620  LYS621  CYS622 
 ASP623  PHE694  ASN695  SER759  ASP760  ASP761  ALA762  ILE779  LEU786  VAL792 
 PHE793  MET794  SER795  GLU796  ALA797  LYS798  CYS799  TRP800  GLU811  SER814 

> <Gold.Protein.RotatedAtoms>
  150.7673  133.9273  159.3416 H   0  0  0  0  0  0  0  0  0  0  0  0  # atno 6907 bound_to 6896
  151.7168  135.0900  160.0286 H   0  0  0  0  0  0  0  0  0  0  0  0  # atno 6908 bound_to 6896
  152.3675  133.6337  159.6097 H   0  0  0  0  0  0  0  0  0  0  0  0  # atno 6909 bound_to 6896
  146.1989  139.7760  142.8776 H   0  0  0  0  0  0  0  0  0  0  0  0  # atno 7974 bound_to 7965
  155.6325  140.3496  155.4687 H   0  0  0  0  0  0  0  0  0  0  0  0  # atno 8008 bound_to 7997
  155.9992  140.1209  157.0588 H   0  0  0  0  0  0  0  0  0  0  0  0  # atno 8009 bound_to 7997
  154.4243  140.1104  156.5659 H   0  0  0  0  0  0  0  0  0  0  0  0  # atno 8010 bound_to 7997
  139.5293  144.6611  151.5009 H   0  0  0  0  0  0  0  0  0  0  0  0  # atno 10167 bound_to 10162
  157.5181  130.8546  149.8522 H   0  0  0  0  0  0  0  0  0  0  0  0  # atno 10718 bound_to 10713
  154.1953  135.6420  153.5071 H   0  0  0  0  0  0  0  0  0  0  0  0  # atno 10763 bound_to 10752
  153.0025  135.5438  154.6372 H   0  0  0  0  0  0  0  0  0  0  0  0  # atno 10764 bound_to 10752
  154.5771  135.2922  155.0742 H   0  0  0  0  0  0  0  0  0  0  0  0  # atno 10765 bound_to 10752
  140.2440  134.3381  155.7915 H   0  0  0  0  0  0  0  0  0  0  0  0  # atno 11005 bound_to 11000
  145.3550  141.0315  143.3317 LP  0  0  0  0  0  0  0  0  0  0  0  0  # atno 17320 bound_to 7965
  144.8640  139.5135  143.6799 LP  0  0  0  0  0  0  0  0  0  0  0  0  # atno 17321 bound_to 7965
  140.6460  143.8794  150.6737 LP  0  0  0  0  0  0  0  0  0  0  0  0  # atno 17342 bound_to 10162
  140.2143  143.3858  152.1693 LP  0  0  0  0  0  0  0  0  0  0  0  0  # atno 17343 bound_to 10162
  156.0334  130.3758  150.1626 LP  0  0  0  0  0  0  0  0  0  0  0  0  # atno 17370 bound_to 10713
  156.9814  130.9865  151.3436 LP  0  0  0  0  0  0  0  0  0  0  0  0  # atno 17371 bound_to 10713
  141.2208  133.7315  156.8931 LP  0  0  0  0  0  0  0  0  0  0  0  0  # atno 17394 bound_to 11000
  140.1625  134.9156  157.2732 LP  0  0  0  0  0  0  0  0  0  0  0  0  # atno 17395 bound_to 11000

$$$$
