AV-unprocessed.smi:1005|AV-procd|sdf|4386|dock3
  -GOLD-   22720 2313D 1   1.00000     0.00000
 Structure written by MMmdl.
 55 57  0  0  0  0  0  0  0  0  1 V2000
  152.7899  142.4615  161.4557 C   0  0  0  0  0  0  0  0  0  0  0  0
  152.2254  142.2308  160.0648 C   0  0  0  0  0  0  0  0  0  0  0  0
  152.6616  141.1097  159.3234 C   0  0  0  0  0  0  0  0  0  0  0  0
  152.1623  140.8602  158.0263 C   0  0  0  0  0  0  0  0  0  0  0  0
  152.4444  139.8382  157.1361 N   0  0  0  0  0  0  0  0  0  0  0  0
  151.6659  140.1577  156.1066 C   0  0  0  0  0  0  0  0  0  0  0  0
  150.9175  141.2721  156.2209 N   0  0  0  0  0  0  0  0  0  0  0  0
  149.9998  141.8178  155.2363 C   0  0  0  0  0  0  0  0  0  0  0  0
  149.0782  140.7456  154.6202 C   0  0  2  0  0  0  0  0  0  0  0  0
  149.8609  139.9980  153.7113 O   0  0  0  0  0  0  0  0  0  0  0  0
  147.8552  141.3279  153.8735 C   0  0  0  0  0  0  0  0  0  0  0  0
  147.0013  142.2048  154.6735 N   0  0  0  0  0  0  0  0  0  0  0  0
  145.8088  142.5953  153.9301 C   0  0  0  0  0  0  0  0  0  0  0  0
  144.9010  143.5281  154.7488 C   0  0  0  0  0  0  0  0  0  0  0  0
  144.5382  142.8926  155.9702 O   0  0  0  0  0  0  0  0  0  0  0  0
  145.6639  142.5071  156.7556 C   0  0  1  0  0  0  0  0  0  0  0  0
  145.2093  141.8808  158.0913 C   0  0  0  0  0  0  0  0  0  0  0  0
  144.4866  140.6070  158.0172 N   0  0  0  0  0  0  0  0  0  0  0  0
  143.2328  140.7070  157.2798 C   0  0  0  0  0  0  0  0  0  0  0  0
  144.2398  140.0824  159.3530 C   0  0  0  0  0  0  0  0  0  0  0  0
  146.5944  141.5895  155.9344 C   0  0  0  0  0  0  0  0  0  0  0  0
  151.2079  141.7709  157.4862 C   0  0  0  0  0  0  0  0  0  0  0  0
  150.7640  142.8883  158.2153 C   0  0  0  0  0  0  0  0  0  0  0  0
  151.2734  143.1231  159.5095 C   0  0  0  0  0  0  0  0  0  0  0  0
  150.7905  144.3347  160.2873 C   0  0  0  0  0  0  0  0  0  0  0  0
  153.4958  141.6785  161.7339 H   0  0  0  0  0  0  0  0  0  0  0  0
  151.9902  142.4688  162.1965 H   0  0  0  0  0  0  0  0  0  0  0  0
  153.3140  143.4165  161.5013 H   0  0  0  0  0  0  0  0  0  0  0  0
  153.3861  140.4292  159.7462 H   0  0  0  0  0  0  0  0  0  0  0  0
  151.6430  139.5496  155.2140 H   0  0  0  0  0  0  0  0  0  0  0  0
  149.4077  142.6039  155.7076 H   0  0  0  0  0  0  0  0  0  0  0  0
  150.5932  142.2978  154.4567 H   0  0  0  0  0  0  0  0  0  0  0  0
  148.7443  140.0752  155.4131 H   0  0  0  0  0  0  0  0  0  0  0  0
  149.8291  140.4220  152.8674 H   0  0  0  0  0  0  0  0  0  0  0  0
  148.2191  141.9146  153.0309 H   0  0  0  0  0  0  0  0  0  0  0  0
  147.2655  140.5271  153.4245 H   0  0  0  0  0  0  0  0  0  0  0  0
  146.0964  143.0971  153.0055 H   0  0  0  0  0  0  0  0  0  0  0  0
  145.2455  141.7068  153.6405 H   0  0  0  0  0  0  0  0  0  0  0  0
  145.4058  144.4725  154.9576 H   0  0  0  0  0  0  0  0  0  0  0  0
  143.9968  143.7657  154.1883 H   0  0  0  0  0  0  0  0  0  0  0  0
  146.2109  143.4194  157.0007 H   0  0  0  0  0  0  0  0  0  0  0  0
  146.1105  141.7262  158.6865 H   0  0  0  0  0  0  0  0  0  0  0  0
  144.6156  142.6093  158.6455 H   0  0  0  0  0  0  0  0  0  0  0  0
  142.6947  139.7590  157.3039 H   0  0  0  0  0  0  0  0  0  0  0  0
  143.4078  140.9418  156.2310 H   0  0  0  0  0  0  0  0  0  0  0  0
  142.5849  141.4748  157.7040 H   0  0  0  0  0  0  0  0  0  0  0  0
  143.7469  139.1110  159.3035 H   0  0  0  0  0  0  0  0  0  0  0  0
  143.6054  140.7566  159.9298 H   0  0  0  0  0  0  0  0  0  0  0  0
  145.1756  139.9480  159.8963 H   0  0  0  0  0  0  0  0  0  0  0  0
  146.0921  140.6427  155.7311 H   0  0  0  0  0  0  0  0  0  0  0  0
  147.4718  141.3538  156.5364 H   0  0  0  0  0  0  0  0  0  0  0  0
  150.0385  143.5600  157.7804 H   0  0  0  0  0  0  0  0  0  0  0  0
  150.0475  144.8993  159.7232 H   0  0  0  0  0  0  0  0  0  0  0  0
  151.6229  145.0032  160.5075 H   0  0  0  0  0  0  0  0  0  0  0  0
  150.3330  144.0281  161.2283 H   0  0  0  0  0  0  0  0  0  0  0  0
  1  2  1  0  0  0  0
  1 26  1  0  0  0  0
  1 27  1  0  0  0  0
  1 28  1  0  0  0  0
  2 24  1  0  0  0  0
  2  3  2  0  0  0  0
  3  4  1  0  0  0  0
  3 29  1  0  0  0  0
  4 22  2  0  0  0  0
  4  5  1  0  0  0  0
  5  6  2  0  0  0  0
  6  7  1  0  0  0  0
  6 30  1  0  0  0  0
  7  8  1  0  0  0  0
  7 22  1  0  0  0  0
  8  9  1  0  0  0  0
  8 31  1  0  0  0  0
  8 32  1  0  0  0  0
  9 10  1  0  0  0  0
  9 11  1  0  0  0  0
  9 33  1  0  0  0  0
 10 34  1  0  0  0  0
 11 12  1  0  0  0  0
 11 35  1  0  0  0  0
 11 36  1  0  0  0  0
 12 21  1  0  0  0  0
 12 13  1  0  0  0  0
 13 14  1  0  0  0  0
 13 37  1  0  0  0  0
 13 38  1  0  0  0  0
 14 15  1  0  0  0  0
 14 39  1  0  0  0  0
 14 40  1  0  0  0  0
 15 16  1  0  0  0  0
 16 17  1  0  0  0  0
 16 21  1  0  0  0  0
 16 41  1  0  0  0  0
 17 18  1  0  0  0  0
 17 42  1  0  0  0  0
 17 43  1  0  0  0  0
 18 19  1  0  0  0  0
 18 20  1  0  0  0  0
 19 44  1  0  0  0  0
 19 45  1  0  0  0  0
 19 46  1  0  0  0  0
 20 47  1  0  0  0  0
 20 48  1  0  0  0  0
 20 49  1  0  0  0  0
 21 50  1  0  0  0  0
 21 51  1  0  0  0  0
 22 23  1  0  0  0  0
 23 24  2  0  0  0  0
 23 52  1  0  0  0  0
 24 25  1  0  0  0  0
 25 53  1  0  0  0  0
 25 54  1  0  0  0  0
 25 55  1  0  0  0  0
M  END
> <s_m_source_file>
AV-unprocessed.smi

> <i_m_source_file_index>
1005

> <i_lp_mmshare_version>
43012

> <i_f3d_flags>
0

> <s_epik_input>
W0NIM11jKFtjSF0xKWMoW0NIM10pW2NIXWMoYzEyKW4oW2NIXW4yKVtDSDJdW0NASF0oW09IXSlbQ0gyXU4zW0NIMl1bQ0gyXU9bQ0BIXShbQ0gyXTMpW0NIMl1OKFtDSDNdKVtDSDNd

> <s_epik_cmdline>
J2VwaWtfcHl0aG9uJywgJy1waCcsICc3LjAnLCAnLXRuJywgJzgnLCAnLW1hJywgJzIwMCcsICctbWV0YWxfYmluZGluZycsICctaW1hZScsICc8aW5maWxlLm1hZT4nLCAnLW9tYWUnLCAnPG91dGZpbGUubWFlPic=

> <r_epik_Ionization_Penalty>
2.78613

> <r_epik_Ionization_Penalty_Charging>
0

> <r_epik_Ionization_Penalty_Neutral>
2.78613

> <r_epik_State_Penalty>
2.57336

> <r_epik_Charging_Adjusted_Penalty>
2.57336

> <i_epik_Tot_Q>
0

> <i_epik_Tot_abs_Q>
0

> <r_epik_Metal_State_Penalty>
2.49087

> <b_epik_Metal_Only>
0

> <s_lp_Force_Field>
OPLS_2005

> <r_lp_Energy>
41.5619

> <b_lp_Chiralities_Consistent>
1

> <s_lp_Variant>
AV-unprocessed.smi:1005-25

> <Gold.Version>
5.8.1

> <Gold.Id.Protein>
6NUR|6NUR_protein|mol2

> <Gold.PLP.Fitness>
52.8520

> <Gold.PLP.PLP>
-47.1963

> <Gold.PLP.part.hbond>
-3.0000

> <Gold.PLP.part.metal>
0.0000

> <Gold.PLP.part.buried>
-6.4784

> <Gold.PLP.part.nonpolar>
-38.2802

> <Gold.PLP.part.repulsive>
0.3185

> <Gold.PLP.ligand.clash>
0.0000

> <Gold.PLP.ligand.torsion>
0.3246

> <Gold.PLP.Chemscore.Hbond>
2.0000

> <Gold.PLP.Chemscore.CHOScore>
0.0000

> <Gold.PLP.Chemscore.Metal>
0.0000

> <Gold.Chemscore.Hbonds>
donor molecule, donor type, donor heavy atom, donor atom, acceptor molecule, acceptor atom, score
      L1  H    10    34       P1  7957  0.82
      P1  H  7997  8010       L1     5  1.00

> <Gold.PLP.Chemscore.Internal.Correction>
0.3048

> <Gold.Rescore>
     Score         DG    S(hbond)    S(metal)    S(lipo)     H(rot)  DE(clash)    DE(int)     intcor
     16.26     -19.44       1.86        0.00     116.38       2.29       0.63       2.55       ----

> <Gold.Chemscore.Fitness>
16.2563

> <Gold.Chemscore.DG>
-19.4359

> <Gold.Chemscore.ZeroCoef>
-5.4800

> <Gold.Chemscore.Hbond>
1.8565

> <Gold.Chemscore.Metal>
0.0000

> <Gold.Chemscore.Lipo>
116.3774

> <Gold.Chemscore.Internal_Hbond>
0.0000

> <Gold.Chemscore.DEClash>
0.6256

> <Gold.Chemscore.DEInternal>
2.5540

> <Gold.Chemscore.Rot>
2.2895

> <Gold.Chemscore.Internal.Correction>
   9.000000E+99

> <Gold.Chemscore.Hbonds>
donor molecule, donor type, donor heavy atom, donor atom, acceptor molecule, acceptor atom, score
      L1  H    10    34       P1  7957  0.81
      P1  H  7997  8010       L1     5  0.34

> <Gold.Chemscore.Hbond.Weighted>
-6.2009

> <Gold.Chemscore.Metal.Weighted>
-0.0000

> <Gold.Chemscore.Lipo.Weighted>
-13.6162

> <Gold.Chemscore.Internal_Hbond.Weighted>
0.0000

> <Gold.Chemscore.DEClash.Weighted>
0.6256

> <Gold.Chemscore.DEInternal.Weighted>
2.5540

> <Gold.Chemscore.Rot.Weighted>
5.8612

> <Gold.Chemscore.Internal.Correction.Weighted>
   9.000000E+99

> <Gold.Protein.RotatedTorsions>
[ 6907 6896 6895 6894 ] final  133.56 input  -60.11 | X-H torsion
[ 7974 7965 7964 7962 ] final   67.44 input  175.53 | X-H torsion
[ 8008 7997 7996 7995 ] final   64.85 input   59.86 | X-H torsion
[ 10167 10162 10161 10158 ] final  116.51 input  -65.29 | X-H torsion
[ 10718 10713 10712 10709 ] final   29.58 input   66.30 | X-H torsion
[ 10763 10752 10751 10750 ] final  164.43 input  -60.55 | X-H torsion
[ 11005 11000 10999 10996 ] final  -98.85 input  -57.11 | X-H torsion

> <Gold.Protein.ActiveResidues>
 VAL166  LYS551  ARG553  GLY616  TRP617  ASP618  TYR619  PRO620  LYS621  CYS622 
 ASP623  PHE694  ASN695  SER759  ASP760  ASP761  ALA762  ILE779  LEU786  VAL792 
 PHE793  MET794  SER795  GLU796  ALA797  LYS798  CYS799  TRP800  GLU811  SER814 

> <Gold.Protein.RotatedAtoms>
  152.3207  133.5850  159.5742 H   0  0  0  0  0  0  0  0  0  0  0  0  # atno 6907 bound_to 6896
  150.7370  134.0016  159.3649 H   0  0  0  0  0  0  0  0  0  0  0  0  # atno 6908 bound_to 6896
  151.7901  135.0739  160.0437 H   0  0  0  0  0  0  0  0  0  0  0  0  # atno 6909 bound_to 6896
  145.8147  139.3051  143.1079 H   0  0  0  0  0  0  0  0  0  0  0  0  # atno 7974 bound_to 7965
  155.6525  140.3497  155.4753 H   0  0  0  0  0  0  0  0  0  0  0  0  # atno 8008 bound_to 7997
  155.9836  140.1179  157.0727 H   0  0  0  0  0  0  0  0  0  0  0  0  # atno 8009 bound_to 7997
  154.4198  140.1133  156.5455 H   0  0  0  0  0  0  0  0  0  0  0  0  # atno 8010 bound_to 7997
  139.6242  144.7106  151.2569 H   0  0  0  0  0  0  0  0  0  0  0  0  # atno 10167 bound_to 10162
  157.2485  130.7103  149.6393 H   0  0  0  0  0  0  0  0  0  0  0  0  # atno 10718 bound_to 10713
  154.3089  135.2757  155.2576 H   0  0  0  0  0  0  0  0  0  0  0  0  # atno 10763 bound_to 10752
  154.4980  135.5816  153.6512 H   0  0  0  0  0  0  0  0  0  0  0  0  # atno 10764 bound_to 10752
  152.9890  135.6151  154.3264 H   0  0  0  0  0  0  0  0  0  0  0  0  # atno 10765 bound_to 10752
  141.1330  133.8276  157.0893 H   0  0  0  0  0  0  0  0  0  0  0  0  # atno 11005 bound_to 11000
  145.9740  140.8737  143.0148 LP  0  0  0  0  0  0  0  0  0  0  0  0  # atno 17320 bound_to 7965
  144.6754  140.1986  143.7389 LP  0  0  0  0  0  0  0  0  0  0  0  0  # atno 17321 bound_to 7965
  140.7401  143.6599  150.8174 LP  0  0  0  0  0  0  0  0  0  0  0  0  # atno 17342 bound_to 10162
  140.0214  143.5538  152.2799 LP  0  0  0  0  0  0  0  0  0  0  0  0  # atno 17343 bound_to 10162
  155.9667  130.4435  150.5425 LP  0  0  0  0  0  0  0  0  0  0  0  0  # atno 17370 bound_to 10713
  157.3303  131.0698  151.1865 LP  0  0  0  0  0  0  0  0  0  0  0  0  # atno 17371 bound_to 10713
  140.0402  134.9858  157.0947 LP  0  0  0  0  0  0  0  0  0  0  0  0  # atno 17394 bound_to 11000
  140.4147  134.1944  155.7163 LP  0  0  0  0  0  0  0  0  0  0  0  0  # atno 17395 bound_to 11000

$$$$
