AV-unprocessed.smi:1247|AV-procd|sdf|5244|dock2
  -GOLD-   22720 4353D 1   1.00000     0.00000
 Structure written by MMmdl.
 46 47  0  0  0  0  0  0  0  0  1 V2000
  143.6064  132.5213  149.7308 C   0  0  0  0  0  0  0  0  0  0  0  0
  144.7488  132.6762  150.6910 C   0  0  0  0  0  0  0  0  0  0  0  0
  145.4923  133.8554  150.9877 C   0  0  0  0  0  0  0  0  0  0  0  0
  146.3941  133.4164  151.9183 C   0  0  0  0  0  0  0  0  0  0  0  0
  147.3608  134.1167  152.5691 N   0  0  0  0  0  0  0  0  0  0  0  0
  147.7181  134.0510  153.8636 C   0  0  0  0  0  0  0  0  0  0  0  0
  147.1911  133.3339  154.7146 O   0  0  0  0  0  0  0  0  0  0  0  0
  148.7358  134.8828  154.1270 N   0  0  0  0  0  0  0  0  0  0  0  0
  149.3586  135.0547  155.4338 C   0  0  0  0  0  0  0  0  0  0  0  0
  150.7311  135.7425  155.3124 C   0  0  0  0  0  0  0  0  0  0  0  0
  150.7135  137.1916  155.5045 N   0  0  0  0  0  0  0  0  0  0  0  0
  151.9832  137.8221  155.1491 C   0  0  0  0  0  0  0  0  0  0  0  0
  151.9563  139.3548  155.3176 C   0  0  2  0  0  0  0  0  0  0  0  0
  152.0017  139.8069  156.7874 C   0  0  0  0  0  0  0  0  0  0  0  0
  150.8370  139.9118  154.6266 O   0  0  0  0  0  0  0  0  0  0  0  0
  149.5749  139.3289  154.9455 C   0  0  1  0  0  0  0  0  0  0  0  0
  148.5093  139.9882  154.0636 C   0  0  0  0  0  0  0  0  0  0  0  0
  149.6455  137.8068  154.7269 C   0  0  0  0  0  0  0  0  0  0  0  0
  146.1816  132.0750  152.1457 N   0  0  0  0  0  0  0  0  0  0  0  0
  146.8765  131.1715  153.0421 C   0  0  0  0  0  0  0  0  0  0  0  0
  145.1648  131.6206  151.3820 N   0  0  0  0  0  0  0  0  0  0  0  0
  143.3309  133.4789  149.2884 H   0  0  0  0  0  0  0  0  0  0  0  0
  142.7236  132.1219  150.2307 H   0  0  0  0  0  0  0  0  0  0  0  0
  143.8666  131.8430  148.9179 H   0  0  0  0  0  0  0  0  0  0  0  0
  145.3664  134.8458  150.5772 H   0  0  0  0  0  0  0  0  0  0  0  0
  147.8741  134.7726  151.9989 H   0  0  0  0  0  0  0  0  0  0  0  0
  149.1081  135.4368  153.3697 H   0  0  0  0  0  0  0  0  0  0  0  0
  148.7016  135.6246  156.0935 H   0  0  0  0  0  0  0  0  0  0  0  0
  149.4595  134.0636  155.8750 H   0  0  0  0  0  0  0  0  0  0  0  0
  151.4320  135.2863  156.0130 H   0  0  0  0  0  0  0  0  0  0  0  0
  151.1235  135.5305  154.3169 H   0  0  0  0  0  0  0  0  0  0  0  0
  152.7945  137.4176  155.7534 H   0  0  0  0  0  0  0  0  0  0  0  0
  152.2251  137.5867  154.1116 H   0  0  0  0  0  0  0  0  0  0  0  0
  152.8458  139.7596  154.8341 H   0  0  0  0  0  0  0  0  0  0  0  0
  152.9190  139.4673  157.2685 H   0  0  0  0  0  0  0  0  0  0  0  0
  151.1666  139.4107  157.3648 H   0  0  0  0  0  0  0  0  0  0  0  0
  151.9732  140.8941  156.8610 H   0  0  0  0  0  0  0  0  0  0  0  0
  149.3327  139.5362  155.9882 H   0  0  0  0  0  0  0  0  0  0  0  0
  147.5193  139.5841  154.2766 H   0  0  0  0  0  0  0  0  0  0  0  0
  148.7175  139.8266  153.0056 H   0  0  0  0  0  0  0  0  0  0  0  0
  148.4727  141.0642  154.2353 H   0  0  0  0  0  0  0  0  0  0  0  0
  149.7941  137.5970  153.6663 H   0  0  0  0  0  0  0  0  0  0  0  0
  148.6879  137.3617  155.0001 H   0  0  0  0  0  0  0  0  0  0  0  0
  146.8205  131.5525  154.0620 H   0  0  0  0  0  0  0  0  0  0  0  0
  147.9231  131.0958  152.7457 H   0  0  0  0  0  0  0  0  0  0  0  0
  146.4272  130.1779  153.0115 H   0  0  0  0  0  0  0  0  0  0  0  0
  1  2  1  0  0  0  0
  1 22  1  0  0  0  0
  1 23  1  0  0  0  0
  1 24  1  0  0  0  0
  2 21  2  0  0  0  0
  2  3  1  0  0  0  0
  3  4  2  0  0  0  0
  3 25  1  0  0  0  0
  4  5  1  0  0  0  0
  4 19  1  0  0  0  0
  5  6  1  0  0  0  0
  5 26  1  0  0  0  0
  6  7  2  0  0  0  0
  6  8  1  0  0  0  0
  8  9  1  0  0  0  0
  8 27  1  0  0  0  0
  9 10  1  0  0  0  0
  9 28  1  0  0  0  0
  9 29  1  0  0  0  0
 10 11  1  0  0  0  0
 10 30  1  0  0  0  0
 10 31  1  0  0  0  0
 11 18  1  0  0  0  0
 11 12  1  0  0  0  0
 12 13  1  0  0  0  0
 12 32  1  0  0  0  0
 12 33  1  0  0  0  0
 13 14  1  0  0  0  0
 13 15  1  0  0  0  0
 13 34  1  0  0  0  0
 14 35  1  0  0  0  0
 14 36  1  0  0  0  0
 14 37  1  0  0  0  0
 15 16  1  0  0  0  0
 16 17  1  0  0  0  0
 16 18  1  0  0  0  0
 16 38  1  0  0  0  0
 17 39  1  0  0  0  0
 17 40  1  0  0  0  0
 17 41  1  0  0  0  0
 18 42  1  0  0  0  0
 18 43  1  0  0  0  0
 19 20  1  0  0  0  0
 19 21  1  0  0  0  0
 20 44  1  0  0  0  0
 20 45  1  0  0  0  0
 20 46  1  0  0  0  0
M  END
> <s_m_source_file>
AV-unprocessed.smi

> <i_m_source_file_index>
1247

> <i_lp_mmshare_version>
43012

> <i_f3d_flags>
0

> <s_epik_input>
W0NIM11jMVtjSF1jKG4objEpW0NIM10pW05IXUMoPU8pW05IXVtDSDJdW0NIMl1OMltDSDJdW0NAQEhdKFtDSDNdKU9bQ0BASF0oW0NIM10pW0NIMl0y

> <s_epik_cmdline>
J2VwaWtfcHl0aG9uJywgJy1waCcsICc3LjAnLCAnLXRuJywgJzgnLCAnLW1hJywgJzIwMCcsICctbWV0YWxfYmluZGluZycsICctaW1hZScsICc8aW5maWxlLm1hZT4nLCAnLW9tYWUnLCAnPG91dGZpbGUubWFlPic=

> <r_lp_tautomer_probability>
1

> <r_epik_Ionization_Penalty>
0.233972

> <r_epik_Ionization_Penalty_Charging>
0

> <r_epik_Ionization_Penalty_Neutral>
0.233972

> <r_epik_State_Penalty>
0.224627

> <r_epik_Charging_Adjusted_Penalty>
0.224627

> <i_epik_Tot_Q>
0

> <i_epik_Tot_abs_Q>
0

> <r_epik_Metal_State_Penalty>
0.224624

> <b_epik_Metal_Only>
0

> <s_lp_Force_Field>
OPLS_2005

> <r_lp_Energy>
23.1298

> <b_lp_Chiralities_Consistent>
1

> <s_lp_Variant>
AV-unprocessed.smi:1247-2

> <Gold.Version>
5.8.1

> <Gold.Id.Protein>
6NUR|6NUR_protein|mol2

> <Gold.PLP.Fitness>
41.6972

> <Gold.PLP.PLP>
-34.1156

> <Gold.PLP.part.hbond>
-3.0000

> <Gold.PLP.part.metal>
0.0000

> <Gold.PLP.part.buried>
-2.9897

> <Gold.PLP.part.nonpolar>
-28.0407

> <Gold.PLP.part.repulsive>
0.3242

> <Gold.PLP.ligand.clash>
0.0000

> <Gold.PLP.ligand.torsion>
0.7414

> <Gold.PLP.Chemscore.Hbond>
3.0000

> <Gold.PLP.Chemscore.CHOScore>
0.0000

> <Gold.PLP.Chemscore.Metal>
0.0000

> <Gold.Chemscore.Hbonds>
donor molecule, donor type, donor heavy atom, donor atom, acceptor molecule, acceptor atom, score
      L1  H     5    26       P1  7948  1.00
      L1  H     8    27       P1  7948  1.00
      P1  H  7989  7998       L1    15  1.00

> <Gold.PLP.Chemscore.Internal.Correction>
0.0644

> <Gold.Rescore>
     Score         DG    S(hbond)    S(metal)    S(lipo)     H(rot)  DE(clash)    DE(int)     intcor
     15.87     -18.08       2.39        0.00      71.90       1.48       0.27       1.94       ----

> <Gold.Chemscore.Fitness>
15.8693

> <Gold.Chemscore.DG>
-18.0802

> <Gold.Chemscore.ZeroCoef>
-5.4800

> <Gold.Chemscore.Hbond>
2.3910

> <Gold.Chemscore.Metal>
0.0000

> <Gold.Chemscore.Lipo>
71.9041

> <Gold.Chemscore.Internal_Hbond>
0.0000

> <Gold.Chemscore.DEClash>
0.2674

> <Gold.Chemscore.DEInternal>
1.9435

> <Gold.Chemscore.Rot>
1.4838

> <Gold.Chemscore.Internal.Correction>
   9.000000E+99

> <Gold.Chemscore.Hbonds>
donor molecule, donor type, donor heavy atom, donor atom, acceptor molecule, acceptor atom, score
      L1  H     5    26       P1  7948  0.43
      L1  H     8    27       P1  7948  0.48
      P1  H  7989  7998       L1    15  0.26

> <Gold.Chemscore.Hbond.Weighted>
-7.9859

> <Gold.Chemscore.Metal.Weighted>
-0.0000

> <Gold.Chemscore.Lipo.Weighted>
-8.4128

> <Gold.Chemscore.Internal_Hbond.Weighted>
0.0000

> <Gold.Chemscore.DEClash.Weighted>
0.2674

> <Gold.Chemscore.DEInternal.Weighted>
1.9435

> <Gold.Chemscore.Rot.Weighted>
3.7985

> <Gold.Chemscore.Internal.Correction.Weighted>
   9.000000E+99

> <Gold.Protein.RotatedTorsions>
[ 6907 6896 6895 6894 ] final  -55.15 input  -60.11 | X-H torsion
[ 7974 7965 7964 7962 ] final  138.10 input  175.53 | X-H torsion
[ 8008 7997 7996 7995 ] final  -43.05 input   59.86 | X-H torsion
[ 10167 10162 10161 10158 ] final -122.71 input  -65.29 | X-H torsion
[ 10718 10713 10712 10709 ] final  -21.42 input   66.30 | X-H torsion
[ 10763 10752 10751 10750 ] final -115.06 input  -60.55 | X-H torsion
[ 11005 11000 10999 10996 ] final  123.55 input  -57.11 | X-H torsion

> <Gold.Protein.ActiveResidues>
 VAL166  LYS551  ARG553  GLY616  TRP617  ASP618  TYR619  PRO620  LYS621  CYS622 
 ASP623  PHE694  ASN695  SER759  ASP760  ASP761  ALA762  ILE779  LEU786  VAL792 
 PHE793  MET794  SER795  GLU796  ALA797  LYS798  CYS799  TRP800  GLU811  SER814 

> <Gold.Protein.RotatedAtoms>
  150.8276  134.7514  159.6825 H   0  0  0  0  0  0  0  0  0  0  0  0  # atno 6907 bound_to 6896
  152.4385  134.5635  159.9911 H   0  0  0  0  0  0  0  0  0  0  0  0  # atno 6908 bound_to 6896
  151.5804  133.3341  159.3043 H   0  0  0  0  0  0  0  0  0  0  0  0  # atno 6909 bound_to 6896
  144.9404  139.4937  143.5574 H   0  0  0  0  0  0  0  0  0  0  0  0  # atno 7974 bound_to 7965
  154.3997  140.1458  156.3455 H   0  0  0  0  0  0  0  0  0  0  0  0  # atno 8008 bound_to 7997
  155.8317  140.3465  155.5555 H   0  0  0  0  0  0  0  0  0  0  0  0  # atno 8009 bound_to 7997
  155.8181  140.0894  157.1855 H   0  0  0  0  0  0  0  0  0  0  0  0  # atno 8010 bound_to 7997
  140.0113  143.5439  152.2262 H   0  0  0  0  0  0  0  0  0  0  0  0  # atno 10167 bound_to 10162
  156.5183  130.4626  149.6610 H   0  0  0  0  0  0  0  0  0  0  0  0  # atno 10718 bound_to 10713
  154.8466  135.4395  154.1603 H   0  0  0  0  0  0  0  0  0  0  0  0  # atno 10763 bound_to 10752
  153.2742  135.6948  153.7456 H   0  0  0  0  0  0  0  0  0  0  0  0  # atno 10764 bound_to 10752
  153.6685  135.3423  155.3122 H   0  0  0  0  0  0  0  0  0  0  0  0  # atno 10765 bound_to 10752
  139.9318  134.9641  156.8277 H   0  0  0  0  0  0  0  0  0  0  0  0  # atno 11005 bound_to 11000
  146.3283  139.8419  142.8889 LP  0  0  0  0  0  0  0  0  0  0  0  0  # atno 17320 bound_to 7965
  145.3000  141.0191  143.3614 LP  0  0  0  0  0  0  0  0  0  0  0  0  # atno 17321 bound_to 7965
  139.6203  144.7627  151.2755 LP  0  0  0  0  0  0  0  0  0  0  0  0  # atno 17342 bound_to 10162
  140.7380  143.6661  150.8122 LP  0  0  0  0  0  0  0  0  0  0  0  0  # atno 17343 bound_to 10162
  156.3173  130.7262  151.2167 LP  0  0  0  0  0  0  0  0  0  0  0  0  # atno 17370 bound_to 10713
  157.7440  131.0465  150.4896 LP  0  0  0  0  0  0  0  0  0  0  0  0  # atno 17371 bound_to 10713
  140.6182  134.0019  155.7606 LP  0  0  0  0  0  0  0  0  0  0  0  0  # atno 17394 bound_to 11000
  141.0910  133.9916  157.3236 LP  0  0  0  0  0  0  0  0  0  0  0  0  # atno 17395 bound_to 11000

$$$$
