#       Name:                AV-unprocessed.smi:2962
#       Creating user name   scv26
#       Creation time:       Fri Mar 27 16:22:03 2020


#       File generated by GOLD software.
#

@<TRIPOS>MOLECULE
AV-unprocessed.smi:2962
    41    42     1
SMALL
NO_CHARGES


@<TRIPOS>ATOM
      1 ****        -2.5897   3.2701   0.1708 C.3            1 S1                 0.0000
      2 ****        -1.9026   2.0344   0.2529 O.3            1 S1                 0.0000
      3 ****        -2.0971   1.2257  -0.8957 C.3            1 S1                 0.0000
      4 ****        -1.3194  -0.0884  -0.7429 C.3            1 S1                 0.0000
      5 ****         0.1074   0.1401  -0.5635 N.pl3          1 S1                 0.0000
      6 ****         0.8140   0.2019   0.5930 C.2            1 S1                 0.0000
      7 ****         0.0634  -0.0082   2.1731 S.3            1 S1                 0.0000
      8 ****         0.0623  -1.8262   2.2330 C.3            1 S1                 0.0000
      9 ****         1.4709  -2.3799   2.5156 C.3            1 S1                 0.0000
     10 ****        -0.9783  -2.3382   3.2362 C.2            1 S1                 0.0000
     11 ****        -2.2533  -2.3301   2.8376 N.am           1 S1                 0.0000
     12 ****        -0.6480  -2.7350   4.3527 O.2            1 S1                 0.0000
     13 ****         2.1181   0.4434   0.4618 N.2            1 S1                 0.0000
     14 ****         2.2744   0.5414  -0.9066 C.ar           1 S1                 0.0000
     15 ****         3.4287   0.7861  -1.6844 C.ar           1 S1                 0.0000
     16 ****         3.3418   0.8468  -3.0907 C.ar           1 S1                 0.0000
     17 ****         2.1024   0.6649  -3.7379 C.ar           1 S1                 0.0000
     18 ****         0.9402   0.4195  -2.9816 C.ar           1 S1                 0.0000
     19 ****         1.0332   0.3577  -1.5783 C.ar           1 S1                 0.0000
     20 ****        -2.4029   3.8532   1.0726 H              1 S1                 0.0000
     21 ****        -3.6663   3.1173   0.0852 H              1 S1                 0.0000
     22 ****        -2.2494   3.8549  -0.6847 H              1 S1                 0.0000
     23 ****        -3.1588   1.0119  -1.0260 H              1 S1                 0.0000
     24 ****        -1.7597   1.7567  -1.7873 H              1 S1                 0.0000
     25 ****        -1.7112  -0.6617   0.0962 H              1 S1                 0.0000
     26 ****        -1.4607  -0.7101  -1.6275 H              1 S1                 0.0000
     27 ****        -0.2433  -2.1906   1.2515 H              1 S1                 0.0000
     28 ****         1.4587  -3.4657   2.6193 H              1 S1                 0.0000
     29 ****         1.8877  -1.9614   3.4326 H              1 S1                 0.0000
     30 ****         2.1577  -2.1436   1.7032 H              1 S1                 0.0000
     31 ****        -2.9775  -2.6656   3.4556 H              1 S1                 0.0000
     32 ****        -2.4859  -1.9963   1.9136 H              1 S1                 0.0000
     33 ****         4.3822   0.9282  -1.1976 H              1 S1                 0.0000
     34 ****         4.2301   1.0353  -3.6758 H              1 S1                 0.0000
     35 ****         2.0444   0.7145  -4.8154 H              1 S1                 0.0000
     36 ****        -0.0108   0.2806  -3.4737 H              1 S1                 0.0000
     37 ****        -2.2330   1.5367   1.0549 LP             1 S1                 0.0000
     38 ****        -0.9247   2.2176   0.3539 LP             1 S1                 0.0000
     39 ****         0.3153  -2.7277   4.6212 LP             1 S1                 0.0000
     40 ****        -1.3427  -3.0649   4.9919 LP             1 S1                 0.0000
     41 ****         2.8115   0.5317   1.1770 LP             1 S1                 0.0000
@<TRIPOS>BOND
    1    1    2 1     
    2    1   20 1     
    3    1   21 1     
    4    1   22 1     
    5    2    3 1     
    6    3    4 1     
    7    3   23 1     
    8    3   24 1     
    9    4    5 1     
   10    4   25 1     
   11    4   26 1     
   12    5   19 1     
   13    5    6 1     
   14    6    7 1     
   15    6   13 2     
   16    7    8 1     
   17    8    9 1     
   18    8   10 1     
   19    8   27 1     
   20    9   28 1     
   21    9   29 1     
   22    9   30 1     
   23   10   11 am    
   24   10   12 2     
   25   11   31 1     
   26   11   32 1     
   27   13   14 1     
   28   14   19 ar    
   29   14   15 ar    
   30   15   16 ar    
   31   15   33 1     
   32   16   17 ar    
   33   16   34 1     
   34   17   18 ar    
   35   17   35 1     
   36   18   19 ar    
   37   18   36 1     
   38    2   37 1     
   39    2   38 1     
   40   12   39 1     
   41   12   40 1     
   42   13   41 1     
@<TRIPOS>SUBSTRUCTURE
      1 S1             1
@<TRIPOS>SET
LONE_PAIRS      STATIC     ATOMS    <user>   **** ""
5 37 38 39 40 41
DONOR_HYDROGENS      STATIC     ATOMS    <user>   **** ""
2 31 32
ATOM$BLUE        STATIC     ATOMS    COLORGROUP SYSTEM
5 37 38 39 40 41
ATOM$RED        STATIC     ATOMS    COLORGROUP SYSTEM
2 31 32
