AV-unprocessed.smi:11|AV-procd|sdf|59|dock1
  -GOLD-   2262015173D 1   1.00000     0.00000
 Structure written by MMmdl.
 33 35  0  0  0  0  0  0  0  0  1 V2000
  146.4023  139.6303  155.8550 C   0  0  0  0  0  0  0  0  0  0  0  0
  146.3561  138.8323  154.5408 C   0  0  0  0  0  0  0  0  0  0  0  0
  147.3283  139.3192  153.4373 C   0  0  1  0  0  0  0  0  0  0  0  0
  147.1188  138.5426  152.2737 O   0  0  0  0  0  0  0  0  0  0  0  0
  147.1153  140.8035  153.1124 C   0  0  0  0  0  0  0  0  0  0  0  0
  148.0026  141.5138  154.1316 C   0  0  0  0  0  0  0  0  0  0  0  0
  149.1408  140.6244  154.3225 N   0  0  0  0  0  0  0  0  0  0  0  0
  150.0184  140.8095  155.4123 C   0  0  0  0  0  0  0  0  0  0  0  0
  149.7903  141.8523  156.2515 N   0  0  0  0  0  0  0  0  0  0  0  0
  150.6351  142.0194  157.3002 C   0  0  0  0  0  0  0  0  0  0  0  0
  151.7130  141.2669  157.6302 N   0  0  0  0  0  0  0  0  0  0  0  0
  151.9729  140.2211  156.7911 C   0  0  0  0  0  0  0  0  0  0  0  0
  152.9673  139.3429  156.8690 N   0  0  0  0  0  0  0  0  0  0  0  0
  152.8249  138.5186  155.8178 C   0  0  0  0  0  0  0  0  0  0  0  0
  151.6873  138.8448  154.9847 C   0  0  0  0  0  0  0  0  0  0  0  0
  151.1400  139.9724  155.6725 C   0  0  0  0  0  0  0  0  0  0  0  0
  148.8085  139.2810  153.8634 C   0  0  0  0  0  0  0  0  0  0  0  0
  145.7111  139.2051  156.5826 H   0  0  0  0  0  0  0  0  0  0  0  0
  146.1196  140.6724  155.7110 H   0  0  0  0  0  0  0  0  0  0  0  0
  147.3967  139.6103  156.3012 H   0  0  0  0  0  0  0  0  0  0  0  0
  146.5712  137.7876  154.7692 H   0  0  0  0  0  0  0  0  0  0  0  0
  145.3333  138.8483  154.1622 H   0  0  0  0  0  0  0  0  0  0  0  0
  147.7761  137.8643  152.2442 H   0  0  0  0  0  0  0  0  0  0  0  0
  147.4787  141.0289  152.1083 H   0  0  0  0  0  0  0  0  0  0  0  0
  146.0724  141.1185  153.1642 H   0  0  0  0  0  0  0  0  0  0  0  0
  148.3180  142.4957  153.7781 H   0  0  0  0  0  0  0  0  0  0  0  0
  147.4628  141.6442  155.0705 H   0  0  0  0  0  0  0  0  0  0  0  0
  150.4223  142.8547  157.9508 H   0  0  0  0  0  0  0  0  0  0  0  0
  153.5192  137.7057  155.6447 H   0  0  0  0  0  0  0  0  0  0  0  0
  151.3526  138.3546  154.0799 H   0  0  0  0  0  0  0  0  0  0  0  0
  148.9979  138.5277  154.6270 H   0  0  0  0  0  0  0  0  0  0  0  0
  149.4460  139.0562  153.0074 H   0  0  0  0  0  0  0  0  0  0  0  0
  152.2588  141.5092  158.4448 H   0  0  0  0  0  0  0  0  0  0  0  0
  1  2  1  0  0  0  0
  1 18  1  0  0  0  0
  1 19  1  0  0  0  0
  1 20  1  0  0  0  0
  2  3  1  0  0  0  0
  2 21  1  0  0  0  0
  2 22  1  0  0  0  0
  3 17  1  0  0  0  0
  3  4  1  0  0  0  0
  3  5  1  0  0  0  0
  4 23  1  0  0  0  0
  5  6  1  0  0  0  0
  5 24  1  0  0  0  0
  5 25  1  0  0  0  0
  6  7  1  0  0  0  0
  6 26  1  0  0  0  0
  6 27  1  0  0  0  0
  7  8  1  0  0  0  0
  7 17  1  0  0  0  0
  8 16  2  0  0  0  0
  8  9  1  0  0  0  0
  9 10  2  0  0  0  0
 10 11  1  0  0  0  0
 10 28  1  0  0  0  0
 11 12  1  0  0  0  0
 11 33  1  0  0  0  0
 12 16  1  0  0  0  0
 12 13  2  0  0  0  0
 13 14  1  0  0  0  0
 14 15  2  0  0  0  0
 14 29  1  0  0  0  0
 15 16  1  0  0  0  0
 15 30  1  0  0  0  0
 17 31  1  0  0  0  0
 17 32  1  0  0  0  0
M  END
> <s_m_source_file>
AV-unprocessed.smi

> <i_m_source_file_index>
11

> <i_lp_mmshare_version>
43012

> <i_f3d_flags>
0

> <s_epik_input>
W0NIM11bQ0gyXVtDQEBdMShbT0hdKVtDSDJdW0NIMl1OKFtDSDJdMSljKG5bY0hdbjIpYyhjMjMpW2NIXVtjSF1bbkhdMw==

> <s_epik_cmdline>
J2VwaWtfcHl0aG9uJywgJy1waCcsICc3LjAnLCAnLXRuJywgJzgnLCAnLW1hJywgJzIwMCcsICctbWV0YWxfYmluZGluZycsICctaW1hZScsICc8aW5maWxlLm1hZT4nLCAnLW9tYWUnLCAnPG91dGZpbGUubWFlPic=

> <r_lp_tautomer_probability>
1.75997e-05

> <r_epik_Ionization_Penalty>
5.31594

> <r_epik_Ionization_Penalty_Charging>
0

> <r_epik_Ionization_Penalty_Neutral>
5.31594

> <r_epik_State_Penalty>
7.79803

> <r_epik_Charging_Adjusted_Penalty>
7.79803

> <i_epik_Tot_Q>
0

> <i_epik_Tot_abs_Q>
0

> <r_epik_Metal_State_Penalty>
4.83511

> <b_epik_Metal_Only>
1

> <s_lp_Force_Field>
OPLS_2005

> <r_lp_Energy>
41.5281

> <b_lp_Chiralities_Consistent>
1

> <s_lp_Variant>
AV-unprocessed.smi:11-5

> <Gold.Version>
5.8.1

> <Gold.Id.Protein>
6NUR|6NUR_protein|mol2

> <Gold.PLP.Fitness>
35.6614

> <Gold.PLP.PLP>
-29.8845

> <Gold.PLP.part.hbond>
-2.9243

> <Gold.PLP.part.metal>
0.0000

> <Gold.PLP.part.buried>
-1.5486

> <Gold.PLP.part.nonpolar>
-27.1152

> <Gold.PLP.part.repulsive>
0.6210

> <Gold.PLP.ligand.clash>
0.0000

> <Gold.PLP.ligand.torsion>
0.2550

> <Gold.PLP.Chemscore.Hbond>
1.9913

> <Gold.PLP.Chemscore.CHOScore>
0.0000

> <Gold.PLP.Chemscore.Metal>
0.0000

> <Gold.Chemscore.Hbonds>
donor molecule, donor type, donor heavy atom, donor atom, acceptor molecule, acceptor atom, score
      L1  H     4    23       P1  7948  1.00
      P1  H  7997  8008       L1    13  1.00

> <Gold.PLP.Chemscore.Internal.Correction>
0.3132

> <Gold.Rescore>
     Score         DG    S(hbond)    S(metal)    S(lipo)     H(rot)  DE(clash)    DE(int)     intcor
     12.76     -13.78       1.78        0.00      51.45       1.43       0.08       0.93       ----

> <Gold.Chemscore.Fitness>
12.7619

> <Gold.Chemscore.DG>
-13.7750

> <Gold.Chemscore.ZeroCoef>
-5.4800

> <Gold.Chemscore.Hbond>
1.7759

> <Gold.Chemscore.Metal>
0.0000

> <Gold.Chemscore.Lipo>
51.4537

> <Gold.Chemscore.Internal_Hbond>
0.0000

> <Gold.Chemscore.DEClash>
0.0832

> <Gold.Chemscore.DEInternal>
0.9299

> <Gold.Chemscore.Rot>
1.4283

> <Gold.Chemscore.Internal.Correction>
   9.000000E+99

> <Gold.Chemscore.Hbonds>
donor molecule, donor type, donor heavy atom, donor atom, acceptor molecule, acceptor atom, score
      L1  H     4    23       P1  7948  0.93
      P1  H  7997  8008       L1    13  0.33

> <Gold.Chemscore.Hbond.Weighted>
-5.9315

> <Gold.Chemscore.Metal.Weighted>
-0.0000

> <Gold.Chemscore.Lipo.Weighted>
-6.0201

> <Gold.Chemscore.Internal_Hbond.Weighted>
0.0000

> <Gold.Chemscore.DEClash.Weighted>
0.0832

> <Gold.Chemscore.DEInternal.Weighted>
0.9299

> <Gold.Chemscore.Rot.Weighted>
3.6566

> <Gold.Chemscore.Internal.Correction.Weighted>
   9.000000E+99

> <Gold.Protein.RotatedTorsions>
[ 6907 6896 6895 6894 ] final  120.11 input  -60.11 | X-H torsion
[ 7974 7965 7964 7962 ] final  -49.42 input  175.53 | X-H torsion
[ 8008 7997 7996 7995 ] final  -57.58 input   59.86 | X-H torsion
[ 10167 10162 10161 10158 ] final  -11.41 input  -65.29 | X-H torsion
[ 10718 10713 10712 10709 ] final  134.36 input   66.30 | X-H torsion
[ 10763 10752 10751 10750 ] final   94.65 input  -60.55 | X-H torsion
[ 11005 11000 10999 10996 ] final -132.40 input  -57.11 | X-H torsion

> <Gold.Protein.ActiveResidues>
 VAL166  LYS551  ARG553  GLY616  TRP617  ASP618  TYR619  PRO620  LYS621  CYS622 
 ASP623  PHE694  ASN695  SER759  ASP760  ASP761  ALA762  ILE779  LEU786  VAL792 
 PHE793  MET794  SER795  GLU796  ALA797  LYS798  CYS799  TRP800  GLU811  SER814 

> <Gold.Protein.RotatedAtoms>
  152.4422  133.7469  159.6672 H   0  0  0  0  0  0  0  0  0  0  0  0  # atno 6907 bound_to 6896
  150.8315  133.8073  159.3103 H   0  0  0  0  0  0  0  0  0  0  0  0  # atno 6908 bound_to 6896
  151.5725  135.1064  160.0050 H   0  0  0  0  0  0  0  0  0  0  0  0  # atno 6909 bound_to 6896
  145.9408  140.7664  142.9553 H   0  0  0  0  0  0  0  0  0  0  0  0  # atno 7974 bound_to 7965
  154.4273  140.1103  156.5819 H   0  0  0  0  0  0  0  0  0  0  0  0  # atno 8008 bound_to 7997
  155.6103  140.3494  155.4601 H   0  0  0  0  0  0  0  0  0  0  0  0  # atno 8009 bound_to 7997
  156.0104  140.1218  157.0448 H   0  0  0  0  0  0  0  0  0  0  0  0  # atno 8010 bound_to 7997
  140.7138  143.5643  150.9162 H   0  0  0  0  0  0  0  0  0  0  0  0  # atno 10167 bound_to 10162
  157.4680  131.1078  150.9838 H   0  0  0  0  0  0  0  0  0  0  0  0  # atno 10718 bound_to 10713
  153.2441  135.4282  155.0729 H   0  0  0  0  0  0  0  0  0  0  0  0  # atno 10763 bound_to 10752
  154.8353  135.3410  154.6607 H   0  0  0  0  0  0  0  0  0  0  0  0  # atno 10764 bound_to 10752
  153.7030  135.7027  153.5114 H   0  0  0  0  0  0  0  0  0  0  0  0  # atno 10765 bound_to 10752
  140.9173  134.1490  157.4342 H   0  0  0  0  0  0  0  0  0  0  0  0  # atno 11005 bound_to 11000
  144.6779  140.2277  143.7359 LP  0  0  0  0  0  0  0  0  0  0  0  0  # atno 17320 bound_to 7965
  145.8302  139.2083  143.1887 LP  0  0  0  0  0  0  0  0  0  0  0  0  # atno 17321 bound_to 7965
  139.9368  143.6428  152.3063 LP  0  0  0  0  0  0  0  0  0  0  0  0  # atno 17342 bound_to 10162
  139.6899  144.7648  151.1458 LP  0  0  0  0  0  0  0  0  0  0  0  0  # atno 17343 bound_to 10162
  157.0612  130.5826  149.5386 LP  0  0  0  0  0  0  0  0  0  0  0  0  # atno 17370 bound_to 10713
  156.0060  130.5146  150.7830 LP  0  0  0  0  0  0  0  0  0  0  0  0  # atno 17371 bound_to 10713
  139.8768  134.9958  156.5764 LP  0  0  0  0  0  0  0  0  0  0  0  0  # atno 17394 bound_to 11000
  140.8033  133.8488  155.8745 LP  0  0  0  0  0  0  0  0  0  0  0  0  # atno 17395 bound_to 11000

$$$$
