#       Name:                AV-unprocessed.smi:2577
#       Creating user name   scv26
#       Creation time:       Fri Mar 27 14:13:59 2020


#       File generated by GOLD software.
#

@<TRIPOS>MOLECULE
AV-unprocessed.smi:2577
    31    32     1
SMALL
NO_CHARGES


@<TRIPOS>ATOM
      1 ****        -3.6717   2.0227   1.1166 C.3            1 S1                 0.0000
      2 ****        -3.0467   0.6470   0.8474 C.3            1 S1                 0.0000
      3 ****        -1.5079   0.6668   0.8252 C.3            1 S1                 0.0000
      4 ****        -1.0684   1.4301  -0.2824 O.3            1 S1                 0.0000
      5 ****        -0.9159  -0.7535   0.7378 C.3            1 S1                 0.0000
      6 ****         0.5367  -0.7545   0.7495 N.pl3          1 S1                 0.0000
      7 ****         1.1953  -0.6589   1.9390 N.2            1 S1                 0.0000
      8 ****         2.4743  -0.6751   1.7090 N.2            1 S1                 0.0000
      9 ****         2.6626  -0.7820   0.3410 C.ar           1 S1                 0.0000
     10 ****         3.8335  -0.8402  -0.4472 C.ar           1 S1                 0.0000
     11 ****         3.7434  -0.9480  -1.8525 C.ar           1 S1                 0.0000
     12 ****         5.1982  -1.0170  -2.7822 Cl             1 S1                 0.0000
     13 ****         2.4779  -0.9982  -2.4857 C.ar           1 S1                 0.0000
     14 ****         2.3499  -1.1296  -4.2037 Cl             1 S1                 0.0000
     15 ****         1.3018  -0.9408  -1.7117 C.ar           1 S1                 0.0000
     16 ****         1.4136  -0.8354  -0.3150 C.ar           1 S1                 0.0000
     17 ****        -4.7584   1.9511   1.1615 H              1 S1                 0.0000
     18 ****        -3.4201   2.7352   0.3306 H              1 S1                 0.0000
     19 ****        -3.3259   2.4337   2.0655 H              1 S1                 0.0000
     20 ****        -3.3834  -0.0388   1.6257 H              1 S1                 0.0000
     21 ****        -3.4291   0.2483  -0.0933 H              1 S1                 0.0000
     22 ****        -1.1444   1.1485   1.7340 H              1 S1                 0.0000
     23 ****        -0.1248   1.4786  -0.2588 H              1 S1                 0.0000
     24 ****        -1.2668  -1.3610   1.5734 H              1 S1                 0.0000
     25 ****        -1.2560  -1.2528  -0.1705 H              1 S1                 0.0000
     26 ****         4.8018  -0.8010   0.0298 H              1 S1                 0.0000
     27 ****         0.3303  -0.9759  -2.1825 H              1 S1                 0.0000
     28 ****        -1.4546   2.3511  -0.2317 LP             1 S1                 0.0000
     29 ****        -1.3623   0.9918  -1.1318 LP             1 S1                 0.0000
     30 ****         0.7657  -0.5880   2.8392 LP             1 S1                 0.0000
     31 ****         3.1961  -0.6200   2.3989 LP             1 S1                 0.0000
@<TRIPOS>BOND
    1    1    2 1     
    2    1   17 1     
    3    1   18 1     
    4    1   19 1     
    5    2    3 1     
    6    2   20 1     
    7    2   21 1     
    8    3    4 1     
    9    3    5 1     
   10    3   22 1     
   11    4   23 1     
   12    5    6 1     
   13    5   24 1     
   14    5   25 1     
   15    6   16 1     
   16    6    7 1     
   17    7    8 2     
   18    8    9 1     
   19    9   16 ar    
   20    9   10 ar    
   21   10   11 ar    
   22   10   26 1     
   23   11   12 1     
   24   11   13 ar    
   25   13   14 1     
   26   13   15 ar    
   27   15   16 ar    
   28   15   27 1     
   29    4   28 1     
   30    4   29 1     
   31    7   30 1     
   32    8   31 1     
@<TRIPOS>SUBSTRUCTURE
      1 S1             1
@<TRIPOS>SET
LONE_PAIRS      STATIC     ATOMS    <user>   **** ""
4 28 29 30 31
DONOR_HYDROGENS      STATIC     ATOMS    <user>   **** ""
1 23
ATOM$BLUE        STATIC     ATOMS    COLORGROUP SYSTEM
4 28 29 30 31
ATOM$RED        STATIC     ATOMS    COLORGROUP SYSTEM
1 23
