AV-unprocessed.smi:481|AV-procd|sdf|2683|dock5
  -GOLD-   2262023113D 1   1.00000     0.00000
 Structure written by MMmdl.
 42 44  0  0  0  0  0  0  0  0  2 V2000
  148.1103  141.3004  155.0441 C   0  0  0  0  0  0  0  0  0  0  0  0
  148.9376  140.4273  154.2908 O   0  0  0  0  0  0  0  0  0  0  0  0
  148.9777  139.0978  154.7901 C   0  0  0  0  0  0  0  0  0  0  0  0
  149.8603  138.1846  153.9219 C   0  0  0  0  0  0  0  0  0  0  0  0
  150.8326  137.4570  154.7310 N   0  0  0  0  0  0  0  0  0  0  0  0
  150.9650  136.1121  154.8551 C   0  0  0  0  0  0  0  0  0  0  0  0
  150.0938  135.2656  154.1552 N   0  0  0  0  0  0  0  0  0  0  0  0
  150.1714  133.9366  154.2344 N   0  0  0  0  0  0  0  0  0  0  0  0
  149.3092  133.1640  153.6566 C   0  0  0  0  0  0  0  0  0  0  0  0
  148.0714  133.5643  152.9543 C   0  0  0  0  0  0  0  0  0  0  0  0
  147.1533  134.4941  153.4977 C   0  0  0  0  0  0  0  0  0  0  0  0
  145.9871  134.8430  152.7898 C   0  0  0  0  0  0  0  0  0  0  0  0
  145.7208  134.2579  151.5380 C   0  0  0  0  0  0  0  0  0  0  0  0
  146.6189  133.3185  150.9978 C   0  0  0  0  0  0  0  0  0  0  0  0
  147.7855  132.9701  151.7059 C   0  0  0  0  0  0  0  0  0  0  0  0
  151.9568  135.7280  155.6663 N   0  0  0  0  0  0  0  0  0  0  0  0
  152.4949  136.9320  156.0946 C   0  0  0  0  0  0  0  0  0  0  0  0
  151.8298  137.9870  155.5535 C   0  0  0  0  0  0  0  0  0  0  0  0
  152.1573  139.4012  155.8349 C   0  0  0  0  0  0  0  0  0  0  0  0
  151.5075  140.3150  155.3302 O   0  0  0  0  0  0  0  0  0  0  0  0
  153.2208  139.5233  156.6913 N   0  5  0  0  0  0  0  0  0  0  0  0
  153.9277  138.4841  157.2586 C   0  0  0  0  0  0  0  0  0  0  0  0
  154.8730  138.6817  158.0230 O   0  0  0  0  0  0  0  0  0  0  0  0
  153.5813  137.1889  156.9745 N   0  0  0  0  0  0  0  0  0  0  0  0
  154.3148  136.0639  157.5615 C   0  0  0  0  0  0  0  0  0  0  0  0
  148.0738  142.2744  154.5567 H   0  0  0  0  0  0  0  0  0  0  0  0
  148.4924  141.4524  156.0533 H   0  0  0  0  0  0  0  0  0  0  0  0
  147.0894  140.9224  155.1104 H   0  0  0  0  0  0  0  0  0  0  0  0
  149.2987  139.0880  155.8327 H   0  0  0  0  0  0  0  0  0  0  0  0
  147.9566  138.7158  154.7804 H   0  0  0  0  0  0  0  0  0  0  0  0
  149.2385  137.4776  153.3730 H   0  0  0  0  0  0  0  0  0  0  0  0
  150.3957  138.7475  153.1596 H   0  0  0  0  0  0  0  0  0  0  0  0
  149.1920  135.6836  153.9762 H   0  0  0  0  0  0  0  0  0  0  0  0
  149.5191  132.0944  153.6774 H   0  0  0  0  0  0  0  0  0  0  0  0
  147.3326  134.9461  154.4620 H   0  0  0  0  0  0  0  0  0  0  0  0
  145.2958  135.5587  153.2094 H   0  0  0  0  0  0  0  0  0  0  0  0
  144.8268  134.5264  150.9947 H   0  0  0  0  0  0  0  0  0  0  0  0
  146.4144  132.8658  150.0388 H   0  0  0  0  0  0  0  0  0  0  0  0
  148.4673  132.2500  151.2765 H   0  0  0  0  0  0  0  0  0  0  0  0
  154.2391  136.0859  158.6493 H   0  0  0  0  0  0  0  0  0  0  0  0
  155.3706  136.1120  157.2913 H   0  0  0  0  0  0  0  0  0  0  0  0
  153.9388  135.0971  157.2277 H   0  0  0  0  0  0  0  0  0  0  0  0
  1  2  1  0  0  0  0
  1 26  1  0  0  0  0
  1 27  1  0  0  0  0
  1 28  1  0  0  0  0
  2  3  1  0  0  0  0
  3  4  1  0  0  0  0
  3 29  1  0  0  0  0
  3 30  1  0  0  0  0
  4  5  1  0  0  0  0
  4 31  1  0  0  0  0
  4 32  1  0  0  0  0
  5 18  1  0  0  0  0
  5  6  1  0  0  0  0
  6  7  1  0  0  0  0
  6 16  2  0  0  0  0
  7  8  1  0  0  0  0
  7 33  1  0  0  0  0
  8  9  2  0  0  0  0
  9 10  1  0  0  0  0
  9 34  1  0  0  0  0
 10 15  1  0  0  0  0
 10 11  2  0  0  0  0
 11 12  1  0  0  0  0
 11 35  1  0  0  0  0
 12 13  2  0  0  0  0
 12 36  1  0  0  0  0
 13 14  1  0  0  0  0
 13 37  1  0  0  0  0
 14 15  2  0  0  0  0
 14 38  1  0  0  0  0
 15 39  1  0  0  0  0
 16 17  1  0  0  0  0
 17 24  1  0  0  0  0
 17 18  2  0  0  0  0
 18 19  1  0  0  0  0
 19 20  2  0  0  0  0
 19 21  1  0  0  0  0
 21 22  1  0  0  0  0
 22 23  2  0  0  0  0
 22 24  1  0  0  0  0
 24 25  1  0  0  0  0
 25 40  1  0  0  0  0
 25 41  1  0  0  0  0
 25 42  1  0  0  0  0
M  CHG  1  21  -1
M  END
> <s_m_source_file>
AV-unprocessed.smi

> <i_m_source_file_index>
481

> <i_lp_mmshare_version>
43012

> <i_f3d_flags>
0

> <s_epik_input>
W0NIM11uMWMoPU8pW25IXWMoPU8pYyhjMTIpbihbQ0gyXVtDSDJdT1tDSDNdKWMobjIpW05IXS9OPVtDSF0vYzNbY0hdW2NIXVtjSF1bY0hdW2NIXTM=

> <s_epik_cmdline>
J2VwaWtfcHl0aG9uJywgJy1waCcsICc3LjAnLCAnLXRuJywgJzgnLCAnLW1hJywgJzIwMCcsICctbWV0YWxfYmluZGluZycsICctaW1hZScsICc8aW5maWxlLm1hZT4nLCAnLW9tYWUnLCAnPG91dGZpbGUubWFlPic=

> <r_epik_Ionization_Penalty>
4.48471

> <r_epik_Ionization_Penalty_Charging>
4.58449e-09

> <r_epik_Ionization_Penalty_Neutral>
4.48471

> <r_epik_State_Penalty>
4.48428

> <r_epik_Charging_Adjusted_Penalty>
4.48428

> <i_epik_Tot_Q>
-1

> <i_epik_Tot_abs_Q>
1

> <r_epik_Metal_State_Penalty>
0.811551

> <b_epik_Metal_Only>
1

> <s_epik_Chemistry_Notes>
This compound has an imine and may undergo hydrolysis.

> <s_lp_Force_Field>
OPLS_2005

> <r_lp_Energy>
49.411

> <b_lp_Chiralities_Consistent>
1

> <s_lp_Variant>
AV-unprocessed.smi:481-4

> <Gold.Version>
5.8.1

> <Gold.Id.Protein>
6NUR|6NUR_protein|mol2

> <Gold.PLP.Fitness>
40.0969

> <Gold.PLP.PLP>
-31.0502

> <Gold.PLP.part.hbond>
-4.8810

> <Gold.PLP.part.metal>
0.0000

> <Gold.PLP.part.buried>
2.8534

> <Gold.PLP.part.nonpolar>
-28.6428

> <Gold.PLP.part.repulsive>
1.0346

> <Gold.PLP.ligand.clash>
0.0000

> <Gold.PLP.ligand.torsion>
0.7444

> <Gold.PLP.Chemscore.Hbond>
3.3306

> <Gold.PLP.Chemscore.CHOScore>
0.0000

> <Gold.PLP.Chemscore.Metal>
0.0000

> <Gold.Chemscore.Hbonds>
donor molecule, donor type, donor heavy atom, donor atom, acceptor molecule, acceptor atom, score
      L1  H     7    33       P1  7948  0.14
      P1  H  7989  7998       L1    20  0.93
      P1  H  7997  8008       L1    23  0.53
      P1  H  7997  8009       L1    21  0.81
      P1  H 10752 10764       L1    16  0.25

> <Gold.PLP.Chemscore.Internal.Correction>
0.5435

> <Gold.Rescore>
     Score         DG    S(hbond)    S(metal)    S(lipo)     H(rot)  DE(clash)    DE(int)     intcor
     10.25     -12.62       1.28        0.00      57.82       1.52       1.43       0.95       ----

> <Gold.Chemscore.Fitness>
10.2465

> <Gold.Chemscore.DG>
-12.6247

> <Gold.Chemscore.ZeroCoef>
-5.4800

> <Gold.Chemscore.Hbond>
1.2810

> <Gold.Chemscore.Metal>
0.0000

> <Gold.Chemscore.Lipo>
57.8211

> <Gold.Chemscore.Internal_Hbond>
0.0000

> <Gold.Chemscore.DEClash>
1.4293

> <Gold.Chemscore.DEInternal>
0.9488

> <Gold.Chemscore.Rot>
1.5230

> <Gold.Chemscore.Internal.Correction>
   9.000000E+99

> <Gold.Chemscore.Hbonds>
donor molecule, donor type, donor heavy atom, donor atom, acceptor molecule, acceptor atom, score
      L1  H     7    33       P1  7948  0.10
      P1  H  7989  7998       L1    20  0.89
      P1  H  7997  8008       L1    23  0.16
      P1  H  7997  8009       L1    21  0.04
      P1  H 10752 10764       L1    16  0.01

> <Gold.Chemscore.Hbond.Weighted>
-4.2785

> <Gold.Chemscore.Metal.Weighted>
-0.0000

> <Gold.Chemscore.Lipo.Weighted>
-6.7651

> <Gold.Chemscore.Internal_Hbond.Weighted>
0.0000

> <Gold.Chemscore.DEClash.Weighted>
1.4293

> <Gold.Chemscore.DEInternal.Weighted>
0.9488

> <Gold.Chemscore.Rot.Weighted>
3.8989

> <Gold.Chemscore.Internal.Correction.Weighted>
   9.000000E+99

> <Gold.Protein.RotatedTorsions>
[ 6907 6896 6895 6894 ] final  -96.33 input  -60.11 | X-H torsion
[ 7974 7965 7964 7962 ] final  158.73 input  175.53 | X-H torsion
[ 8008 7997 7996 7995 ] final -151.21 input   59.86 | X-H torsion
[ 10167 10162 10161 10158 ] final  -22.37 input  -65.29 | X-H torsion
[ 10718 10713 10712 10709 ] final  -13.46 input   66.30 | X-H torsion
[ 10763 10752 10751 10750 ] final  -23.92 input  -60.55 | X-H torsion
[ 11005 11000 10999 10996 ] final  151.66 input  -57.11 | X-H torsion

> <Gold.Protein.ActiveResidues>
 VAL166  LYS551  ARG553  GLY616  TRP617  ASP618  TYR619  PRO620  LYS621  CYS622 
 ASP623  PHE694  ASN695  SER759  ASP760  ASP761  ALA762  ILE779  LEU786  VAL792 
 PHE793  MET794  SER795  GLU796  ALA797  LYS798  CYS799  TRP800  GLU811  SER814 

> <Gold.Protein.RotatedAtoms>
  150.6986  134.1520  159.4143 H   0  0  0  0  0  0  0  0  0  0  0  0  # atno 6907 bound_to 6896
  151.9502  135.0170  160.0551 H   0  0  0  0  0  0  0  0  0  0  0  0  # atno 6908 bound_to 6896
  152.2017  133.4811  159.5099 H   0  0  0  0  0  0  0  0  0  0  0  0  # atno 6909 bound_to 6896
  144.7829  139.7519  143.6252 H   0  0  0  0  0  0  0  0  0  0  0  0  # atno 7974 bound_to 7965
  155.6358  140.0696  157.2634 H   0  0  0  0  0  0  0  0  0  0  0  0  # atno 8008 bound_to 7997
  154.4195  140.1759  156.1569 H   0  0  0  0  0  0  0  0  0  0  0  0  # atno 8009 bound_to 7997
  155.9896  140.3346  155.6743 H   0  0  0  0  0  0  0  0  0  0  0  0  # atno 8010 bound_to 7997
  140.7285  143.4541  151.0473 H   0  0  0  0  0  0  0  0  0  0  0  0  # atno 10167 bound_to 10162
  156.6300  130.4899  149.6133 H   0  0  0  0  0  0  0  0  0  0  0  0  # atno 10718 bound_to 10713
  153.6755  135.6969  153.5134 H   0  0  0  0  0  0  0  0  0  0  0  0  # atno 10763 bound_to 10752
  153.2525  135.4270  155.0811 H   0  0  0  0  0  0  0  0  0  0  0  0  # atno 10764 bound_to 10752
  154.8415  135.3535  154.6298 H   0  0  0  0  0  0  0  0  0  0  0  0  # atno 10765 bound_to 10752
  140.1238  134.8846  157.2109 H   0  0  0  0  0  0  0  0  0  0  0  0  # atno 11005 bound_to 11000
  146.2047  139.5363  142.9720 LP  0  0  0  0  0  0  0  0  0  0  0  0  # atno 17320 bound_to 7965
  145.6000  141.0356  143.2023 LP  0  0  0  0  0  0  0  0  0  0  0  0  # atno 17321 bound_to 7965
  139.8220  143.7807  152.3177 LP  0  0  0  0  0  0  0  0  0  0  0  0  # atno 17342 bound_to 10162
  139.7893  144.7416  150.9978 LP  0  0  0  0  0  0  0  0  0  0  0  0  # atno 17343 bound_to 10162
  156.2243  130.6756  151.1399 LP  0  0  0  0  0  0  0  0  0  0  0  0  # atno 17370 bound_to 10713
  157.7203  131.0685  150.6164 LP  0  0  0  0  0  0  0  0  0  0  0  0  # atno 17371 bound_to 10713
  140.2930  134.3218  155.7310 LP  0  0  0  0  0  0  0  0  0  0  0  0  # atno 17394 bound_to 11000
  141.2157  133.7546  156.9531 LP  0  0  0  0  0  0  0  0  0  0  0  0  # atno 17395 bound_to 11000

$$$$
