AV-unprocessed.smi:1|AV-procd|sdf|21|dock7
  -GOLD-   2262015123D 1   1.00000     0.00000
 Structure written by MMmdl.
 56 61  0  0  0  0  0  0  0  0  2 V2000
  154.2933  141.4701  161.8983 O   0  0  0  0  0  0  0  0  0  0  0  0
  153.8629  141.5228  160.7441 C   0  0  0  0  0  0  0  0  0  0  0  0
  154.0281  140.6119  159.7515 N   0  5  0  0  0  0  0  0  0  0  0  0
  154.8729  139.5840  159.9266 C   0  0  0  0  0  0  0  0  0  0  0  0
  155.9314  139.4160  159.0936 N   0  0  0  0  0  0  0  0  0  0  0  0
  156.7685  138.3863  159.2639 C   0  0  0  0  0  0  0  0  0  0  0  0
  156.7355  137.4214  160.1878 N   0  0  0  0  0  0  0  0  0  0  0  0
  155.6832  137.5851  161.0414 C   0  0  0  0  0  0  0  0  0  0  0  0
  154.7230  138.6370  160.9768 C   0  0  0  0  0  0  0  0  0  0  0  0
  153.7886  138.5137  161.9940 N   0  0  0  0  0  0  0  0  0  0  0  0
  154.2099  137.4141  162.6137 C   0  0  0  0  0  0  0  0  0  0  0  0
  155.3034  136.7999  162.1194 N   0  0  0  0  0  0  0  0  0  0  0  0
  155.9518  135.5603  162.6463 C   0  0  2  0  0  0  0  0  0  0  0  0
  154.9835  134.5665  162.8091 O   0  0  0  0  0  0  0  0  0  0  0  0
  154.8552  134.2094  164.1829 C   0  0  1  0  0  0  0  0  0  0  0  0
  154.4435  132.7409  164.3338 C   0  0  0  0  0  0  0  0  0  0  0  0
  155.2287  132.1482  165.3547 O   0  0  0  0  0  0  0  0  0  0  0  0
  155.0434  130.8571  165.6871 C   0  0  0  0  0  0  0  0  0  0  0  0
  154.1092  130.1716  165.2663 O   0  0  0  0  0  0  0  0  0  0  0  0
  156.0898  130.3431  166.6173 C   0  0  0  0  0  0  0  0  0  0  0  0
  156.1987  128.9497  166.8358 C   0  0  0  0  0  0  0  0  0  0  0  0
  157.1766  128.4347  167.7090 C   0  0  0  0  0  0  0  0  0  0  0  0
  158.0585  129.3068  168.3735 C   0  0  0  0  0  0  0  0  0  0  0  0
  157.9605  130.6949  168.1650 C   0  0  0  0  0  0  0  0  0  0  0  0
  156.9826  131.2119  167.2928 C   0  0  0  0  0  0  0  0  0  0  0  0
  156.2155  134.5536  164.7858 C   0  0  1  0  0  0  0  0  0  0  0  0
  157.1709  133.5385  164.5236 O   0  0  0  0  0  0  0  0  0  0  0  0
  158.6028  134.2690  164.0686 S   0  0  0  0  0  0  0  0  0  0  0  0
  159.5178  134.2501  165.2199 O   0  0  0  0  0  0  0  0  0  0  0  0
  158.9823  133.7530  162.7446 O   0  0  0  0  0  0  0  0  0  0  0  0
  158.0324  135.8286  163.8814 O   0  0  0  0  0  0  0  0  0  0  0  0
  156.6214  135.8073  164.0066 C   0  0  1  0  0  0  0  0  0  0  0  0
  152.9932  142.6852  160.3470 C   0  0  0  0  0  0  0  0  0  0  0  0
  152.7165  142.9180  158.9806 C   0  0  0  0  0  0  0  0  0  0  0  0
  151.8814  143.9831  158.5902 C   0  0  0  0  0  0  0  0  0  0  0  0
  151.3061  144.8212  159.5634 C   0  0  0  0  0  0  0  0  0  0  0  0
  151.5633  144.5911  160.9278 C   0  0  0  0  0  0  0  0  0  0  0  0
  152.3988  143.5265  161.3189 C   0  0  0  0  0  0  0  0  0  0  0  0
  157.5808  138.3245  158.5550 H   0  0  0  0  0  0  0  0  0  0  0  0
  153.6870  137.0286  163.4766 H   0  0  0  0  0  0  0  0  0  0  0  0
  156.6520  135.2563  161.8668 H   0  0  0  0  0  0  0  0  0  0  0  0
  154.1034  134.8471  164.6470 H   0  0  0  0  0  0  0  0  0  0  0  0
  153.3806  132.6598  164.5657 H   0  0  0  0  0  0  0  0  0  0  0  0
  154.6203  132.2085  163.3983 H   0  0  0  0  0  0  0  0  0  0  0  0
  155.5332  128.2607  166.3356 H   0  0  0  0  0  0  0  0  0  0  0  0
  157.2499  127.3688  167.8679 H   0  0  0  0  0  0  0  0  0  0  0  0
  158.8092  128.9118  169.0423 H   0  0  0  0  0  0  0  0  0  0  0  0
  158.6364  131.3659  168.6747 H   0  0  0  0  0  0  0  0  0  0  0  0
  156.9348  132.2825  167.1559 H   0  0  0  0  0  0  0  0  0  0  0  0
  156.1645  134.7280  165.8611 H   0  0  0  0  0  0  0  0  0  0  0  0
  156.2389  136.7126  164.4788 H   0  0  0  0  0  0  0  0  0  0  0  0
  153.1480  142.2814  158.2216 H   0  0  0  0  0  0  0  0  0  0  0  0
  151.6815  144.1552  157.5429 H   0  0  0  0  0  0  0  0  0  0  0  0
  150.6646  145.6368  159.2642 H   0  0  0  0  0  0  0  0  0  0  0  0
  151.1170  145.2288  161.6763 H   0  0  0  0  0  0  0  0  0  0  0  0
  152.5744  143.3599  162.3720 H   0  0  0  0  0  0  0  0  0  0  0  0
  1  2  2  0  0  0  0
  2  3  1  0  0  0  0
  2 33  1  0  0  0  0
  3  4  1  0  0  0  0
  4  9  1  0  0  0  0
  4  5  2  0  0  0  0
  5  6  1  0  0  0  0
  6  7  2  0  0  0  0
  6 39  1  0  0  0  0
  7  8  1  0  0  0  0
  8 12  1  0  0  0  0
  8  9  2  0  0  0  0
  9 10  1  0  0  0  0
 10 11  2  0  0  0  0
 11 12  1  0  0  0  0
 11 40  1  0  0  0  0
 12 13  1  0  0  0  0
 13 32  1  0  0  0  0
 13 14  1  0  0  0  0
 13 41  1  0  0  0  0
 14 15  1  0  0  0  0
 15 16  1  0  0  0  0
 15 26  1  0  0  0  0
 15 42  1  0  0  0  0
 16 17  1  0  0  0  0
 16 43  1  0  0  0  0
 16 44  1  0  0  0  0
 17 18  1  0  0  0  0
 18 19  2  0  0  0  0
 18 20  1  0  0  0  0
 20 25  1  0  0  0  0
 20 21  2  0  0  0  0
 21 22  1  0  0  0  0
 21 45  1  0  0  0  0
 22 23  2  0  0  0  0
 22 46  1  0  0  0  0
 23 24  1  0  0  0  0
 23 47  1  0  0  0  0
 24 25  2  0  0  0  0
 24 48  1  0  0  0  0
 25 49  1  0  0  0  0
 26 32  1  0  0  0  0
 26 27  1  0  0  0  0
 26 50  1  0  0  0  0
 27 28  1  0  0  0  0
 28 29  2  0  0  0  0
 28 30  2  0  0  0  0
 28 31  1  0  0  0  0
 31 32  1  0  0  0  0
 32 51  1  0  0  0  0
 33 38  1  0  0  0  0
 33 34  2  0  0  0  0
 34 35  1  0  0  0  0
 34 52  1  0  0  0  0
 35 36  2  0  0  0  0
 35 53  1  0  0  0  0
 36 37  1  0  0  0  0
 36 54  1  0  0  0  0
 37 38  2  0  0  0  0
 37 55  1  0  0  0  0
 38 56  1  0  0  0  0
M  CHG  1   3  -1
M  END
> <s_m_source_file>
AV-unprocessed.smi

> <i_m_source_file_index>
1

> <i_lp_mmshare_version>
43012

> <i_f3d_flags>
0

> <s_epik_input>
W2NIXTFbY0hdW2NIXVtjSF1bY0hdYzFDKD1PKVtOSF1jKG5bY0hdbjIpYyhjMjMpbltjSF1uM1tDQEBIXShbQ0BIXShbQ0BIXTQ1KU9TKE81KSg9Tyk9TylPW0NASF00W0NIMl1PQyg9TyljNltjSF1bY0hdW2NIXVtjSF1bY0hdNg==

> <s_epik_cmdline>
J2VwaWtfcHl0aG9uJywgJy1waCcsICc3LjAnLCAnLXRuJywgJzgnLCAnLW1hJywgJzIwMCcsICctbWV0YWxfYmluZGluZycsICctaW1hZScsICc8aW5maWxlLm1hZT4nLCAnLW9tYWUnLCAnPG91dGZpbGUubWFlPic=

> <r_lp_tautomer_probability>
1

> <r_epik_Ionization_Penalty>
4.39121

> <r_epik_Ionization_Penalty_Charging>
3.39398

> <r_epik_Ionization_Penalty_Neutral>
0.997232

> <r_epik_State_Penalty>
3.39839

> <r_epik_Charging_Adjusted_Penalty>
6.79237

> <i_epik_Tot_Q>
-1

> <i_epik_Tot_abs_Q>
1

> <r_epik_Metal_State_Penalty>
0.497663

> <b_epik_Metal_Only>
1

> <s_epik_Chemistry_Notes>
This compound has an ester and may undergo hydrolysis at high or low pH. This compound contains an acetal/aminal-like group ( X-CH(R)-Y where X, Y are N, S, or O) that may be acid/base labile, releasing an aldehyde.

> <s_lp_Force_Field>
OPLS_2005

> <r_lp_Energy>
42.9256

> <b_lp_Chiralities_Consistent>
1

> <s_lp_Variant>
AV-unprocessed.smi:1-21

> <Gold.Version>
5.8.1

> <Gold.Id.Protein>
6NUR|6NUR_protein|mol2

> <Gold.PLP.Fitness>
55.3968

> <Gold.PLP.PLP>
-55.4061

> <Gold.PLP.part.hbond>
-2.0000

> <Gold.PLP.part.metal>
0.0000

> <Gold.PLP.part.buried>
-5.0027

> <Gold.PLP.part.nonpolar>
-49.1501

> <Gold.PLP.part.repulsive>
0.0953

> <Gold.PLP.ligand.clash>
0.0000

> <Gold.PLP.ligand.torsion>
1.6242

> <Gold.PLP.Chemscore.Hbond>
1.0000

> <Gold.PLP.Chemscore.CHOScore>
0.0000

> <Gold.PLP.Chemscore.Metal>
0.0000

> <Gold.Chemscore.Hbonds>
donor molecule, donor type, donor heavy atom, donor atom, acceptor molecule, acceptor atom, score
      P1  H  7997  8009       L1     5  1.00

> <Gold.PLP.Chemscore.Internal.Correction>
0.2391

> <Gold.Rescore>
     Score         DG    S(hbond)    S(metal)    S(lipo)     H(rot)  DE(clash)    DE(int)     intcor
     13.09     -17.97       0.88        0.00     127.98       2.11       0.18       4.70       ----

> <Gold.Chemscore.Fitness>
13.0907

> <Gold.Chemscore.DG>
-17.9662

> <Gold.Chemscore.ZeroCoef>
-5.4800

> <Gold.Chemscore.Hbond>
0.8752

> <Gold.Chemscore.Metal>
0.0000

> <Gold.Chemscore.Lipo>
127.9805

> <Gold.Chemscore.Internal_Hbond>
0.0000

> <Gold.Chemscore.DEClash>
0.1790

> <Gold.Chemscore.DEInternal>
4.6965

> <Gold.Chemscore.Rot>
2.1136

> <Gold.Chemscore.Internal.Correction>
   9.000000E+99

> <Gold.Chemscore.Hbonds>
donor molecule, donor type, donor heavy atom, donor atom, acceptor molecule, acceptor atom, score
      P1  H  7997  8009       L1     5  0.85

> <Gold.Chemscore.Hbond.Weighted>
-2.9232

> <Gold.Chemscore.Metal.Weighted>
-0.0000

> <Gold.Chemscore.Lipo.Weighted>
-14.9737

> <Gold.Chemscore.Internal_Hbond.Weighted>
0.0000

> <Gold.Chemscore.DEClash.Weighted>
0.1790

> <Gold.Chemscore.DEInternal.Weighted>
4.6965

> <Gold.Chemscore.Rot.Weighted>
5.4107

> <Gold.Chemscore.Internal.Correction.Weighted>
   9.000000E+99

> <Gold.Protein.RotatedTorsions>
[ 6907 6896 6895 6894 ] final   76.62 input  -60.11 | X-H torsion
[ 7974 7965 7964 7962 ] final -100.11 input  175.53 | X-H torsion
[ 8008 7997 7996 7995 ] final   78.22 input   59.86 | X-H torsion
[ 10167 10162 10161 10158 ] final  114.10 input  -65.29 | X-H torsion
[ 10718 10713 10712 10709 ] final   99.78 input   66.30 | X-H torsion
[ 10763 10752 10751 10750 ] final  109.40 input  -60.55 | X-H torsion
[ 11005 11000 10999 10996 ] final   76.69 input  -57.11 | X-H torsion

> <Gold.Protein.ActiveResidues>
 VAL166  LYS551  ARG553  GLY616  TRP617  ASP618  TYR619  PRO620  LYS621  CYS622 
 ASP623  PHE694  ASN695  SER759  ASP760  ASP761  ALA762  ILE779  LEU786  VAL792 
 PHE793  MET794  SER795  GLU796  ALA797  LYS798  CYS799  TRP800  GLU811  SER814 

> <Gold.Protein.RotatedAtoms>
  152.5081  134.3941  159.9393 H   0  0  0  0  0  0  0  0  0  0  0  0  # atno 6907 bound_to 6896
  151.3902  133.3785  159.2728 H   0  0  0  0  0  0  0  0  0  0  0  0  # atno 6908 bound_to 6896
  150.9438  134.8865  159.7688 H   0  0  0  0  0  0  0  0  0  0  0  0  # atno 6909 bound_to 6896
  145.2989  140.9372  143.2835 H   0  0  0  0  0  0  0  0  0  0  0  0  # atno 7974 bound_to 7965
  155.8526  140.3457  155.5703 H   0  0  0  0  0  0  0  0  0  0  0  0  # atno 8008 bound_to 7997
  155.8021  140.0886  157.1971 H   0  0  0  0  0  0  0  0  0  0  0  0  # atno 8009 bound_to 7997
  154.4008  140.1463  156.3274 H   0  0  0  0  0  0  0  0  0  0  0  0  # atno 8010 bound_to 7997
  139.6413  144.7124  151.2232 H   0  0  0  0  0  0  0  0  0  0  0  0  # atno 10167 bound_to 10162
  157.6868  131.0679  150.5001 H   0  0  0  0  0  0  0  0  0  0  0  0  # atno 10718 bound_to 10713
  153.4342  135.3781  155.2189 H   0  0  0  0  0  0  0  0  0  0  0  0  # atno 10763 bound_to 10752
  154.8751  135.3847  154.4231 H   0  0  0  0  0  0  0  0  0  0  0  0  # atno 10764 bound_to 10752
  153.4768  135.7088  153.6024 H   0  0  0  0  0  0  0  0  0  0  0  0  # atno 10765 bound_to 10752
  139.9287  134.7621  156.1427 H   0  0  0  0  0  0  0  0  0  0  0  0  # atno 11005 bound_to 11000
  144.9110  139.4528  143.6587 LP  0  0  0  0  0  0  0  0  0  0  0  0  # atno 17320 bound_to 7965
  146.3159  139.7919  142.8984 LP  0  0  0  0  0  0  0  0  0  0  0  0  # atno 17321 bound_to 7965
  140.7492  143.6307  150.8425 LP  0  0  0  0  0  0  0  0  0  0  0  0  # atno 17342 bound_to 10162
  139.9945  143.5811  152.2898 LP  0  0  0  0  0  0  0  0  0  0  0  0  # atno 17343 bound_to 10162
  156.5323  130.4187  149.6195 LP  0  0  0  0  0  0  0  0  0  0  0  0  # atno 17370 bound_to 10713
  156.3059  130.7202  151.2084 LP  0  0  0  0  0  0  0  0  0  0  0  0  # atno 17371 bound_to 10713
  141.0862  133.6733  156.2442 LP  0  0  0  0  0  0  0  0  0  0  0  0  # atno 17394 bound_to 11000
  140.6262  134.5311  157.5554 LP  0  0  0  0  0  0  0  0  0  0  0  0  # atno 17395 bound_to 11000

$$$$
