AV-unprocessed.smi:374|AV-procd|sdf|2452|dock8
  -GOLD-   2262022393D 1   1.00000     0.00000
 Structure written by MMmdl.
 37 38  0  0  0  0  0  0  0  0  1 V2000
  150.9735  138.1880  154.3558 C   0  0  0  0  0  0  0  0  0  0  0  0
  150.5525  138.9835  155.6084 C   0  0  1  0  0  0  0  0  0  0  0  0
  151.7273  139.7484  156.2362 C   0  0  0  0  0  0  0  0  0  0  0  0
  152.8029  139.8389  155.6432 O   0  0  0  0  0  0  0  0  0  0  0  0
  151.5047  140.2953  157.4425 N   0  0  0  0  0  0  0  0  0  0  0  0
  152.4687  141.0786  158.2103 C   0  0  0  0  0  0  0  0  0  0  0  0
  151.8339  142.3215  158.8694 C   0  0  0  0  0  0  0  0  0  0  0  0
  151.4280  143.3520  157.7952 C   0  0  0  0  0  0  0  0  0  0  0  0
  150.7837  144.6041  158.4117 C   0  0  0  0  0  0  0  0  0  0  0  0
  151.7103  145.2508  159.4512 C   0  0  0  0  0  0  0  0  0  0  0  0
  152.1108  144.2391  160.5345 C   0  0  0  0  0  0  0  0  0  0  0  0
  152.7539  142.9854  159.9194 C   0  0  0  0  0  0  0  0  0  0  0  0
  149.4467  139.8958  155.3434 N   0  0  0  0  0  0  0  0  0  0  0  0
  148.6586  139.9958  154.2707 C   0  0  0  0  0  0  0  0  0  0  0  0
  147.7074  140.9123  154.3834 N   0  0  0  0  0  0  0  0  0  0  0  0
  147.9741  141.3630  155.6450 C   0  0  0  0  0  0  0  0  0  0  0  0
  148.9981  140.7808  156.2687 N   0  0  0  0  0  0  0  0  0  0  0  0
  151.7598  137.4708  154.5937 H   0  0  0  0  0  0  0  0  0  0  0  0
  151.3491  138.8364  153.5631 H   0  0  0  0  0  0  0  0  0  0  0  0
  150.1314  137.6257  153.9512 H   0  0  0  0  0  0  0  0  0  0  0  0
  150.1973  138.2589  156.3435 H   0  0  0  0  0  0  0  0  0  0  0  0
  150.5933  140.1674  157.8577 H   0  0  0  0  0  0  0  0  0  0  0  0
  152.9652  140.4619  158.9615 H   0  0  0  0  0  0  0  0  0  0  0  0
  153.2502  141.3929  157.5179 H   0  0  0  0  0  0  0  0  0  0  0  0
  150.9241  141.9990  159.3787 H   0  0  0  0  0  0  0  0  0  0  0  0
  152.3057  143.6451  157.2176 H   0  0  0  0  0  0  0  0  0  0  0  0
  150.7325  142.8987  157.0879 H   0  0  0  0  0  0  0  0  0  0  0  0
  150.5470  145.3238  157.6275 H   0  0  0  0  0  0  0  0  0  0  0  0
  149.8366  144.3355  158.8813 H   0  0  0  0  0  0  0  0  0  0  0  0
  152.6051  145.6328  158.9582 H   0  0  0  0  0  0  0  0  0  0  0  0
  151.2170  146.1099  159.9072 H   0  0  0  0  0  0  0  0  0  0  0  0
  152.8018  144.7029  161.2390 H   0  0  0  0  0  0  0  0  0  0  0  0
  151.2294  143.9519  161.1093 H   0  0  0  0  0  0  0  0  0  0  0  0
  152.9873  142.2843  160.7204 H   0  0  0  0  0  0  0  0  0  0  0  0
  153.7051  143.2528  159.4571 H   0  0  0  0  0  0  0  0  0  0  0  0
  148.7801  139.3818  153.3904 H   0  0  0  0  0  0  0  0  0  0  0  0
  147.3919  142.1388  156.1205 H   0  0  0  0  0  0  0  0  0  0  0  0
  1  2  1  0  0  0  0
  1 18  1  0  0  0  0
  1 19  1  0  0  0  0
  1 20  1  0  0  0  0
  2  3  1  0  0  0  0
  2 13  1  0  0  0  0
  2 21  1  0  0  0  0
  3  4  2  0  0  0  0
  3  5  1  0  0  0  0
  5  6  1  0  0  0  0
  5 22  1  0  0  0  0
  6  7  1  0  0  0  0
  6 23  1  0  0  0  0
  6 24  1  0  0  0  0
  7 12  1  0  0  0  0
  7  8  1  0  0  0  0
  7 25  1  0  0  0  0
  8  9  1  0  0  0  0
  8 26  1  0  0  0  0
  8 27  1  0  0  0  0
  9 10  1  0  0  0  0
  9 28  1  0  0  0  0
  9 29  1  0  0  0  0
 10 11  1  0  0  0  0
 10 30  1  0  0  0  0
 10 31  1  0  0  0  0
 11 12  1  0  0  0  0
 11 32  1  0  0  0  0
 11 33  1  0  0  0  0
 12 34  1  0  0  0  0
 12 35  1  0  0  0  0
 13 17  1  0  0  0  0
 13 14  1  0  0  0  0
 14 15  2  0  0  0  0
 14 36  1  0  0  0  0
 15 16  1  0  0  0  0
 16 17  2  0  0  0  0
 16 37  1  0  0  0  0
M  END
> <s_m_source_file>
AV-unprocessed.smi

> <i_m_source_file_index>
374

> <i_lp_mmshare_version>
43012

> <i_f3d_flags>
0

> <s_epik_input>
bjFbY0hdbltjSF1uMVtDQEhdKFtDSDNdKUMoPU8pW05IXVtDSDJdW0NIXTJbQ0gyXVtDSDJdW0NIMl1bQ0gyXVtDSDJdMg==

> <s_epik_cmdline>
J2VwaWtfcHl0aG9uJywgJy1waCcsICc3LjAnLCAnLXRuJywgJzgnLCAnLW1hJywgJzIwMCcsICctbWV0YWxfYmluZGluZycsICctaW1hZScsICc8aW5maWxlLm1hZT4nLCAnLW9tYWUnLCAnPG91dGZpbGUubWFlPic=

> <r_lp_tautomer_probability>
1

> <r_epik_Ionization_Penalty>
1.24899e-05

> <r_epik_Ionization_Penalty_Charging>
0

> <r_epik_Ionization_Penalty_Neutral>
1.24899e-05

> <r_epik_State_Penalty>
-0

> <r_epik_Charging_Adjusted_Penalty>
0

> <i_epik_Tot_Q>
0

> <i_epik_Tot_abs_Q>
0

> <r_epik_Metal_State_Penalty>
-0

> <b_epik_Metal_Only>
0

> <s_lp_Force_Field>
OPLS_2005

> <r_lp_Energy>
16.3067

> <b_lp_Chiralities_Consistent>
1

> <s_lp_Variant>
AV-unprocessed.smi:374-2

> <Gold.Version>
5.8.1

> <Gold.Id.Protein>
6NUR|6NUR_protein|mol2

> <Gold.PLP.Fitness>
43.1973

> <Gold.PLP.PLP>
-35.7623

> <Gold.PLP.part.hbond>
-1.0887

> <Gold.PLP.part.metal>
0.0000

> <Gold.PLP.part.buried>
-2.1716

> <Gold.PLP.part.nonpolar>
-33.4035

> <Gold.PLP.part.repulsive>
0.2785

> <Gold.PLP.ligand.clash>
0.0000

> <Gold.PLP.ligand.torsion>
0.5349

> <Gold.PLP.Chemscore.Hbond>
1.0000

> <Gold.PLP.Chemscore.CHOScore>
1.8020

> <Gold.PLP.Chemscore.Metal>
0.0000

> <Gold.Chemscore.Hbonds>
donor molecule, donor type, donor heavy atom, donor atom, acceptor molecule, acceptor atom, score
      P1  H  7997  8009       L1     4  1.00
      L1  C    14    36       P1  7957  0.98

> <Gold.PLP.Chemscore.Internal.Correction>
0.0986

> <Gold.Rescore>
     Score         DG    S(hbond)    S(metal)    S(lipo)     H(rot)  DE(clash)    DE(int)     intcor
     12.52     -14.10       1.00        0.00      91.89       2.14       0.01       1.57       ----

> <Gold.Chemscore.Fitness>
12.5162

> <Gold.Chemscore.DG>
-14.0959

> <Gold.Chemscore.ZeroCoef>
-5.4800

> <Gold.Chemscore.Hbond>
0.9997

> <Gold.Chemscore.Metal>
0.0000

> <Gold.Chemscore.Lipo>
91.8888

> <Gold.Chemscore.Internal_Hbond>
0.0000

> <Gold.Chemscore.DEClash>
0.0073

> <Gold.Chemscore.DEInternal>
1.5723

> <Gold.Chemscore.Rot>
2.1383

> <Gold.Chemscore.Internal.Correction>
   9.000000E+99

> <Gold.Chemscore.Hbonds>
donor molecule, donor type, donor heavy atom, donor atom, acceptor molecule, acceptor atom, score
      P1  H  7997  8009       L1     4  1.00

> <Gold.Chemscore.Hbond.Weighted>
-3.3390

> <Gold.Chemscore.Metal.Weighted>
-0.0000

> <Gold.Chemscore.Lipo.Weighted>
-10.7510

> <Gold.Chemscore.Internal_Hbond.Weighted>
0.0000

> <Gold.Chemscore.DEClash.Weighted>
0.0073

> <Gold.Chemscore.DEInternal.Weighted>
1.5723

> <Gold.Chemscore.Rot.Weighted>
5.4741

> <Gold.Chemscore.Internal.Correction.Weighted>
   9.000000E+99

> <Gold.Protein.RotatedTorsions>
[ 6907 6896 6895 6894 ] final -117.93 input  -60.11 | X-H torsion
[ 7974 7965 7964 7962 ] final  127.37 input  175.53 | X-H torsion
[ 8008 7997 7996 7995 ] final -160.37 input   59.86 | X-H torsion
[ 10167 10162 10161 10158 ] final  -36.39 input  -65.29 | X-H torsion
[ 10718 10713 10712 10709 ] final   60.39 input   66.30 | X-H torsion
[ 10763 10752 10751 10750 ] final   66.72 input  -60.55 | X-H torsion
[ 11005 11000 10999 10996 ] final  -61.67 input  -57.11 | X-H torsion

> <Gold.Protein.ActiveResidues>
 VAL166  LYS551  ARG553  GLY616  TRP617  ASP618  TYR619  PRO620  LYS621  CYS622 
 ASP623  PHE694  ASN695  SER759  ASP760  ASP761  ALA762  ILE779  LEU786  VAL792 
 PHE793  MET794  SER795  GLU796  ALA797  LYS798  CYS799  TRP800  GLU811  SER814 

> <Gold.Protein.RotatedAtoms>
  150.8177  133.8308  159.3152 H   0  0  0  0  0  0  0  0  0  0  0  0  # atno 6907 bound_to 6896
  151.6075  135.1041  160.0083 H   0  0  0  0  0  0  0  0  0  0  0  0  # atno 6908 bound_to 6896
  152.4268  133.7167  159.6567 H   0  0  0  0  0  0  0  0  0  0  0  0  # atno 6909 bound_to 6896
  145.0513  139.3880  143.5052 H   0  0  0  0  0  0  0  0  0  0  0  0  # atno 7974 bound_to 7965
  155.7764  140.0859  157.2082 H   0  0  0  0  0  0  0  0  0  0  0  0  # atno 8008 bound_to 7997
  154.3993  140.1516  156.3059 H   0  0  0  0  0  0  0  0  0  0  0  0  # atno 8009 bound_to 7997
  155.8697  140.3426  155.5815 H   0  0  0  0  0  0  0  0  0  0  0  0  # atno 8010 bound_to 7997
  140.7144  143.3412  151.2353 H   0  0  0  0  0  0  0  0  0  0  0  0  # atno 10167 bound_to 10162
  157.5749  130.8936  149.9330 H   0  0  0  0  0  0  0  0  0  0  0  0  # atno 10718 bound_to 10713
  153.0153  135.5310  154.6867 H   0  0  0  0  0  0  0  0  0  0  0  0  # atno 10763 bound_to 10752
  154.6013  135.2868  155.0534 H   0  0  0  0  0  0  0  0  0  0  0  0  # atno 10764 bound_to 10752
  154.1591  135.6550  153.5034 H   0  0  0  0  0  0  0  0  0  0  0  0  # atno 10765 bound_to 10752
  141.1332  133.6632  156.5410 H   0  0  0  0  0  0  0  0  0  0  0  0  # atno 11005 bound_to 11000
  146.3518  140.0165  142.8662 LP  0  0  0  0  0  0  0  0  0  0  0  0  # atno 17320 bound_to 7965
  145.1523  140.9630  143.4425 LP  0  0  0  0  0  0  0  0  0  0  0  0  # atno 17321 bound_to 7965
  139.6920  143.9676  152.2864 LP  0  0  0  0  0  0  0  0  0  0  0  0  # atno 17342 bound_to 10162
  139.9340  144.6723  150.8333 LP  0  0  0  0  0  0  0  0  0  0  0  0  # atno 17343 bound_to 10162
  156.0794  130.3675  150.0611 LP  0  0  0  0  0  0  0  0  0  0  0  0  # atno 17370 bound_to 10713
  156.8759  130.9540  151.3604 LP  0  0  0  0  0  0  0  0  0  0  0  0  # atno 17371 bound_to 10713
  140.4139  134.7247  157.4852 LP  0  0  0  0  0  0  0  0  0  0  0  0  # atno 17394 bound_to 11000
  140.0407  134.6271  155.8984 LP  0  0  0  0  0  0  0  0  0  0  0  0  # atno 17395 bound_to 11000

$$$$
