AV-unprocessed.smi:767|AV-procd|sdf|3671|dock1
  -GOLD-   22720 1 83D 1   1.00000     0.00000
 Structure written by MMmdl.
 48 50  0  0  0  0  0  0  0  0  2 V2000
  151.6274  143.3645  157.9528 C   0  0  0  0  0  0  0  0  0  0  0  0
  151.1702  142.2400  157.0478 C   0  0  0  0  0  0  0  0  0  0  0  0
  151.7191  140.9425  157.1297 C   0  0  0  0  0  0  0  0  0  0  0  0
  151.2521  139.9398  156.2546 C   0  0  0  0  0  0  0  0  0  0  0  0
  150.2484  140.2556  155.3129 C   0  0  0  0  0  0  0  0  0  0  0  0
  149.7321  139.2034  154.3456 C   0  0  0  0  0  0  0  0  0  0  0  0
  148.2460  138.8377  154.5499 C   0  0  0  0  0  0  0  0  0  0  0  0
  147.8462  137.6030  153.8791 N   0  0  0  0  0  0  0  0  0  0  0  0
  146.7173  136.9211  154.1163 C   0  0  0  0  0  0  0  0  0  0  0  0
  145.8631  137.2622  154.9341 O   0  0  0  0  0  0  0  0  0  0  0  0
  146.6183  135.8375  153.3360 N   0  0  0  0  0  0  0  0  0  0  0  0
  145.4670  134.9293  153.3246 C   0  0  2  0  0  0  0  0  0  0  0  0
  145.6130  133.7984  152.3032 C   0  0  2  0  0  0  0  0  0  0  0  0
  146.7340  133.1854  151.5446 C   0  0  0  0  0  0  0  0  0  0  0  0
  145.9923  133.0413  150.1877 C   0  0  0  0  0  0  0  0  0  0  0  0
  144.7546  133.7862  150.3269 O   0  0  0  0  0  0  0  0  0  0  0  0
  145.0601  134.7770  151.2878 C   0  0  1  0  0  0  0  0  0  0  0  0
  144.2432  135.3999  152.4420 C   0  0  0  0  0  0  0  0  0  0  0  0
  142.8710  134.7749  152.7515 C   0  0  0  0  0  0  0  0  0  0  0  0
  144.0001  136.9094  152.3322 C   0  0  0  0  0  0  0  0  0  0  0  0
  149.7350  141.5702  155.2787 C   0  0  0  0  0  0  0  0  0  0  0  0
  150.2088  142.5021  156.1341 N   0  3  0  0  0  0  0  0  0  0  0  0
  151.9262  142.9765  158.9271 H   0  0  0  0  0  0  0  0  0  0  0  0
  150.8296  144.0916  158.1086 H   0  0  0  0  0  0  0  0  0  0  0  0
  152.4814  143.8793  157.5121 H   0  0  0  0  0  0  0  0  0  0  0  0
  152.4892  140.7170  157.8532 H   0  0  0  0  0  0  0  0  0  0  0  0
  151.6639  138.9424  156.3034 H   0  0  0  0  0  0  0  0  0  0  0  0
  149.8855  139.5577  153.3257 H   0  0  0  0  0  0  0  0  0  0  0  0
  150.3445  138.3059  154.4420 H   0  0  0  0  0  0  0  0  0  0  0  0
  148.0561  138.6939  155.6138 H   0  0  0  0  0  0  0  0  0  0  0  0
  147.6043  139.6611  154.2330 H   0  0  0  0  0  0  0  0  0  0  0  0
  148.4823  137.2380  153.1851 H   0  0  0  0  0  0  0  0  0  0  0  0
  147.3719  135.6324  152.6964 H   0  0  0  0  0  0  0  0  0  0  0  0
  145.1758  134.5691  154.3129 H   0  0  0  0  0  0  0  0  0  0  0  0
  144.9008  133.0114  152.5630 H   0  0  0  0  0  0  0  0  0  0  0  0
  147.5966  133.8491  151.4716 H   0  0  0  0  0  0  0  0  0  0  0  0
  147.0517  132.2264  151.9543 H   0  0  0  0  0  0  0  0  0  0  0  0
  146.5925  133.4478  149.3725 H   0  0  0  0  0  0  0  0  0  0  0  0
  145.7669  132.0001  149.9554 H   0  0  0  0  0  0  0  0  0  0  0  0
  145.8040  135.4745  150.8892 H   0  0  0  0  0  0  0  0  0  0  0  0
  142.1695  134.9371  151.9327 H   0  0  0  0  0  0  0  0  0  0  0  0
  142.4314  135.2133  153.6479 H   0  0  0  0  0  0  0  0  0  0  0  0
  142.9103  133.7004  152.9209 H   0  0  0  0  0  0  0  0  0  0  0  0
  143.1946  137.1382  151.6334 H   0  0  0  0  0  0  0  0  0  0  0  0
  144.8830  137.4389  151.9743 H   0  0  0  0  0  0  0  0  0  0  0  0
  143.7323  137.3400  153.2976 H   0  0  0  0  0  0  0  0  0  0  0  0
  148.9712  141.9049  154.5920 H   0  0  0  0  0  0  0  0  0  0  0  0
  149.8240  143.4459  156.0876 H   0  0  0  0  0  0  0  0  0  0  0  0
  1  2  1  0  0  0  0
  1 23  1  0  0  0  0
  1 24  1  0  0  0  0
  1 25  1  0  0  0  0
  2 22  1  0  0  0  0
  2  3  2  0  0  0  0
  3  4  1  0  0  0  0
  3 26  1  0  0  0  0
  4  5  2  0  0  0  0
  4 27  1  0  0  0  0
  5  6  1  0  0  0  0
  5 21  1  0  0  0  0
  6  7  1  0  0  0  0
  6 28  1  0  0  0  0
  6 29  1  0  0  0  0
  7  8  1  0  0  0  0
  7 30  1  0  0  0  0
  7 31  1  0  0  0  0
  8  9  1  0  0  0  0
  8 32  1  0  0  0  0
  9 10  2  0  0  0  0
  9 11  1  0  0  0  0
 11 12  1  0  0  0  0
 11 33  1  0  0  0  0
 12 18  1  0  0  0  0
 12 13  1  0  0  0  0
 12 34  1  0  0  0  0
 13 17  1  0  0  0  0
 13 14  1  0  0  0  0
 13 35  1  0  0  0  0
 14 15  1  0  0  0  0
 14 36  1  0  0  0  0
 14 37  1  0  0  0  0
 15 16  1  0  0  0  0
 15 38  1  0  0  0  0
 15 39  1  0  0  0  0
 16 17  1  0  0  0  0
 17 18  1  0  0  0  0
 17 40  1  0  0  0  0
 18 19  1  0  0  0  0
 18 20  1  0  0  0  0
 19 41  1  0  0  0  0
 19 42  1  0  0  0  0
 19 43  1  0  0  0  0
 20 44  1  0  0  0  0
 20 45  1  0  0  0  0
 20 46  1  0  0  0  0
 21 22  2  0  0  0  0
 21 47  1  0  0  0  0
 22 48  1  0  0  0  0
M  CHG  1  22   1
M  END
> <s_m_source_file>
AV-unprocessed.smi

> <i_m_source_file_index>
767

> <i_lp_mmshare_version>
43012

> <i_f3d_flags>
0

> <s_epik_input>
W0NIM11jMVtjSF1bY0hdYyhbY0hdbjEpW0NIMl1bQ0gyXVtOSF1DKD1PKVtOSF1bQ0BIXTJDKFtDSDNdKShbQ0gzXSlbQ0BIXShbQ0BASF0yMylPW0NIMl1bQ0gyXTM=

> <s_epik_cmdline>
J2VwaWtfcHl0aG9uJywgJy1waCcsICc3LjAnLCAnLXRuJywgJzgnLCAnLW1hJywgJzIwMCcsICctbWV0YWxfYmluZGluZycsICctaW1hZScsICc8aW5maWxlLm1hZT4nLCAnLW9tYWUnLCAnPG91dGZpbGUubWFlPic=

> <r_epik_Ionization_Penalty>
1.41853

> <r_epik_Ionization_Penalty_Charging>
1.41848

> <r_epik_Ionization_Penalty_Neutral>
5.17407e-05

> <r_epik_State_Penalty>
1.50205

> <r_epik_Charging_Adjusted_Penalty>
2.92053

> <i_epik_Tot_Q>
1

> <i_epik_Tot_abs_Q>
1

> <r_epik_Metal_State_Penalty>
1.5544

> <b_epik_Metal_Only>
0

> <s_lp_Force_Field>
OPLS_2005

> <r_lp_Energy>
65.9861

> <b_lp_Chiralities_Consistent>
1

> <s_lp_Variant>
AV-unprocessed.smi:767-15

> <Gold.Version>
5.8.1

> <Gold.Id.Protein>
6NUR|6NUR_protein|mol2

> <Gold.PLP.Fitness>
47.4110

> <Gold.PLP.PLP>
-35.8703

> <Gold.PLP.part.hbond>
-2.9961

> <Gold.PLP.part.metal>
0.0000

> <Gold.PLP.part.buried>
-3.1514

> <Gold.PLP.part.nonpolar>
-29.8608

> <Gold.PLP.part.repulsive>
0.3227

> <Gold.PLP.ligand.clash>
0.0000

> <Gold.PLP.ligand.torsion>
0.3323

> <Gold.PLP.Chemscore.Hbond>
3.9760

> <Gold.PLP.Chemscore.CHOScore>
0.0000

> <Gold.PLP.Chemscore.Metal>
0.0000

> <Gold.Chemscore.Hbonds>
donor molecule, donor type, donor heavy atom, donor atom, acceptor molecule, acceptor atom, score
      L1  H     8    32       P1  7948  1.00
      L1  H    11    33       P1  7948  0.98
      L1  H    22    48       P1  8028  2.00

> <Gold.PLP.Chemscore.Internal.Correction>
0.2774

> <Gold.Rescore>
     Score         DG    S(hbond)    S(metal)    S(lipo)     H(rot)  DE(clash)    DE(int)     intcor
     21.93     -22.42       2.90        0.00      95.29       1.52       0.11       0.38       ----

> <Gold.Chemscore.Fitness>
21.9275

> <Gold.Chemscore.DG>
-22.4203

> <Gold.Chemscore.ZeroCoef>
-5.4800

> <Gold.Chemscore.Hbond>
2.9013

> <Gold.Chemscore.Metal>
0.0000

> <Gold.Chemscore.Lipo>
95.2941

> <Gold.Chemscore.Internal_Hbond>
0.0000

> <Gold.Chemscore.DEClash>
0.1137

> <Gold.Chemscore.DEInternal>
0.3791

> <Gold.Chemscore.Rot>
1.5233

> <Gold.Chemscore.Internal.Correction>
   9.000000E+99

> <Gold.Chemscore.Hbonds>
donor molecule, donor type, donor heavy atom, donor atom, acceptor molecule, acceptor atom, score
      L1  H     8    32       P1  7948  0.99
      L1  H    11    33       P1  7948  0.93
      L1  H    22    48       P1  8028  0.99

> <Gold.Chemscore.Hbond.Weighted>
-9.6904

> <Gold.Chemscore.Metal.Weighted>
-0.0000

> <Gold.Chemscore.Lipo.Weighted>
-11.1494

> <Gold.Chemscore.Internal_Hbond.Weighted>
0.0000

> <Gold.Chemscore.DEClash.Weighted>
0.1137

> <Gold.Chemscore.DEInternal.Weighted>
0.3791

> <Gold.Chemscore.Rot.Weighted>
3.8995

> <Gold.Chemscore.Internal.Correction.Weighted>
   9.000000E+99

> <Gold.Protein.RotatedTorsions>
[ 6907 6896 6895 6894 ] final -132.49 input  -60.11 | X-H torsion
[ 7974 7965 7964 7962 ] final  142.67 input  175.53 | X-H torsion
[ 8008 7997 7996 7995 ] final   24.48 input   59.86 | X-H torsion
[ 10167 10162 10161 10158 ] final  -38.61 input  -65.29 | X-H torsion
[ 10718 10713 10712 10709 ] final   16.56 input   66.30 | X-H torsion
[ 10763 10752 10751 10750 ] final  -65.76 input  -60.55 | X-H torsion
[ 11005 11000 10999 10996 ] final   -0.24 input  -57.11 | X-H torsion

> <Gold.Protein.ActiveResidues>
 VAL166  LYS551  ARG553  GLY616  TRP617  ASP618  TYR619  PRO620  LYS621  CYS622 
 ASP623  PHE694  ASN695  SER759  ASP760  ASP761  ALA762  ILE779  LEU786  VAL792 
 PHE793  MET794  SER795  GLU796  ALA797  LYS798  CYS799  TRP800  GLU811  SER814 

> <Gold.Protein.RotatedAtoms>
  150.9630  133.6424  159.2750 H   0  0  0  0  0  0  0  0  0  0  0  0  # atno 6907 bound_to 6896
  151.3740  135.0926  159.9484 H   0  0  0  0  0  0  0  0  0  0  0  0  # atno 6908 bound_to 6896
  152.5155  133.9179  159.7574 H   0  0  0  0  0  0  0  0  0  0  0  0  # atno 6909 bound_to 6896
  144.8987  139.5454  143.5764 H   0  0  0  0  0  0  0  0  0  0  0  0  # atno 7974 bound_to 7965
  154.9970  140.3120  155.4883 H   0  0  0  0  0  0  0  0  0  0  0  0  # atno 8008 bound_to 7997
  156.2931  140.2239  156.5018 H   0  0  0  0  0  0  0  0  0  0  0  0  # atno 8009 bound_to 7997
  154.7652  140.0456  157.0995 H   0  0  0  0  0  0  0  0  0  0  0  0  # atno 8010 bound_to 7997
  140.7087  143.3266  151.2666 H   0  0  0  0  0  0  0  0  0  0  0  0  # atno 10167 bound_to 10162
  157.0695  130.6342  149.5802 H   0  0  0  0  0  0  0  0  0  0  0  0  # atno 10718 bound_to 10713
  154.3497  135.6139  153.5637 H   0  0  0  0  0  0  0  0  0  0  0  0  # atno 10763 bound_to 10752
  152.9799  135.5789  154.4757 H   0  0  0  0  0  0  0  0  0  0  0  0  # atno 10764 bound_to 10752
  154.4476  135.2852  155.1781 H   0  0  0  0  0  0  0  0  0  0  0  0  # atno 10765 bound_to 10752
  140.6340  133.9549  155.8290 H   0  0  0  0  0  0  0  0  0  0  0  0  # atno 11005 bound_to 11000
  146.3096  139.7699  142.9030 LP  0  0  0  0  0  0  0  0  0  0  0  0  # atno 17320 bound_to 7965
  145.3654  141.0333  143.3261 LP  0  0  0  0  0  0  0  0  0  0  0  0  # atno 17321 bound_to 7965
  139.6736  143.9977  152.2767 LP  0  0  0  0  0  0  0  0  0  0  0  0  # atno 17342 bound_to 10162
  139.9584  144.6574  150.8104 LP  0  0  0  0  0  0  0  0  0  0  0  0  # atno 17343 bound_to 10162
  155.9954  130.5021  150.7459 LP  0  0  0  0  0  0  0  0  0  0  0  0  # atno 17370 bound_to 10713
  157.4889  131.0909  151.0450 LP  0  0  0  0  0  0  0  0  0  0  0  0  # atno 17371 bound_to 10713
  141.0655  134.0284  157.3600 LP  0  0  0  0  0  0  0  0  0  0  0  0  # atno 17394 bound_to 11000
  139.9105  135.0189  156.7671 LP  0  0  0  0  0  0  0  0  0  0  0  0  # atno 17395 bound_to 11000

$$$$
