AV-unprocessed.smi:3327|AV-procd|sdf|12788|dock6
  -GOLD-   2272019133D 1   1.00000     0.00000
 Structure written by MMmdl.
 41 42  0  0  0  0  0  0  0  0  2 V2000
  154.6227  140.8585  162.3117 C   0  0  0  0  0  0  0  0  0  0  0  0
  153.4803  141.5848  161.5883 C   0  0  1  0  0  0  0  0  0  0  0  0
  153.1120  142.9070  162.2960 C   0  0  0  0  0  0  0  0  0  0  0  0
  152.0519  143.7040  161.5128 C   0  0  0  0  0  0  0  0  0  0  0  0
  152.4644  143.8646  160.0394 C   0  0  0  0  0  0  0  0  0  0  0  0
  152.6890  142.5309  159.4654 N   0  0  0  0  0  0  0  0  0  0  0  0
  151.9027  141.9298  158.5395 C   0  0  0  0  0  0  0  0  0  0  0  0
  152.1184  140.7856  158.1356 O   0  0  0  0  0  0  0  0  0  0  0  0
  150.6971  142.6970  157.9746 C   0  0  0  0  0  0  0  0  0  0  0  0
  150.7737  142.8708  156.5095 N   0  3  0  0  0  0  0  0  0  0  0  0
  150.5812  141.6253  155.7397 C   0  0  0  0  0  0  0  0  0  0  0  0
  149.2905  140.8980  156.1497 C   0  0  0  0  0  0  0  0  0  0  0  0
  148.1371  141.3598  155.3985 N   0  0  0  0  0  0  0  0  0  0  0  0
  147.9304  141.3212  154.0356 C   0  0  0  0  0  0  0  0  0  0  0  0
  146.6992  141.8611  153.7964 C   0  0  0  0  0  0  0  0  0  0  0  0
  146.2238  142.2077  155.0919 C   0  0  0  0  0  0  0  0  0  0  0  0
  147.0855  141.9033  156.0493 N   0  0  0  0  0  0  0  0  0  0  0  0
  153.8223  141.8503  160.1067 C   0  0  0  0  0  0  0  0  0  0  0  0
  155.5346  141.4564  162.3141 H   0  0  0  0  0  0  0  0  0  0  0  0
  154.8499  139.9071  161.8300 H   0  0  0  0  0  0  0  0  0  0  0  0
  154.3595  140.6478  163.3486 H   0  0  0  0  0  0  0  0  0  0  0  0
  152.6060  140.9326  161.6181 H   0  0  0  0  0  0  0  0  0  0  0  0
  152.7554  142.7085  163.3073 H   0  0  0  0  0  0  0  0  0  0  0  0
  154.0075  143.5210  162.4014 H   0  0  0  0  0  0  0  0  0  0  0  0
  151.0912  143.1905  161.5695 H   0  0  0  0  0  0  0  0  0  0  0  0
  151.9082  144.6827  161.9713 H   0  0  0  0  0  0  0  0  0  0  0  0
  151.7178  144.4540  159.5102 H   0  0  0  0  0  0  0  0  0  0  0  0
  153.3882  144.4415  159.9734 H   0  0  0  0  0  0  0  0  0  0  0  0
  149.7796  142.1594  158.2178 H   0  0  0  0  0  0  0  0  0  0  0  0
  150.6477  143.6818  158.4410 H   0  0  0  0  0  0  0  0  0  0  0  0
  150.0627  143.5326  156.2306 H   0  0  0  0  0  0  0  0  0  0  0  0
  150.5399  141.8731  154.6784 H   0  0  0  0  0  0  0  0  0  0  0  0
  151.4407  140.9684  155.8812 H   0  0  0  0  0  0  0  0  0  0  0  0
  149.3939  139.8194  156.0209 H   0  0  0  0  0  0  0  0  0  0  0  0
  149.0937  141.0672  157.2091 H   0  0  0  0  0  0  0  0  0  0  0  0
  148.6674  140.9167  153.3568 H   0  0  0  0  0  0  0  0  0  0  0  0
  146.2127  141.9907  152.8409 H   0  0  0  0  0  0  0  0  0  0  0  0
  145.2845  142.6664  155.3635 H   0  0  0  0  0  0  0  0  0  0  0  0
  154.7102  142.4800  160.0303 H   0  0  0  0  0  0  0  0  0  0  0  0
  154.0838  140.9139  159.6119 H   0  0  0  0  0  0  0  0  0  0  0  0
  151.6765  143.2606  156.2785 H   0  0  0  0  0  0  0  0  0  0  0  0
  1  2  1  0  0  0  0
  1 19  1  0  0  0  0
  1 20  1  0  0  0  0
  1 21  1  0  0  0  0
  2 18  1  0  0  0  0
  2  3  1  0  0  0  0
  2 22  1  0  0  0  0
  3  4  1  0  0  0  0
  3 23  1  0  0  0  0
  3 24  1  0  0  0  0
  4  5  1  0  0  0  0
  4 25  1  0  0  0  0
  4 26  1  0  0  0  0
  5  6  1  0  0  0  0
  5 27  1  0  0  0  0
  5 28  1  0  0  0  0
  6  7  1  0  0  0  0
  6 18  1  0  0  0  0
  7  8  2  0  0  0  0
  7  9  1  0  0  0  0
  9 10  1  0  0  0  0
  9 29  1  0  0  0  0
  9 30  1  0  0  0  0
 10 11  1  0  0  0  0
 10 31  1  0  0  0  0
 10 41  1  0  0  0  0
 11 12  1  0  0  0  0
 11 32  1  0  0  0  0
 11 33  1  0  0  0  0
 12 13  1  0  0  0  0
 12 34  1  0  0  0  0
 12 35  1  0  0  0  0
 13 17  1  0  0  0  0
 13 14  1  0  0  0  0
 14 15  2  0  0  0  0
 14 36  1  0  0  0  0
 15 16  1  0  0  0  0
 15 37  1  0  0  0  0
 16 17  2  0  0  0  0
 16 38  1  0  0  0  0
 18 39  1  0  0  0  0
 18 40  1  0  0  0  0
M  CHG  1  10   1
M  END
> <s_m_source_file>
AV-unprocessed.smi

> <i_m_source_file_index>
3327

> <i_lp_mmshare_version>
43012

> <i_f3d_flags>
0

> <s_epik_input>
W0NIM11bQ0BASF0xW0NIMl1bQ0gyXVtDSDJdTihbQ0gyXTEpQyg9TylbQ0gyXVtOSF1bQ0gyXVtDSDJdbjJbY0hdW2NIXVtjSF1uMg==

> <s_epik_cmdline>
J2VwaWtfcHl0aG9uJywgJy1waCcsICc3LjAnLCAnLXRuJywgJzgnLCAnLW1hJywgJzIwMCcsICctbWV0YWxfYmluZGluZycsICctaW1hZScsICc8aW5maWxlLm1hZT4nLCAnLW9tYWUnLCAnPG91dGZpbGUubWFlPic=

> <r_lp_tautomer_probability>
1

> <r_epik_Ionization_Penalty>
0.195801

> <r_epik_Ionization_Penalty_Charging>
0.195799

> <r_epik_Ionization_Penalty_Neutral>
2.33113e-06

> <r_epik_State_Penalty>
0.185548

> <r_epik_Charging_Adjusted_Penalty>
0.381347

> <i_epik_Tot_Q>
1

> <i_epik_Tot_abs_Q>
1

> <r_epik_Metal_State_Penalty>
0.186014

> <b_epik_Metal_Only>
0

> <s_lp_Force_Field>
OPLS_2005

> <r_lp_Energy>
21.4811

> <b_lp_Chiralities_Consistent>
1

> <s_lp_Variant>
AV-unprocessed.smi:3327-2

> <Gold.Version>
5.8.1

> <Gold.Id.Protein>
6NUR|6NUR_protein|mol2

> <Gold.PLP.Fitness>
53.3338

> <Gold.PLP.PLP>
-44.7207

> <Gold.PLP.part.hbond>
-1.0000

> <Gold.PLP.part.metal>
0.0000

> <Gold.PLP.part.buried>
-4.9474

> <Gold.PLP.part.nonpolar>
-38.3998

> <Gold.PLP.part.repulsive>
0.2110

> <Gold.PLP.ligand.clash>
0.0000

> <Gold.PLP.ligand.torsion>
0.2090

> <Gold.PLP.Chemscore.Hbond>
2.0000

> <Gold.PLP.Chemscore.CHOScore>
1.0000

> <Gold.PLP.Chemscore.Metal>
0.0000

> <Gold.Chemscore.Hbonds>
donor molecule, donor type, donor heavy atom, donor atom, acceptor molecule, acceptor atom, score
      L1  H    10    31       P1  8028  2.00
      L1  C    14    36       P1  7957  0.98

> <Gold.PLP.Chemscore.Internal.Correction>
0.0311

> <Gold.Rescore>
     Score         DG    S(hbond)    S(metal)    S(lipo)     H(rot)  DE(clash)    DE(int)     intcor
     15.78     -16.89       1.00        0.00     108.30       1.80       0.04       1.07       ----

> <Gold.Chemscore.Fitness>
15.7794

> <Gold.Chemscore.DG>
-16.8922

> <Gold.Chemscore.ZeroCoef>
-5.4800

> <Gold.Chemscore.Hbond>
1.0000

> <Gold.Chemscore.Metal>
0.0000

> <Gold.Chemscore.Lipo>
108.2963

> <Gold.Chemscore.Internal_Hbond>
0.0000

> <Gold.Chemscore.DEClash>
0.0395

> <Gold.Chemscore.DEInternal>
1.0733

> <Gold.Chemscore.Rot>
1.7963

> <Gold.Chemscore.Internal.Correction>
   9.000000E+99

> <Gold.Chemscore.Hbonds>
donor molecule, donor type, donor heavy atom, donor atom, acceptor molecule, acceptor atom, score
      L1  H    10    31       P1  8028  1.00

> <Gold.Chemscore.Hbond.Weighted>
-3.3400

> <Gold.Chemscore.Metal.Weighted>
-0.0000

> <Gold.Chemscore.Lipo.Weighted>
-12.6707

> <Gold.Chemscore.Internal_Hbond.Weighted>
0.0000

> <Gold.Chemscore.DEClash.Weighted>
0.0395

> <Gold.Chemscore.DEInternal.Weighted>
1.0733

> <Gold.Chemscore.Rot.Weighted>
4.5985

> <Gold.Chemscore.Internal.Correction.Weighted>
   9.000000E+99

> <Gold.Protein.RotatedTorsions>
[ 6907 6896 6895 6894 ] final   13.09 input  -60.11 | X-H torsion
[ 7974 7965 7964 7962 ] final -160.22 input  175.53 | X-H torsion
[ 8008 7997 7996 7995 ] final  155.99 input   59.86 | X-H torsion
[ 10167 10162 10161 10158 ] final  179.33 input  -65.29 | X-H torsion
[ 10718 10713 10712 10709 ] final   86.13 input   66.30 | X-H torsion
[ 10763 10752 10751 10750 ] final   95.19 input  -60.55 | X-H torsion
[ 11005 11000 10999 10996 ] final -114.07 input  -57.11 | X-H torsion

> <Gold.Protein.ActiveResidues>
 VAL166  LYS551  ARG553  GLY616  TRP617  ASP618  TYR619  PRO620  LYS621  CYS622 
 ASP623  PHE694  ASN695  SER759  ASP760  ASP761  ALA762  ILE779  LEU786  VAL792 
 PHE793  MET794  SER795  GLU796  ALA797  LYS798  CYS799  TRP800  GLU811  SER814 

> <Gold.Protein.RotatedAtoms>
  151.7807  135.0762  160.0373 H   0  0  0  0  0  0  0  0  0  0  0  0  # atno 6907 bound_to 6896
  152.3225  133.5865  159.5762 H   0  0  0  0  0  0  0  0  0  0  0  0  # atno 6908 bound_to 6896
  150.7377  133.9906  159.3647 H   0  0  0  0  0  0  0  0  0  0  0  0  # atno 6909 bound_to 6896
  144.7435  140.3573  143.6103 H   0  0  0  0  0  0  0  0  0  0  0  0  # atno 7974 bound_to 7965
  156.2447  140.1924  156.6887 H   0  0  0  0  0  0  0  0  0  0  0  0  # atno 8008 bound_to 7997
  154.6268  140.0601  156.9709 H   0  0  0  0  0  0  0  0  0  0  0  0  # atno 8009 bound_to 7997
  155.1774  140.3273  155.4384 H   0  0  0  0  0  0  0  0  0  0  0  0  # atno 8010 bound_to 7997
  139.5331  144.2574  152.0735 H   0  0  0  0  0  0  0  0  0  0  0  0  # atno 10167 bound_to 10162
  157.6924  131.0203  150.2926 H   0  0  0  0  0  0  0  0  0  0  0  0  # atno 10718 bound_to 10713
  153.2503  135.4263  155.0790 H   0  0  0  0  0  0  0  0  0  0  0  0  # atno 10763 bound_to 10752
  154.8378  135.3424  154.6523 H   0  0  0  0  0  0  0  0  0  0  0  0  # atno 10764 bound_to 10752
  153.6944  135.7032  153.5137 H   0  0  0  0  0  0  0  0  0  0  0  0  # atno 10765 bound_to 10752
  141.0575  133.9589  157.2728 H   0  0  0  0  0  0  0  0  0  0  0  0  # atno 11005 bound_to 11000
  145.7214  139.1711  143.2482 LP  0  0  0  0  0  0  0  0  0  0  0  0  # atno 17320 bound_to 7965
  146.1274  140.7230  142.9428 LP  0  0  0  0  0  0  0  0  0  0  0  0  # atno 17321 bound_to 7965
  140.2041  144.4629  150.6417 LP  0  0  0  0  0  0  0  0  0  0  0  0  # atno 17342 bound_to 10162
  140.6522  143.2228  151.6050 LP  0  0  0  0  0  0  0  0  0  0  0  0  # atno 17343 bound_to 10162
  156.3455  130.3822  149.7373 LP  0  0  0  0  0  0  0  0  0  0  0  0  # atno 17370 bound_to 10713
  156.4868  130.8066  151.3078 LP  0  0  0  0  0  0  0  0  0  0  0  0  # atno 17371 bound_to 10713
  139.9403  135.0192  156.8686 LP  0  0  0  0  0  0  0  0  0  0  0  0  # atno 17394 bound_to 11000
  140.5935  134.0239  155.7509 LP  0  0  0  0  0  0  0  0  0  0  0  0  # atno 17395 bound_to 11000

$$$$
