AV-unprocessed.smi:232|AV-procd|sdf|1778|dock2
  -GOLD-   2262020323D 1   1.00000     0.00000
 Structure written by MMmdl.
 52 55  0  0  0  0  0  0  0  0  1 V2000
  148.5216  132.6549  159.8226 C   0  0  0  0  0  0  0  0  0  0  0  0
  147.3654  133.5482  159.3550 C   0  0  0  0  0  0  0  0  0  0  0  0
  146.8939  134.5458  160.4355 C   0  0  1  0  0  0  0  0  0  0  0  0
  146.6705  133.8902  161.8129 C   0  0  0  0  0  0  0  0  0  0  0  0
  147.4517  134.7506  162.8120 C   0  0  0  0  0  0  0  0  0  0  0  0
  147.7372  136.0517  162.0617 C   0  0  2  0  0  0  0  0  0  0  0  0
  146.6156  137.0899  162.2727 C   0  0  0  0  0  0  0  0  0  0  0  0
  147.8612  135.6177  160.6746 N   0  0  0  0  0  0  0  0  0  0  0  0
  148.0967  136.5786  159.7413 C   0  0  0  0  0  0  0  0  0  0  0  0
  147.0816  137.0231  158.9527 N   0  0  0  0  0  0  0  0  0  0  0  0
  147.2974  137.9799  158.0457 C   0  0  0  0  0  0  0  0  0  0  0  0
  148.4319  138.6224  157.7650 N   0  0  0  0  0  0  0  0  0  0  0  0
  149.4555  138.1797  158.5495 C   0  0  0  0  0  0  0  0  0  0  0  0
  149.3771  137.1718  159.5520 C   0  0  0  0  0  0  0  0  0  0  0  0
  150.6277  136.9851  160.1299 N   0  0  0  0  0  0  0  0  0  0  0  0
  151.4003  137.8303  159.5039 C   0  0  0  0  0  0  0  0  0  0  0  0
  150.7785  138.5846  158.5362 N   0  0  0  0  0  0  0  0  0  0  0  0
  151.3996  139.5802  157.6823 C   0  0  0  0  0  0  0  0  0  0  0  0
  150.7827  140.9852  157.8474 C   0  0  2  0  0  0  0  0  0  0  0  0
  149.8931  141.1806  156.7665 O   0  0  0  0  0  0  0  0  0  0  0  0
  151.8142  142.1354  157.8694 C   0  0  1  0  0  0  0  0  0  0  0  0
  151.2108  143.5399  157.7974 C   0  0  0  0  0  0  0  0  0  0  0  0
  152.2777  144.4230  158.4261 C   0  0  0  0  0  0  0  0  0  0  0  0
  153.1812  143.4368  159.1703 C   0  0  0  0  0  0  0  0  0  0  0  0
  152.4885  142.1992  159.1174 O   0  0  0  0  0  0  0  0  0  0  0  0
  148.8040  131.9481  159.0422 H   0  0  0  0  0  0  0  0  0  0  0  0
  148.2394  132.0799  160.7051 H   0  0  0  0  0  0  0  0  0  0  0  0
  149.4065  133.2403  160.0725 H   0  0  0  0  0  0  0  0  0  0  0  0
  147.6616  134.0911  158.4565 H   0  0  0  0  0  0  0  0  0  0  0  0
  146.5417  132.9012  159.0541 H   0  0  0  0  0  0  0  0  0  0  0  0
  145.9535  134.9979  160.1164 H   0  0  0  0  0  0  0  0  0  0  0  0
  145.6069  133.8864  162.0539 H   0  0  0  0  0  0  0  0  0  0  0  0
  147.0169  132.8569  161.8508 H   0  0  0  0  0  0  0  0  0  0  0  0
  146.9202  134.9006  163.7523 H   0  0  0  0  0  0  0  0  0  0  0  0
  148.3962  134.2572  163.0459 H   0  0  0  0  0  0  0  0  0  0  0  0
  148.6792  136.4655  162.4203 H   0  0  0  0  0  0  0  0  0  0  0  0
  146.5152  137.3419  163.3285 H   0  0  0  0  0  0  0  0  0  0  0  0
  145.6497  136.7192  161.9285 H   0  0  0  0  0  0  0  0  0  0  0  0
  146.8253  138.0174  161.7392 H   0  0  0  0  0  0  0  0  0  0  0  0
  146.4371  138.2724  157.4620 H   0  0  0  0  0  0  0  0  0  0  0  0
  152.4535  137.9220  159.7264 H   0  0  0  0  0  0  0  0  0  0  0  0
  152.4682  139.6057  157.9004 H   0  0  0  0  0  0  0  0  0  0  0  0
  151.3031  139.2455  156.6484 H   0  0  0  0  0  0  0  0  0  0  0  0
  150.1928  141.0155  158.7645 H   0  0  0  0  0  0  0  0  0  0  0  0
  149.0837  140.7335  156.9604 H   0  0  0  0  0  0  0  0  0  0  0  0
  152.5470  142.0056  157.0702 H   0  0  0  0  0  0  0  0  0  0  0  0
  150.9600  143.8403  156.7797 H   0  0  0  0  0  0  0  0  0  0  0  0
  150.2998  143.5872  158.3958 H   0  0  0  0  0  0  0  0  0  0  0  0
  152.8446  144.9653  157.6687 H   0  0  0  0  0  0  0  0  0  0  0  0
  151.8321  145.1540  159.1017 H   0  0  0  0  0  0  0  0  0  0  0  0
  154.1404  143.3322  158.6610 H   0  0  0  0  0  0  0  0  0  0  0  0
  153.3719  143.7355  160.2012 H   0  0  0  0  0  0  0  0  0  0  0  0
  1  2  1  0  0  0  0
  1 26  1  0  0  0  0
  1 27  1  0  0  0  0
  1 28  1  0  0  0  0
  2  3  1  0  0  0  0
  2 29  1  0  0  0  0
  2 30  1  0  0  0  0
  3  8  1  0  0  0  0
  3  4  1  0  0  0  0
  3 31  1  0  0  0  0
  4  5  1  0  0  0  0
  4 32  1  0  0  0  0
  4 33  1  0  0  0  0
  5  6  1  0  0  0  0
  5 34  1  0  0  0  0
  5 35  1  0  0  0  0
  6  7  1  0  0  0  0
  6  8  1  0  0  0  0
  6 36  1  0  0  0  0
  7 37  1  0  0  0  0
  7 38  1  0  0  0  0
  7 39  1  0  0  0  0
  8  9  1  0  0  0  0
  9 14  1  0  0  0  0
  9 10  2  0  0  0  0
 10 11  1  0  0  0  0
 11 12  2  0  0  0  0
 11 40  1  0  0  0  0
 12 13  1  0  0  0  0
 13 17  1  0  0  0  0
 13 14  2  0  0  0  0
 14 15  1  0  0  0  0
 15 16  2  0  0  0  0
 16 17  1  0  0  0  0
 16 41  1  0  0  0  0
 17 18  1  0  0  0  0
 18 19  1  0  0  0  0
 18 42  1  0  0  0  0
 18 43  1  0  0  0  0
 19 20  1  0  0  0  0
 19 21  1  0  0  0  0
 19 44  1  0  0  0  0
 20 45  1  0  0  0  0
 21 25  1  0  0  0  0
 21 22  1  0  0  0  0
 21 46  1  0  0  0  0
 22 23  1  0  0  0  0
 22 47  1  0  0  0  0
 22 48  1  0  0  0  0
 23 24  1  0  0  0  0
 23 49  1  0  0  0  0
 23 50  1  0  0  0  0
 24 25  1  0  0  0  0
 24 51  1  0  0  0  0
 24 52  1  0  0  0  0
M  END
> <s_m_source_file>
AV-unprocessed.smi

> <i_m_source_file_index>
232

> <i_lp_mmshare_version>
43012

> <i_f3d_flags>
0

> <s_epik_input>
W0NIM11bQ0gyXVtDQEBIXTFbQ0gyXVtDSDJdW0NAQEhdKFtDSDNdKU4xYyhuW2NIXW4yKWMoYzIzKW5bY0hdbjNbQ0gyXVtDQEhdKFtPSF0pW0NAQEhdNFtDSDJdW0NIMl1bQ0gyXU80

> <s_epik_cmdline>
J2VwaWtfcHl0aG9uJywgJy1waCcsICc3LjAnLCAnLXRuJywgJzgnLCAnLW1hJywgJzIwMCcsICctbWV0YWxfYmluZGluZycsICctaW1hZScsICc8aW5maWxlLm1hZT4nLCAnLW9tYWUnLCAnPG91dGZpbGUubWFlPic=

> <r_lp_tautomer_probability>
1

> <r_epik_Ionization_Penalty>
0.00258048

> <r_epik_Ionization_Penalty_Charging>
0

> <r_epik_Ionization_Penalty_Neutral>
0.00258048

> <r_epik_State_Penalty>
0.00168551

> <r_epik_Charging_Adjusted_Penalty>
0.00168551

> <i_epik_Tot_Q>
0

> <i_epik_Tot_abs_Q>
0

> <r_epik_Metal_State_Penalty>
-0

> <b_epik_Metal_Only>
0

> <s_lp_Force_Field>
OPLS_2005

> <r_lp_Energy>
52.3854

> <b_lp_Chiralities_Consistent>
1

> <s_lp_Variant>
AV-unprocessed.smi:232-12

> <Gold.Version>
5.8.1

> <Gold.Id.Protein>
6NUR|6NUR_protein|mol2

> <Gold.PLP.Fitness>
42.2153

> <Gold.PLP.PLP>
-41.7243

> <Gold.PLP.part.hbond>
-1.6172

> <Gold.PLP.part.metal>
0.0000

> <Gold.PLP.part.buried>
-5.2074

> <Gold.PLP.part.nonpolar>
-36.1932

> <Gold.PLP.part.repulsive>
0.0000

> <Gold.PLP.ligand.clash>
0.0000

> <Gold.PLP.ligand.torsion>
1.4134

> <Gold.PLP.Chemscore.Hbond>
1.0000

> <Gold.PLP.Chemscore.CHOScore>
0.0000

> <Gold.PLP.Chemscore.Metal>
0.0000

> <Gold.Chemscore.Hbonds>
donor molecule, donor type, donor heavy atom, donor atom, acceptor molecule, acceptor atom, score
      P1  H  6896  6907       L1    15  1.00

> <Gold.PLP.Chemscore.Internal.Correction>
0.3180

> <Gold.Rescore>
     Score         DG    S(hbond)    S(metal)    S(lipo)     H(rot)  DE(clash)    DE(int)     intcor
     13.49     -14.66       0.89        0.00     106.19       2.43       0.03       1.15       ----

> <Gold.Chemscore.Fitness>
13.4883

> <Gold.Chemscore.DG>
-14.6632

> <Gold.Chemscore.ZeroCoef>
-5.4800

> <Gold.Chemscore.Hbond>
0.8891

> <Gold.Chemscore.Metal>
0.0000

> <Gold.Chemscore.Lipo>
106.1908

> <Gold.Chemscore.Internal_Hbond>
0.0000

> <Gold.Chemscore.DEClash>
0.0263

> <Gold.Chemscore.DEInternal>
1.1486

> <Gold.Chemscore.Rot>
2.4260

> <Gold.Chemscore.Internal.Correction>
   9.000000E+99

> <Gold.Chemscore.Hbonds>
donor molecule, donor type, donor heavy atom, donor atom, acceptor molecule, acceptor atom, score
      P1  H  6896  6907       L1    15  0.63

> <Gold.Chemscore.Hbond.Weighted>
-2.9695

> <Gold.Chemscore.Metal.Weighted>
-0.0000

> <Gold.Chemscore.Lipo.Weighted>
-12.4243

> <Gold.Chemscore.Internal_Hbond.Weighted>
0.0000

> <Gold.Chemscore.DEClash.Weighted>
0.0263

> <Gold.Chemscore.DEInternal.Weighted>
1.1486

> <Gold.Chemscore.Rot.Weighted>
6.2107

> <Gold.Chemscore.Internal.Correction.Weighted>
   9.000000E+99

> <Gold.Protein.RotatedTorsions>
[ 6907 6896 6895 6894 ] final   -8.10 input  -60.11 | X-H torsion
[ 7974 7965 7964 7962 ] final -113.59 input  175.53 | X-H torsion
[ 8008 7997 7996 7995 ] final   33.37 input   59.86 | X-H torsion
[ 10167 10162 10161 10158 ] final   59.38 input  -65.29 | X-H torsion
[ 10718 10713 10712 10709 ] final  -58.12 input   66.30 | X-H torsion
[ 10763 10752 10751 10750 ] final -102.23 input  -60.55 | X-H torsion
[ 11005 11000 10999 10996 ] final  154.84 input  -57.11 | X-H torsion

> <Gold.Protein.ActiveResidues>
 VAL166  LYS551  ARG553  GLY616  TRP617  ASP618  TYR619  PRO620  LYS621  CYS622 
 ASP623  PHE694  ASN695  SER759  ASP760  ASP761  ALA762  ILE779  LEU786  VAL792 
 PHE793  MET794  SER795  GLU796  ALA797  LYS798  CYS799  TRP800  GLU811  SER814 

> <Gold.Protein.RotatedAtoms>
  151.4391  135.1018  159.9664 H   0  0  0  0  0  0  0  0  0  0  0  0  # atno 6907 bound_to 6896
  152.4929  133.8546  159.7229 H   0  0  0  0  0  0  0  0  0  0  0  0  # atno 6908 bound_to 6896
  150.9101  133.6950  159.2884 H   0  0  0  0  0  0  0  0  0  0  0  0  # atno 6909 bound_to 6896
  145.1303  140.8720  143.3762 H   0  0  0  0  0  0  0  0  0  0  0  0  # atno 7974 bound_to 7965
  155.1376  140.3263  155.4459 H   0  0  0  0  0  0  0  0  0  0  0  0  # atno 8008 bound_to 7997
  156.2615  140.1999  156.6442 H   0  0  0  0  0  0  0  0  0  0  0  0  # atno 8009 bound_to 7997
  154.6566  140.0552  157.0002 H   0  0  0  0  0  0  0  0  0  0  0  0  # atno 8010 bound_to 7997
  140.1770  144.4220  150.6633 H   0  0  0  0  0  0  0  0  0  0  0  0  # atno 10167 bound_to 10162
  156.1159  130.4170  150.0534 H   0  0  0  0  0  0  0  0  0  0  0  0  # atno 10718 bound_to 10713
  154.7718  135.4868  153.9664 H   0  0  0  0  0  0  0  0  0  0  0  0  # atno 10763 bound_to 10752
  153.1377  135.6766  153.9084 H   0  0  0  0  0  0  0  0  0  0  0  0  # atno 10764 bound_to 10752
  153.8768  135.3137  155.3422 H   0  0  0  0  0  0  0  0  0  0  0  0  # atno 10765 bound_to 10752
  140.1527  134.8664  157.2474 H   0  0  0  0  0  0  0  0  0  0  0  0  # atno 11005 bound_to 11000
  145.0643  139.3081  143.5864 LP  0  0  0  0  0  0  0  0  0  0  0  0  # atno 17320 bound_to 7965
  146.3514  140.0096  142.8668 LP  0  0  0  0  0  0  0  0  0  0  0  0  # atno 17321 bound_to 7965
  140.6544  143.2233  151.6002 LP  0  0  0  0  0  0  0  0  0  0  0  0  # atno 17342 bound_to 10162
  139.5312  144.2909  152.1152 LP  0  0  0  0  0  0  0  0  0  0  0  0  # atno 17343 bound_to 10162
  156.8485  130.9450  151.3627 LP  0  0  0  0  0  0  0  0  0  0  0  0  # atno 17370 bound_to 10713
  157.6342  130.8753  149.9328 LP  0  0  0  0  0  0  0  0  0  0  0  0  # atno 17371 bound_to 10713
  140.2585  134.3598  155.7415 LP  0  0  0  0  0  0  0  0  0  0  0  0  # atno 17394 bound_to 11000
  141.2201  133.7356  156.9045 LP  0  0  0  0  0  0  0  0  0  0  0  0  # atno 17395 bound_to 11000

$$$$
