AV-unprocessed.smi:3086|AV-procd|sdf|11765|dock7
  -GOLD-   2272017143D 1   1.00000     0.00000
 Structure written by MMmdl.
 30 31  0  0  0  0  0  0  0  0  2 V2000
  152.8380  137.7980  155.9151 C   0  0  0  0  0  0  0  0  0  0  0  0
  152.0816  139.0477  156.2115 C   0  0  0  0  0  0  0  0  0  0  0  0
  151.0100  139.4598  155.4750 N   0  0  0  0  0  0  0  0  0  0  0  0
  150.6953  140.5775  156.1205 C   0  0  0  0  0  0  0  0  0  0  0  0
  149.5455  141.4598  155.7566 C   0  0  0  0  0  0  0  0  0  0  0  0
  151.5184  140.8379  157.1479 N   0  0  0  0  0  0  0  0  0  0  0  0
  151.5007  141.9149  158.1324 C   0  0  1  0  0  0  0  0  0  0  0  0
  152.5931  141.7015  159.1975 C   0  0  0  0  0  0  0  0  0  0  0  0
  152.5725  142.8449  160.2236 C   0  0  0  0  0  0  0  0  0  0  0  0
  152.6860  144.2119  159.5281 C   0  0  0  0  0  0  0  0  0  0  0  0
  151.6231  144.3734  158.5119 N   0  3  0  0  0  0  0  0  0  0  0  0
  151.6442  143.3108  157.4830 C   0  0  0  0  0  0  0  0  0  0  0  0
  152.4205  139.8292  157.2334 N   0  0  0  0  0  0  0  0  0  0  0  0
  152.3700  137.2481  155.0980 H   0  0  0  0  0  0  0  0  0  0  0  0
  152.8629  137.1534  156.7941 H   0  0  0  0  0  0  0  0  0  0  0  0
  153.8628  138.0353  155.6285 H   0  0  0  0  0  0  0  0  0  0  0  0
  148.9354  140.9912  154.9837 H   0  0  0  0  0  0  0  0  0  0  0  0
  149.9108  142.4148  155.3788 H   0  0  0  0  0  0  0  0  0  0  0  0
  148.9164  141.6408  156.6284 H   0  0  0  0  0  0  0  0  0  0  0  0
  150.5306  141.8864  158.6303 H   0  0  0  0  0  0  0  0  0  0  0  0
  152.4467  140.7462  159.7034 H   0  0  0  0  0  0  0  0  0  0  0  0
  153.5744  141.6549  158.7227 H   0  0  0  0  0  0  0  0  0  0  0  0
  151.6475  142.8021  160.8003 H   0  0  0  0  0  0  0  0  0  0  0  0
  153.3874  142.7197  160.9372 H   0  0  0  0  0  0  0  0  0  0  0  0
  152.6057  145.0166  160.2592 H   0  0  0  0  0  0  0  0  0  0  0  0
  153.6601  144.3128  159.0477 H   0  0  0  0  0  0  0  0  0  0  0  0
  150.7269  144.3529  158.9773 H   0  0  0  0  0  0  0  0  0  0  0  0
  152.5774  143.3924  156.9238 H   0  0  0  0  0  0  0  0  0  0  0  0
  150.8322  143.4872  156.7769 H   0  0  0  0  0  0  0  0  0  0  0  0
  151.7353  145.2698  158.0595 H   0  0  0  0  0  0  0  0  0  0  0  0
  1  2  1  0  0  0  0
  1 14  1  0  0  0  0
  1 15  1  0  0  0  0
  1 16  1  0  0  0  0
  2 13  2  0  0  0  0
  2  3  1  0  0  0  0
  3  4  2  0  0  0  0
  4  5  1  0  0  0  0
  4  6  1  0  0  0  0
  5 17  1  0  0  0  0
  5 18  1  0  0  0  0
  5 19  1  0  0  0  0
  6  7  1  0  0  0  0
  6 13  1  0  0  0  0
  7 12  1  0  0  0  0
  7  8  1  0  0  0  0
  7 20  1  0  0  0  0
  8  9  1  0  0  0  0
  8 21  1  0  0  0  0
  8 22  1  0  0  0  0
  9 10  1  0  0  0  0
  9 23  1  0  0  0  0
  9 24  1  0  0  0  0
 10 11  1  0  0  0  0
 10 25  1  0  0  0  0
 10 26  1  0  0  0  0
 11 12  1  0  0  0  0
 11 27  1  0  0  0  0
 11 30  1  0  0  0  0
 12 28  1  0  0  0  0
 12 29  1  0  0  0  0
M  CHG  1  11   1
M  END
> <s_m_source_file>
AV-unprocessed.smi

> <i_m_source_file_index>
3086

> <i_lp_mmshare_version>
43012

> <i_f3d_flags>
0

> <s_epik_input>
W0NIM11jMW5jKFtDSDNdKW4objEpW0NAQEhdMltDSDJdW0NIMl1bQ0gyXVtOSF1bQ0gyXTI=

> <s_epik_cmdline>
J2VwaWtfcHl0aG9uJywgJy1waCcsICc3LjAnLCAnLXRuJywgJzgnLCAnLW1hJywgJzIwMCcsICctbWV0YWxfYmluZGluZycsICctaW1hZScsICc8aW5maWxlLm1hZT4nLCAnLW9tYWUnLCAnPG91dGZpbGUubWFlPic=

> <r_lp_tautomer_probability>
1

> <r_epik_Ionization_Penalty>
0.000522417

> <r_epik_Ionization_Penalty_Charging>
0.000474443

> <r_epik_Ionization_Penalty_Neutral>
4.79736e-05

> <r_epik_State_Penalty>
-0

> <r_epik_Charging_Adjusted_Penalty>
0.000474443

> <i_epik_Tot_Q>
1

> <i_epik_Tot_abs_Q>
1

> <r_epik_Metal_State_Penalty>
-0

> <b_epik_Metal_Only>
0

> <s_lp_Force_Field>
OPLS_2005

> <r_lp_Energy>
16.4369

> <b_lp_Chiralities_Consistent>
1

> <s_lp_Variant>
AV-unprocessed.smi:3086-2

> <Gold.Version>
5.8.1

> <Gold.Id.Protein>
6NUR|6NUR_protein|mol2

> <Gold.PLP.Fitness>
36.0681

> <Gold.PLP.PLP>
-30.0702

> <Gold.PLP.part.hbond>
-2.0000

> <Gold.PLP.part.metal>
0.0000

> <Gold.PLP.part.buried>
-1.5307

> <Gold.PLP.part.nonpolar>
-26.3985

> <Gold.PLP.part.repulsive>
0.1220

> <Gold.PLP.ligand.clash>
0.0000

> <Gold.PLP.ligand.torsion>
0.0216

> <Gold.PLP.Chemscore.Hbond>
2.0000

> <Gold.PLP.Chemscore.CHOScore>
0.0000

> <Gold.PLP.Chemscore.Metal>
0.0000

> <Gold.Chemscore.Hbonds>
donor molecule, donor type, donor heavy atom, donor atom, acceptor molecule, acceptor atom, score
      P1  H  7997  8010       L1    13  0.69

> <Gold.PLP.Chemscore.Internal.Correction>
0.0412

> <Gold.Rescore>
     Score         DG    S(hbond)    S(metal)    S(lipo)     H(rot)  DE(clash)    DE(int)     intcor
     13.24     -13.40       0.67        0.00      70.42       1.00       0.14       0.02       ----

> <Gold.Chemscore.Fitness>
13.2381

> <Gold.Chemscore.DG>
-13.3991

> <Gold.Chemscore.ZeroCoef>
-5.4800

> <Gold.Chemscore.Hbond>
0.6705

> <Gold.Chemscore.Metal>
0.0000

> <Gold.Chemscore.Lipo>
70.4235

> <Gold.Chemscore.Internal_Hbond>
0.0000

> <Gold.Chemscore.DEClash>
0.1393

> <Gold.Chemscore.DEInternal>
0.0217

> <Gold.Chemscore.Rot>
1.0000

> <Gold.Chemscore.Internal.Correction>
   9.000000E+99

> <Gold.Chemscore.Hbonds>
donor molecule, donor type, donor heavy atom, donor atom, acceptor molecule, acceptor atom, score
      P1  H  7997  8010       L1    13  0.08

> <Gold.Chemscore.Hbond.Weighted>
-2.2396

> <Gold.Chemscore.Metal.Weighted>
-0.0000

> <Gold.Chemscore.Lipo.Weighted>
-8.2395

> <Gold.Chemscore.Internal_Hbond.Weighted>
0.0000

> <Gold.Chemscore.DEClash.Weighted>
0.1393

> <Gold.Chemscore.DEInternal.Weighted>
0.0217

> <Gold.Chemscore.Rot.Weighted>
2.5600

> <Gold.Chemscore.Internal.Correction.Weighted>
   9.000000E+99

> <Gold.Protein.RotatedTorsions>
[ 6907 6896 6895 6894 ] final   -7.93 input  -60.11 | X-H torsion
[ 7974 7965 7964 7962 ] final -139.67 input  175.53 | X-H torsion
[ 8008 7997 7996 7995 ] final   62.49 input   59.86 | X-H torsion
[ 10167 10162 10161 10158 ] final  -14.55 input  -65.29 | X-H torsion
[ 10718 10713 10712 10709 ] final   56.61 input   66.30 | X-H torsion
[ 10763 10752 10751 10750 ] final  -45.36 input  -60.55 | X-H torsion
[ 11005 11000 10999 10996 ] final   49.20 input  -57.11 | X-H torsion

> <Gold.Protein.ActiveResidues>
 VAL166  LYS551  ARG553  GLY616  TRP617  ASP618  TYR619  PRO620  LYS621  CYS622 
 ASP623  PHE694  ASN695  SER759  ASP760  ASP761  ALA762  ILE779  LEU786  VAL792 
 PHE793  MET794  SER795  GLU796  ALA797  LYS798  CYS799  TRP800  GLU811  SER814 

> <Gold.Protein.RotatedAtoms>
  151.4417  135.1021  159.9671 H   0  0  0  0  0  0  0  0  0  0  0  0  # atno 6907 bound_to 6896
  152.4920  133.8523  159.7218 H   0  0  0  0  0  0  0  0  0  0  0  0  # atno 6908 bound_to 6896
  150.9084  133.6970  159.2888 H   0  0  0  0  0  0  0  0  0  0  0  0  # atno 6909 bound_to 6896
  144.8658  140.6291  143.5299 H   0  0  0  0  0  0  0  0  0  0  0  0  # atno 7974 bound_to 7965
  155.6152  140.3495  155.4634 H   0  0  0  0  0  0  0  0  0  0  0  0  # atno 8008 bound_to 7997
  156.0123  140.1236  157.0465 H   0  0  0  0  0  0  0  0  0  0  0  0  # atno 8009 bound_to 7997
  154.4285  140.1079  156.5833 H   0  0  0  0  0  0  0  0  0  0  0  0  # atno 8010 bound_to 7997
  140.7203  143.5309  150.9521 H   0  0  0  0  0  0  0  0  0  0  0  0  # atno 10167 bound_to 10162
  157.5445  130.8721  149.8871 H   0  0  0  0  0  0  0  0  0  0  0  0  # atno 10718 bound_to 10713
  154.0272  135.6661  153.4777 H   0  0  0  0  0  0  0  0  0  0  0  0  # atno 10763 bound_to 10752
  153.0555  135.5058  154.7967 H   0  0  0  0  0  0  0  0  0  0  0  0  # atno 10764 bound_to 10752
  154.6901  135.3060  154.9457 H   0  0  0  0  0  0  0  0  0  0  0  0  # atno 10765 bound_to 10752
  140.1124  134.4937  155.8666 H   0  0  0  0  0  0  0  0  0  0  0  0  # atno 11005 bound_to 11000
  145.4224  139.1562  143.4067 LP  0  0  0  0  0  0  0  0  0  0  0  0  # atno 17320 bound_to 7965
  146.2894  140.4335  142.8745 LP  0  0  0  0  0  0  0  0  0  0  0  0  # atno 17321 bound_to 7965
  139.9030  143.6813  152.3128 LP  0  0  0  0  0  0  0  0  0  0  0  0  # atno 17342 bound_to 10162
  139.7169  144.7610  151.1019 LP  0  0  0  0  0  0  0  0  0  0  0  0  # atno 17343 bound_to 10162
  156.0524  130.3715  150.1170 LP  0  0  0  0  0  0  0  0  0  0  0  0  # atno 17370 bound_to 10713
  156.9347  130.9725  151.3527 LP  0  0  0  0  0  0  0  0  0  0  0  0  # atno 17371 bound_to 10713
  141.2133  133.6732  156.6731 LP  0  0  0  0  0  0  0  0  0  0  0  0  # atno 17394 bound_to 11000
  140.3073  134.8115  157.4147 LP  0  0  0  0  0  0  0  0  0  0  0  0  # atno 17395 bound_to 11000

$$$$
