AV-unprocessed.smi:3061|AV-procd|sdf|11680|dock9
  -GOLD-   2272017 83D 1   1.00000     0.00000
 Structure written by MMmdl.
 35 36  0  0  0  0  0  0  0  0  1 V2000
  145.6559  138.2562  154.3255 C   0  0  0  0  0  0  0  0  0  0  0  0
  146.7173  137.6936  153.3683 C   0  0  1  0  0  0  0  0  0  0  0  0
  146.1758  137.5668  151.9315 C   0  0  0  0  0  0  0  0  0  0  0  0
  145.5263  136.2888  151.7005 N   0  0  0  0  0  0  0  0  0  0  0  0
  146.0198  135.0499  151.7210 C   0  0  0  0  0  0  0  0  0  0  0  0
  145.1242  134.1123  151.4449 N   0  0  0  0  0  0  0  0  0  0  0  0
  144.0234  134.8982  151.2512 C   0  0  0  0  0  0  0  0  0  0  0  0
  144.2097  136.2104  151.3938 N   0  0  0  0  0  0  0  0  0  0  0  0
  147.9012  138.5500  153.3832 N   0  0  0  0  0  0  0  0  0  0  0  0
  148.6495  138.8287  154.4611 C   0  0  0  0  0  0  0  0  0  0  0  0
  148.3929  138.4096  155.5903 O   0  0  0  0  0  0  0  0  0  0  0  0
  149.8807  139.7170  154.2252 C   0  0  2  0  0  0  0  0  0  0  0  0
  151.1765  139.0200  154.6886 C   0  0  0  0  0  0  0  0  0  0  0  0
  151.6391  139.8524  155.8727 C   0  0  0  0  0  0  0  0  0  0  0  0
  152.6060  139.5454  156.5683 O   0  0  0  0  0  0  0  0  0  0  0  0
  150.8584  140.9233  156.0389 N   0  0  0  0  0  0  0  0  0  0  0  0
  151.0049  141.9311  157.0802 C   0  0  0  0  0  0  0  0  0  0  0  0
  149.8195  141.0341  155.0296 C   0  0  0  0  0  0  0  0  0  0  0  0
  144.7698  137.6213  154.3440 H   0  0  0  0  0  0  0  0  0  0  0  0
  145.3426  139.2572  154.0272 H   0  0  0  0  0  0  0  0  0  0  0  0
  146.0366  138.3159  155.3457 H   0  0  0  0  0  0  0  0  0  0  0  0
  146.9866  136.6933  153.7135 H   0  0  0  0  0  0  0  0  0  0  0  0
  145.4444  138.3521  151.7364 H   0  0  0  0  0  0  0  0  0  0  0  0
  146.9766  137.6990  151.2018 H   0  0  0  0  0  0  0  0  0  0  0  0
  147.0552  134.8303  151.9373 H   0  0  0  0  0  0  0  0  0  0  0  0
  143.0557  134.4909  150.9980 H   0  0  0  0  0  0  0  0  0  0  0  0
  148.1904  138.9368  152.4963 H   0  0  0  0  0  0  0  0  0  0  0  0
  149.9524  139.9485  153.1609 H   0  0  0  0  0  0  0  0  0  0  0  0
  151.0341  137.9798  154.9867 H   0  0  0  0  0  0  0  0  0  0  0  0
  151.9373  139.0445  153.9079 H   0  0  0  0  0  0  0  0  0  0  0  0
  150.8532  141.4866  158.0646 H   0  0  0  0  0  0  0  0  0  0  0  0
  150.2773  142.7337  156.9551 H   0  0  0  0  0  0  0  0  0  0  0  0
  152.0024  142.3719  157.0506 H   0  0  0  0  0  0  0  0  0  0  0  0
  150.0296  141.8903  154.3874 H   0  0  0  0  0  0  0  0  0  0  0  0
  148.8489  141.2050  155.4987 H   0  0  0  0  0  0  0  0  0  0  0  0
  1  2  1  0  0  0  0
  1 19  1  0  0  0  0
  1 20  1  0  0  0  0
  1 21  1  0  0  0  0
  2  3  1  0  0  0  0
  2  9  1  0  0  0  0
  2 22  1  0  0  0  0
  3  4  1  0  0  0  0
  3 23  1  0  0  0  0
  3 24  1  0  0  0  0
  4  8  1  0  0  0  0
  4  5  1  0  0  0  0
  5  6  2  0  0  0  0
  5 25  1  0  0  0  0
  6  7  1  0  0  0  0
  7  8  2  0  0  0  0
  7 26  1  0  0  0  0
  9 10  1  0  0  0  0
  9 27  1  0  0  0  0
 10 11  2  0  0  0  0
 10 12  1  0  0  0  0
 12 18  1  0  0  0  0
 12 13  1  0  0  0  0
 12 28  1  0  0  0  0
 13 14  1  0  0  0  0
 13 29  1  0  0  0  0
 13 30  1  0  0  0  0
 14 15  2  0  0  0  0
 14 16  1  0  0  0  0
 16 17  1  0  0  0  0
 16 18  1  0  0  0  0
 17 31  1  0  0  0  0
 17 32  1  0  0  0  0
 17 33  1  0  0  0  0
 18 34  1  0  0  0  0
 18 35  1  0  0  0  0
M  END
> <s_m_source_file>
AV-unprocessed.smi

> <i_m_source_file_index>
3061

> <i_lp_mmshare_version>
43012

> <i_f3d_flags>
0

> <s_epik_input>
bjFbY0hdbltjSF1uMVtDSDJdW0NAQEhdKFtDSDNdKVtOSF1DKD1PKVtDQEBIXTJbQ0gyXUMoPU8pTihbQ0gzXSlbQ0gyXTI=

> <s_epik_cmdline>
J2VwaWtfcHl0aG9uJywgJy1waCcsICc3LjAnLCAnLXRuJywgJzgnLCAnLW1hJywgJzIwMCcsICctbWV0YWxfYmluZGluZycsICctaW1hZScsICc8aW5maWxlLm1hZT4nLCAnLW9tYWUnLCAnPG91dGZpbGUubWFlPic=

> <r_lp_tautomer_probability>
1

> <r_epik_Ionization_Penalty>
4.97611e-05

> <r_epik_Ionization_Penalty_Charging>
0

> <r_epik_Ionization_Penalty_Neutral>
4.97611e-05

> <r_epik_State_Penalty>
-0

> <r_epik_Charging_Adjusted_Penalty>
0

> <i_epik_Tot_Q>
0

> <i_epik_Tot_abs_Q>
0

> <r_epik_Metal_State_Penalty>
-0

> <b_epik_Metal_Only>
0

> <s_lp_Force_Field>
OPLS_2005

> <r_lp_Energy>
12.6192

> <b_lp_Chiralities_Consistent>
1

> <s_lp_Variant>
AV-unprocessed.smi:3061-2

> <Gold.Version>
5.8.1

> <Gold.Id.Protein>
6NUR|6NUR_protein|mol2

> <Gold.PLP.Fitness>
37.5346

> <Gold.PLP.PLP>
-27.6362

> <Gold.PLP.part.hbond>
-2.6024

> <Gold.PLP.part.metal>
0.0000

> <Gold.PLP.part.buried>
2.7905

> <Gold.PLP.part.nonpolar>
-28.1621

> <Gold.PLP.part.repulsive>
1.9952

> <Gold.PLP.ligand.clash>
0.0000

> <Gold.PLP.ligand.torsion>
0.3869

> <Gold.PLP.Chemscore.Hbond>
1.5525

> <Gold.PLP.Chemscore.CHOScore>
1.9988

> <Gold.PLP.Chemscore.Metal>
0.0000

> <Gold.Chemscore.Hbonds>
donor molecule, donor type, donor heavy atom, donor atom, acceptor molecule, acceptor atom, score
      L1  H     9    27       P1  7957  0.52
      P1  H  7997  8010       L1    15  1.00
      L1  C     5    25       P1  7948  1.00
      L1  C     7    26       P1 10186  1.00

> <Gold.PLP.Chemscore.Internal.Correction>
0.0183

> <Gold.Rescore>
     Score         DG    S(hbond)    S(metal)    S(lipo)     H(rot)  DE(clash)    DE(int)     intcor
      7.11     -10.36       1.78        0.00      43.92       2.42       1.98       1.27       ----

> <Gold.Chemscore.Fitness>
7.1143

> <Gold.Chemscore.DG>
-10.3615

> <Gold.Chemscore.ZeroCoef>
-5.4800

> <Gold.Chemscore.Hbond>
1.7777

> <Gold.Chemscore.Metal>
0.0000

> <Gold.Chemscore.Lipo>
43.9190

> <Gold.Chemscore.Internal_Hbond>
0.0000

> <Gold.Chemscore.DEClash>
1.9791

> <Gold.Chemscore.DEInternal>
1.2681

> <Gold.Chemscore.Rot>
2.4197

> <Gold.Chemscore.Internal.Correction>
   9.000000E+99

> <Gold.Chemscore.Hbonds>
donor molecule, donor type, donor heavy atom, donor atom, acceptor molecule, acceptor atom, score
      L1  H     9    27       P1  7957  0.51
      P1  H  7997  8010       L1    15  1.00

> <Gold.Chemscore.Hbond.Weighted>
-5.9374

> <Gold.Chemscore.Metal.Weighted>
-0.0000

> <Gold.Chemscore.Lipo.Weighted>
-5.1385

> <Gold.Chemscore.Internal_Hbond.Weighted>
0.0000

> <Gold.Chemscore.DEClash.Weighted>
1.9791

> <Gold.Chemscore.DEInternal.Weighted>
1.2681

> <Gold.Chemscore.Rot.Weighted>
6.1945

> <Gold.Chemscore.Internal.Correction.Weighted>
   9.000000E+99

> <Gold.Protein.RotatedTorsions>
[ 6907 6896 6895 6894 ] final  171.82 input  -60.11 | X-H torsion
[ 7974 7965 7964 7962 ] final  -61.31 input  175.53 | X-H torsion
[ 8008 7997 7996 7995 ] final   69.30 input   59.86 | X-H torsion
[ 10167 10162 10161 10158 ] final   52.16 input  -65.29 | X-H torsion
[ 10718 10713 10712 10709 ] final -131.30 input   66.30 | X-H torsion
[ 10763 10752 10751 10750 ] final  -64.17 input  -60.55 | X-H torsion
[ 11005 11000 10999 10996 ] final    4.60 input  -57.11 | X-H torsion

> <Gold.Protein.ActiveResidues>
 VAL166  LYS551  ARG553  GLY616  TRP617  ASP618  TYR619  PRO620  LYS621  CYS622 
 ASP623  PHE694  ASN695  SER759  ASP760  ASP761  ALA762  ILE779  LEU786  VAL792 
 PHE793  MET794  SER795  GLU796  ALA797  LYS798  CYS799  TRP800  GLU811  SER814 

> <Gold.Protein.RotatedAtoms>
  151.7942  133.3362  159.3507 H   0  0  0  0  0  0  0  0  0  0  0  0  # atno 6907 bound_to 6896
  150.7381  134.5814  159.5950 H   0  0  0  0  0  0  0  0  0  0  0  0  # atno 6908 bound_to 6896
  152.3189  134.7407  160.0370 H   0  0  0  0  0  0  0  0  0  0  0  0  # atno 6909 bound_to 6896
  145.8050  140.8633  143.0211 H   0  0  0  0  0  0  0  0  0  0  0  0  # atno 7974 bound_to 7965
  155.7216  140.3493  155.5018 H   0  0  0  0  0  0  0  0  0  0  0  0  # atno 8008 bound_to 7997
  155.9265  140.1076  157.1188 H   0  0  0  0  0  0  0  0  0  0  0  0  # atno 8009 bound_to 7997
  154.4078  140.1239  156.4733 H   0  0  0  0  0  0  0  0  0  0  0  0  # atno 8010 bound_to 7997
  140.2543  144.3444  150.6338 H   0  0  0  0  0  0  0  0  0  0  0  0  # atno 10167 bound_to 10162
  156.2230  130.6990  151.0776 H   0  0  0  0  0  0  0  0  0  0  0  0  # atno 10718 bound_to 10713
  154.3261  135.6186  153.5530 H   0  0  0  0  0  0  0  0  0  0  0  0  # atno 10763 bound_to 10752
  152.9815  135.5735  154.5015 H   0  0  0  0  0  0  0  0  0  0  0  0  # atno 10764 bound_to 10752
  154.4692  135.2858  155.1632 H   0  0  0  0  0  0  0  0  0  0  0  0  # atno 10765 bound_to 10752
  140.5801  134.0021  155.8044 H   0  0  0  0  0  0  0  0  0  0  0  0  # atno 11005 bound_to 11000
  144.6764  140.0313  143.7482 LP  0  0  0  0  0  0  0  0  0  0  0  0  # atno 17320 bound_to 7965
  145.9838  139.2961  143.1026 LP  0  0  0  0  0  0  0  0  0  0  0  0  # atno 17321 bound_to 7965
  140.6016  143.2167  151.7061 LP  0  0  0  0  0  0  0  0  0  0  0  0  # atno 17342 bound_to 10162
  139.5036  144.3784  152.0401 LP  0  0  0  0  0  0  0  0  0  0  0  0  # atno 17343 bound_to 10162
  157.7097  131.0740  150.6545 LP  0  0  0  0  0  0  0  0  0  0  0  0  # atno 17370 bound_to 10713
  156.6609  130.4512  149.5688 LP  0  0  0  0  0  0  0  0  0  0  0  0  # atno 17371 bound_to 10713
  141.1001  133.9781  157.3093 LP  0  0  0  0  0  0  0  0  0  0  0  0  # atno 17394 bound_to 11000
  139.9321  135.0199  156.8435 LP  0  0  0  0  0  0  0  0  0  0  0  0  # atno 17395 bound_to 11000

$$$$
