AV-unprocessed.smi:2880|AV-procd|sdf|11052|dock4
  -GOLD-   2272015523D 1   1.00000     0.00000
 Structure written by MMmdl.
 47 48  0  0  0  0  0  0  0  0  1 V2000
  138.8107  138.9527  155.5890 C   0  0  0  0  0  0  0  0  0  0  0  0
  138.6382  137.5501  154.9724 C   0  0  0  0  0  0  0  0  0  0  0  0
  138.3253  136.5544  156.1151 C   0  0  0  0  0  0  0  0  0  0  0  0
  137.4558  137.5604  153.9855 C   0  0  0  0  0  0  0  0  0  0  0  0
  139.8611  137.1879  154.2424 N   0  0  0  0  0  0  0  0  0  0  0  0
  140.5134  137.9130  153.2585 C   0  0  0  0  0  0  0  0  0  0  0  0
  141.5865  137.1829  152.8330 C   0  0  0  0  0  0  0  0  0  0  0  0
  141.5022  135.9988  153.6122 C   0  0  0  0  0  0  0  0  0  0  0  0
  142.4563  134.9604  153.4607 N   0  0  0  0  0  0  0  0  0  0  0  0
  143.5799  134.9810  152.7233 C   0  0  0  0  0  0  0  0  0  0  0  0
  143.9589  135.9292  152.0350 O   0  0  0  0  0  0  0  0  0  0  0  0
  144.2456  133.8207  152.8232 N   0  0  0  0  0  0  0  0  0  0  0  0
  145.5159  133.4936  152.1703 C   0  0  1  0  0  0  0  0  0  0  0  0
  146.5159  132.9624  153.2172 C   0  0  0  0  0  0  0  0  0  0  0  0
  146.1253  131.5696  153.7413 C   0  0  0  0  0  0  0  0  0  0  0  0
  145.9448  130.5726  152.5876 C   0  0  0  0  0  0  0  0  0  0  0  0
  144.9317  131.0888  151.5533 C   0  0  0  0  0  0  0  0  0  0  0  0
  145.3314  132.4797  151.0103 C   0  0  1  0  0  0  0  0  0  0  0  0
  144.3554  132.9859  149.9277 C   0  0  0  0  0  0  0  0  0  0  0  0
  144.6416  134.3248  149.5804 O   0  0  0  0  0  0  0  0  0  0  0  0
  140.4704  135.9943  154.4424 N   0  0  0  0  0  0  0  0  0  0  0  0
  137.9269  139.2466  156.1563 H   0  0  0  0  0  0  0  0  0  0  0  0
  138.9713  139.7160  154.8272 H   0  0  0  0  0  0  0  0  0  0  0  0
  139.6620  138.9823  156.2702 H   0  0  0  0  0  0  0  0  0  0  0  0
  139.1423  136.5018  156.8359 H   0  0  0  0  0  0  0  0  0  0  0  0
  138.1478  135.5465  155.7373 H   0  0  0  0  0  0  0  0  0  0  0  0
  137.4302  136.8513  156.6626 H   0  0  0  0  0  0  0  0  0  0  0  0
  136.5229  137.8188  154.4873 H   0  0  0  0  0  0  0  0  0  0  0  0
  137.3200  136.5829  153.5215 H   0  0  0  0  0  0  0  0  0  0  0  0
  137.6071  138.2859  153.1855 H   0  0  0  0  0  0  0  0  0  0  0  0
  140.1630  138.8841  152.9416 H   0  0  0  0  0  0  0  0  0  0  0  0
  142.3115  137.4531  152.0797 H   0  0  0  0  0  0  0  0  0  0  0  0
  142.2628  134.1109  153.9699 H   0  0  0  0  0  0  0  0  0  0  0  0
  143.8493  133.1019  153.4106 H   0  0  0  0  0  0  0  0  0  0  0  0
  145.9473  134.4060  151.7547 H   0  0  0  0  0  0  0  0  0  0  0  0
  147.5082  132.9075  152.7673 H   0  0  0  0  0  0  0  0  0  0  0  0
  146.6007  133.6637  154.0484 H   0  0  0  0  0  0  0  0  0  0  0  0
  146.8881  131.2054  154.4301 H   0  0  0  0  0  0  0  0  0  0  0  0
  145.2007  131.6351  154.3160 H   0  0  0  0  0  0  0  0  0  0  0  0
  146.9056  130.4003  152.1010 H   0  0  0  0  0  0  0  0  0  0  0  0
  145.6192  129.6081  152.9780 H   0  0  0  0  0  0  0  0  0  0  0  0
  144.8618  130.3708  150.7358 H   0  0  0  0  0  0  0  0  0  0  0  0
  143.9396  131.1345  152.0042 H   0  0  0  0  0  0  0  0  0  0  0  0
  146.3074  132.3747  150.5331 H   0  0  0  0  0  0  0  0  0  0  0  0
  144.4038  132.3665  149.0316 H   0  0  0  0  0  0  0  0  0  0  0  0
  143.3290  132.9438  150.2935 H   0  0  0  0  0  0  0  0  0  0  0  0
  144.9781  134.3404  148.6975 H   0  0  0  0  0  0  0  0  0  0  0  0
  1  2  1  0  0  0  0
  1 22  1  0  0  0  0
  1 23  1  0  0  0  0
  1 24  1  0  0  0  0
  2  3  1  0  0  0  0
  2  4  1  0  0  0  0
  2  5  1  0  0  0  0
  3 25  1  0  0  0  0
  3 26  1  0  0  0  0
  3 27  1  0  0  0  0
  4 28  1  0  0  0  0
  4 29  1  0  0  0  0
  4 30  1  0  0  0  0
  5 21  1  0  0  0  0
  5  6  1  0  0  0  0
  6  7  2  0  0  0  0
  6 31  1  0  0  0  0
  7  8  1  0  0  0  0
  7 32  1  0  0  0  0
  8  9  1  0  0  0  0
  8 21  2  0  0  0  0
  9 10  1  0  0  0  0
  9 33  1  0  0  0  0
 10 11  2  0  0  0  0
 10 12  1  0  0  0  0
 12 13  1  0  0  0  0
 12 34  1  0  0  0  0
 13 18  1  0  0  0  0
 13 14  1  0  0  0  0
 13 35  1  0  0  0  0
 14 15  1  0  0  0  0
 14 36  1  0  0  0  0
 14 37  1  0  0  0  0
 15 16  1  0  0  0  0
 15 38  1  0  0  0  0
 15 39  1  0  0  0  0
 16 17  1  0  0  0  0
 16 40  1  0  0  0  0
 16 41  1  0  0  0  0
 17 18  1  0  0  0  0
 17 42  1  0  0  0  0
 17 43  1  0  0  0  0
 18 19  1  0  0  0  0
 18 44  1  0  0  0  0
 19 20  1  0  0  0  0
 19 45  1  0  0  0  0
 19 46  1  0  0  0  0
 20 47  1  0  0  0  0
M  END
> <s_m_source_file>
AV-unprocessed.smi

> <i_m_source_file_index>
2880

> <i_lp_mmshare_version>
43012

> <i_f3d_flags>
0

> <s_epik_input>
W0NIM11DKFtDSDNdKShbQ0gzXSluMVtjSF1bY0hdYyhuMSlbTkhdQyg9TylbTkhdW0NAQEhdMltDSDJdW0NIMl1bQ0gyXVtDSDJdW0NASF0yW0NIMl1bT0hd

> <s_epik_cmdline>
J2VwaWtfcHl0aG9uJywgJy1waCcsICc3LjAnLCAnLXRuJywgJzgnLCAnLW1hJywgJzIwMCcsICctbWV0YWxfYmluZGluZycsICctaW1hZScsICc8aW5maWxlLm1hZT4nLCAnLW9tYWUnLCAnPG91dGZpbGUubWFlPic=

> <r_lp_tautomer_probability>
1

> <r_epik_Ionization_Penalty>
3.89283e-05

> <r_epik_Ionization_Penalty_Charging>
0

> <r_epik_Ionization_Penalty_Neutral>
3.89283e-05

> <r_epik_State_Penalty>
-0

> <r_epik_Charging_Adjusted_Penalty>
0

> <i_epik_Tot_Q>
0

> <i_epik_Tot_abs_Q>
0

> <r_epik_Metal_State_Penalty>
-0

> <b_epik_Metal_Only>
0

> <s_lp_Force_Field>
OPLS_2005

> <r_lp_Energy>
20.5246

> <b_lp_Chiralities_Consistent>
1

> <s_lp_Variant>
AV-unprocessed.smi:2880-2

> <Gold.Version>
5.8.1

> <Gold.Id.Protein>
6NUR|6NUR_protein|mol2

> <Gold.PLP.Fitness>
41.1664

> <Gold.PLP.PLP>
-32.5591

> <Gold.PLP.part.hbond>
-2.2588

> <Gold.PLP.part.metal>
0.0000

> <Gold.PLP.part.buried>
-7.9685

> <Gold.PLP.part.nonpolar>
-22.7157

> <Gold.PLP.part.repulsive>
0.2355

> <Gold.PLP.ligand.clash>
0.0000

> <Gold.PLP.ligand.torsion>
0.3864

> <Gold.PLP.Chemscore.Hbond>
2.4638

> <Gold.PLP.Chemscore.CHOScore>
0.6497

> <Gold.PLP.Chemscore.Metal>
0.0000

> <Gold.Chemscore.Hbonds>
donor molecule, donor type, donor heavy atom, donor atom, acceptor molecule, acceptor atom, score
      L1  H    12    34       P1 10957  0.46
      L1  H    20    47       P1  7921  1.00
      P1  H 11000 11005       L1    21  0.99
      L1  C     6    31       P1 10160  0.69

> <Gold.PLP.Chemscore.Internal.Correction>
0.0397

> <Gold.Rescore>
     Score         DG    S(hbond)    S(metal)    S(lipo)     H(rot)  DE(clash)    DE(int)     intcor
     17.65     -19.93       3.17        0.00      76.00       1.97       0.71       1.57       ----

> <Gold.Chemscore.Fitness>
17.6499

> <Gold.Chemscore.DG>
-19.9293

> <Gold.Chemscore.ZeroCoef>
-5.4800

> <Gold.Chemscore.Hbond>
3.1716

> <Gold.Chemscore.Metal>
0.0000

> <Gold.Chemscore.Lipo>
76.0028

> <Gold.Chemscore.Internal_Hbond>
0.0000

> <Gold.Chemscore.DEClash>
0.7124

> <Gold.Chemscore.DEInternal>
1.5670

> <Gold.Chemscore.Rot>
1.9672

> <Gold.Chemscore.Internal.Correction>
   9.000000E+99

> <Gold.Chemscore.Hbonds>
donor molecule, donor type, donor heavy atom, donor atom, acceptor molecule, acceptor atom, score
      L1  H     9    33       P1 10957  0.01
      L1  H    12    34       P1 10957  0.39
      L1  H    20    47       P1  7921  0.94
      P1  H 11000 11005       L1    21  0.88

> <Gold.Chemscore.Hbond.Weighted>
-10.5931

> <Gold.Chemscore.Metal.Weighted>
-0.0000

> <Gold.Chemscore.Lipo.Weighted>
-8.8923

> <Gold.Chemscore.Internal_Hbond.Weighted>
0.0000

> <Gold.Chemscore.DEClash.Weighted>
0.7124

> <Gold.Chemscore.DEInternal.Weighted>
1.5670

> <Gold.Chemscore.Rot.Weighted>
5.0360

> <Gold.Chemscore.Internal.Correction.Weighted>
   9.000000E+99

> <Gold.Protein.RotatedTorsions>
[ 6907 6896 6895 6894 ] final  160.96 input  -60.11 | X-H torsion
[ 7974 7965 7964 7962 ] final  179.10 input  175.53 | X-H torsion
[ 8008 7997 7996 7995 ] final  117.59 input   59.86 | X-H torsion
[ 10167 10162 10161 10158 ] final -150.26 input  -65.29 | X-H torsion
[ 10718 10713 10712 10709 ] final   56.81 input   66.30 | X-H torsion
[ 10763 10752 10751 10750 ] final -175.50 input  -60.55 | X-H torsion
[ 11005 11000 10999 10996 ] final   53.38 input  -57.11 | X-H torsion

> <Gold.Protein.ActiveResidues>
 VAL166  LYS551  ARG553  GLY616  TRP617  ASP618  TYR619  PRO620  LYS621  CYS622 
 ASP623  PHE694  ASN695  SER759  ASP760  ASP761  ALA762  ILE779  LEU786  VAL792 
 PHE793  MET794  SER795  GLU796  ALA797  LYS798  CYS799  TRP800  GLU811  SER814 

> <Gold.Protein.RotatedAtoms>
  151.9628  133.3701  159.4041 H   0  0  0  0  0  0  0  0  0  0  0  0  # atno 6907 bound_to 6896
  150.6961  134.4222  159.5219 H   0  0  0  0  0  0  0  0  0  0  0  0  # atno 6908 bound_to 6896
  152.1914  134.8669  160.0568 H   0  0  0  0  0  0  0  0  0  0  0  0  # atno 6909 bound_to 6896
  144.7149  140.0497  143.6435 H   0  0  0  0  0  0  0  0  0  0  0  0  # atno 7974 bound_to 7965
  156.2502  140.2893  156.0702 H   0  0  0  0  0  0  0  0  0  0  0  0  # atno 8008 bound_to 7997
  155.1679  140.0401  157.2874 H   0  0  0  0  0  0  0  0  0  0  0  0  # atno 8009 bound_to 7997
  154.6347  140.2508  155.7399 H   0  0  0  0  0  0  0  0  0  0  0  0  # atno 8010 bound_to 7997
  139.7370  143.8721  152.2551 H   0  0  0  0  0  0  0  0  0  0  0  0  # atno 10167 bound_to 10162
  157.5462  130.8732  149.8895 H   0  0  0  0  0  0  0  0  0  0  0  0  # atno 10718 bound_to 10713
  154.5836  135.2838  155.0707 H   0  0  0  0  0  0  0  0  0  0  0  0  # atno 10763 bound_to 10752
  154.2034  135.6420  153.5097 H   0  0  0  0  0  0  0  0  0  0  0  0  # atno 10764 bound_to 10752
  153.0097  135.5474  154.6499 H   0  0  0  0  0  0  0  0  0  0  0  0  # atno 10765 bound_to 10752
  140.0772  134.5389  155.8984 H   0  0  0  0  0  0  0  0  0  0  0  0  # atno 11005 bound_to 11000
  145.9954  139.3048  143.0959 LP  0  0  0  0  0  0  0  0  0  0  0  0  # atno 17320 bound_to 7965
  145.8855  140.9336  143.0579 LP  0  0  0  0  0  0  0  0  0  0  0  0  # atno 17321 bound_to 7965
  139.8660  144.7093  150.9043 LP  0  0  0  0  0  0  0  0  0  0  0  0  # atno 17342 bound_to 10162
  140.7780  143.3777  151.1533 LP  0  0  0  0  0  0  0  0  0  0  0  0  # atno 17343 bound_to 10162
  156.0538  130.3712  150.1140 LP  0  0  0  0  0  0  0  0  0  0  0  0  # atno 17370 bound_to 10713
  156.9316  130.9715  151.3532 LP  0  0  0  0  0  0  0  0  0  0  0  0  # atno 17371 bound_to 10713
  141.2033  133.6631  156.6058 LP  0  0  0  0  0  0  0  0  0  0  0  0  # atno 17394 bound_to 11000
  140.3541  134.7743  157.4488 LP  0  0  0  0  0  0  0  0  0  0  0  0  # atno 17395 bound_to 11000

$$$$
