AV-unprocessed.smi:2220|AV-procd|sdf|8979|dock8
  -GOLD-   2272012193D 1   1.00000     0.00000
 Structure written by MMmdl.
 38 39  0  0  0  0  0  0  0  0  1 V2000
  147.1330  142.4529  154.0347 C   0  0  0  0  0  0  0  0  0  0  0  0
  148.1407  141.4179  154.1569 N   0  0  0  0  0  0  0  0  0  0  0  0
  149.3906  141.5669  154.6166 C   0  0  0  0  0  0  0  0  0  0  0  0
  150.1116  140.4538  154.6230 N   0  0  0  0  0  0  0  0  0  0  0  0
  149.2405  139.4927  154.1179 C   0  0  0  0  0  0  0  0  0  0  0  0
  148.0239  140.0698  153.8262 C   0  0  0  0  0  0  0  0  0  0  0  0
  146.7812  139.4471  153.2748 C   0  0  0  0  0  0  0  0  0  0  0  0
  146.4834  138.0639  153.8761 C   0  0  0  0  0  0  0  0  0  0  0  0
  146.4898  137.0234  152.8548 N   0  0  0  0  0  0  0  0  0  0  0  0
  145.3967  136.5108  152.2687 C   0  0  0  0  0  0  0  0  0  0  0  0
  144.2525  136.8783  152.5375 O   0  0  0  0  0  0  0  0  0  0  0  0
  145.6315  135.4139  151.2214 C   0  0  0  0  0  0  0  0  0  0  0  0
  144.2921  134.8640  150.6880 C   0  0  0  0  0  0  0  0  0  0  0  0
  144.5222  133.7676  149.6353 C   0  0  0  0  0  0  0  0  0  0  0  0
  145.4030  132.6341  150.1879 C   0  0  0  0  0  0  0  0  0  0  0  0
  144.7409  131.9881  151.1491 F   0  0  0  0  0  0  0  0  0  0  0  0
  145.6647  131.7678  149.2093 F   0  0  0  0  0  0  0  0  0  0  0  0
  146.7294  133.1699  150.7538 C   0  0  0  0  0  0  0  0  0  0  0  0
  146.4895  134.2697  151.8009 C   0  0  0  0  0  0  0  0  0  0  0  0
  147.5588  143.4255  154.2836 H   0  0  0  0  0  0  0  0  0  0  0  0
  146.3068  142.2453  154.7144 H   0  0  0  0  0  0  0  0  0  0  0  0
  146.7577  142.4859  153.0118 H   0  0  0  0  0  0  0  0  0  0  0  0
  149.7830  142.5145  154.9558 H   0  0  0  0  0  0  0  0  0  0  0  0
  149.5522  138.4648  154.0047 H   0  0  0  0  0  0  0  0  0  0  0  0
  145.9328  140.1113  153.4418 H   0  0  0  0  0  0  0  0  0  0  0  0
  146.8809  139.3609  152.1922 H   0  0  0  0  0  0  0  0  0  0  0  0
  147.2035  137.8256  154.6609 H   0  0  0  0  0  0  0  0  0  0  0  0
  145.5011  138.0638  154.3480 H   0  0  0  0  0  0  0  0  0  0  0  0
  147.3911  136.6654  152.5739 H   0  0  0  0  0  0  0  0  0  0  0  0
  146.1754  135.8532  150.3830 H   0  0  0  0  0  0  0  0  0  0  0  0
  143.6984  134.4561  151.5075 H   0  0  0  0  0  0  0  0  0  0  0  0
  143.7009  135.6699  150.2509 H   0  0  0  0  0  0  0  0  0  0  0  0
  143.5654  133.3688  149.2968 H   0  0  0  0  0  0  0  0  0  0  0  0
  145.0007  134.2064  148.7587 H   0  0  0  0  0  0  0  0  0  0  0  0
  147.3061  132.3556  151.1935 H   0  0  0  0  0  0  0  0  0  0  0  0
  147.3357  133.5734  149.9417 H   0  0  0  0  0  0  0  0  0  0  0  0
  147.4484  134.6562  152.1490 H   0  0  0  0  0  0  0  0  0  0  0  0
  145.9986  133.8339  152.6724 H   0  0  0  0  0  0  0  0  0  0  0  0
  1  2  1  0  0  0  0
  1 20  1  0  0  0  0
  1 21  1  0  0  0  0
  1 22  1  0  0  0  0
  2  6  1  0  0  0  0
  2  3  1  0  0  0  0
  3  4  2  0  0  0  0
  3 23  1  0  0  0  0
  4  5  1  0  0  0  0
  5  6  2  0  0  0  0
  5 24  1  0  0  0  0
  6  7  1  0  0  0  0
  7  8  1  0  0  0  0
  7 25  1  0  0  0  0
  7 26  1  0  0  0  0
  8  9  1  0  0  0  0
  8 27  1  0  0  0  0
  8 28  1  0  0  0  0
  9 10  1  0  0  0  0
  9 29  1  0  0  0  0
 10 11  2  0  0  0  0
 10 12  1  0  0  0  0
 12 19  1  0  0  0  0
 12 13  1  0  0  0  0
 12 30  1  0  0  0  0
 13 14  1  0  0  0  0
 13 31  1  0  0  0  0
 13 32  1  0  0  0  0
 14 15  1  0  0  0  0
 14 33  1  0  0  0  0
 14 34  1  0  0  0  0
 15 16  1  0  0  0  0
 15 17  1  0  0  0  0
 15 18  1  0  0  0  0
 18 19  1  0  0  0  0
 18 35  1  0  0  0  0
 18 36  1  0  0  0  0
 19 37  1  0  0  0  0
 19 38  1  0  0  0  0
M  END
> <s_m_source_file>
AV-unprocessed.smi

> <i_m_source_file_index>
2220

> <i_lp_mmshare_version>
43012

> <i_f3d_flags>
0

> <s_epik_input>
W0NIM11uMVtjSF1uW2NIXWMxW0NIMl1bQ0gyXVtOSF1DKD1PKVtDSF0oW0NIMl1bQ0gyXTIpW0NIMl1bQ0gyXUMyKEYpRg==

> <s_epik_cmdline>
J2VwaWtfcHl0aG9uJywgJy1waCcsICc3LjAnLCAnLXRuJywgJzgnLCAnLW1hJywgJzIwMCcsICctbWV0YWxfYmluZGluZycsICctaW1hZScsICc8aW5maWxlLm1hZT4nLCAnLW9tYWUnLCAnPG91dGZpbGUubWFlPic=

> <r_lp_tautomer_probability>
1

> <r_epik_Ionization_Penalty>
0.872556

> <r_epik_Ionization_Penalty_Charging>
0.872556

> <r_epik_Ionization_Penalty_Neutral>
1.72153e-08

> <r_epik_State_Penalty>
0.910028

> <r_epik_Charging_Adjusted_Penalty>
1.78258

> <i_epik_Tot_Q>
0

> <i_epik_Tot_abs_Q>
0

> <r_epik_Metal_State_Penalty>
0.360885

> <b_epik_Metal_Only>
0

> <s_lp_Force_Field>
OPLS_2005

> <r_lp_Energy>
9.62652

> <b_lp_Chiralities_Consistent>
1

> <s_lp_Variant>
AV-unprocessed.smi:2220-2

> <Gold.Version>
5.8.1

> <Gold.Id.Protein>
6NUR|6NUR_protein|mol2

> <Gold.PLP.Fitness>
45.2623

> <Gold.PLP.PLP>
-37.9364

> <Gold.PLP.part.hbond>
-2.0000

> <Gold.PLP.part.metal>
0.0000

> <Gold.PLP.part.buried>
0.6871

> <Gold.PLP.part.nonpolar>
-36.2490

> <Gold.PLP.part.repulsive>
0.2944

> <Gold.PLP.ligand.clash>
0.0000

> <Gold.PLP.ligand.torsion>
0.8369

> <Gold.PLP.Chemscore.Hbond>
1.9920

> <Gold.PLP.Chemscore.CHOScore>
1.0000

> <Gold.PLP.Chemscore.Metal>
0.0000

> <Gold.Chemscore.Hbonds>
donor molecule, donor type, donor heavy atom, donor atom, acceptor molecule, acceptor atom, score
      L1  H     9    29       P1  7948  1.00
      P1  H  7989  7998       L1     4  0.94
      L1  C     3    23       P1  8028  1.00

> <Gold.PLP.Chemscore.Internal.Correction>
0.0238

> <Gold.Rescore>
     Score         DG    S(hbond)    S(metal)    S(lipo)     H(rot)  DE(clash)    DE(int)     intcor
     12.96     -14.48       1.61        0.00      70.43       1.80       0.62       0.89       ----

> <Gold.Chemscore.Fitness>
12.9593

> <Gold.Chemscore.DG>
-14.4770

> <Gold.Chemscore.ZeroCoef>
-5.4800

> <Gold.Chemscore.Hbond>
1.6085

> <Gold.Chemscore.Metal>
0.0000

> <Gold.Chemscore.Lipo>
70.4286

> <Gold.Chemscore.Internal_Hbond>
0.0000

> <Gold.Chemscore.DEClash>
0.6235

> <Gold.Chemscore.DEInternal>
0.8942

> <Gold.Chemscore.Rot>
1.8029

> <Gold.Chemscore.Internal.Correction>
   9.000000E+99

> <Gold.Chemscore.Hbonds>
donor molecule, donor type, donor heavy atom, donor atom, acceptor molecule, acceptor atom, score
      L1  H     9    29       P1  7948  1.00
      P1  H  7989  7998       L1     4  0.32

> <Gold.Chemscore.Hbond.Weighted>
-5.3724

> <Gold.Chemscore.Metal.Weighted>
-0.0000

> <Gold.Chemscore.Lipo.Weighted>
-8.2401

> <Gold.Chemscore.Internal_Hbond.Weighted>
0.0000

> <Gold.Chemscore.DEClash.Weighted>
0.6235

> <Gold.Chemscore.DEInternal.Weighted>
0.8942

> <Gold.Chemscore.Rot.Weighted>
4.6155

> <Gold.Chemscore.Internal.Correction.Weighted>
   9.000000E+99

> <Gold.Protein.RotatedTorsions>
[ 6907 6896 6895 6894 ] final -114.66 input  -60.11 | X-H torsion
[ 7974 7965 7964 7962 ] final   98.20 input  175.53 | X-H torsion
[ 8008 7997 7996 7995 ] final  141.46 input   59.86 | X-H torsion
[ 10167 10162 10161 10158 ] final -110.20 input  -65.29 | X-H torsion
[ 10718 10713 10712 10709 ] final   90.02 input   66.30 | X-H torsion
[ 10763 10752 10751 10750 ] final  -26.08 input  -60.55 | X-H torsion
[ 11005 11000 10999 10996 ] final -120.82 input  -57.11 | X-H torsion

> <Gold.Protein.ActiveResidues>
 VAL166  LYS551  ARG553  GLY616  TRP617  ASP618  TYR619  PRO620  LYS621  CYS622 
 ASP623  PHE694  ASN695  SER759  ASP760  ASP761  ALA762  ILE779  LEU786  VAL792 
 PHE793  MET794  SER795  GLU796  ALA797  LYS798  CYS799  TRP800  GLU811  SER814 

> <Gold.Protein.RotatedAtoms>
  150.7919  133.8769  159.3274 H   0  0  0  0  0  0  0  0  0  0  0  0  # atno 6907 bound_to 6896
  151.6604  135.0988  160.0188 H   0  0  0  0  0  0  0  0  0  0  0  0  # atno 6908 bound_to 6896
  152.3995  133.6757  159.6339 H   0  0  0  0  0  0  0  0  0  0  0  0  # atno 6909 bound_to 6896
  145.4153  139.2328  143.3226 H   0  0  0  0  0  0  0  0  0  0  0  0  # atno 7974 bound_to 7965
  156.2965  140.2314  156.4567 H   0  0  0  0  0  0  0  0  0  0  0  0  # atno 8008 bound_to 7997
  154.8054  140.0446  157.1324 H   0  0  0  0  0  0  0  0  0  0  0  0  # atno 8009 bound_to 7997
  154.9485  140.3039  155.5090 H   0  0  0  0  0  0  0  0  0  0  0  0  # atno 8010 bound_to 7997
  140.1470  143.4231  152.1522 H   0  0  0  0  0  0  0  0  0  0  0  0  # atno 10167 bound_to 10162
  157.6957  131.0355  150.3515 H   0  0  0  0  0  0  0  0  0  0  0  0  # atno 10718 bound_to 10713
  153.7101  135.6951  153.5040 H   0  0  0  0  0  0  0  0  0  0  0  0  # atno 10763 bound_to 10752
  153.2279  135.4347  155.0561 H   0  0  0  0  0  0  0  0  0  0  0  0  # atno 10764 bound_to 10752
  154.8317  135.3477  154.6638 H   0  0  0  0  0  0  0  0  0  0  0  0  # atno 10765 bound_to 10752
  141.0116  134.0257  157.3406 H   0  0  0  0  0  0  0  0  0  0  0  0  # atno 11005 bound_to 11000
  146.2684  140.4870  142.8824 LP  0  0  0  0  0  0  0  0  0  0  0  0  # atno 17320 bound_to 7965
  144.8281  140.6663  143.6308 LP  0  0  0  0  0  0  0  0  0  0  0  0  # atno 17321 bound_to 7965
  139.5444  144.7285  151.4630 LP  0  0  0  0  0  0  0  0  0  0  0  0  # atno 17342 bound_to 10162
  140.6726  143.8261  150.7018 LP  0  0  0  0  0  0  0  0  0  0  0  0  # atno 17343 bound_to 10162
  156.3962  130.3907  149.6993 LP  0  0  0  0  0  0  0  0  0  0  0  0  # atno 17370 bound_to 10713
  156.4326  130.7822  151.2842 LP  0  0  0  0  0  0  0  0  0  0  0  0  # atno 17371 bound_to 10713
  139.9093  135.0187  156.7622 LP  0  0  0  0  0  0  0  0  0  0  0  0  # atno 17394 bound_to 11000
  140.6724  133.9547  155.7864 LP  0  0  0  0  0  0  0  0  0  0  0  0  # atno 17395 bound_to 11000

$$$$
