AV-unprocessed.smi:1868|AV-procd|sdf|7585|dock6
  -GOLD-   22720 9293D 1   1.00000     0.00000
 Structure written by MMmdl.
 47 49  0  0  0  0  0  0  0  0  2 V2000
  151.8472  138.4715  154.4130 C   0  0  0  0  0  0  0  0  0  0  0  0
  151.5663  139.5138  155.4485 C   0  0  0  0  0  0  0  0  0  0  0  0
  152.4767  139.8859  156.3478 N   0  0  0  0  0  0  0  0  0  0  0  0
  151.8071  140.8501  157.0765 C   0  0  0  0  0  0  0  0  0  0  0  0
  152.2301  141.6286  158.1774 C   0  0  0  0  0  0  0  0  0  0  0  0
  151.3554  142.5641  158.7680 C   0  0  0  0  0  0  0  0  0  0  0  0
  150.0485  142.7349  158.2671 C   0  0  0  0  0  0  0  0  0  0  0  0
  149.6067  141.9693  157.1711 C   0  0  0  0  0  0  0  0  0  0  0  0
  150.4832  141.0357  156.5860 C   0  0  0  0  0  0  0  0  0  0  0  0
  150.3662  140.1399  155.5273 N   0  0  0  0  0  0  0  0  0  0  0  0
  149.1919  139.9330  154.6906 C   0  0  0  0  0  0  0  0  0  0  0  0
  148.3177  141.1972  154.5743 C   0  0  1  0  0  0  0  0  0  0  0  0
  149.0811  142.2478  154.0129 O   0  0  0  0  0  0  0  0  0  0  0  0
  147.0833  140.9582  153.6828 C   0  0  0  0  0  0  0  0  0  0  0  0
  145.9345  141.8219  154.0585 N   0  3  2  0  0  0  0  0  0  0  0  0
  146.0371  143.2059  153.5241 C   0  0  0  0  0  0  0  0  0  0  0  0
  144.7617  144.0113  153.8237 C   0  0  0  0  0  0  0  0  0  0  0  0
  144.4591  144.0404  155.3312 C   0  0  1  0  0  0  0  0  0  0  0  0
  143.1686  144.8136  155.6369 C   0  0  0  0  0  0  0  0  0  0  0  0
  144.3984  142.5988  155.8630 C   0  0  0  0  0  0  0  0  0  0  0  0
  145.6812  141.8219  155.5222 C   0  0  0  0  0  0  0  0  0  0  0  0
  152.8490  138.0615  154.5455 H   0  0  0  0  0  0  0  0  0  0  0  0
  151.7854  138.9057  153.4150 H   0  0  0  0  0  0  0  0  0  0  0  0
  151.1302  137.6544  154.4893 H   0  0  0  0  0  0  0  0  0  0  0  0
  153.2292  141.5054  158.5686 H   0  0  0  0  0  0  0  0  0  0  0  0
  151.6890  143.1532  159.6098 H   0  0  0  0  0  0  0  0  0  0  0  0
  149.3851  143.4537  158.7256 H   0  0  0  0  0  0  0  0  0  0  0  0
  148.6056  142.0976  156.7873 H   0  0  0  0  0  0  0  0  0  0  0  0
  149.5216  139.6069  153.7031 H   0  0  0  0  0  0  0  0  0  0  0  0
  148.6104  139.1067  155.0999 H   0  0  0  0  0  0  0  0  0  0  0  0
  148.0115  141.5010  155.5742 H   0  0  0  0  0  0  0  0  0  0  0  0
  149.1854  142.9254  154.6646 H   0  0  0  0  0  0  0  0  0  0  0  0
  147.3670  141.1486  152.6464 H   0  0  0  0  0  0  0  0  0  0  0  0
  146.7750  139.9122  153.7241 H   0  0  0  0  0  0  0  0  0  0  0  0
  146.9047  143.7032  153.9610 H   0  0  0  0  0  0  0  0  0  0  0  0
  146.1958  143.1882  152.4467 H   0  0  0  0  0  0  0  0  0  0  0  0
  144.8734  145.0281  153.4454 H   0  0  0  0  0  0  0  0  0  0  0  0
  143.9202  143.5729  153.2849 H   0  0  0  0  0  0  0  0  0  0  0  0
  145.2803  144.5541  155.8335 H   0  0  0  0  0  0  0  0  0  0  0  0
  142.3056  144.3534  155.1546 H   0  0  0  0  0  0  0  0  0  0  0  0
  143.2356  145.8440  155.2862 H   0  0  0  0  0  0  0  0  0  0  0  0
  142.9738  144.8436  156.7093 H   0  0  0  0  0  0  0  0  0  0  0  0
  144.2503  142.6048  156.9435 H   0  0  0  0  0  0  0  0  0  0  0  0
  143.5369  142.0826  155.4367 H   0  0  0  0  0  0  0  0  0  0  0  0
  145.5802  140.7961  155.8792 H   0  0  0  0  0  0  0  0  0  0  0  0
  146.5367  142.2566  156.0419 H   0  0  0  0  0  0  0  0  0  0  0  0
  145.1200  141.3998  153.6348 H   0  0  0  0  0  0  0  0  0  0  0  0
  1  2  1  0  0  0  0
  1 22  1  0  0  0  0
  1 23  1  0  0  0  0
  1 24  1  0  0  0  0
  2 10  1  0  0  0  0
  2  3  2  0  0  0  0
  3  4  1  0  0  0  0
  4  9  2  0  0  0  0
  4  5  1  0  0  0  0
  5  6  2  0  0  0  0
  5 25  1  0  0  0  0
  6  7  1  0  0  0  0
  6 26  1  0  0  0  0
  7  8  2  0  0  0  0
  7 27  1  0  0  0  0
  8  9  1  0  0  0  0
  8 28  1  0  0  0  0
  9 10  1  0  0  0  0
 10 11  1  0  0  0  0
 11 12  1  0  0  0  0
 11 29  1  0  0  0  0
 11 30  1  0  0  0  0
 12 13  1  0  0  0  0
 12 14  1  0  0  0  0
 12 31  1  0  0  0  0
 13 32  1  0  0  0  0
 14 15  1  0  0  0  0
 14 33  1  0  0  0  0
 14 34  1  0  0  0  0
 15 21  1  0  0  0  0
 15 16  1  0  0  0  0
 15 47  1  0  0  0  0
 16 17  1  0  0  0  0
 16 35  1  0  0  0  0
 16 36  1  0  0  0  0
 17 18  1  0  0  0  0
 17 37  1  0  0  0  0
 17 38  1  0  0  0  0
 18 19  1  0  0  0  0
 18 20  1  0  0  0  0
 18 39  1  0  0  0  0
 19 40  1  0  0  0  0
 19 41  1  0  0  0  0
 19 42  1  0  0  0  0
 20 21  1  0  0  0  0
 20 43  1  0  0  0  0
 20 44  1  0  0  0  0
 21 45  1  0  0  0  0
 21 46  1  0  0  0  0
M  CHG  1  15   1
M  END
> <s_m_source_file>
AV-unprocessed.smi

> <i_m_source_file_index>
1868

> <i_lp_mmshare_version>
43012

> <i_f3d_flags>
0

> <s_epik_input>
W2NIXTFbY0hdW2NIXVtjSF1jKGMxMiluKGMobjIpW0NIM10pW0NIMl1bQ0BIXShbT0hdKVtDSDJdTjNbQ0gyXVtDSDJdW0NIXShbQ0gzXSlbQ0gyXVtDSDJdMw==

> <s_epik_cmdline>
J2VwaWtfcHl0aG9uJywgJy1waCcsICc3LjAnLCAnLXRuJywgJzgnLCAnLW1hJywgJzIwMCcsICctbWV0YWxfYmluZGluZycsICctaW1hZScsICc8aW5maWxlLm1hZT4nLCAnLW9tYWUnLCAnPG91dGZpbGUubWFlPic=

> <r_epik_Ionization_Penalty>
0.101157

> <r_epik_Ionization_Penalty_Charging>
0.00181365

> <r_epik_Ionization_Penalty_Neutral>
0.0993436

> <r_epik_State_Penalty>
0.0871902

> <r_epik_Charging_Adjusted_Penalty>
0.0890039

> <i_epik_Tot_Q>
1

> <i_epik_Tot_abs_Q>
1

> <r_epik_Metal_State_Penalty>
9.24346e-05

> <b_epik_Metal_Only>
0

> <s_lp_Force_Field>
OPLS_2005

> <r_lp_Energy>
21.7142

> <b_lp_Chiralities_Consistent>
1

> <s_lp_Variant>
AV-unprocessed.smi:1868-2

> <Gold.Version>
5.8.1

> <Gold.Id.Protein>
6NUR|6NUR_protein|mol2

> <Gold.PLP.Fitness>
50.6308

> <Gold.PLP.PLP>
-39.5577

> <Gold.PLP.part.hbond>
-3.9272

> <Gold.PLP.part.metal>
0.0000

> <Gold.PLP.part.buried>
-4.8057

> <Gold.PLP.part.nonpolar>
-31.3475

> <Gold.PLP.part.repulsive>
0.0252

> <Gold.PLP.ligand.clash>
0.0000

> <Gold.PLP.ligand.torsion>
0.8461

> <Gold.PLP.Chemscore.Hbond>
4.2385

> <Gold.PLP.Chemscore.CHOScore>
0.0000

> <Gold.PLP.Chemscore.Metal>
0.0000

> <Gold.Chemscore.Hbonds>
donor molecule, donor type, donor heavy atom, donor atom, acceptor molecule, acceptor atom, score
      L1  H    13    32       P1  8028  0.94
      L1  H    15    47       P1 10175  1.95
      P1  H  7997  8010       L1     3  1.00
      P1  H  8011  8017       L1    13  0.27

> <Gold.PLP.Chemscore.Internal.Correction>
0.0496

> <Gold.Rescore>
     Score         DG    S(hbond)    S(metal)    S(lipo)     H(rot)  DE(clash)    DE(int)     intcor
     18.33     -20.49       2.58        0.00      96.74       1.92       0.24       1.92       ----

> <Gold.Chemscore.Fitness>
18.3288

> <Gold.Chemscore.DG>
-20.4868

> <Gold.Chemscore.ZeroCoef>
-5.4800

> <Gold.Chemscore.Hbond>
2.5756

> <Gold.Chemscore.Metal>
0.0000

> <Gold.Chemscore.Lipo>
96.7427

> <Gold.Chemscore.Internal_Hbond>
0.0000

> <Gold.Chemscore.DEClash>
0.2358

> <Gold.Chemscore.DEInternal>
1.9222

> <Gold.Chemscore.Rot>
1.9198

> <Gold.Chemscore.Internal.Correction>
   9.000000E+99

> <Gold.Chemscore.Hbonds>
donor molecule, donor type, donor heavy atom, donor atom, acceptor molecule, acceptor atom, score
      L1  H    13    32       P1  8028  0.89
      L1  H    15    47       P1 10175  0.23
      P1  H  7997  8010       L1     3  0.82
      P1  H  8011  8017       L1    13  0.27

> <Gold.Chemscore.Hbond.Weighted>
-8.6026

> <Gold.Chemscore.Metal.Weighted>
-0.0000

> <Gold.Chemscore.Lipo.Weighted>
-11.3189

> <Gold.Chemscore.Internal_Hbond.Weighted>
0.0000

> <Gold.Chemscore.DEClash.Weighted>
0.2358

> <Gold.Chemscore.DEInternal.Weighted>
1.9222

> <Gold.Chemscore.Rot.Weighted>
4.9147

> <Gold.Chemscore.Internal.Correction.Weighted>
   9.000000E+99

> <Gold.Protein.RotatedTorsions>
[ 6907 6896 6895 6894 ] final   63.95 input  -60.11 | X-H torsion
[ 7974 7965 7964 7962 ] final  132.46 input  175.53 | X-H torsion
[ 8008 7997 7996 7995 ] final   74.12 input   59.86 | X-H torsion
[ 10167 10162 10161 10158 ] final   23.40 input  -65.29 | X-H torsion
[ 10718 10713 10712 10709 ] final   48.06 input   66.30 | X-H torsion
[ 10763 10752 10751 10750 ] final   41.78 input  -60.55 | X-H torsion
[ 11005 11000 10999 10996 ] final -149.31 input  -57.11 | X-H torsion

> <Gold.Protein.ActiveResidues>
 VAL166  LYS551  ARG553  GLY616  TRP617  ASP618  TYR619  PRO620  LYS621  CYS622 
 ASP623  PHE694  ASN695  SER759  ASP760  ASP761  ALA762  ILE779  LEU786  VAL792 
 PHE793  MET794  SER795  GLU796  ALA797  LYS798  CYS799  TRP800  GLU811  SER814 

> <Gold.Protein.RotatedAtoms>
  152.4294  134.5807  159.9946 H   0  0  0  0  0  0  0  0  0  0  0  0  # atno 6907 bound_to 6896
  151.5934  133.3358  159.3040 H   0  0  0  0  0  0  0  0  0  0  0  0  # atno 6908 bound_to 6896
  150.8185  134.7417  159.6817 H   0  0  0  0  0  0  0  0  0  0  0  0  # atno 6909 bound_to 6896
  144.9966  139.4353  143.5313 H   0  0  0  0  0  0  0  0  0  0  0  0  # atno 7974 bound_to 7965
  155.7937  140.3478  155.5363 H   0  0  0  0  0  0  0  0  0  0  0  0  # atno 8008 bound_to 7997
  155.8608  140.0971  157.1635 H   0  0  0  0  0  0  0  0  0  0  0  0  # atno 8009 bound_to 7997
  154.4012  140.1359  156.3946 H   0  0  0  0  0  0  0  0  0  0  0  0  # atno 8010 bound_to 7997
  140.5272  143.9903  150.6446 H   0  0  0  0  0  0  0  0  0  0  0  0  # atno 10167 bound_to 10162
  157.4648  130.8219  149.7924 H   0  0  0  0  0  0  0  0  0  0  0  0  # atno 10718 bound_to 10713
  152.9899  135.6151  154.2844 H   0  0  0  0  0  0  0  0  0  0  0  0  # atno 10763 bound_to 10752
  154.2572  135.2783  155.2795 H   0  0  0  0  0  0  0  0  0  0  0  0  # atno 10764 bound_to 10752
  154.5237  135.5807  153.6759 H   0  0  0  0  0  0  0  0  0  0  0  0  # atno 10765 bound_to 10752
  140.7521  134.3394  157.5123 H   0  0  0  0  0  0  0  0  0  0  0  0  # atno 11005 bound_to 11000
  146.3443  139.9329  142.8751 LP  0  0  0  0  0  0  0  0  0  0  0  0  # atno 17320 bound_to 7965
  145.2211  140.9935  143.4045 LP  0  0  0  0  0  0  0  0  0  0  0  0  # atno 17321 bound_to 7965
  140.3268  143.3102  152.0728 LP  0  0  0  0  0  0  0  0  0  0  0  0  # atno 17342 bound_to 10162
  139.4942  144.6536  151.6621 LP  0  0  0  0  0  0  0  0  0  0  0  0  # atno 17343 bound_to 10162
  156.0045  130.3862  150.2481 LP  0  0  0  0  0  0  0  0  0  0  0  0  # atno 17370 bound_to 10713
  157.0660  131.0103  151.3206 LP  0  0  0  0  0  0  0  0  0  0  0  0  # atno 17371 bound_to 10713
  139.8785  134.9149  156.3117 LP  0  0  0  0  0  0  0  0  0  0  0  0  # atno 17394 bound_to 11000
  140.9741  133.7309  156.0577 LP  0  0  0  0  0  0  0  0  0  0  0  0  # atno 17395 bound_to 11000

$$$$
