AV-unprocessed.smi:1670|AV-procd|sdf|6693|dock5
  -GOLD-   22720 7423D 1   1.00000     0.00000
 Structure written by MMmdl.
 41 42  0  0  0  0  0  0  0  0  1 V2000
  148.6212  135.4128  156.4594 C   0  0  0  0  0  0  0  0  0  0  0  0
  149.3438  134.5130  155.4475 C   0  0  2  0  0  0  0  0  0  0  0  0
  150.8221  134.9270  155.2825 C   0  0  0  0  0  0  0  0  0  0  0  0
  150.9749  136.3257  154.9203 N   0  0  0  0  0  0  0  0  0  0  0  0
  150.0052  137.2108  154.4989 C   0  0  0  0  0  0  0  0  0  0  0  0
  150.6154  138.4153  154.2956 C   0  0  0  0  0  0  0  0  0  0  0  0
  151.9774  138.1638  154.6220 C   0  0  0  0  0  0  0  0  0  0  0  0
  152.1909  136.9109  154.9900 N   0  0  0  0  0  0  0  0  0  0  0  0
  148.6391  134.5744  154.1674 N   0  0  0  0  0  0  0  0  0  0  0  0
  147.4522  134.0087  153.9032 C   0  0  0  0  0  0  0  0  0  0  0  0
  146.7823  133.3949  154.7341 O   0  0  0  0  0  0  0  0  0  0  0  0
  147.1020  134.1757  152.6185 N   0  0  0  0  0  0  0  0  0  0  0  0
  145.9129  133.6478  151.9476 C   0  0  2  0  0  0  0  0  0  0  0  0
  146.2325  132.4577  151.0175 C   0  0  0  0  0  0  0  0  0  0  0  0
  144.9472  131.8868  150.3964 C   0  0  0  0  0  0  0  0  0  0  0  0
  144.1565  132.9805  149.6555 C   0  0  1  0  0  0  0  0  0  0  0  0
  142.9536  132.4348  149.1563 O   0  0  0  0  0  0  0  0  0  0  0  0
  143.8349  134.1651  150.5848 C   0  0  0  0  0  0  0  0  0  0  0  0
  145.1158  134.7441  151.2072 C   0  0  0  0  0  0  0  0  0  0  0  0
  149.1029  135.3681  157.4365 H   0  0  0  0  0  0  0  0  0  0  0  0
  147.5842  135.1023  156.5907 H   0  0  0  0  0  0  0  0  0  0  0  0
  148.6197  136.4545  156.1365 H   0  0  0  0  0  0  0  0  0  0  0  0
  149.3081  133.4953  155.8403 H   0  0  0  0  0  0  0  0  0  0  0  0
  151.3821  134.7285  156.1981 H   0  0  0  0  0  0  0  0  0  0  0  0
  151.2900  134.3304  154.4983 H   0  0  0  0  0  0  0  0  0  0  0  0
  148.9726  136.9141  154.3871 H   0  0  0  0  0  0  0  0  0  0  0  0
  150.1573  139.3366  153.9675 H   0  0  0  0  0  0  0  0  0  0  0  0
  152.8118  138.8492  154.6008 H   0  0  0  0  0  0  0  0  0  0  0  0
  149.1116  135.0530  153.4147 H   0  0  0  0  0  0  0  0  0  0  0  0
  147.7371  134.7005  152.0352 H   0  0  0  0  0  0  0  0  0  0  0  0
  145.2793  133.2714  152.7518 H   0  0  0  0  0  0  0  0  0  0  0  0
  146.9046  132.7667  150.2165 H   0  0  0  0  0  0  0  0  0  0  0  0
  146.7511  131.6757  151.5731 H   0  0  0  0  0  0  0  0  0  0  0  0
  145.1980  131.0755  149.7118 H   0  0  0  0  0  0  0  0  0  0  0  0
  144.3296  131.4500  151.1825 H   0  0  0  0  0  0  0  0  0  0  0  0
  144.7413  133.3361  148.8061 H   0  0  0  0  0  0  0  0  0  0  0  0
  142.2686  133.0781  149.2546 H   0  0  0  0  0  0  0  0  0  0  0  0
  143.3088  134.9442  150.0317 H   0  0  0  0  0  0  0  0  0  0  0  0
  143.1616  133.8410  151.3798 H   0  0  0  0  0  0  0  0  0  0  0  0
  144.8587  135.5504  151.8951 H   0  0  0  0  0  0  0  0  0  0  0  0
  145.7209  135.1925  150.4188 H   0  0  0  0  0  0  0  0  0  0  0  0
  1  2  1  0  0  0  0
  1 20  1  0  0  0  0
  1 21  1  0  0  0  0
  1 22  1  0  0  0  0
  2  3  1  0  0  0  0
  2  9  1  0  0  0  0
  2 23  1  0  0  0  0
  3  4  1  0  0  0  0
  3 24  1  0  0  0  0
  3 25  1  0  0  0  0
  4  8  1  0  0  0  0
  4  5  1  0  0  0  0
  5  6  2  0  0  0  0
  5 26  1  0  0  0  0
  6  7  1  0  0  0  0
  6 27  1  0  0  0  0
  7  8  2  0  0  0  0
  7 28  1  0  0  0  0
  9 10  1  0  0  0  0
  9 29  1  0  0  0  0
 10 11  2  0  0  0  0
 10 12  1  0  0  0  0
 12 13  1  0  0  0  0
 12 30  1  0  0  0  0
 13 19  1  0  0  0  0
 13 14  1  0  0  0  0
 13 31  1  0  0  0  0
 14 15  1  0  0  0  0
 14 32  1  0  0  0  0
 14 33  1  0  0  0  0
 15 16  1  0  0  0  0
 15 34  1  0  0  0  0
 15 35  1  0  0  0  0
 16 17  1  0  0  0  0
 16 18  1  0  0  0  0
 16 36  1  0  0  0  0
 17 37  1  0  0  0  0
 18 19  1  0  0  0  0
 18 38  1  0  0  0  0
 18 39  1  0  0  0  0
 19 40  1  0  0  0  0
 19 41  1  0  0  0  0
M  END
> <s_m_source_file>
AV-unprocessed.smi

> <i_m_source_file_index>
1670

> <i_lp_mmshare_version>
43012

> <i_f3d_flags>
0

> <s_epik_input>
bjFbY0hdW2NIXVtjSF1uMVtDSDJdW0NAQEhdKFtDSDNdKVtOSF1DKD1PKVtOSF1bQ0BASF0yW0NIMl1bQ0gyXVtDQEBIXShbT0hdKVtDSDJdW0NIMl0y

> <s_epik_cmdline>
J2VwaWtfcHl0aG9uJywgJy1waCcsICc3LjAnLCAnLXRuJywgJzgnLCAnLW1hJywgJzIwMCcsICctbWV0YWxfYmluZGluZycsICctaW1hZScsICc8aW5maWxlLm1hZT4nLCAnLW9tYWUnLCAnPG91dGZpbGUubWFlPic=

> <r_lp_tautomer_probability>
1

> <r_epik_Ionization_Penalty>
7.33369e-05

> <r_epik_Ionization_Penalty_Charging>
0

> <r_epik_Ionization_Penalty_Neutral>
7.33369e-05

> <r_epik_State_Penalty>
-0

> <r_epik_Charging_Adjusted_Penalty>
0

> <i_epik_Tot_Q>
0

> <i_epik_Tot_abs_Q>
0

> <r_epik_Metal_State_Penalty>
-0

> <b_epik_Metal_Only>
0

> <s_lp_Force_Field>
OPLS_2005

> <r_lp_Energy>
5.26958

> <b_lp_Chiralities_Consistent>
1

> <s_lp_Variant>
AV-unprocessed.smi:1670-1

> <Gold.Version>
5.8.1

> <Gold.Id.Protein>
6NUR|6NUR_protein|mol2

> <Gold.PLP.Fitness>
45.4743

> <Gold.PLP.PLP>
-33.1383

> <Gold.PLP.part.hbond>
-5.7207

> <Gold.PLP.part.metal>
0.0000

> <Gold.PLP.part.buried>
-3.2251

> <Gold.PLP.part.nonpolar>
-25.7590

> <Gold.PLP.part.repulsive>
0.1462

> <Gold.PLP.ligand.clash>
0.4494

> <Gold.PLP.ligand.torsion>
0.4443

> <Gold.PLP.Chemscore.Hbond>
4.1658

> <Gold.PLP.Chemscore.CHOScore>
0.3758

> <Gold.PLP.Chemscore.Metal>
0.0000

> <Gold.Chemscore.Hbonds>
donor molecule, donor type, donor heavy atom, donor atom, acceptor molecule, acceptor atom, score
      L1  H     9    29       P1  7948  0.93
      L1  H    12    30       P1  7948  0.99
      L1  H    17    37       P1 10186  1.00
      P1  H 10752 10763       L1     8  0.59
      P1  H 10785 10796       L1    17  0.23
      L1  C     5    26       P1  7948  0.32

> <Gold.PLP.Chemscore.Internal.Correction>
0.0492

> <Gold.Rescore>
     Score         DG    S(hbond)    S(metal)    S(lipo)     H(rot)  DE(clash)    DE(int)     intcor
     17.49     -19.86       3.35        0.00      75.93       2.22       0.63       1.75       ----

> <Gold.Chemscore.Fitness>
17.4851

> <Gold.Chemscore.DG>
-19.8612

> <Gold.Chemscore.ZeroCoef>
-5.4800

> <Gold.Chemscore.Hbond>
3.3493

> <Gold.Chemscore.Metal>
0.0000

> <Gold.Chemscore.Lipo>
75.9311

> <Gold.Chemscore.Internal_Hbond>
0.0000

> <Gold.Chemscore.DEClash>
0.6279

> <Gold.Chemscore.DEInternal>
1.7481

> <Gold.Chemscore.Rot>
2.2224

> <Gold.Chemscore.Internal.Correction>
   9.000000E+99

> <Gold.Chemscore.Hbonds>
donor molecule, donor type, donor heavy atom, donor atom, acceptor molecule, acceptor atom, score
      L1  H     9    29       P1  7948  0.20
      L1  H    12    30       P1  7948  0.52
      L1  H    17    37       P1 10186  1.00
      P1  H 10752 10763       L1     8  0.06
      P1  H 10785 10796       L1    17  0.18

> <Gold.Chemscore.Hbond.Weighted>
-11.1865

> <Gold.Chemscore.Metal.Weighted>
-0.0000

> <Gold.Chemscore.Lipo.Weighted>
-8.8839

> <Gold.Chemscore.Internal_Hbond.Weighted>
0.0000

> <Gold.Chemscore.DEClash.Weighted>
0.6279

> <Gold.Chemscore.DEInternal.Weighted>
1.7481

> <Gold.Chemscore.Rot.Weighted>
5.6893

> <Gold.Chemscore.Internal.Correction.Weighted>
   9.000000E+99

> <Gold.Protein.RotatedTorsions>
[ 6907 6896 6895 6894 ] final  154.46 input  -60.11 | X-H torsion
[ 7974 7965 7964 7962 ] final   18.01 input  175.53 | X-H torsion
[ 8008 7997 7996 7995 ] final   -0.91 input   59.86 | X-H torsion
[ 10167 10162 10161 10158 ] final -112.10 input  -65.29 | X-H torsion
[ 10718 10713 10712 10709 ] final   -8.99 input   66.30 | X-H torsion
[ 10763 10752 10751 10750 ] final   48.19 input  -60.55 | X-H torsion
[ 11005 11000 10999 10996 ] final   70.68 input  -57.11 | X-H torsion

> <Gold.Protein.ActiveResidues>
 VAL166  LYS551  ARG553  GLY616  TRP617  ASP618  TYR619  PRO620  LYS621  CYS622 
 ASP623  PHE694  ASN695  SER759  ASP760  ASP761  ALA762  ILE779  LEU786  VAL792 
 PHE793  MET794  SER795  GLU796  ALA797  LYS798  CYS799  TRP800  GLU811  SER814 

> <Gold.Protein.RotatedAtoms>
  152.0581  133.4049  159.4405 H   0  0  0  0  0  0  0  0  0  0  0  0  # atno 6907 bound_to 6896
  150.6867  134.3231  159.4804 H   0  0  0  0  0  0  0  0  0  0  0  0  # atno 6908 bound_to 6896
  152.1049  134.9315  160.0619 H   0  0  0  0  0  0  0  0  0  0  0  0  # atno 6909 bound_to 6896
  146.2199  139.8520  142.8621 H   0  0  0  0  0  0  0  0  0  0  0  0  # atno 7974 bound_to 7965
  154.6527  140.2572  155.7195 H   0  0  0  0  0  0  0  0  0  0  0  0  # atno 8008 bound_to 7997
  156.2582  140.2864  156.0889 H   0  0  0  0  0  0  0  0  0  0  0  0  # atno 8009 bound_to 7997
  155.1426  140.0380  157.2792 H   0  0  0  0  0  0  0  0  0  0  0  0  # atno 8010 bound_to 7997
  140.1263  143.4399  152.1657 H   0  0  0  0  0  0  0  0  0  0  0  0  # atno 10167 bound_to 10162
  156.6946  130.5075  149.5934 H   0  0  0  0  0  0  0  0  0  0  0  0  # atno 10718 bound_to 10713
  152.9794  135.5952  154.3886 H   0  0  0  0  0  0  0  0  0  0  0  0  # atno 10763 bound_to 10752
  154.3544  135.2767  155.2356 H   0  0  0  0  0  0  0  0  0  0  0  0  # atno 10764 bound_to 10752
  154.4382  135.6020  153.6167 H   0  0  0  0  0  0  0  0  0  0  0  0  # atno 10765 bound_to 10752
  139.9584  134.7103  156.0700 H   0  0  0  0  0  0  0  0  0  0  0  0  # atno 11005 bound_to 11000
  145.2792  141.0133  143.3727 LP  0  0  0  0  0  0  0  0  0  0  0  0  # atno 17320 bound_to 7965
  144.9163  139.4466  143.6562 LP  0  0  0  0  0  0  0  0  0  0  0  0  # atno 17321 bound_to 7965
  139.5542  144.7361  151.4343 LP  0  0  0  0  0  0  0  0  0  0  0  0  # atno 17342 bound_to 10162
  140.6843  143.8011  150.7164 LP  0  0  0  0  0  0  0  0  0  0  0  0  # atno 17343 bound_to 10162
  156.1773  130.6476  151.0909 LP  0  0  0  0  0  0  0  0  0  0  0  0  # atno 17370 bound_to 10713
  157.6996  131.0781  150.6862 LP  0  0  0  0  0  0  0  0  0  0  0  0  # atno 17371 bound_to 10713
  141.1259  133.6599  156.3335 LP  0  0  0  0  0  0  0  0  0  0  0  0  # atno 17394 bound_to 11000
  140.5555  134.5985  157.5419 LP  0  0  0  0  0  0  0  0  0  0  0  0  # atno 17395 bound_to 11000

$$$$
