AV-unprocessed.smi:2514|AV-procd|sdf|9896|dock1
  -GOLD-   2272013533D 1   1.00000     0.00000
 Structure written by MMmdl.
 24 25  0  0  0  0  0  0  0  0  1 V2000
  151.7541  142.7876  159.0018 C   0  0  0  0  0  0  0  0  0  0  0  0
  150.8123  142.9688  157.8048 C   0  0  1  0  0  0  0  0  0  0  0  0
  151.2076  144.1004  157.0558 O   0  0  0  0  0  0  0  0  0  0  0  0
  150.8310  141.7916  156.8704 C   0  0  0  0  0  0  0  0  0  0  0  0
  151.5132  140.6146  156.9962 C   0  0  0  0  0  0  0  0  0  0  0  0
  151.1657  139.9181  155.8581 N   0  0  0  0  0  0  0  0  0  0  0  0
  151.6069  138.6084  155.4728 C   0  0  0  0  0  0  0  0  0  0  0  0
  152.5148  138.3771  154.2602 C   0  0  0  0  0  0  0  0  0  0  0  0
  151.7782  137.1427  154.0479 N   0  0  0  0  0  0  0  0  0  0  0  0
  150.6356  137.6423  154.7940 C   0  0  0  0  0  0  0  0  0  0  0  0
  150.3232  140.6319  155.0742 N   0  0  0  0  0  0  0  0  0  0  0  0
  150.1114  141.7614  155.6730 N   0  0  0  0  0  0  0  0  0  0  0  0
  151.4720  141.9144  159.5909 H   0  0  0  0  0  0  0  0  0  0  0  0
  151.7225  143.6551  159.6612 H   0  0  0  0  0  0  0  0  0  0  0  0
  152.7871  142.6522  158.6793 H   0  0  0  0  0  0  0  0  0  0  0  0
  149.7990  143.1433  158.1682 H   0  0  0  0  0  0  0  0  0  0  0  0
  150.5038  144.3310  156.4689 H   0  0  0  0  0  0  0  0  0  0  0  0
  152.1801  140.2317  157.7547 H   0  0  0  0  0  0  0  0  0  0  0  0
  152.0402  138.1589  156.3692 H   0  0  0  0  0  0  0  0  0  0  0  0
  152.3727  139.0790  153.4372 H   0  0  0  0  0  0  0  0  0  0  0  0
  153.5662  138.2295  154.5081 H   0  0  0  0  0  0  0  0  0  0  0  0
  151.5624  136.9862  153.0734 H   0  0  0  0  0  0  0  0  0  0  0  0
  150.1888  136.9095  155.4666 H   0  0  0  0  0  0  0  0  0  0  0  0
  149.9001  138.1224  154.1467 H   0  0  0  0  0  0  0  0  0  0  0  0
  1  2  1  0  0  0  0
  1 13  1  0  0  0  0
  1 14  1  0  0  0  0
  1 15  1  0  0  0  0
  2  3  1  0  0  0  0
  2  4  1  0  0  0  0
  2 16  1  0  0  0  0
  3 17  1  0  0  0  0
  4 12  1  0  0  0  0
  4  5  2  0  0  0  0
  5  6  1  0  0  0  0
  5 18  1  0  0  0  0
  6  7  1  0  0  0  0
  6 11  1  0  0  0  0
  7 10  1  0  0  0  0
  7  8  1  0  0  0  0
  7 19  1  0  0  0  0
  8  9  1  0  0  0  0
  8 20  1  0  0  0  0
  8 21  1  0  0  0  0
  9 10  1  0  0  0  0
  9 22  1  0  0  0  0
 10 23  1  0  0  0  0
 10 24  1  0  0  0  0
 11 12  2  0  0  0  0
M  END
> <s_m_source_file>
AV-unprocessed.smi

> <i_m_source_file_index>
2514

> <i_lp_mmshare_version>
43012

> <i_f3d_flags>
0

> <s_epik_input>
W0NIM11bQ0BIXShbT0hdKWMxW2NIXW4obm4xKVtDSF0yW0NIMl1bTkhdW0NIMl0y

> <s_epik_cmdline>
J2VwaWtfcHl0aG9uJywgJy1waCcsICc3LjAnLCAnLXRuJywgJzgnLCAnLW1hJywgJzIwMCcsICctbWV0YWxfYmluZGluZycsICctaW1hZScsICc8aW5maWxlLm1hZT4nLCAnLW9tYWUnLCAnPG91dGZpbGUubWFlPic=

> <r_lp_tautomer_probability>
1

> <r_epik_Ionization_Penalty>
0.704859

> <r_epik_Ionization_Penalty_Charging>
0

> <r_epik_Ionization_Penalty_Neutral>
0.704859

> <r_epik_State_Penalty>
0.727806

> <r_epik_Charging_Adjusted_Penalty>
0.727806

> <i_epik_Tot_Q>
0

> <i_epik_Tot_abs_Q>
0

> <r_epik_Metal_State_Penalty>
0.727738

> <b_epik_Metal_Only>
0

> <s_lp_Force_Field>
OPLS_2005

> <r_lp_Energy>
11.7069

> <b_lp_Chiralities_Consistent>
1

> <s_lp_Variant>
AV-unprocessed.smi:2514-4

> <Gold.Version>
5.8.1

> <Gold.Id.Protein>
6NUR|6NUR_protein|mol2

> <Gold.PLP.Fitness>
35.8711

> <Gold.PLP.PLP>
-24.7692

> <Gold.PLP.part.hbond>
-4.0646

> <Gold.PLP.part.metal>
0.0000

> <Gold.PLP.part.buried>
-4.8744

> <Gold.PLP.part.nonpolar>
-16.5872

> <Gold.PLP.part.repulsive>
0.1947

> <Gold.PLP.ligand.clash>
0.0000

> <Gold.PLP.ligand.torsion>
0.3840

> <Gold.PLP.Chemscore.Hbond>
3.8880

> <Gold.PLP.Chemscore.CHOScore>
0.0000

> <Gold.PLP.Chemscore.Metal>
0.0000

> <Gold.Chemscore.Hbonds>
donor molecule, donor type, donor heavy atom, donor atom, acceptor molecule, acceptor atom, score
      L1  H     3    17       P1  8028  1.00
      L1  H     9    22       P1  7949  1.00
      P1  H  7989  7998       L1    11  0.73
      P1  H 10752 10765       L1     9  1.00

> <Gold.PLP.Chemscore.Internal.Correction>
0.2060

> <Gold.Rescore>
     Score         DG    S(hbond)    S(metal)    S(lipo)     H(rot)  DE(clash)    DE(int)     intcor
     15.55     -16.03       2.64        0.00      53.72       1.78       0.09       0.39       ----

> <Gold.Chemscore.Fitness>
15.5460

> <Gold.Chemscore.DG>
-16.0288

> <Gold.Chemscore.ZeroCoef>
-5.4800

> <Gold.Chemscore.Hbond>
2.6426

> <Gold.Chemscore.Metal>
0.0000

> <Gold.Chemscore.Lipo>
53.7199

> <Gold.Chemscore.Internal_Hbond>
0.0000

> <Gold.Chemscore.DEClash>
0.0890

> <Gold.Chemscore.DEInternal>
0.3938

> <Gold.Chemscore.Rot>
1.7823

> <Gold.Chemscore.Internal.Correction>
   9.000000E+99

> <Gold.Chemscore.Hbonds>
donor molecule, donor type, donor heavy atom, donor atom, acceptor molecule, acceptor atom, score
      L1  H     3    17       P1  8028  1.00
      L1  H     9    22       P1  7949  0.93
      P1  H  7989  7998       L1    11  0.09
      P1  H 10752 10765       L1     9  0.17

> <Gold.Chemscore.Hbond.Weighted>
-8.8262

> <Gold.Chemscore.Metal.Weighted>
-0.0000

> <Gold.Chemscore.Lipo.Weighted>
-6.2852

> <Gold.Chemscore.Internal_Hbond.Weighted>
0.0000

> <Gold.Chemscore.DEClash.Weighted>
0.0890

> <Gold.Chemscore.DEInternal.Weighted>
0.3938

> <Gold.Chemscore.Rot.Weighted>
4.5627

> <Gold.Chemscore.Internal.Correction.Weighted>
   9.000000E+99

> <Gold.Protein.RotatedTorsions>
[ 6907 6896 6895 6894 ] final -107.03 input  -60.11 | X-H torsion
[ 7974 7965 7964 7962 ] final  -55.49 input  175.53 | X-H torsion
[ 8008 7997 7996 7995 ] final  156.25 input   59.86 | X-H torsion
[ 10167 10162 10161 10158 ] final  -93.23 input  -65.29 | X-H torsion
[ 10718 10713 10712 10709 ] final   68.71 input   66.30 | X-H torsion
[ 10763 10752 10751 10750 ] final  169.00 input  -60.55 | X-H torsion
[ 11005 11000 10999 10996 ] final  147.69 input  -57.11 | X-H torsion

> <Gold.Protein.ActiveResidues>
 VAL166  LYS551  ARG553  GLY616  TRP617  ASP618  TYR619  PRO620  LYS621  CYS622 
 ASP623  PHE694  ASN695  SER759  ASP760  ASP761  ALA762  ILE779  LEU786  VAL792 
 PHE793  MET794  SER795  GLU796  ALA797  LYS798  CYS799  TRP800  GLU811  SER814 

> <Gold.Protein.RotatedAtoms>
  150.7422  133.9887  159.3599 H   0  0  0  0  0  0  0  0  0  0  0  0  # atno 6907 bound_to 6896
  151.7833  135.0753  160.0386 H   0  0  0  0  0  0  0  0  0  0  0  0  # atno 6908 bound_to 6896
  152.3259  133.5867  159.5812 H   0  0  0  0  0  0  0  0  0  0  0  0  # atno 6909 bound_to 6896
  145.8736  140.8198  142.9876 H   0  0  0  0  0  0  0  0  0  0  0  0  # atno 7974 bound_to 7965
  156.2433  140.1917  156.6926 H   0  0  0  0  0  0  0  0  0  0  0  0  # atno 8008 bound_to 7997
  154.6240  140.0604  156.9677 H   0  0  0  0  0  0  0  0  0  0  0  0  # atno 8009 bound_to 7997
  155.1816  140.3277  155.4377 H   0  0  0  0  0  0  0  0  0  0  0  0  # atno 8010 bound_to 7997
  140.3267  143.3018  151.9987 H   0  0  0  0  0  0  0  0  0  0  0  0  # atno 10167 bound_to 10162
  157.6305  130.9388  150.0415 H   0  0  0  0  0  0  0  0  0  0  0  0  # atno 10718 bound_to 10713
  154.3768  135.2753  155.2234 H   0  0  0  0  0  0  0  0  0  0  0  0  # atno 10763 bound_to 10752
  154.4358  135.5966  153.6101 H   0  0  0  0  0  0  0  0  0  0  0  0  # atno 10764 bound_to 10752
  152.9836  135.6006  154.4006 H   0  0  0  0  0  0  0  0  0  0  0  0  # atno 10765 bound_to 10752
  140.0897  134.9048  157.1631 H   0  0  0  0  0  0  0  0  0  0  0  0  # atno 11005 bound_to 11000
  144.6726  140.1276  143.7446 LP  0  0  0  0  0  0  0  0  0  0  0  0  # atno 17320 bound_to 7965
  145.9108  139.2486  143.1439 LP  0  0  0  0  0  0  0  0  0  0  0  0  # atno 17321 bound_to 7965
  139.4864  144.6268  151.7149 LP  0  0  0  0  0  0  0  0  0  0  0  0  # atno 17342 bound_to 10162
  140.5434  144.0542  150.6097 LP  0  0  0  0  0  0  0  0  0  0  0  0  # atno 17343 bound_to 10162
  156.1505  130.3642  149.9445 LP  0  0  0  0  0  0  0  0  0  0  0  0  # atno 17370 bound_to 10713
  156.7466  130.9099  151.3635 LP  0  0  0  0  0  0  0  0  0  0  0  0  # atno 17371 bound_to 10713
  140.3370  134.2746  155.7218 LP  0  0  0  0  0  0  0  0  0  0  0  0  # atno 17394 bound_to 11000
  141.2074  133.7807  157.0122 LP  0  0  0  0  0  0  0  0  0  0  0  0  # atno 17395 bound_to 11000

$$$$
