#       Name:                AV-unprocessed.smi:2636
#       Creating user name   scv26
#       Creation time:       Fri Mar 27 14:27:08 2020


#       File generated by GOLD software.
#

@<TRIPOS>MOLECULE
AV-unprocessed.smi:2636
    42    43     1
SMALL
NO_CHARGES


@<TRIPOS>ATOM
      1 ****        -2.2251   1.8480  -0.2626 C.3            1 S1                 0.0000
      2 ****        -1.7052   1.0815   0.9394 C.2            1 S1                 0.0000
      3 ****        -1.3948  -0.2302   0.8899 C.2            1 S1                 0.0000
      4 ****        -0.9243  -0.9316   2.0129 N.am           1 S1                 0.0000
      5 ****        -0.5741  -2.3399   1.8679 C.3            1 S1                 0.0000
      6 ****         0.8082  -2.5437   1.9623 O.3            1 S1                 0.0000
      7 ****         1.6251  -1.9009   0.9878 C.3            1 S1                 0.0000
      8 ****         1.4094  -2.4744  -0.4035 C.2            1 S1                 0.0000
      9 ****         1.1700  -1.8102  -1.5516 C.2            1 S1                 0.0000
     10 ****         1.1284  -0.3570  -1.7900 C.ar           1 S1                 0.0000
     11 ****         1.9918   0.5498  -1.1340 C.ar           1 S1                 0.0000
     12 ****         1.8975   1.9336  -1.3789 C.ar           1 S1                 0.0000
     13 ****         0.9432   2.4252  -2.2887 C.ar           1 S1                 0.0000
     14 ****         0.0851   1.5302  -2.9539 C.ar           1 S1                 0.0000
     15 ****         0.1771   0.1476  -2.7026 C.ar           1 S1                 0.0000
     16 ****        -0.7515  -0.2871   3.2049 C.2            1 S1                 0.0000
     17 ****        -0.3286  -0.9182   4.1743 O.2            1 S1                 0.0000
     18 ****        -1.0579   1.0442   3.2773 N.pl3          1 S1                -1.0000
     19 ****        -1.5241   1.7704   2.2194 C.2            1 S1                 0.0000
     20 ****        -1.7916   2.9683   2.3099 O.2            1 S1                 0.0000
     21 ****        -2.3173   1.1979  -1.1329 H              1 S1                 0.0000
     22 ****        -1.5482   2.6641  -0.5166 H              1 S1                 0.0000
     23 ****        -3.2081   2.2687  -0.0497 H              1 S1                 0.0000
     24 ****        -1.4881  -0.8193  -0.0105 H              1 S1                 0.0000
     25 ****        -1.0679  -2.9006   2.6632 H              1 S1                 0.0000
     26 ****        -0.9527  -2.7226   0.9194 H              1 S1                 0.0000
     27 ****         1.4721  -0.8253   1.0272 H              1 S1                 0.0000
     28 ****         2.6655  -2.0746   1.2616 H              1 S1                 0.0000
     29 ****         1.4399  -3.5531  -0.4486 H              1 S1                 0.0000
     30 ****         1.0124  -2.4137  -2.4338 H              1 S1                 0.0000
     31 ****         2.7477   0.1932  -0.4509 H              1 S1                 0.0000
     32 ****         2.5616   2.6173  -0.8710 H              1 S1                 0.0000
     33 ****         0.8703   3.4863  -2.4760 H              1 S1                 0.0000
     34 ****        -0.6497   1.9041  -3.6513 H              1 S1                 0.0000
     35 ****        -0.4945  -0.5282  -3.2119 H              1 S1                 0.0000
     36 ****         0.9734  -3.5275   1.8930 LP             1 S1                 0.0000
     37 ****         1.1001  -2.2193   2.8621 LP             1 S1                 0.0000
     38 ****        -0.1160  -1.8911   4.0835 LP             1 S1                 0.0000
     39 ****        -0.1979  -0.4577   5.0523 LP             1 S1                 0.0000
     40 ****        -0.9337   1.5109   4.1530 LP             1 S1                 0.0000
     41 ****        -2.1308   3.4666   1.5120 LP             1 S1                 0.0000
     42 ****        -1.6698   3.4434   3.1814 LP             1 S1                 0.0000
@<TRIPOS>BOND
    1    1    2 1     
    2    1   21 1     
    3    1   22 1     
    4    1   23 1     
    5    2   19 1     
    6    2    3 2     
    7    3    4 1     
    8    3   24 1     
    9    4    5 1     
   10    4   16 am    
   11    5    6 1     
   12    5   25 1     
   13    5   26 1     
   14    6    7 1     
   15    7    8 1     
   16    7   27 1     
   17    7   28 1     
   18    8    9 2     
   19    8   29 1     
   20    9   10 1     
   21    9   30 1     
   22   10   15 ar    
   23   10   11 ar    
   24   11   12 ar    
   25   11   31 1     
   26   12   13 ar    
   27   12   32 1     
   28   13   14 ar    
   29   13   33 1     
   30   14   15 ar    
   31   14   34 1     
   32   15   35 1     
   33   16   17 2     
   34   16   18 1     
   35   18   19 1     
   36   19   20 2     
   37    6   36 1     
   38    6   37 1     
   39   17   38 1     
   40   17   39 1     
   41   18   40 1     
   42   20   41 1     
   43   20   42 1     
@<TRIPOS>SUBSTRUCTURE
      1 S1             1
@<TRIPOS>SET
LONE_PAIRS      STATIC     ATOMS    <user>   **** ""
7 36 37 38 39 40 41 42
ATOM$BLUE        STATIC     ATOMS    COLORGROUP SYSTEM
7 36 37 38 39 40 41 42
