AV-unprocessed.smi:2763|AV-procd|sdf|10639|dock10
  -GOLD-   2272015 93D 1   1.00000     0.00000
 Structure written by MMmdl.
 37 38  0  0  0  0  0  0  0  0  1 V2000
  143.2353  135.8896  152.7838 O   0  0  0  0  0  0  0  0  0  0  0  0
  143.3694  137.1069  152.6567 C   0  0  0  0  0  0  0  0  0  0  0  0
  144.5106  137.6915  152.2648 N   0  0  0  0  0  0  0  0  0  0  0  0
  145.7480  136.9940  151.9330 C   0  0  0  0  0  0  0  0  0  0  0  0
  145.5147  136.0023  150.7832 C   0  0  0  0  0  0  0  0  0  0  0  0
  145.1831  134.5828  151.2719 C   0  0  1  0  0  0  0  0  0  0  0  0
  144.3245  133.8087  150.2522 C   0  0  0  0  0  0  0  0  0  0  0  0
  144.0777  132.3733  150.7310 C   0  0  0  0  0  0  0  0  0  0  0  0
  145.4139  131.7029  151.0677 C   0  0  0  0  0  0  0  0  0  0  0  0
  146.2202  132.5786  152.0395 C   0  0  0  0  0  0  0  0  0  0  0  0
  146.4043  133.8763  151.4821 O   0  0  0  0  0  0  0  0  0  0  0  0
  142.4094  138.0215  152.8817 N   0  0  0  0  0  0  0  0  0  0  0  0
  141.0755  137.8067  153.3206 C   0  0  0  0  0  0  0  0  0  0  0  0
  140.1508  138.8034  152.9332 C   0  0  0  0  0  0  0  0  0  0  0  0
  138.8014  138.6854  153.3198 C   0  0  0  0  0  0  0  0  0  0  0  0
  138.4131  137.5724  154.0862 C   0  0  0  0  0  0  0  0  0  0  0  0
  137.1275  137.4165  154.4819 F   0  0  0  0  0  0  0  0  0  0  0  0
  139.3950  136.6253  154.4309 C   0  0  0  0  0  0  0  0  0  0  0  0
  140.6884  136.7369  154.0603 N   0  0  0  0  0  0  0  0  0  0  0  0
  144.5246  138.6978  152.1871 H   0  0  0  0  0  0  0  0  0  0  0  0
  146.5341  137.6983  151.6558 H   0  0  0  0  0  0  0  0  0  0  0  0
  146.0952  136.4663  152.8218 H   0  0  0  0  0  0  0  0  0  0  0  0
  144.6948  136.3648  150.1616 H   0  0  0  0  0  0  0  0  0  0  0  0
  146.3964  135.9709  150.1414 H   0  0  0  0  0  0  0  0  0  0  0  0
  144.6427  134.6553  152.2175 H   0  0  0  0  0  0  0  0  0  0  0  0
  143.3719  134.3158  150.0955 H   0  0  0  0  0  0  0  0  0  0  0  0
  144.8302  133.7874  149.2859 H   0  0  0  0  0  0  0  0  0  0  0  0
  143.4396  132.3858  151.6155 H   0  0  0  0  0  0  0  0  0  0  0  0
  143.5469  131.8028  149.9685 H   0  0  0  0  0  0  0  0  0  0  0  0
  145.2436  130.7162  151.4993 H   0  0  0  0  0  0  0  0  0  0  0  0
  145.9892  131.5507  150.1536 H   0  0  0  0  0  0  0  0  0  0  0  0
  145.7183  132.6533  153.0056 H   0  0  0  0  0  0  0  0  0  0  0  0
  147.1978  132.1323  152.2231 H   0  0  0  0  0  0  0  0  0  0  0  0
  142.6631  138.9851  152.7215 H   0  0  0  0  0  0  0  0  0  0  0  0
  140.4679  139.6524  152.3449 H   0  0  0  0  0  0  0  0  0  0  0  0
  138.0793  139.4357  153.0338 H   0  0  0  0  0  0  0  0  0  0  0  0
  139.1372  135.7567  155.0186 H   0  0  0  0  0  0  0  0  0  0  0  0
  1  2  2  0  0  0  0
  2  3  1  0  0  0  0
  2 12  1  0  0  0  0
  3  4  1  0  0  0  0
  3 20  1  0  0  0  0
  4  5  1  0  0  0  0
  4 21  1  0  0  0  0
  4 22  1  0  0  0  0
  5  6  1  0  0  0  0
  5 23  1  0  0  0  0
  5 24  1  0  0  0  0
  6 11  1  0  0  0  0
  6  7  1  0  0  0  0
  6 25  1  0  0  0  0
  7  8  1  0  0  0  0
  7 26  1  0  0  0  0
  7 27  1  0  0  0  0
  8  9  1  0  0  0  0
  8 28  1  0  0  0  0
  8 29  1  0  0  0  0
  9 10  1  0  0  0  0
  9 30  1  0  0  0  0
  9 31  1  0  0  0  0
 10 11  1  0  0  0  0
 10 32  1  0  0  0  0
 10 33  1  0  0  0  0
 12 13  1  0  0  0  0
 12 34  1  0  0  0  0
 13 19  1  0  0  0  0
 13 14  2  0  0  0  0
 14 15  1  0  0  0  0
 14 35  1  0  0  0  0
 15 16  2  0  0  0  0
 15 36  1  0  0  0  0
 16 17  1  0  0  0  0
 16 18  1  0  0  0  0
 18 19  2  0  0  0  0
 18 37  1  0  0  0  0
M  END
> <s_m_source_file>
AV-unprocessed.smi

> <i_m_source_file_index>
2763

> <i_lp_mmshare_version>
43012

> <i_f3d_flags>
0

> <s_epik_input>
bjFbY0hdYyhGKVtjSF1bY0hdYzFbTkhdQyg9TylbTkhdW0NIMl1bQ0gyXVtDQEBIXTJbQ0gyXVtDSDJdW0NIMl1bQ0gyXU8y

> <s_epik_cmdline>
J2VwaWtfcHl0aG9uJywgJy1waCcsICc3LjAnLCAnLXRuJywgJzgnLCAnLW1hJywgJzIwMCcsICctbWV0YWxfYmluZGluZycsICctaW1hZScsICc8aW5maWxlLm1hZT4nLCAnLW9tYWUnLCAnPG91dGZpbGUubWFlPic=

> <r_lp_tautomer_probability>
1

> <r_epik_Ionization_Penalty>
3.67849e-05

> <r_epik_Ionization_Penalty_Charging>
0

> <r_epik_Ionization_Penalty_Neutral>
3.67849e-05

> <r_epik_State_Penalty>
-0

> <r_epik_Charging_Adjusted_Penalty>
0

> <i_epik_Tot_Q>
0

> <i_epik_Tot_abs_Q>
0

> <r_epik_Metal_State_Penalty>
-0

> <b_epik_Metal_Only>
0

> <s_lp_Force_Field>
OPLS_2005

> <r_lp_Energy>
13.3257

> <b_lp_Chiralities_Consistent>
1

> <s_lp_Variant>
AV-unprocessed.smi:2763-2

> <Gold.Version>
5.8.1

> <Gold.Id.Protein>
6NUR|6NUR_protein|mol2

> <Gold.PLP.Fitness>
46.0559

> <Gold.PLP.PLP>
-38.4226

> <Gold.PLP.part.hbond>
-3.0000

> <Gold.PLP.part.metal>
0.0000

> <Gold.PLP.part.buried>
-2.7368

> <Gold.PLP.part.nonpolar>
-33.3194

> <Gold.PLP.part.repulsive>
0.4580

> <Gold.PLP.ligand.clash>
0.0000

> <Gold.PLP.ligand.torsion>
0.6880

> <Gold.PLP.Chemscore.Hbond>
2.0000

> <Gold.PLP.Chemscore.CHOScore>
1.0000

> <Gold.PLP.Chemscore.Metal>
0.0000

> <Gold.Chemscore.Hbonds>
donor molecule, donor type, donor heavy atom, donor atom, acceptor molecule, acceptor atom, score
      L1  H     3    20       P1 10175  1.00
      L1  H    12    34       P1 10175  1.00
      L1  C    18    37       P1 11000  0.91

> <Gold.PLP.Chemscore.Internal.Correction>
0.0093

> <Gold.Rescore>
     Score         DG    S(hbond)    S(metal)    S(lipo)     H(rot)  DE(clash)    DE(int)     intcor
     13.90     -17.51       1.95        0.00      80.73       1.54       0.48       3.13       ----

> <Gold.Chemscore.Fitness>
13.8988

> <Gold.Chemscore.DG>
-17.5075

> <Gold.Chemscore.ZeroCoef>
-5.4800

> <Gold.Chemscore.Hbond>
1.9523

> <Gold.Chemscore.Metal>
0.0000

> <Gold.Chemscore.Lipo>
80.7274

> <Gold.Chemscore.Internal_Hbond>
0.0000

> <Gold.Chemscore.DEClash>
0.4813

> <Gold.Chemscore.DEInternal>
3.1274

> <Gold.Chemscore.Rot>
1.5384

> <Gold.Chemscore.Internal.Correction>
   9.000000E+99

> <Gold.Chemscore.Hbonds>
donor molecule, donor type, donor heavy atom, donor atom, acceptor molecule, acceptor atom, score
      L1  H     3    20       P1 10175  0.93
      L1  H    12    34       P1 10175  1.00

> <Gold.Chemscore.Hbond.Weighted>
-6.5206

> <Gold.Chemscore.Metal.Weighted>
-0.0000

> <Gold.Chemscore.Lipo.Weighted>
-9.4451

> <Gold.Chemscore.Internal_Hbond.Weighted>
0.0000

> <Gold.Chemscore.DEClash.Weighted>
0.4813

> <Gold.Chemscore.DEInternal.Weighted>
3.1274

> <Gold.Chemscore.Rot.Weighted>
3.9382

> <Gold.Chemscore.Internal.Correction.Weighted>
   9.000000E+99

> <Gold.Protein.RotatedTorsions>
[ 6907 6896 6895 6894 ] final  -50.54 input  -60.11 | X-H torsion
[ 7974 7965 7964 7962 ] final    8.15 input  175.53 | X-H torsion
[ 8008 7997 7996 7995 ] final   19.84 input   59.86 | X-H torsion
[ 10167 10162 10161 10158 ] final  154.12 input  -65.29 | X-H torsion
[ 10718 10713 10712 10709 ] final  -15.30 input   66.30 | X-H torsion
[ 10763 10752 10751 10750 ] final  121.56 input  -60.55 | X-H torsion
[ 11005 11000 10999 10996 ] final  -59.56 input  -57.11 | X-H torsion

> <Gold.Protein.ActiveResidues>
 VAL166  LYS551  ARG553  GLY616  TRP617  ASP618  TYR619  PRO620  LYS621  CYS622 
 ASP623  PHE694  ASN695  SER759  ASP760  ASP761  ALA762  ILE779  LEU786  VAL792 
 PHE793  MET794  SER795  GLU796  ALA797  LYS798  CYS799  TRP800  GLU811  SER814 

> <Gold.Protein.RotatedAtoms>
  150.8697  134.8069  159.7145 H   0  0  0  0  0  0  0  0  0  0  0  0  # atno 6907 bound_to 6896
  152.4706  134.4966  159.9721 H   0  0  0  0  0  0  0  0  0  0  0  0  # atno 6908 bound_to 6896
  151.5056  133.3457  159.2912 H   0  0  0  0  0  0  0  0  0  0  0  0  # atno 6909 bound_to 6896
  146.2419  139.9976  142.8419 H   0  0  0  0  0  0  0  0  0  0  0  0  # atno 7974 bound_to 7965
  154.9267  140.3035  155.5188 H   0  0  0  0  0  0  0  0  0  0  0  0  # atno 8008 bound_to 7997
  156.3006  140.2361  156.4259 H   0  0  0  0  0  0  0  0  0  0  0  0  # atno 8009 bound_to 7997
  154.8277  140.0420  157.1444 H   0  0  0  0  0  0  0  0  0  0  0  0  # atno 8010 bound_to 7997
  139.4824  144.5214  151.7870 H   0  0  0  0  0  0  0  0  0  0  0  0  # atno 10167 bound_to 10162
  156.6037  130.4831  149.6229 H   0  0  0  0  0  0  0  0  0  0  0  0  # atno 10718 bound_to 10713
  153.6160  135.3422  155.2995 H   0  0  0  0  0  0  0  0  0  0  0  0  # atno 10763 bound_to 10752
  154.8609  135.4261  154.2258 H   0  0  0  0  0  0  0  0  0  0  0  0  # atno 10764 bound_to 10752
  153.3120  135.7032  153.7180 H   0  0  0  0  0  0  0  0  0  0  0  0  # atno 10765 bound_to 10752
  141.1253  133.6617  156.5090 H   0  0  0  0  0  0  0  0  0  0  0  0  # atno 11005 bound_to 11000
  145.1445  140.9589  143.4469 LP  0  0  0  0  0  0  0  0  0  0  0  0  # atno 17320 bound_to 7965
  145.0264  139.3379  143.6046 LP  0  0  0  0  0  0  0  0  0  0  0  0  # atno 17321 bound_to 7965
  140.4728  144.1562  150.5920 LP  0  0  0  0  0  0  0  0  0  0  0  0  # atno 17342 bound_to 10162
  140.4363  143.2546  151.9531 LP  0  0  0  0  0  0  0  0  0  0  0  0  # atno 17343 bound_to 10162
  156.2447  130.6872  151.1589 LP  0  0  0  0  0  0  0  0  0  0  0  0  # atno 17370 bound_to 10713
  157.7273  131.0640  150.5873 LP  0  0  0  0  0  0  0  0  0  0  0  0  # atno 17371 bound_to 10713
  140.4384  134.7038  157.4979 LP  0  0  0  0  0  0  0  0  0  0  0  0  # atno 17394 bound_to 11000
  140.0246  134.6497  155.9191 LP  0  0  0  0  0  0  0  0  0  0  0  0  # atno 17395 bound_to 11000

$$$$
