AV-unprocessed.smi:1991|AV-procd|sdf|8068|dock10
  -GOLD-   2272010273D 1   1.00000     0.00000
 Structure written by MMmdl.
 44 45  0  0  0  0  0  0  0  0  1 V2000
  144.4814  136.7077  159.3193 C   0  0  0  0  0  0  0  0  0  0  0  0
  145.7563  137.5639  159.3125 C   0  0  1  0  0  0  0  0  0  0  0  0
  146.4853  137.2546  160.4979 O   0  0  0  0  0  0  0  0  0  0  0  0
  146.9122  135.9017  160.6230 C   0  0  0  0  0  0  0  0  0  0  0  0
  146.9200  135.5071  162.1048 C   0  0  0  0  0  0  0  0  0  0  0  0
  147.4564  134.2942  162.2334 F   0  0  0  0  0  0  0  0  0  0  0  0
  147.6477  136.3738  162.8089 F   0  0  0  0  0  0  0  0  0  0  0  0
  145.6753  135.4765  162.5799 F   0  0  0  0  0  0  0  0  0  0  0  0
  146.6107  137.2813  158.0665 C   0  0  0  0  0  0  0  0  0  0  0  0
  147.0391  136.1468  157.8543 O   0  0  0  0  0  0  0  0  0  0  0  0
  146.8618  138.3306  157.2684 N   0  0  0  0  0  0  0  0  0  0  0  0
  147.6347  138.2937  156.0316 C   0  0  0  0  0  0  0  0  0  0  0  0
  147.6933  139.6524  155.3405 C   0  0  0  0  0  0  0  0  0  0  0  0
  146.4869  140.2649  154.9375 C   0  0  0  0  0  0  0  0  0  0  0  0
  146.5247  141.5313  154.3274 C   0  0  0  0  0  0  0  0  0  0  0  0
  147.7772  142.1434  154.1431 C   0  0  0  0  0  0  0  0  0  0  0  0
  148.9396  141.5723  154.5194 N   0  0  0  0  0  0  0  0  0  0  0  0
  148.9091  140.3509  155.1069 C   0  0  0  0  0  0  0  0  0  0  0  0
  150.1437  139.7751  155.4513 N   0  0  0  0  0  0  0  0  0  0  0  0
  150.8695  139.2565  154.3001 C   0  0  0  0  0  0  0  0  0  0  0  0
  152.0763  138.4296  154.7745 C   0  0  0  0  0  0  0  0  0  0  0  0
  152.8998  139.2296  155.6197 O   0  0  0  0  0  0  0  0  0  0  0  0
  152.2027  139.6846  156.7770 C   0  0  0  0  0  0  0  0  0  0  0  0
  150.9979  140.5416  156.3513 C   0  0  0  0  0  0  0  0  0  0  0  0
  143.8799  136.8845  158.4269 H   0  0  0  0  0  0  0  0  0  0  0  0
  143.8624  136.9439  160.1851 H   0  0  0  0  0  0  0  0  0  0  0  0
  144.7128  135.6427  159.3623 H   0  0  0  0  0  0  0  0  0  0  0  0
  145.4626  138.6153  159.3315 H   0  0  0  0  0  0  0  0  0  0  0  0
  146.2504  135.2313  160.0735 H   0  0  0  0  0  0  0  0  0  0  0  0
  147.9137  135.7867  160.2060 H   0  0  0  0  0  0  0  0  0  0  0  0
  146.4733  139.2244  157.5319 H   0  0  0  0  0  0  0  0  0  0  0  0
  148.6547  138.0115  156.2933 H   0  0  0  0  0  0  0  0  0  0  0  0
  147.2832  137.5061  155.3648 H   0  0  0  0  0  0  0  0  0  0  0  0
  145.5396  139.7724  155.1000 H   0  0  0  0  0  0  0  0  0  0  0  0
  145.6162  142.0226  154.0121 H   0  0  0  0  0  0  0  0  0  0  0  0
  147.8483  143.1165  153.6800 H   0  0  0  0  0  0  0  0  0  0  0  0
  150.2141  138.6479  153.6780 H   0  0  0  0  0  0  0  0  0  0  0  0
  151.2082  140.0902  153.6836 H   0  0  0  0  0  0  0  0  0  0  0  0
  151.7490  137.5350  155.3070 H   0  0  0  0  0  0  0  0  0  0  0  0
  152.6624  138.0953  153.9186 H   0  0  0  0  0  0  0  0  0  0  0  0
  151.8805  138.8324  157.3778 H   0  0  0  0  0  0  0  0  0  0  0  0
  152.8825  140.2720  157.3945 H   0  0  0  0  0  0  0  0  0  0  0  0
  151.3482  141.4457  155.8512 H   0  0  0  0  0  0  0  0  0  0  0  0
  150.4281  140.8531  157.2276 H   0  0  0  0  0  0  0  0  0  0  0  0
  1  2  1  0  0  0  0
  1 25  1  0  0  0  0
  1 26  1  0  0  0  0
  1 27  1  0  0  0  0
  2  3  1  0  0  0  0
  2  9  1  0  0  0  0
  2 28  1  0  0  0  0
  3  4  1  0  0  0  0
  4  5  1  0  0  0  0
  4 29  1  0  0  0  0
  4 30  1  0  0  0  0
  5  6  1  0  0  0  0
  5  7  1  0  0  0  0
  5  8  1  0  0  0  0
  9 10  2  0  0  0  0
  9 11  1  0  0  0  0
 11 12  1  0  0  0  0
 11 31  1  0  0  0  0
 12 13  1  0  0  0  0
 12 32  1  0  0  0  0
 12 33  1  0  0  0  0
 13 18  1  0  0  0  0
 13 14  2  0  0  0  0
 14 15  1  0  0  0  0
 14 34  1  0  0  0  0
 15 16  2  0  0  0  0
 15 35  1  0  0  0  0
 16 17  1  0  0  0  0
 16 36  1  0  0  0  0
 17 18  2  0  0  0  0
 18 19  1  0  0  0  0
 19 24  1  0  0  0  0
 19 20  1  0  0  0  0
 20 21  1  0  0  0  0
 20 37  1  0  0  0  0
 20 38  1  0  0  0  0
 21 22  1  0  0  0  0
 21 39  1  0  0  0  0
 21 40  1  0  0  0  0
 22 23  1  0  0  0  0
 23 24  1  0  0  0  0
 23 41  1  0  0  0  0
 23 42  1  0  0  0  0
 24 43  1  0  0  0  0
 24 44  1  0  0  0  0
M  END
> <s_m_source_file>
AV-unprocessed.smi

> <i_m_source_file_index>
1991

> <i_lp_mmshare_version>
43012

> <i_f3d_flags>
0

> <s_epik_input>
RkMoRikoRilbQ0gyXU9bQ0BASF0oW0NIM10pQyg9TylbTkhdW0NIMl1jMVtjSF1bY0hdW2NIXW5jMU4yW0NIMl1bQ0gyXU9bQ0gyXVtDSDJdMg==

> <s_epik_cmdline>
J2VwaWtfcHl0aG9uJywgJy1waCcsICc3LjAnLCAnLXRuJywgJzgnLCAnLW1hJywgJzIwMCcsICctbWV0YWxfYmluZGluZycsICctaW1hZScsICc8aW5maWxlLm1hZT4nLCAnLW9tYWUnLCAnPG91dGZpbGUubWFlPic=

> <r_lp_tautomer_probability>
1

> <r_epik_Ionization_Penalty>
0.00436412

> <r_epik_Ionization_Penalty_Charging>
0

> <r_epik_Ionization_Penalty_Neutral>
0.00436412

> <r_epik_State_Penalty>
0.00314317

> <r_epik_Charging_Adjusted_Penalty>
0.00314317

> <i_epik_Tot_Q>
0

> <i_epik_Tot_abs_Q>
0

> <r_epik_Metal_State_Penalty>
-0

> <b_epik_Metal_Only>
0

> <s_lp_Force_Field>
OPLS_2005

> <r_lp_Energy>
21.3683

> <b_lp_Chiralities_Consistent>
1

> <s_lp_Variant>
AV-unprocessed.smi:1991-2

> <Gold.Version>
5.8.1

> <Gold.Id.Protein>
6NUR|6NUR_protein|mol2

> <Gold.PLP.Fitness>
41.8679

> <Gold.PLP.PLP>
-35.8970

> <Gold.PLP.part.hbond>
-2.4580

> <Gold.PLP.part.metal>
0.0000

> <Gold.PLP.part.buried>
-3.2429

> <Gold.PLP.part.nonpolar>
-29.8935

> <Gold.PLP.part.repulsive>
0.2354

> <Gold.PLP.ligand.clash>
0.0000

> <Gold.PLP.ligand.torsion>
0.4641

> <Gold.PLP.Chemscore.Hbond>
2.0000

> <Gold.PLP.Chemscore.CHOScore>
0.2045

> <Gold.PLP.Chemscore.Metal>
0.0000

> <Gold.Chemscore.Hbonds>
donor molecule, donor type, donor heavy atom, donor atom, acceptor molecule, acceptor atom, score
      P1  H  6934  6947       L1     3  0.95
      P1  H  7997  8008       L1    22  0.95
      L1  C    16    36       P1  8028  0.29

> <Gold.PLP.Chemscore.Internal.Correction>
0.2854

> <Gold.Rescore>
     Score         DG    S(hbond)    S(metal)    S(lipo)     H(rot)  DE(clash)    DE(int)     intcor
      9.86     -11.79       1.64        0.00      61.51       2.49       0.00       1.92       ----

> <Gold.Chemscore.Fitness>
9.8610

> <Gold.Chemscore.DG>
-11.7861

> <Gold.Chemscore.ZeroCoef>
-5.4800

> <Gold.Chemscore.Hbond>
1.6417

> <Gold.Chemscore.Metal>
0.0000

> <Gold.Chemscore.Lipo>
61.5115

> <Gold.Chemscore.Internal_Hbond>
0.0000

> <Gold.Chemscore.DEClash>
0.0032

> <Gold.Chemscore.DEInternal>
1.9220

> <Gold.Chemscore.Rot>
2.4899

> <Gold.Chemscore.Internal.Correction>
   9.000000E+99

> <Gold.Chemscore.Hbonds>
donor molecule, donor type, donor heavy atom, donor atom, acceptor molecule, acceptor atom, score
      P1  H  6934  6947       L1     3  0.21
      P1  H  7997  8008       L1    22  0.21

> <Gold.Chemscore.Hbond.Weighted>
-5.4834

> <Gold.Chemscore.Metal.Weighted>
-0.0000

> <Gold.Chemscore.Lipo.Weighted>
-7.1968

> <Gold.Chemscore.Internal_Hbond.Weighted>
0.0000

> <Gold.Chemscore.DEClash.Weighted>
0.0032

> <Gold.Chemscore.DEInternal.Weighted>
1.9220

> <Gold.Chemscore.Rot.Weighted>
6.3741

> <Gold.Chemscore.Internal.Correction.Weighted>
   9.000000E+99

> <Gold.Protein.RotatedTorsions>
[ 6907 6896 6895 6894 ] final  -72.98 input  -60.11 | X-H torsion
[ 7974 7965 7964 7962 ] final   62.17 input  175.53 | X-H torsion
[ 8008 7997 7996 7995 ] final  -11.65 input   59.86 | X-H torsion
[ 10167 10162 10161 10158 ] final    1.72 input  -65.29 | X-H torsion
[ 10718 10713 10712 10709 ] final  175.32 input   66.30 | X-H torsion
[ 10763 10752 10751 10750 ] final -158.94 input  -60.55 | X-H torsion
[ 11005 11000 10999 10996 ] final -171.52 input  -57.11 | X-H torsion

> <Gold.Protein.ActiveResidues>
 VAL166  LYS551  ARG553  GLY616  TRP617  ASP618  TYR619  PRO620  LYS621  CYS622 
 ASP623  PHE694  ASN695  SER759  ASP760  ASP761  ALA762  ILE779  LEU786  VAL792 
 PHE793  MET794  SER795  GLU796  ALA797  LYS798  CYS799  TRP800  GLU811  SER814 

> <Gold.Protein.RotatedAtoms>
  150.7148  134.5084  159.5594 H   0  0  0  0  0  0  0  0  0  0  0  0  # atno 6907 bound_to 6896
  152.2666  134.7975  160.0430 H   0  0  0  0  0  0  0  0  0  0  0  0  # atno 6908 bound_to 6896
  151.8670  133.3433  159.3759 H   0  0  0  0  0  0  0  0  0  0  0  0  # atno 6909 bound_to 6896
  145.8764  139.3413  143.0732 H   0  0  0  0  0  0  0  0  0  0  0  0  # atno 7974 bound_to 7965
  154.5446  140.2297  155.8584 H   0  0  0  0  0  0  0  0  0  0  0  0  # atno 8008 bound_to 7997
  156.1891  140.3081  155.9258 H   0  0  0  0  0  0  0  0  0  0  0  0  # atno 8009 bound_to 7997
  155.3189  140.0439  157.3029 H   0  0  0  0  0  0  0  0  0  0  0  0  # atno 8010 bound_to 7997
  140.6669  143.7154  150.7846 H   0  0  0  0  0  0  0  0  0  0  0  0  # atno 10167 bound_to 10162
  156.9366  130.9988  151.2977 H   0  0  0  0  0  0  0  0  0  0  0  0  # atno 10718 bound_to 10713
  154.7515  135.3093  154.8548 H   0  0  0  0  0  0  0  0  0  0  0  0  # atno 10763 bound_to 10752
  153.9333  135.6783  153.4749 H   0  0  0  0  0  0  0  0  0  0  0  0  # atno 10764 bound_to 10752
  153.1112  135.4866  154.8966 H   0  0  0  0  0  0  0  0  0  0  0  0  # atno 10765 bound_to 10752
  140.5073  134.5836  157.5007 H   0  0  0  0  0  0  0  0  0  0  0  0  # atno 11005 bound_to 11000
  145.9076  140.9202  143.0471 LP  0  0  0  0  0  0  0  0  0  0  0  0  # atno 17320 bound_to 7965
  144.6726  140.1116  143.7455 LP  0  0  0  0  0  0  0  0  0  0  0  0  # atno 17321 bound_to 7965
  140.0833  143.4948  152.2518 LP  0  0  0  0  0  0  0  0  0  0  0  0  # atno 17342 bound_to 10162
  139.5922  144.7554  151.3373 LP  0  0  0  0  0  0  0  0  0  0  0  0  # atno 17343 bound_to 10162
  157.5812  130.8378  149.8525 LP  0  0  0  0  0  0  0  0  0  0  0  0  # atno 17370 bound_to 10713
  156.0423  130.3736  150.1405 LP  0  0  0  0  0  0  0  0  0  0  0  0  # atno 17371 bound_to 10713
  139.9679  134.7342  156.0101 LP  0  0  0  0  0  0  0  0  0  0  0  0  # atno 17394 bound_to 11000
  141.1404  133.6566  156.3714 LP  0  0  0  0  0  0  0  0  0  0  0  0  # atno 17395 bound_to 11000

$$$$
