AV-unprocessed.smi:1356|AV-procd|sdf|5543|dock2
  -GOLD-   22720 5133D 1   1.00000     0.00000
 Structure written by MMmdl.
 41 42  0  0  0  0  0  0  0  0  1 V2000
  147.7667  133.1133  152.2433 C   0  0  0  0  0  0  0  0  0  0  0  0
  148.3630  133.3673  153.6107 C   0  0  1  0  0  0  0  0  0  0  0  0
  149.4604  132.4846  154.1537 C   0  0  0  0  0  0  0  0  0  0  0  0
  149.7740  133.9091  153.7430 C   0  0  2  0  0  0  0  0  0  0  0  0
  150.0365  134.9014  154.8285 C   0  0  0  0  0  0  0  0  0  0  0  0
  149.7210  134.7119  156.0044 O   0  0  0  0  0  0  0  0  0  0  0  0
  150.6413  136.0219  154.4062 N   0  0  0  0  0  0  0  0  0  0  0  0
  150.9943  137.1554  155.2534 C   0  0  0  0  0  0  0  0  0  0  0  0
  151.1757  138.4429  154.4262 C   0  0  0  0  0  0  0  0  0  0  0  0
  151.5352  139.6558  155.2884 C   0  0  0  0  0  0  0  0  0  0  0  0
  152.6688  139.7776  155.7535 O   0  0  0  0  0  0  0  0  0  0  0  0
  150.5595  140.5555  155.4856 N   0  0  0  0  0  0  0  0  0  0  0  0
  150.6965  141.7833  156.2602 C   0  0  0  0  0  0  0  0  0  0  0  0
  151.5430  141.5612  157.5243 C   0  0  0  0  0  0  0  0  0  0  0  0
  151.6055  142.7997  158.3975 C   0  0  0  0  0  0  0  0  0  0  0  0
  151.8934  144.0622  157.8364 C   0  0  0  0  0  0  0  0  0  0  0  0
  151.9470  145.1797  158.6916 C   0  0  0  0  0  0  0  0  0  0  0  0
  151.7133  144.9924  160.0675 C   0  0  0  0  0  0  0  0  0  0  0  0
  151.4356  143.6904  160.5290 C   0  0  0  0  0  0  0  0  0  0  0  0
  151.3822  142.6119  159.7178 N   0  0  0  0  0  0  0  0  0  0  0  0
  148.5292  132.7637  151.5466 H   0  0  0  0  0  0  0  0  0  0  0  0
  147.3306  134.0314  151.8496 H   0  0  0  0  0  0  0  0  0  0  0  0
  146.9842  132.3572  152.3109 H   0  0  0  0  0  0  0  0  0  0  0  0
  147.6304  133.7126  154.3384 H   0  0  0  0  0  0  0  0  0  0  0  0
  149.4270  132.2431  155.2148 H   0  0  0  0  0  0  0  0  0  0  0  0
  149.8484  131.6927  153.5163 H   0  0  0  0  0  0  0  0  0  0  0  0
  150.3414  134.0369  152.8221 H   0  0  0  0  0  0  0  0  0  0  0  0
  150.8702  136.0961  153.4254 H   0  0  0  0  0  0  0  0  0  0  0  0
  150.2341  137.2952  156.0242 H   0  0  0  0  0  0  0  0  0  0  0  0
  151.9201  136.9040  155.7719 H   0  0  0  0  0  0  0  0  0  0  0  0
  151.9657  138.3029  153.6877 H   0  0  0  0  0  0  0  0  0  0  0  0
  150.2624  138.6570  153.8687 H   0  0  0  0  0  0  0  0  0  0  0  0
  149.6579  140.3782  155.0664 H   0  0  0  0  0  0  0  0  0  0  0  0
  151.1662  142.5338  155.6237 H   0  0  0  0  0  0  0  0  0  0  0  0
  149.7116  142.1727  156.5235 H   0  0  0  0  0  0  0  0  0  0  0  0
  151.1374  140.7350  158.1100 H   0  0  0  0  0  0  0  0  0  0  0  0
  152.5580  141.2713  157.2486 H   0  0  0  0  0  0  0  0  0  0  0  0
  152.0709  144.1729  156.7766 H   0  0  0  0  0  0  0  0  0  0  0  0
  152.1639  146.1622  158.2991 H   0  0  0  0  0  0  0  0  0  0  0  0
  151.7466  145.8264  160.7528 H   0  0  0  0  0  0  0  0  0  0  0  0
  151.2517  143.5103  161.5778 H   0  0  0  0  0  0  0  0  0  0  0  0
  1  2  1  0  0  0  0
  1 21  1  0  0  0  0
  1 22  1  0  0  0  0
  1 23  1  0  0  0  0
  2  4  1  0  0  0  0
  2  3  1  0  0  0  0
  2 24  1  0  0  0  0
  3  4  1  0  0  0  0
  3 25  1  0  0  0  0
  3 26  1  0  0  0  0
  4  5  1  0  0  0  0
  4 27  1  0  0  0  0
  5  6  2  0  0  0  0
  5  7  1  0  0  0  0
  7  8  1  0  0  0  0
  7 28  1  0  0  0  0
  8  9  1  0  0  0  0
  8 29  1  0  0  0  0
  8 30  1  0  0  0  0
  9 10  1  0  0  0  0
  9 31  1  0  0  0  0
  9 32  1  0  0  0  0
 10 11  2  0  0  0  0
 10 12  1  0  0  0  0
 12 13  1  0  0  0  0
 12 33  1  0  0  0  0
 13 14  1  0  0  0  0
 13 34  1  0  0  0  0
 13 35  1  0  0  0  0
 14 15  1  0  0  0  0
 14 36  1  0  0  0  0
 14 37  1  0  0  0  0
 15 20  1  0  0  0  0
 15 16  2  0  0  0  0
 16 17  1  0  0  0  0
 16 38  1  0  0  0  0
 17 18  2  0  0  0  0
 17 39  1  0  0  0  0
 18 19  1  0  0  0  0
 18 40  1  0  0  0  0
 19 20  2  0  0  0  0
 19 41  1  0  0  0  0
M  END
> <s_m_source_file>
AV-unprocessed.smi

> <i_m_source_file_index>
1356

> <i_lp_mmshare_version>
43012

> <i_f3d_flags>
0

> <s_epik_input>
W0NIM11bQ0BASF0xW0NIMl1bQ0BIXTFDKD1PKVtOSF1bQ0gyXVtDSDJdQyg9TylbTkhdW0NIMl1bQ0gyXWMyW2NIXVtjSF1bY0hdW2NIXW4y

> <s_epik_cmdline>
J2VwaWtfcHl0aG9uJywgJy1waCcsICc3LjAnLCAnLXRuJywgJzgnLCAnLW1hJywgJzIwMCcsICctbWV0YWxfYmluZGluZycsICctaW1hZScsICc8aW5maWxlLm1hZT4nLCAnLW9tYWUnLCAnPG91dGZpbGUubWFlPic=

> <r_epik_Ionization_Penalty>
0.0258005

> <r_epik_Ionization_Penalty_Charging>
0

> <r_epik_Ionization_Penalty_Neutral>
0.0258005

> <r_epik_State_Penalty>
0.0210245

> <r_epik_Charging_Adjusted_Penalty>
0.0210245

> <i_epik_Tot_Q>
0

> <i_epik_Tot_abs_Q>
0

> <r_epik_Metal_State_Penalty>
0.0201445

> <b_epik_Metal_Only>
0

> <s_lp_Force_Field>
OPLS_2005

> <r_lp_Energy>
5.54345

> <b_lp_Chiralities_Consistent>
1

> <s_lp_Variant>
AV-unprocessed.smi:1356-4

> <Gold.Version>
5.8.1

> <Gold.Id.Protein>
6NUR|6NUR_protein|mol2

> <Gold.PLP.Fitness>
50.0054

> <Gold.PLP.PLP>
-46.5392

> <Gold.PLP.part.hbond>
-2.8697

> <Gold.PLP.part.metal>
0.0000

> <Gold.PLP.part.buried>
-4.8145

> <Gold.PLP.part.nonpolar>
-37.9317

> <Gold.PLP.part.repulsive>
0.2371

> <Gold.PLP.ligand.clash>
0.0000

> <Gold.PLP.ligand.torsion>
0.9079

> <Gold.PLP.Chemscore.Hbond>
1.7000

> <Gold.PLP.Chemscore.CHOScore>
0.0000

> <Gold.PLP.Chemscore.Metal>
0.0000

> <Gold.Chemscore.Hbonds>
donor molecule, donor type, donor heavy atom, donor atom, acceptor molecule, acceptor atom, score
      L1  H     7    28       P1  7949  0.75
      P1  H  7997  8010       L1    11  1.00

> <Gold.PLP.Chemscore.Internal.Correction>
0.1820

> <Gold.Rescore>
     Score         DG    S(hbond)    S(metal)    S(lipo)     H(rot)  DE(clash)    DE(int)     intcor
     14.17     -16.49       1.02        0.00     112.65       2.18       0.02       2.29       ----

> <Gold.Chemscore.Fitness>
14.1723

> <Gold.Chemscore.DG>
-16.4894

> <Gold.Chemscore.ZeroCoef>
-5.4800

> <Gold.Chemscore.Hbond>
1.0173

> <Gold.Chemscore.Metal>
0.0000

> <Gold.Chemscore.Lipo>
112.6516

> <Gold.Chemscore.Internal_Hbond>
0.0000

> <Gold.Chemscore.DEClash>
0.0237

> <Gold.Chemscore.DEInternal>
2.2934

> <Gold.Chemscore.Rot>
2.1753

> <Gold.Chemscore.Internal.Correction>
   9.000000E+99

> <Gold.Chemscore.Hbonds>
donor molecule, donor type, donor heavy atom, donor atom, acceptor molecule, acceptor atom, score
      L1  H     7    28       P1  7949  0.09
      P1  H  7997  8010       L1    11  0.96

> <Gold.Chemscore.Hbond.Weighted>
-3.3978

> <Gold.Chemscore.Metal.Weighted>
-0.0000

> <Gold.Chemscore.Lipo.Weighted>
-13.1802

> <Gold.Chemscore.Internal_Hbond.Weighted>
0.0000

> <Gold.Chemscore.DEClash.Weighted>
0.0237

> <Gold.Chemscore.DEInternal.Weighted>
2.2934

> <Gold.Chemscore.Rot.Weighted>
5.5687

> <Gold.Chemscore.Internal.Correction.Weighted>
   9.000000E+99

> <Gold.Protein.RotatedTorsions>
[ 6907 6896 6895 6894 ] final   48.21 input  -60.11 | X-H torsion
[ 7974 7965 7964 7962 ] final  129.04 input  175.53 | X-H torsion
[ 8008 7997 7996 7995 ] final  106.07 input   59.86 | X-H torsion
[ 10167 10162 10161 10158 ] final -175.28 input  -65.29 | X-H torsion
[ 10718 10713 10712 10709 ] final -126.61 input   66.30 | X-H torsion
[ 10763 10752 10751 10750 ] final  144.59 input  -60.55 | X-H torsion
[ 11005 11000 10999 10996 ] final -136.26 input  -57.11 | X-H torsion

> <Gold.Protein.ActiveResidues>
 VAL166  LYS551  ARG553  GLY616  TRP617  ASP618  TYR619  PRO620  LYS621  CYS622 
 ASP623  PHE694  ASN695  SER759  ASP760  ASP761  ALA762  ILE779  LEU786  VAL792 
 PHE793  MET794  SER795  GLU796  ALA797  LYS798  CYS799  TRP800  GLU811  SER814 

> <Gold.Protein.RotatedAtoms>
  152.2769  134.7872  160.0403 H   0  0  0  0  0  0  0  0  0  0  0  0  # atno 6907 bound_to 6896
  151.8465  133.3427  159.3667 H   0  0  0  0  0  0  0  0  0  0  0  0  # atno 6908 bound_to 6896
  150.7174  134.5269  159.5725 H   0  0  0  0  0  0  0  0  0  0  0  0  # atno 6909 bound_to 6896
  145.0330  139.4029  143.5140 H   0  0  0  0  0  0  0  0  0  0  0  0  # atno 7974 bound_to 7965
  156.1712  140.3119  155.8977 H   0  0  0  0  0  0  0  0  0  0  0  0  # atno 8008 bound_to 7997
  155.3583  140.0475  157.3063 H   0  0  0  0  0  0  0  0  0  0  0  0  # atno 8009 bound_to 7997
  154.5243  140.2209  155.8929 H   0  0  0  0  0  0  0  0  0  0  0  0  # atno 8010 bound_to 7997
  139.5589  144.1919  152.1206 H   0  0  0  0  0  0  0  0  0  0  0  0  # atno 10167 bound_to 10162
  156.1781  130.6713  151.0269 H   0  0  0  0  0  0  0  0  0  0  0  0  # atno 10718 bound_to 10713
  153.9915  135.2932  155.3411 H   0  0  0  0  0  0  0  0  0  0  0  0  # atno 10763 bound_to 10752
  154.7212  135.5108  153.8818 H   0  0  0  0  0  0  0  0  0  0  0  0  # atno 10764 bound_to 10752
  153.0808  135.6678  154.0166 H   0  0  0  0  0  0  0  0  0  0  0  0  # atno 10765 bound_to 10752
  140.8822  134.1918  157.4584 H   0  0  0  0  0  0  0  0  0  0  0  0  # atno 11005 bound_to 11000
  146.3501  139.9890  142.8687 LP  0  0  0  0  0  0  0  0  0  0  0  0  # atno 17320 bound_to 7965
  145.1746  140.9737  143.4302 LP  0  0  0  0  0  0  0  0  0  0  0  0  # atno 17321 bound_to 7965
  140.1428  144.5186  150.6733 LP  0  0  0  0  0  0  0  0  0  0  0  0  # atno 17342 bound_to 10162
  140.6866  143.2353  151.5243 LP  0  0  0  0  0  0  0  0  0  0  0  0  # atno 17343 bound_to 10162
  157.6849  131.0827  150.7269 LP  0  0  0  0  0  0  0  0  0  0  0  0  # atno 17370 bound_to 10713
  156.7326  130.4714  149.5496 LP  0  0  0  0  0  0  0  0  0  0  0  0  # atno 17371 bound_to 10713
  139.8721  134.9822  156.5147 LP  0  0  0  0  0  0  0  0  0  0  0  0  # atno 17394 bound_to 11000
  140.8448  133.8177  155.9110 LP  0  0  0  0  0  0  0  0  0  0  0  0  # atno 17395 bound_to 11000

$$$$
