#       Name:                AV-unprocessed.smi:2154
#       Creating user name   scv26
#       Creation time:       Fri Mar 27 11:55:22 2020


#       File generated by GOLD software.
#

@<TRIPOS>MOLECULE
AV-unprocessed.smi:2154
    38    39     1
SMALL
NO_CHARGES


@<TRIPOS>ATOM
      1 ****        -4.6818   1.8897   0.2664 C.3            1 S1                 0.0000
      2 ****        -3.4060   1.9055   1.0848 C.3            1 S1                 0.0000
      3 ****        -2.2640   2.8237   0.7155 C.3            1 S1                 0.0000
      4 ****        -2.1017   1.3282   0.5710 C.3            1 S1                 0.0000
      5 ****        -1.9875   0.6833  -0.8001 C.3            1 S1                 0.0000
      6 ****        -0.6232   0.4319  -1.2453 N.am           1 S1                 0.0000
      7 ****         0.1523  -0.5775  -0.8221 C.2            1 S1                 0.0000
      8 ****        -0.2285  -1.4284  -0.0170 O.2            1 S1                 0.0000
      9 ****         1.5651  -0.6413  -1.4195 C.3            1 S1                 0.0000
     10 ****         2.5318  -1.3066  -0.5338 N.am           1 S1                 0.0000
     11 ****         2.8800  -2.6331  -0.7452 C.2            1 S1                 0.0000
     12 ****         3.7572  -3.3071   0.0357 C.2            1 S1                 0.0000
     13 ****         4.3947  -2.6472   1.1702 C.2            1 S1                 0.0000
     14 ****         5.2028  -3.1717   1.9334 O.2            1 S1                 0.0000
     15 ****         4.0162  -1.3144   1.3519 N.am           1 S1                 0.0000
     16 ****         3.1119  -0.6145   0.5518 C.2            1 S1                 0.0000
     17 ****         2.8454   0.5603   0.8023 O.2            1 S1                 0.0000
     18 ****         4.4299  -0.8166   2.1268 H              1 S1                 0.0000
     19 ****        -4.4886   2.1437  -0.7755 H              1 S1                 0.0000
     20 ****        -5.3890   2.6153   0.6680 H              1 S1                 0.0000
     21 ****        -5.1396   0.9012   0.3064 H              1 S1                 0.0000
     22 ****        -3.5823   1.7698   2.1501 H              1 S1                 0.0000
     23 ****        -2.3610   3.4130  -0.1944 H              1 S1                 0.0000
     24 ****        -1.7265   3.3097   1.5273 H              1 S1                 0.0000
     25 ****        -1.4981   0.8346   1.3307 H              1 S1                 0.0000
     26 ****        -2.5486  -0.2525  -0.7939 H              1 S1                 0.0000
     27 ****        -2.4633   1.3209  -1.5446 H              1 S1                 0.0000
     28 ****        -0.2337   1.0826  -1.9119 H              1 S1                 0.0000
     29 ****         1.5040  -1.1635  -2.3753 H              1 S1                 0.0000
     30 ****         1.9133   0.3647  -1.6631 H              1 S1                 0.0000
     31 ****         2.4293  -3.1635  -1.5721 H              1 S1                 0.0000
     32 ****         3.9881  -4.3404  -0.1796 H              1 S1                 0.0000
     33 ****        -1.1563  -1.3864   0.3536 LP             1 S1                 0.0000
     34 ****         0.3903  -2.1612   0.2661 LP             1 S1                 0.0000
     35 ****         5.4706  -4.1258   1.7994 LP             1 S1                 0.0000
     36 ****         5.5925  -2.6443   2.6884 LP             1 S1                 0.0000
     37 ****         2.1970   1.0594   0.2276 LP             1 S1                 0.0000
     38 ****         3.2773   1.0160   1.5807 LP             1 S1                 0.0000
@<TRIPOS>BOND
    1    1    2 1     
    2    1   19 1     
    3    1   20 1     
    4    1   21 1     
    5    2    4 1     
    6    2    3 1     
    7    2   22 1     
    8    3    4 1     
    9    3   23 1     
   10    3   24 1     
   11    4    5 1     
   12    4   25 1     
   13    5    6 1     
   14    5   26 1     
   15    5   27 1     
   16    6    7 am    
   17    6   28 1     
   18    7    8 2     
   19    7    9 1     
   20    9   10 1     
   21    9   29 1     
   22    9   30 1     
   23   10   16 1     
   24   10   11 1     
   25   11   12 2     
   26   11   31 1     
   27   12   13 1     
   28   12   32 1     
   29   13   14 2     
   30   13   15 1     
   31   15   18 1     
   32   15   16 1     
   33   16   17 2     
   34    8   33 1     
   35    8   34 1     
   36   14   35 1     
   37   14   36 1     
   38   17   37 1     
   39   17   38 1     
@<TRIPOS>SUBSTRUCTURE
      1 S1             1
@<TRIPOS>SET
LONE_PAIRS      STATIC     ATOMS    <user>   **** ""
6 33 34 35 36 37 38
DONOR_HYDROGENS      STATIC     ATOMS    <user>   **** ""
2 28 18
ATOM$BLUE        STATIC     ATOMS    COLORGROUP SYSTEM
6 33 34 35 36 37 38
ATOM$RED        STATIC     ATOMS    COLORGROUP SYSTEM
2 28 18
