#       Name:                AV-unprocessed.smi:1453
#       Creating user name   scv26
#       Creation time:       Fri Mar 27 05:59:32 2020


#       File generated by GOLD software.
#

@<TRIPOS>MOLECULE
AV-unprocessed.smi:1453
    49    50     1
SMALL
NO_CHARGES


@<TRIPOS>ATOM
      1 ****        -2.8031  -3.7656  -3.3796 C.3            1 S1                 0.0000
      2 ****        -2.5729  -2.3664  -2.7868 C.3            1 S1                 0.0000
      3 ****        -1.0815  -2.0894  -2.5575 C.2            1 S1                 0.0000
      4 ****        -0.3828  -2.8986  -1.9469 O.2            1 S1                 0.0000
      5 ****        -0.6044  -0.9359  -3.0516 N.am           1 S1                 0.0000
      6 ****         0.7730  -0.4771  -2.9107 C.3            1 S1                 0.0000
      7 ****         1.0505   0.1619  -1.5608 C.ar           1 S1                 0.0000
      8 ****         0.2400   1.2022  -1.0649 C.ar           1 S1                 0.0000
      9 ****         0.5331   1.7542   0.1964 C.ar           1 S1                 0.0000
     10 ****         1.6346   1.2530   0.9307 C.ar           1 S1                 0.0000
     11 ****         1.9442   1.7873   2.2006 N.3            1 S1                 0.0000
     12 ****         0.8398   1.8279   3.1562 C.3            1 S1                 0.0000
     13 ****         1.2132   2.6951   4.3710 C.3            1 S1                 0.0000
     14 ****         2.4260   2.2223   4.9475 O.3            1 S1                 0.0000
     15 ****         3.5126   2.2988   4.0309 C.3            1 S1                 0.0000
     16 ****         3.2208   1.4137   2.8076 C.3            1 S1                 0.0000
     17 ****         2.4199   0.2612   0.4412 N.ar           1 S1                 0.0000
     18 ****         2.1328  -0.2670  -0.7670 C.ar           1 S1                 0.0000
     19 ****        -3.5078  -2.1963  -1.1940 S.o2           1 S1                 0.0000
     20 ****        -3.1656  -0.4577  -0.6903 C.3            1 S1                 0.0000
     21 ****        -4.9424  -2.3118  -1.4975 O.2            1 S1                 0.0000
     22 ****        -2.9112  -3.0888  -0.1882 O.2            1 S1                 0.0000
     23 ****        -2.2538  -3.8962  -4.3128 H              1 S1                 0.0000
     24 ****        -3.8595  -3.9257  -3.5960 H              1 S1                 0.0000
     25 ****        -2.4865  -4.5504  -2.6911 H              1 S1                 0.0000
     26 ****        -2.9778  -1.6236  -3.4752 H              1 S1                 0.0000
     27 ****        -1.2395  -0.3290  -3.5493 H              1 S1                 0.0000
     28 ****         1.4651  -1.3015  -3.0914 H              1 S1                 0.0000
     29 ****         0.9674   0.2628  -3.6874 H              1 S1                 0.0000
     30 ****        -0.5962   1.5726  -1.6397 H              1 S1                 0.0000
     31 ****        -0.0777   2.5594   0.5764 H              1 S1                 0.0000
     32 ****        -0.0702   2.2228   2.7071 H              1 S1                 0.0000
     33 ****         0.6176   0.8101   3.4797 H              1 S1                 0.0000
     34 ****         1.3184   3.7424   4.0827 H              1 S1                 0.0000
     35 ****         0.4235   2.6497   5.1209 H              1 S1                 0.0000
     36 ****         3.6780   3.3350   3.7310 H              1 S1                 0.0000
     37 ****         4.4220   1.9622   4.5291 H              1 S1                 0.0000
     38 ****         3.1853   0.3648   3.1059 H              1 S1                 0.0000
     39 ****         4.0299   1.5209   2.0839 H              1 S1                 0.0000
     40 ****         2.7850  -1.0589  -1.1050 H              1 S1                 0.0000
     41 ****        -3.7651  -0.2131   0.1862 H              1 S1                 0.0000
     42 ****        -3.4233   0.2193  -1.5043 H              1 S1                 0.0000
     43 ****        -2.1115  -0.3477  -0.4387 H              1 S1                 0.0000
     44 ****        -0.7867  -3.7436  -1.5963 LP             1 S1                 0.0000
     45 ****         0.5886  -2.7108  -1.8014 LP             1 S1                 0.0000
     46 ****         2.1042   2.7378   1.9342 LP             1 S1                 0.0000
     47 ****         2.3027   1.2694   5.2245 LP             1 S1                 0.0000
     48 ****         2.6406   2.7778   5.7509 LP             1 S1                 0.0000
     49 ****         3.2008  -0.0739   0.9684 LP             1 S1                 0.0000
@<TRIPOS>BOND
    1    1    2 1     
    2    1   23 1     
    3    1   24 1     
    4    1   25 1     
    5    2    3 1     
    6    2   19 1     
    7    2   26 1     
    8    3    4 2     
    9    3    5 am    
   10    5    6 1     
   11    5   27 1     
   12    6    7 1     
   13    6   28 1     
   14    6   29 1     
   15    7   18 ar    
   16    7    8 ar    
   17    8    9 ar    
   18    8   30 1     
   19    9   10 ar    
   20    9   31 1     
   21   10   11 1     
   22   10   17 ar    
   23   11   16 1     
   24   11   12 1     
   25   12   13 1     
   26   12   32 1     
   27   12   33 1     
   28   13   14 1     
   29   13   34 1     
   30   13   35 1     
   31   14   15 1     
   32   15   16 1     
   33   15   36 1     
   34   15   37 1     
   35   16   38 1     
   36   16   39 1     
   37   17   18 ar    
   38   18   40 1     
   39   19   20 1     
   40   19   21 2     
   41   19   22 2     
   42   20   41 1     
   43   20   42 1     
   44   20   43 1     
   45    4   44 1     
   46    4   45 1     
   47   11   46 1     
   48   14   47 1     
   49   14   48 1     
   50   17   49 1     
@<TRIPOS>SUBSTRUCTURE
      1 S1             1
@<TRIPOS>SET
LONE_PAIRS      STATIC     ATOMS    <user>   **** ""
8 44 45 46 47 48 49 21 22
DONOR_HYDROGENS      STATIC     ATOMS    <user>   **** ""
1 27
ATOM$BLUE        STATIC     ATOMS    COLORGROUP SYSTEM
8 44 45 46 47 48 49 21 22
ATOM$RED        STATIC     ATOMS    COLORGROUP SYSTEM
1 27
