AV-unprocessed.smi:1381|AV-procd|sdf|5617|dock9
  -GOLD-   22720 5233D 1   1.00000     0.00000
 Structure written by MMmdl.
 42 43  0  0  0  0  0  0  0  0  3 V2000
  143.6495  136.3681  163.1541 C   0  0  0  0  0  0  0  0  0  0  0  0
  144.9318  136.3947  162.3958 C   0  0  0  0  0  0  0  0  0  0  0  0
  145.4760  135.5606  161.4607 C   0  0  0  0  0  0  0  0  0  0  0  0
  146.7166  136.1828  161.1583 C   0  0  0  0  0  0  0  0  0  0  0  0
  147.5980  135.6097  160.2038 N   0  0  0  0  0  0  0  0  0  0  0  0
  148.7068  136.1380  159.6545 C   0  0  0  0  0  0  0  0  0  0  0  0
  149.0856  137.2703  159.9773 O   0  0  0  0  0  0  0  0  0  0  0  0
  149.2902  135.2912  158.7627 N   0  5  0  0  0  0  0  0  0  0  0  0
  149.7330  135.6728  157.4240 C   0  0  0  0  0  0  0  0  0  0  0  0
  148.9347  136.9013  156.9472 C   0  0  0  0  0  0  0  0  0  0  0  0
  149.7934  137.8839  156.2342 N   0  3  1  0  0  0  0  0  0  0  0  0
  150.3566  137.3474  154.9717 C   0  0  0  0  0  0  0  0  0  0  0  0
  151.3061  138.3646  154.3083 C   0  0  2  0  0  0  0  0  0  0  0  0
  152.6613  138.4987  155.0252 C   0  0  0  0  0  0  0  0  0  0  0  0
  150.6517  139.6237  154.1503 O   0  0  0  0  0  0  0  0  0  0  0  0
  150.1278  140.1808  155.3532 C   0  0  1  0  0  0  0  0  0  0  0  0
  149.4648  141.5175  155.0042 C   0  0  0  0  0  0  0  0  0  0  0  0
  149.1329  139.1906  155.9831 C   0  0  0  0  0  0  0  0  0  0  0  0
  146.9113  137.2968  161.8485 N   0  0  0  0  0  0  0  0  0  0  0  0
  145.7686  137.4385  162.6446 O   0  0  0  0  0  0  0  0  0  0  0  0
  143.0430  135.5101  162.8634 H   0  0  0  0  0  0  0  0  0  0  0  0
  143.0698  137.2717  162.9645 H   0  0  0  0  0  0  0  0  0  0  0  0
  143.8361  136.3027  164.2261 H   0  0  0  0  0  0  0  0  0  0  0  0
  145.0534  134.6523  161.0579 H   0  0  0  0  0  0  0  0  0  0  0  0
  147.3574  134.6802  159.8936 H   0  0  0  0  0  0  0  0  0  0  0  0
  150.7967  135.9129  157.3999 H   0  0  0  0  0  0  0  0  0  0  0  0
  149.5939  134.8613  156.7085 H   0  0  0  0  0  0  0  0  0  0  0  0
  148.1481  136.5504  156.2769 H   0  0  0  0  0  0  0  0  0  0  0  0
  148.4242  137.3861  157.7813 H   0  0  0  0  0  0  0  0  0  0  0  0
  150.8892  136.4150  155.1633 H   0  0  0  0  0  0  0  0  0  0  0  0
  149.5369  137.1096  154.2918 H   0  0  0  0  0  0  0  0  0  0  0  0
  151.5196  138.0084  153.2999 H   0  0  0  0  0  0  0  0  0  0  0  0
  153.1985  137.5501  155.0142 H   0  0  0  0  0  0  0  0  0  0  0  0
  152.5514  138.7950  156.0680 H   0  0  0  0  0  0  0  0  0  0  0  0
  153.2909  139.2388  154.5308 H   0  0  0  0  0  0  0  0  0  0  0  0
  150.9397  140.3806  156.0525 H   0  0  0  0  0  0  0  0  0  0  0  0
  149.0604  141.9990  155.8948 H   0  0  0  0  0  0  0  0  0  0  0  0
  148.6462  141.3808  154.2970 H   0  0  0  0  0  0  0  0  0  0  0  0
  150.1834  142.2025  154.5537 H   0  0  0  0  0  0  0  0  0  0  0  0
  148.2761  139.0442  155.3233 H   0  0  0  0  0  0  0  0  0  0  0  0
  148.7481  139.6050  156.9155 H   0  0  0  0  0  0  0  0  0  0  0  0
  150.5802  138.0575  156.8436 H   0  0  0  0  0  0  0  0  0  0  0  0
  1  2  1  0  0  0  0
  1 21  1  0  0  0  0
  1 22  1  0  0  0  0
  1 23  1  0  0  0  0
  2 20  1  0  0  0  0
  2  3  2  0  0  0  0
  3  4  1  0  0  0  0
  3 24  1  0  0  0  0
  4  5  1  0  0  0  0
  4 19  2  0  0  0  0
  5  6  1  0  0  0  0
  5 25  1  0  0  0  0
  6  7  2  0  0  0  0
  6  8  1  0  0  0  0
  8  9  1  0  0  0  0
  9 10  1  0  0  0  0
  9 26  1  0  0  0  0
  9 27  1  0  0  0  0
 10 11  1  0  0  0  0
 10 28  1  0  0  0  0
 10 29  1  0  0  0  0
 11 18  1  0  0  0  0
 11 12  1  0  0  0  0
 11 42  1  0  0  0  0
 12 13  1  0  0  0  0
 12 30  1  0  0  0  0
 12 31  1  0  0  0  0
 13 14  1  0  0  0  0
 13 15  1  0  0  0  0
 13 32  1  0  0  0  0
 14 33  1  0  0  0  0
 14 34  1  0  0  0  0
 14 35  1  0  0  0  0
 15 16  1  0  0  0  0
 16 17  1  0  0  0  0
 16 18  1  0  0  0  0
 16 36  1  0  0  0  0
 17 37  1  0  0  0  0
 17 38  1  0  0  0  0
 17 39  1  0  0  0  0
 18 40  1  0  0  0  0
 18 41  1  0  0  0  0
 19 20  1  0  0  0  0
M  CHG  1   8  -1
M  CHG  1  11   1
M  END
> <s_m_source_file>
AV-unprocessed.smi

> <i_m_source_file_index>
1381

> <i_lp_mmshare_version>
43012

> <i_f3d_flags>
0

> <s_epik_input>
W0NIM11jMVtjSF1jKG5vMSlbTkhdQyg9TylbTkhdW0NIMl1bQ0gyXU4yW0NIMl1bQ0BASF0oW0NIM10pT1tDQEBIXShbQ0gzXSlbQ0gyXTI=

> <s_epik_cmdline>
J2VwaWtfcHl0aG9uJywgJy1waCcsICc3LjAnLCAnLXRuJywgJzgnLCAnLW1hJywgJzIwMCcsICctbWV0YWxfYmluZGluZycsICctaW1hZScsICc8aW5maWxlLm1hZT4nLCAnLW9tYWUnLCAnPG91dGZpbGUubWFlPic=

> <r_epik_Ionization_Penalty>
6.8073

> <r_epik_Ionization_Penalty_Charging>
6.80729

> <r_epik_Ionization_Penalty_Neutral>
5.65391e-06

> <r_epik_State_Penalty>
7.47323

> <r_epik_Charging_Adjusted_Penalty>
14.2805

> <i_epik_Tot_Q>
0

> <i_epik_Tot_abs_Q>
2

> <r_epik_Metal_State_Penalty>
3.40035

> <b_epik_Metal_Only>
1

> <s_lp_Force_Field>
OPLS_2005

> <r_lp_Energy>
15.0618

> <b_lp_Chiralities_Consistent>
1

> <s_lp_Variant>
AV-unprocessed.smi:1381-16

> <Gold.Version>
5.8.1

> <Gold.Id.Protein>
6NUR|6NUR_protein|mol2

> <Gold.PLP.Fitness>
38.7985

> <Gold.PLP.PLP>
-27.7557

> <Gold.PLP.part.hbond>
-5.2433

> <Gold.PLP.part.metal>
0.0000

> <Gold.PLP.part.buried>
-3.9534

> <Gold.PLP.part.nonpolar>
-19.7472

> <Gold.PLP.part.repulsive>
0.2889

> <Gold.PLP.ligand.clash>
0.0000

> <Gold.PLP.ligand.torsion>
0.9287

> <Gold.PLP.Chemscore.Hbond>
4.2815

> <Gold.PLP.Chemscore.CHOScore>
0.0000

> <Gold.PLP.Chemscore.Metal>
0.0000

> <Gold.Chemscore.Hbonds>
donor molecule, donor type, donor heavy atom, donor atom, acceptor molecule, acceptor atom, score
      P1  H  6896  6907       L1     8  2.00
      P1  H  6931  6943       L1     7  0.30
      P1  H  6934  6947       L1    19  0.88
      P1  H  7989  7998       L1    15  1.00

> <Gold.PLP.Chemscore.Internal.Correction>
0.0557

> <Gold.Rescore>
     Score         DG    S(hbond)    S(metal)    S(lipo)     H(rot)  DE(clash)    DE(int)     intcor
     12.80     -15.18       2.19        0.00      54.94       1.58       0.03       2.35       ----

> <Gold.Chemscore.Fitness>
12.7994

> <Gold.Chemscore.DG>
-15.1792

> <Gold.Chemscore.ZeroCoef>
-5.4800

> <Gold.Chemscore.Hbond>
2.1898

> <Gold.Chemscore.Metal>
0.0000

> <Gold.Chemscore.Lipo>
54.9396

> <Gold.Chemscore.Internal_Hbond>
0.0000

> <Gold.Chemscore.DEClash>
0.0274

> <Gold.Chemscore.DEInternal>
2.3523

> <Gold.Chemscore.Rot>
1.5792

> <Gold.Chemscore.Internal.Correction>
   9.000000E+99

> <Gold.Chemscore.Hbonds>
donor molecule, donor type, donor heavy atom, donor atom, acceptor molecule, acceptor atom, score
      P1  H  6896  6907       L1     8  0.43
      P1  H  6931  6943       L1     7  0.31
      P1  H  6934  6947       L1    19  0.47
      P1  H  7989  7998       L1    15  0.45

> <Gold.Chemscore.Hbond.Weighted>
-7.3141

> <Gold.Chemscore.Metal.Weighted>
-0.0000

> <Gold.Chemscore.Lipo.Weighted>
-6.4279

> <Gold.Chemscore.Internal_Hbond.Weighted>
0.0000

> <Gold.Chemscore.DEClash.Weighted>
0.0274

> <Gold.Chemscore.DEInternal.Weighted>
2.3523

> <Gold.Chemscore.Rot.Weighted>
4.0428

> <Gold.Chemscore.Internal.Correction.Weighted>
   9.000000E+99

> <Gold.Protein.RotatedTorsions>
[ 6907 6896 6895 6894 ] final  -78.15 input  -60.11 | X-H torsion
[ 7974 7965 7964 7962 ] final  162.16 input  175.53 | X-H torsion
[ 8008 7997 7996 7995 ] final  -54.43 input   59.86 | X-H torsion
[ 10167 10162 10161 10158 ] final   81.64 input  -65.29 | X-H torsion
[ 10718 10713 10712 10709 ] final  -21.84 input   66.30 | X-H torsion
[ 10763 10752 10751 10750 ] final  118.80 input  -60.55 | X-H torsion
[ 11005 11000 10999 10996 ] final   78.86 input  -57.11 | X-H torsion

> <Gold.Protein.ActiveResidues>
 VAL166  LYS551  ARG553  GLY616  TRP617  ASP618  TYR619  PRO620  LYS621  CYS622 
 ASP623  PHE694  ASN695  SER759  ASP760  ASP761  ALA762  ILE779  LEU786  VAL792 
 PHE793  MET794  SER795  GLU796  ALA797  LYS798  CYS799  TRP800  GLU811  SER814 

> <Gold.Protein.RotatedAtoms>
  150.6980  134.4316  159.5250 H   0  0  0  0  0  0  0  0  0  0  0  0  # atno 6907 bound_to 6896
  152.2041  134.8558  160.0514 H   0  0  0  0  0  0  0  0  0  0  0  0  # atno 6908 bound_to 6896
  151.9467  133.3619  159.4022 H   0  0  0  0  0  0  0  0  0  0  0  0  # atno 6909 bound_to 6896
  144.7650  139.8001  143.6318 H   0  0  0  0  0  0  0  0  0  0  0  0  # atno 7974 bound_to 7965
  154.4162  140.1176  156.5314 H   0  0  0  0  0  0  0  0  0  0  0  0  # atno 8008 bound_to 7997
  155.6601  140.3496  155.4760 H   0  0  0  0  0  0  0  0  0  0  0  0  # atno 8009 bound_to 7997
  155.9720  140.1143  157.0793 H   0  0  0  0  0  0  0  0  0  0  0  0  # atno 8010 bound_to 7997
  139.9372  144.6114  150.8287 H   0  0  0  0  0  0  0  0  0  0  0  0  # atno 10167 bound_to 10162
  156.5126  130.4613  149.6640 H   0  0  0  0  0  0  0  0  0  0  0  0  # atno 10718 bound_to 10713
  153.5731  135.3498  155.2846 H   0  0  0  0  0  0  0  0  0  0  0  0  # atno 10763 bound_to 10752
  154.8679  135.4164  154.2703 H   0  0  0  0  0  0  0  0  0  0  0  0  # atno 10764 bound_to 10752
  153.3473  135.7053  153.6887 H   0  0  0  0  0  0  0  0  0  0  0  0  # atno 10765 bound_to 10752
  139.9196  134.7797  156.1703 H   0  0  0  0  0  0  0  0  0  0  0  0  # atno 11005 bound_to 11000
  146.1749  139.4915  142.9904 LP  0  0  0  0  0  0  0  0  0  0  0  0  # atno 17320 bound_to 7965
  145.6499  141.0265  143.1766 LP  0  0  0  0  0  0  0  0  0  0  0  0  # atno 17321 bound_to 7965
  140.7621  143.3190  151.2665 LP  0  0  0  0  0  0  0  0  0  0  0  0  # atno 17342 bound_to 10162
  139.6734  143.9980  152.2767 LP  0  0  0  0  0  0  0  0  0  0  0  0  # atno 17343 bound_to 10162
  156.3225  130.7288  151.2203 LP  0  0  0  0  0  0  0  0  0  0  0  0  # atno 17370 bound_to 10713
  157.7448  131.0452  150.4829 LP  0  0  0  0  0  0  0  0  0  0  0  0  # atno 17371 bound_to 10713
  141.0704  133.6799  156.2129 LP  0  0  0  0  0  0  0  0  0  0  0  0  # atno 17394 bound_to 11000
  140.6516  134.5061  157.5578 LP  0  0  0  0  0  0  0  0  0  0  0  0  # atno 17395 bound_to 11000

$$$$
