#       Name:                AV-unprocessed.smi:1394
#       Creating user name   scv26
#       Creation time:       Fri Mar 27 05:28:51 2020


#       File generated by GOLD software.
#

@<TRIPOS>MOLECULE
AV-unprocessed.smi:1394
    45    46     1
SMALL
NO_CHARGES


@<TRIPOS>ATOM
      1 ****        -1.5093  -1.4179  -2.7742 C.3            1 S1                 0.0000
      2 ****        -1.8546  -2.1699  -1.4759 C.3            1 S1                 0.0000
      3 ****        -3.3368  -2.5961  -1.4751 C.3            1 S1                 0.0000
      4 ****        -3.7129  -3.3588  -0.1962 C.3            1 S1                 0.0000
      5 ****        -3.3972  -2.5254   1.0527 C.3            1 S1                 0.0000
      6 ****        -1.9199  -2.1074   1.0763 C.3            1 S1                 0.0000
      7 ****        -1.5191  -1.3473  -0.2064 C.3            1 S1                 0.0000
      8 ****        -0.0921  -1.0343  -0.1707 N.am           1 S1                 0.0000
      9 ****         0.4618   0.0178   0.4502 C.2            1 S1                 0.0000
     10 ****        -0.1897   0.8440   1.0911 O.2            1 S1                 0.0000
     11 ****         1.9887   0.1308   0.3329 C.3            1 S1                 0.0000
     12 ****         2.5209   1.4346   0.7655 N.am           1 S1                 0.0000
     13 ****         3.0265   1.5108   2.0755 C.2            1 S1                 0.0000
     14 ****         3.5385   2.6462   2.5692 C.2            1 S1                 0.0000
     15 ****         3.5635   3.8101   1.7174 C.2            1 S1                 0.0000
     16 ****         3.0787   3.7693   0.4546 C.2            1 S1                 0.0000
     17 ****         3.1050   4.9900  -0.4624 C.3            1 S1                 0.0000
     18 ****         3.7829   4.7249  -1.5800 F              1 S1                 0.0000
     19 ****         1.8656   5.3463  -0.8016 F              1 S1                 0.0000
     20 ****         3.6845   6.0382   0.1251 F              1 S1                 0.0000
     21 ****         2.5123   2.5131  -0.0782 C.2            1 S1                 0.0000
     22 ****         2.0542   2.4276  -1.2190 O.2            1 S1                 0.0000
     23 ****        -2.0575  -0.4779  -2.8437 H              1 S1                 0.0000
     24 ****        -1.7617  -2.0149  -3.6507 H              1 S1                 0.0000
     25 ****        -0.4456  -1.1879  -2.8374 H              1 S1                 0.0000
     26 ****        -1.2526  -3.0802  -1.4569 H              1 S1                 0.0000
     27 ****        -3.9729  -1.7152  -1.5713 H              1 S1                 0.0000
     28 ****        -3.5449  -3.2218  -2.3436 H              1 S1                 0.0000
     29 ****        -4.7724  -3.6160  -0.2141 H              1 S1                 0.0000
     30 ****        -3.1660  -4.3016  -0.1563 H              1 S1                 0.0000
     31 ****        -4.0300  -1.6372   1.0708 H              1 S1                 0.0000
     32 ****        -3.6369  -3.0952   1.9508 H              1 S1                 0.0000
     33 ****        -1.7337  -1.4886   1.9549 H              1 S1                 0.0000
     34 ****        -1.2964  -2.9956   1.1885 H              1 S1                 0.0000
     35 ****        -2.0853  -0.4145  -0.2492 H              1 S1                 0.0000
     36 ****         0.5203  -1.6639  -0.6689 H              1 S1                 0.0000
     37 ****         2.4336  -0.6756   0.9174 H              1 S1                 0.0000
     38 ****         2.2839  -0.0716  -0.6985 H              1 S1                 0.0000
     39 ****         2.9654   0.5970   2.6486 H              1 S1                 0.0000
     40 ****         3.9208   2.6891   3.5785 H              1 S1                 0.0000
     41 ****         3.9817   4.7244   2.1112 H              1 S1                 0.0000
     42 ****        -1.1822   0.7479   1.1673 LP             1 S1                 0.0000
     43 ****         0.2739   1.6107   1.5351 LP             1 S1                 0.0000
     44 ****         1.6797   1.5591  -1.5436 LP             1 S1                 0.0000
     45 ****         2.0569   3.2268  -1.8201 LP             1 S1                 0.0000
@<TRIPOS>BOND
    1    1    2 1     
    2    1   23 1     
    3    1   24 1     
    4    1   25 1     
    5    2    7 1     
    6    2    3 1     
    7    2   26 1     
    8    3    4 1     
    9    3   27 1     
   10    3   28 1     
   11    4    5 1     
   12    4   29 1     
   13    4   30 1     
   14    5    6 1     
   15    5   31 1     
   16    5   32 1     
   17    6    7 1     
   18    6   33 1     
   19    6   34 1     
   20    7    8 1     
   21    7   35 1     
   22    8    9 am    
   23    8   36 1     
   24    9   10 2     
   25    9   11 1     
   26   11   12 1     
   27   11   37 1     
   28   11   38 1     
   29   12   21 am    
   30   12   13 1     
   31   13   14 2     
   32   13   39 1     
   33   14   15 1     
   34   14   40 1     
   35   15   16 2     
   36   15   41 1     
   37   16   17 1     
   38   16   21 1     
   39   17   18 1     
   40   17   19 1     
   41   17   20 1     
   42   21   22 2     
   43   10   42 1     
   44   10   43 1     
   45   22   44 1     
   46   22   45 1     
@<TRIPOS>SUBSTRUCTURE
      1 S1             1
@<TRIPOS>SET
LONE_PAIRS      STATIC     ATOMS    <user>   **** ""
4 42 43 44 45
DONOR_HYDROGENS      STATIC     ATOMS    <user>   **** ""
1 36
ATOM$BLUE        STATIC     ATOMS    COLORGROUP SYSTEM
4 42 43 44 45
ATOM$RED        STATIC     ATOMS    COLORGROUP SYSTEM
1 36
