AV-unprocessed.smi:2226|AV-procd|sdf|9020|dock7
  -GOLD-   2272012223D 1   1.00000     0.00000
 Structure written by MMmdl.
 39 41  0  0  0  0  0  0  0  0  3 V2000
  146.8279  139.1671  152.4767 C   0  0  0  0  0  0  0  0  0  0  0  0
  146.4635  140.2274  153.4463 N   0  3  2  0  0  0  0  0  0  0  0  0
  147.4088  141.3672  153.5071 C   0  0  1  0  0  0  0  0  0  0  0  0
  146.7147  142.5625  154.1996 C   0  0  0  0  0  0  0  0  0  0  0  0
  146.0992  142.2214  155.5705 C   0  0  0  0  0  0  0  0  0  0  0  0
  145.3987  140.8485  155.5830 C   0  0  0  0  0  0  0  0  0  0  0  0
  146.1613  139.7440  154.8146 C   0  0  2  0  0  0  0  0  0  0  0  0
  147.4317  139.2035  155.5186 C   0  0  0  0  0  0  0  0  0  0  0  0
  148.6908  140.0994  155.4204 C   0  0  2  0  0  0  0  0  0  0  0  0
  148.8736  140.8938  156.6327 N   0  0  0  0  0  0  0  0  0  0  0  0
  149.9480  141.6276  156.9574 C   0  0  0  0  0  0  0  0  0  0  0  0
  150.9216  141.6630  156.2016 O   0  0  0  0  0  0  0  0  0  0  0  0
  149.8196  142.2804  158.1337 N   0  5  0  0  0  0  0  0  0  0  0  0
  150.7731  143.1399  158.5274 C   0  0  0  0  0  0  0  0  0  0  0  0
  151.6355  143.7811  157.7369 N   0  0  0  0  0  0  0  0  0  0  0  0
  152.4248  144.5473  158.5808 C   0  0  0  0  0  0  0  0  0  0  0  0
  152.0042  144.3272  159.8640 C   0  0  0  0  0  0  0  0  0  0  0  0
  150.9650  143.4388  159.8436 O   0  0  0  0  0  0  0  0  0  0  0  0
  148.7670  140.9463  154.1214 C   0  0  0  0  0  0  0  0  0  0  0  0
  147.7595  138.6672  152.7413 H   0  0  0  0  0  0  0  0  0  0  0  0
  146.9434  139.5893  151.4781 H   0  0  0  0  0  0  0  0  0  0  0  0
  146.0426  138.4125  152.4259 H   0  0  0  0  0  0  0  0  0  0  0  0
  147.6075  141.6861  152.4829 H   0  0  0  0  0  0  0  0  0  0  0  0
  147.4063  143.3998  154.2989 H   0  0  0  0  0  0  0  0  0  0  0  0
  145.9140  142.9140  153.5474 H   0  0  0  0  0  0  0  0  0  0  0  0
  146.8566  142.2681  156.3453 H   0  0  0  0  0  0  0  0  0  0  0  0
  145.3836  142.9956  155.8489 H   0  0  0  0  0  0  0  0  0  0  0  0
  145.2070  140.5361  156.6101 H   0  0  0  0  0  0  0  0  0  0  0  0
  144.4177  140.9666  155.1207 H   0  0  0  0  0  0  0  0  0  0  0  0
  145.4677  138.9070  154.7229 H   0  0  0  0  0  0  0  0  0  0  0  0
  147.2118  138.9596  156.5589 H   0  0  0  0  0  0  0  0  0  0  0  0
  147.6776  138.2454  155.0598 H   0  0  0  0  0  0  0  0  0  0  0  0
  149.5435  139.4174  155.4061 H   0  0  0  0  0  0  0  0  0  0  0  0
  148.1082  140.8956  157.2909 H   0  0  0  0  0  0  0  0  0  0  0  0
  153.2147  145.1808  158.2053 H   0  0  0  0  0  0  0  0  0  0  0  0
  152.3121  144.6950  160.8311 H   0  0  0  0  0  0  0  0  0  0  0  0
  149.2917  140.3475  153.3761 H   0  0  0  0  0  0  0  0  0  0  0  0
  149.4003  141.8233  154.2580 H   0  0  0  0  0  0  0  0  0  0  0  0
  145.5977  140.6112  153.0955 H   0  0  0  0  0  0  0  0  0  0  0  0
  1  2  1  0  0  0  0
  1 20  1  0  0  0  0
  1 21  1  0  0  0  0
  1 22  1  0  0  0  0
  2  7  1  0  0  0  0
  2  3  1  0  0  0  0
  2 39  1  0  0  0  0
  3 19  1  0  0  0  0
  3  4  1  0  0  0  0
  3 23  1  0  0  0  0
  4  5  1  0  0  0  0
  4 24  1  0  0  0  0
  4 25  1  0  0  0  0
  5  6  1  0  0  0  0
  5 26  1  0  0  0  0
  5 27  1  0  0  0  0
  6  7  1  0  0  0  0
  6 28  1  0  0  0  0
  6 29  1  0  0  0  0
  7  8  1  0  0  0  0
  7 30  1  0  0  0  0
  8  9  1  0  0  0  0
  8 31  1  0  0  0  0
  8 32  1  0  0  0  0
  9 10  1  0  0  0  0
  9 19  1  0  0  0  0
  9 33  1  0  0  0  0
 10 34  1  0  0  0  0
 10 11  1  0  0  0  0
 11 13  1  0  0  0  0
 11 12  2  0  0  0  0
 13 14  1  0  0  0  0
 14 18  1  0  0  0  0
 14 15  2  0  0  0  0
 15 16  1  0  0  0  0
 16 35  1  0  0  0  0
 16 17  2  0  0  0  0
 17 36  1  0  0  0  0
 17 18  1  0  0  0  0
 19 37  1  0  0  0  0
 19 38  1  0  0  0  0
M  CHG  1   2   1
M  CHG  1  13  -1
M  END
> <s_m_source_file>
AV-unprocessed.smi

> <i_m_source_file_index>
2226

> <i_lp_mmshare_version>
43012

> <i_f3d_flags>
0

> <s_epik_input>
W0NIMl0xW0NIMl1bQ0gyXVtDQEhdKE4oW0NIM10pW0NIXTEyKVtDSDJdW0NASF0oW0NIMl0yKVtOSF1DKD1PKVtOSF1jM25bY0hdW2NIXW8z

> <s_epik_cmdline>
J2VwaWtfcHl0aG9uJywgJy1waCcsICc3LjAnLCAnLXRuJywgJzgnLCAnLW1hJywgJzIwMCcsICctbWV0YWxfYmluZGluZycsICctaW1hZScsICc8aW5maWxlLm1hZT4nLCAnLW9tYWUnLCAnPG91dGZpbGUubWFlPic=

> <r_lp_tautomer_probability>
0.107061

> <r_epik_Ionization_Penalty>
10.5612

> <r_epik_Ionization_Penalty_Charging>
7.48913

> <r_epik_Ionization_Penalty_Neutral>
3.07202

> <r_epik_State_Penalty>
5.6431

> <r_epik_Charging_Adjusted_Penalty>
13.1322

> <i_epik_Tot_Q>
0

> <i_epik_Tot_abs_Q>
2

> <r_epik_Metal_State_Penalty>
1.58163

> <b_epik_Metal_Only>
1

> <s_lp_Force_Field>
OPLS_2005

> <r_lp_Energy>
26.6809

> <b_lp_Chiralities_Consistent>
1

> <s_lp_Variant>
AV-unprocessed.smi:2226-20

> <Gold.Version>
5.8.1

> <Gold.Id.Protein>
6NUR|6NUR_protein|mol2

> <Gold.PLP.Fitness>
38.4044

> <Gold.PLP.PLP>
-32.7088

> <Gold.PLP.part.hbond>
-1.0000

> <Gold.PLP.part.metal>
0.0000

> <Gold.PLP.part.buried>
-5.7683

> <Gold.PLP.part.nonpolar>
-26.2506

> <Gold.PLP.part.repulsive>
0.4073

> <Gold.PLP.ligand.clash>
0.0000

> <Gold.PLP.ligand.torsion>
0.1777

> <Gold.PLP.Chemscore.Hbond>
2.0000

> <Gold.PLP.Chemscore.CHOScore>
0.0000

> <Gold.PLP.Chemscore.Metal>
0.0000

> <Gold.Chemscore.Hbonds>
donor molecule, donor type, donor heavy atom, donor atom, acceptor molecule, acceptor atom, score
      L1  H     2    39       P1 10175  2.00

> <Gold.PLP.Chemscore.Internal.Correction>
0.0510

> <Gold.Rescore>
     Score         DG    S(hbond)    S(metal)    S(lipo)     H(rot)  DE(clash)    DE(int)     intcor
     12.66     -14.43       0.94        0.00      71.55       1.00       0.07       1.71       ----

> <Gold.Chemscore.Fitness>
12.6574

> <Gold.Chemscore.DG>
-14.4345

> <Gold.Chemscore.ZeroCoef>
-5.4800

> <Gold.Chemscore.Hbond>
0.9411

> <Gold.Chemscore.Metal>
0.0000

> <Gold.Chemscore.Lipo>
71.5482

> <Gold.Chemscore.Internal_Hbond>
0.0000

> <Gold.Chemscore.DEClash>
0.0690

> <Gold.Chemscore.DEInternal>
1.7080

> <Gold.Chemscore.Rot>
1.0000

> <Gold.Chemscore.Internal.Correction>
   9.000000E+99

> <Gold.Chemscore.Hbonds>
donor molecule, donor type, donor heavy atom, donor atom, acceptor molecule, acceptor atom, score
      L1  H     2    39       P1 10175  0.76

> <Gold.Chemscore.Hbond.Weighted>
-3.1433

> <Gold.Chemscore.Metal.Weighted>
-0.0000

> <Gold.Chemscore.Lipo.Weighted>
-8.3711

> <Gold.Chemscore.Internal_Hbond.Weighted>
0.0000

> <Gold.Chemscore.DEClash.Weighted>
0.0690

> <Gold.Chemscore.DEInternal.Weighted>
1.7080

> <Gold.Chemscore.Rot.Weighted>
2.5600

> <Gold.Chemscore.Internal.Correction.Weighted>
   9.000000E+99

> <Gold.Protein.RotatedTorsions>
[ 6907 6896 6895 6894 ] final  139.70 input  -60.11 | X-H torsion
[ 7974 7965 7964 7962 ] final -110.79 input  175.53 | X-H torsion
[ 8008 7997 7996 7995 ] final   40.52 input   59.86 | X-H torsion
[ 10167 10162 10161 10158 ] final  -19.74 input  -65.29 | X-H torsion
[ 10718 10713 10712 10709 ] final -128.27 input   66.30 | X-H torsion
[ 10763 10752 10751 10750 ] final  170.65 input  -60.55 | X-H torsion
[ 11005 11000 10999 10996 ] final -176.29 input  -57.11 | X-H torsion

> <Gold.Protein.ActiveResidues>
 VAL166  LYS551  ARG553  GLY616  TRP617  ASP618  TYR619  PRO620  LYS621  CYS622 
 ASP623  PHE694  ASN695  SER759  ASP760  ASP761  ALA762  ILE779  LEU786  VAL792 
 PHE793  MET794  SER795  GLU796  ALA797  LYS798  CYS799  TRP800  GLU811  SER814 

> <Gold.Protein.RotatedAtoms>
  152.2518  133.5221  159.5329 H   0  0  0  0  0  0  0  0  0  0  0  0  # atno 6907 bound_to 6896
  150.7096  134.0950  159.3954 H   0  0  0  0  0  0  0  0  0  0  0  0  # atno 6908 bound_to 6896
  151.8869  135.0431  160.0545 H   0  0  0  0  0  0  0  0  0  0  0  0  # atno 6909 bound_to 6896
  145.1639  140.8892  143.3574 H   0  0  0  0  0  0  0  0  0  0  0  0  # atno 7974 bound_to 7965
  155.2545  140.3355  155.4279 H   0  0  0  0  0  0  0  0  0  0  0  0  # atno 8008 bound_to 7997
  156.2201  140.1805  156.7539 H   0  0  0  0  0  0  0  0  0  0  0  0  # atno 8009 bound_to 7997
  154.5813  140.0653  156.9092 H   0  0  0  0  0  0  0  0  0  0  0  0  # atno 8010 bound_to 7997
  140.7271  143.4790  151.0144 H   0  0  0  0  0  0  0  0  0  0  0  0  # atno 10167 bound_to 10162
  156.1935  130.6811  151.0454 H   0  0  0  0  0  0  0  0  0  0  0  0  # atno 10718 bound_to 10713
  154.4006  135.2755  155.2099 H   0  0  0  0  0  0  0  0  0  0  0  0  # atno 10763 bound_to 10752
  154.4126  135.6019  153.5965 H   0  0  0  0  0  0  0  0  0  0  0  0  # atno 10764 bound_to 10752
  152.9831  135.5953  154.4274 H   0  0  0  0  0  0  0  0  0  0  0  0  # atno 10765 bound_to 10752
  140.4537  134.6319  157.4812 H   0  0  0  0  0  0  0  0  0  0  0  0  # atno 11005 bound_to 11000
  145.0302  139.3347  143.6028 LP  0  0  0  0  0  0  0  0  0  0  0  0  # atno 17320 bound_to 7965
  146.3478  139.9636  142.8714 LP  0  0  0  0  0  0  0  0  0  0  0  0  # atno 17321 bound_to 7965
  139.8487  143.7467  152.3178 LP  0  0  0  0  0  0  0  0  0  0  0  0  # atno 17342 bound_to 10162
  139.7642  144.7497  151.0319 LP  0  0  0  0  0  0  0  0  0  0  0  0  # atno 17343 bound_to 10162
  157.6944  131.0799  150.7014 LP  0  0  0  0  0  0  0  0  0  0  0  0  # atno 17370 bound_to 10713
  156.7070  130.4640  149.5557 LP  0  0  0  0  0  0  0  0  0  0  0  0  # atno 17371 bound_to 10713
  139.9990  134.6866  155.9562 LP  0  0  0  0  0  0  0  0  0  0  0  0  # atno 17394 bound_to 11000
  141.1652  133.6537  156.4456 LP  0  0  0  0  0  0  0  0  0  0  0  0  # atno 17395 bound_to 11000

$$$$
