AV-unprocessed.smi:2000|AV-procd|sdf|8100|dock10
  -GOLD-   2272010323D 1   1.00000     0.00000
 Structure written by MMmdl.
 43 44  0  0  0  0  0  0  0  0  1 V2000
  147.1425  135.7677  162.8936 C   0  0  0  0  0  0  0  0  0  0  0  0
  147.6241  135.0120  161.6452 C   0  0  2  0  0  0  0  0  0  0  0  0
  147.9821  135.9784  160.5083 C   0  0  0  0  0  0  0  0  0  0  0  0
  147.7601  137.1838  160.6219 O   0  0  0  0  0  0  0  0  0  0  0  0
  148.5431  135.4350  159.4162 N   0  0  0  0  0  0  0  0  0  0  0  0
  148.9577  136.1786  158.2302 C   0  0  0  0  0  0  0  0  0  0  0  0
  149.3999  135.2909  157.0664 C   0  0  0  0  0  0  0  0  0  0  0  0
  149.2339  133.8901  157.1529 C   0  0  0  0  0  0  0  0  0  0  0  0
  149.6641  133.0739  156.0922 C   0  0  0  0  0  0  0  0  0  0  0  0
  150.2617  133.6905  154.9793 C   0  0  0  0  0  0  0  0  0  0  0  0
  150.4417  135.0233  154.8841 N   0  0  0  0  0  0  0  0  0  0  0  0
  150.0249  135.8161  155.9019 C   0  0  0  0  0  0  0  0  0  0  0  0
  150.2139  137.2015  155.7520 N   0  0  0  0  0  0  0  0  0  0  0  0
  149.3391  137.7873  154.7445 C   0  0  0  0  0  0  0  0  0  0  0  0
  149.4340  139.3218  154.7965 C   0  0  0  0  0  0  0  0  0  0  0  0
  150.7924  139.7239  154.6392 O   0  0  0  0  0  0  0  0  0  0  0  0
  151.6296  139.2027  155.6681 C   0  0  0  0  0  0  0  0  0  0  0  0
  151.5923  137.6652  155.6338 C   0  0  0  0  0  0  0  0  0  0  0  0
  146.3162  133.8188  161.0911 S   0  0  0  0  0  0  0  0  0  0  0  0
  144.9994  134.0184  162.3630 C   0  0  0  0  0  0  0  0  0  0  0  0
  145.7862  134.2964  159.8048 O   0  0  0  0  0  0  0  0  0  0  0  0
  146.8416  132.4480  161.1877 O   0  0  0  0  0  0  0  0  0  0  0  0
  147.8899  136.4837  163.2367 H   0  0  0  0  0  0  0  0  0  0  0  0
  146.9486  135.0768  163.7144 H   0  0  0  0  0  0  0  0  0  0  0  0
  146.2186  136.3142  162.6998 H   0  0  0  0  0  0  0  0  0  0  0  0
  148.5022  134.4216  161.9094 H   0  0  0  0  0  0  0  0  0  0  0  0
  148.6992  134.4376  159.4054 H   0  0  0  0  0  0  0  0  0  0  0  0
  148.1623  136.8674  157.9460 H   0  0  0  0  0  0  0  0  0  0  0  0
  149.8052  136.8045  158.5094 H   0  0  0  0  0  0  0  0  0  0  0  0
  148.7836  133.4385  158.0244 H   0  0  0  0  0  0  0  0  0  0  0  0
  149.5430  132.0017  156.1330 H   0  0  0  0  0  0  0  0  0  0  0  0
  150.6074  133.0983  154.1451 H   0  0  0  0  0  0  0  0  0  0  0  0
  149.6346  137.4273  153.7580 H   0  0  0  0  0  0  0  0  0  0  0  0
  148.3085  137.4713  154.9036 H   0  0  0  0  0  0  0  0  0  0  0  0
  148.8375  139.7629  153.9979 H   0  0  0  0  0  0  0  0  0  0  0  0
  149.0376  139.7031  155.7391 H   0  0  0  0  0  0  0  0  0  0  0  0
  152.6482  139.5580  155.5119 H   0  0  0  0  0  0  0  0  0  0  0  0
  151.3057  139.5788  156.6400 H   0  0  0  0  0  0  0  0  0  0  0  0
  152.1918  137.2555  156.4477 H   0  0  0  0  0  0  0  0  0  0  0  0
  152.0258  137.3102  154.6977 H   0  0  0  0  0  0  0  0  0  0  0  0
  144.1182  133.4537  162.0593 H   0  0  0  0  0  0  0  0  0  0  0  0
  144.7378  135.0716  162.4609 H   0  0  0  0  0  0  0  0  0  0  0  0
  145.3518  133.6345  163.3195 H   0  0  0  0  0  0  0  0  0  0  0  0
  1  2  1  0  0  0  0
  1 23  1  0  0  0  0
  1 24  1  0  0  0  0
  1 25  1  0  0  0  0
  2  3  1  0  0  0  0
  2 19  1  0  0  0  0
  2 26  1  0  0  0  0
  3  4  2  0  0  0  0
  3  5  1  0  0  0  0
  5  6  1  0  0  0  0
  5 27  1  0  0  0  0
  6  7  1  0  0  0  0
  6 28  1  0  0  0  0
  6 29  1  0  0  0  0
  7 12  1  0  0  0  0
  7  8  2  0  0  0  0
  8  9  1  0  0  0  0
  8 30  1  0  0  0  0
  9 10  2  0  0  0  0
  9 31  1  0  0  0  0
 10 11  1  0  0  0  0
 10 32  1  0  0  0  0
 11 12  2  0  0  0  0
 12 13  1  0  0  0  0
 13 18  1  0  0  0  0
 13 14  1  0  0  0  0
 14 15  1  0  0  0  0
 14 33  1  0  0  0  0
 14 34  1  0  0  0  0
 15 16  1  0  0  0  0
 15 35  1  0  0  0  0
 15 36  1  0  0  0  0
 16 17  1  0  0  0  0
 17 18  1  0  0  0  0
 17 37  1  0  0  0  0
 17 38  1  0  0  0  0
 18 39  1  0  0  0  0
 18 40  1  0  0  0  0
 19 20  1  0  0  0  0
 19 21  2  0  0  0  0
 19 22  2  0  0  0  0
 20 41  1  0  0  0  0
 20 42  1  0  0  0  0
 20 43  1  0  0  0  0
M  END
> <s_m_source_file>
AV-unprocessed.smi

> <i_m_source_file_index>
2000

> <i_lp_mmshare_version>
43012

> <i_f3d_flags>
0

> <s_epik_input>
W0NIM11TKD1PKSg9TylbQ0BIXShbQ0gzXSlDKD1PKVtOSF1bQ0gyXWMxW2NIXVtjSF1bY0hdbmMxTjJbQ0gyXVtDSDJdT1tDSDJdW0NIMl0y

> <s_epik_cmdline>
J2VwaWtfcHl0aG9uJywgJy1waCcsICc3LjAnLCAnLXRuJywgJzgnLCAnLW1hJywgJzIwMCcsICctbWV0YWxfYmluZGluZycsICctaW1hZScsICc8aW5maWxlLm1hZT4nLCAnLW9tYWUnLCAnPG91dGZpbGUubWFlPic=

> <r_lp_tautomer_probability>
1

> <r_epik_Ionization_Penalty>
0.00349769

> <r_epik_Ionization_Penalty_Charging>
0

> <r_epik_Ionization_Penalty_Neutral>
0.00349769

> <r_epik_State_Penalty>
0.00248024

> <r_epik_Charging_Adjusted_Penalty>
0.00248024

> <i_epik_Tot_Q>
0

> <i_epik_Tot_abs_Q>
0

> <r_epik_Metal_State_Penalty>
-0

> <b_epik_Metal_Only>
0

> <s_lp_Force_Field>
OPLS_2005

> <r_lp_Energy>
16.3383

> <b_lp_Chiralities_Consistent>
1

> <s_lp_Variant>
AV-unprocessed.smi:2000-1

> <Gold.Version>
5.8.1

> <Gold.Id.Protein>
6NUR|6NUR_protein|mol2

> <Gold.PLP.Fitness>
38.4437

> <Gold.PLP.PLP>
-30.9632

> <Gold.PLP.part.hbond>
-3.0000

> <Gold.PLP.part.metal>
0.0000

> <Gold.PLP.part.buried>
-6.0303

> <Gold.PLP.part.nonpolar>
-23.4383

> <Gold.PLP.part.repulsive>
0.4400

> <Gold.PLP.ligand.clash>
0.0000

> <Gold.PLP.ligand.torsion>
0.3802

> <Gold.PLP.Chemscore.Hbond>
2.6320

> <Gold.PLP.Chemscore.CHOScore>
0.0000

> <Gold.PLP.Chemscore.Metal>
0.0000

> <Gold.Chemscore.Hbonds>
donor molecule, donor type, donor heavy atom, donor atom, acceptor molecule, acceptor atom, score
      P1  H  6931  6943       L1     4  0.66
      P1  H  6934  6947       L1     4  0.90
      P1  H  7989  7998       L1    16  1.00

> <Gold.PLP.Chemscore.Internal.Correction>
0.3449

> <Gold.Rescore>
     Score         DG    S(hbond)    S(metal)    S(lipo)     H(rot)  DE(clash)    DE(int)     intcor
     16.12     -16.64       2.62        0.00      66.05       2.08       0.00       0.52       ----

> <Gold.Chemscore.Fitness>
16.1197

> <Gold.Chemscore.DG>
-16.6400

> <Gold.Chemscore.ZeroCoef>
-5.4800

> <Gold.Chemscore.Hbond>
2.6192

> <Gold.Chemscore.Metal>
0.0000

> <Gold.Chemscore.Lipo>
66.0458

> <Gold.Chemscore.Internal_Hbond>
0.0000

> <Gold.Chemscore.DEClash>
0.0000

> <Gold.Chemscore.DEInternal>
0.5202

> <Gold.Chemscore.Rot>
2.0764

> <Gold.Chemscore.Internal.Correction>
   9.000000E+99

> <Gold.Chemscore.Hbonds>
donor molecule, donor type, donor heavy atom, donor atom, acceptor molecule, acceptor atom, score
      P1  H  6931  6943       L1     4  0.62
      P1  H  6934  6947       L1     4  0.86
      P1  H  7989  7998       L1    16  0.88

> <Gold.Chemscore.Hbond.Weighted>
-8.7482

> <Gold.Chemscore.Metal.Weighted>
-0.0000

> <Gold.Chemscore.Lipo.Weighted>
-7.7274

> <Gold.Chemscore.Internal_Hbond.Weighted>
0.0000

> <Gold.Chemscore.DEClash.Weighted>
0.0000

> <Gold.Chemscore.DEInternal.Weighted>
0.5202

> <Gold.Chemscore.Rot.Weighted>
5.3155

> <Gold.Chemscore.Internal.Correction.Weighted>
   9.000000E+99

> <Gold.Protein.RotatedTorsions>
[ 6907 6896 6895 6894 ] final  135.42 input  -60.11 | X-H torsion
[ 7974 7965 7964 7962 ] final  -14.51 input  175.53 | X-H torsion
[ 8008 7997 7996 7995 ] final   33.00 input   59.86 | X-H torsion
[ 10167 10162 10161 10158 ] final   14.31 input  -65.29 | X-H torsion
[ 10718 10713 10712 10709 ] final -149.11 input   66.30 | X-H torsion
[ 10763 10752 10751 10750 ] final  -93.59 input  -60.55 | X-H torsion
[ 11005 11000 10999 10996 ] final  175.30 input  -57.11 | X-H torsion

> <Gold.Protein.ActiveResidues>
 VAL166  LYS551  ARG553  GLY616  TRP617  ASP618  TYR619  PRO620  LYS621  CYS622 
 ASP623  PHE694  ASN695  SER759  ASP760  ASP761  ALA762  ILE779  LEU786  VAL792 
 PHE793  MET794  SER795  GLU796  ALA797  LYS798  CYS799  TRP800  GLU811  SER814 

> <Gold.Protein.RotatedAtoms>
  152.3006  133.5651  159.5615 H   0  0  0  0  0  0  0  0  0  0  0  0  # atno 6907 bound_to 6896
  150.7276  134.0297  159.3738 H   0  0  0  0  0  0  0  0  0  0  0  0  # atno 6908 bound_to 6896
  151.8197  135.0656  160.0474 H   0  0  0  0  0  0  0  0  0  0  0  0  # atno 6909 bound_to 6896
  146.2071  140.3359  142.8403 H   0  0  0  0  0  0  0  0  0  0  0  0  # atno 7974 bound_to 7965
  155.1316  140.3258  155.4473 H   0  0  0  0  0  0  0  0  0  0  0  0  # atno 8008 bound_to 7997
  156.2632  140.2009  156.6384 H   0  0  0  0  0  0  0  0  0  0  0  0  # atno 8009 bound_to 7997
  154.6608  140.0547  157.0047 H   0  0  0  0  0  0  0  0  0  0  0  0  # atno 8010 bound_to 7997
  140.5944  143.8731  150.6904 H   0  0  0  0  0  0  0  0  0  0  0  0  # atno 10167 bound_to 10162
  156.4289  130.8065  151.2292 H   0  0  0  0  0  0  0  0  0  0  0  0  # atno 10718 bound_to 10713
  154.6973  135.5189  153.8477 H   0  0  0  0  0  0  0  0  0  0  0  0  # atno 10763 bound_to 10752
  153.0677  135.6590  154.0326 H   0  0  0  0  0  0  0  0  0  0  0  0  # atno 10764 bound_to 10752
  154.0191  135.2995  155.3363 H   0  0  0  0  0  0  0  0  0  0  0  0  # atno 10765 bound_to 10752
  140.3607  134.7115  157.4329 H   0  0  0  0  0  0  0  0  0  0  0  0  # atno 11005 bound_to 11000
  144.8820  140.7412  143.5981 LP  0  0  0  0  0  0  0  0  0  0  0  0  # atno 17320 bound_to 7965
  145.3279  139.1768  143.4552 LP  0  0  0  0  0  0  0  0  0  0  0  0  # atno 17321 bound_to 7965
  140.2261  143.3771  152.1603 LP  0  0  0  0  0  0  0  0  0  0  0  0  # atno 17342 bound_to 10162
  139.5248  144.7089  151.5269 LP  0  0  0  0  0  0  0  0  0  0  0  0  # atno 17343 bound_to 10162
  157.7508  131.0205  150.3709 LP  0  0  0  0  0  0  0  0  0  0  0  0  # atno 17370 bound_to 10713
  156.4042  130.3921  149.6937 LP  0  0  0  0  0  0  0  0  0  0  0  0  # atno 17371 bound_to 10713
  140.0629  134.5970  155.8728 LP  0  0  0  0  0  0  0  0  0  0  0  0  # atno 17394 bound_to 11000
  141.1985  133.6601  156.5795 LP  0  0  0  0  0  0  0  0  0  0  0  0  # atno 17395 bound_to 11000

$$$$
