AV-unprocessed.smi:1994|AV-procd|sdf|8075|dock3
  -GOLD-   2272010283D 1   1.00000     0.00000
 Structure written by MMmdl.
 40 42  0  0  0  0  0  0  0  0  2 V2000
  152.0412  137.9321  154.9896 C   0  0  0  0  0  0  0  0  0  0  0  0
  150.7982  138.6783  154.6373 C   0  0  0  0  0  0  0  0  0  0  0  0
  149.7855  138.2214  153.8475 N   0  3  0  0  0  0  0  0  0  0  0  0
  148.7937  139.1977  153.7388 C   0  0  0  0  0  0  0  0  0  0  0  0
  147.5849  139.1973  153.0496 C   0  0  0  0  0  0  0  0  0  0  0  0
  146.8004  140.3655  153.1477 C   0  0  0  0  0  0  0  0  0  0  0  0
  147.2261  141.4747  153.9073 C   0  0  0  0  0  0  0  0  0  0  0  0
  148.4543  141.4637  154.6011 C   0  0  0  0  0  0  0  0  0  0  0  0
  149.2224  140.3042  154.4998 C   0  0  0  0  0  0  0  0  0  0  0  0
  150.4604  139.9374  155.0381 N   0  0  0  0  0  0  0  0  0  0  0  0
  151.1819  140.8931  155.8918 C   0  0  0  0  0  0  0  0  0  0  0  0
  150.2925  141.5120  156.9893 C   0  0  1  0  0  0  0  0  0  0  0  0
  149.8277  140.4976  157.8569 O   0  0  0  0  0  0  0  0  0  0  0  0
  151.0392  142.5646  157.8203 C   0  0  0  0  0  0  0  0  0  0  0  0
  152.0607  141.9147  158.5646 O   0  0  0  0  0  0  0  0  0  0  0  0
  152.3802  142.4112  159.8104 C   0  0  0  0  0  0  0  0  0  0  0  0
  151.8761  143.6289  160.3344 C   0  0  0  0  0  0  0  0  0  0  0  0
  152.2545  144.0632  161.6196 C   0  0  0  0  0  0  0  0  0  0  0  0
  153.1387  143.2908  162.3951 C   0  0  0  0  0  0  0  0  0  0  0  0
  153.6449  142.0821  161.8829 C   0  0  0  0  0  0  0  0  0  0  0  0
  153.2671  141.6464  160.5981 C   0  0  0  0  0  0  0  0  0  0  0  0
  153.7601  140.4799  160.1174 F   0  0  0  0  0  0  0  0  0  0  0  0
  151.9815  136.9011  154.6400 H   0  0  0  0  0  0  0  0  0  0  0  0
  152.1841  137.9228  156.0703 H   0  0  0  0  0  0  0  0  0  0  0  0
  152.9072  138.4063  154.5276 H   0  0  0  0  0  0  0  0  0  0  0  0
  147.2569  138.3492  152.4666 H   0  0  0  0  0  0  0  0  0  0  0  0
  145.8531  140.4119  152.6299 H   0  0  0  0  0  0  0  0  0  0  0  0
  146.5980  142.3521  153.9594 H   0  0  0  0  0  0  0  0  0  0  0  0
  148.7727  142.3183  155.1803 H   0  0  0  0  0  0  0  0  0  0  0  0
  152.0263  140.3678  156.3399 H   0  0  0  0  0  0  0  0  0  0  0  0
  151.6087  141.6665  155.2518 H   0  0  0  0  0  0  0  0  0  0  0  0
  149.4170  141.9789  156.5374 H   0  0  0  0  0  0  0  0  0  0  0  0
  149.6735  140.8790  158.7072 H   0  0  0  0  0  0  0  0  0  0  0  0
  151.4879  143.3062  157.1568 H   0  0  0  0  0  0  0  0  0  0  0  0
  150.3433  143.0797  158.4850 H   0  0  0  0  0  0  0  0  0  0  0  0
  151.1978  144.2497  159.7690 H   0  0  0  0  0  0  0  0  0  0  0  0
  151.8652  144.9916  162.0110 H   0  0  0  0  0  0  0  0  0  0  0  0
  153.4282  143.6250  163.3805 H   0  0  0  0  0  0  0  0  0  0  0  0
  154.3239  141.4875  162.4761 H   0  0  0  0  0  0  0  0  0  0  0  0
  149.7772  137.3074  153.4131 H   0  0  0  0  0  0  0  0  0  0  0  0
  1  2  1  0  0  0  0
  1 23  1  0  0  0  0
  1 24  1  0  0  0  0
  1 25  1  0  0  0  0
  2 10  1  0  0  0  0
  2  3  2  0  0  0  0
  3  4  1  0  0  0  0
  3 40  1  0  0  0  0
  4  9  2  0  0  0  0
  4  5  1  0  0  0  0
  5  6  2  0  0  0  0
  5 26  1  0  0  0  0
  6  7  1  0  0  0  0
  6 27  1  0  0  0  0
  7  8  2  0  0  0  0
  7 28  1  0  0  0  0
  8  9  1  0  0  0  0
  8 29  1  0  0  0  0
  9 10  1  0  0  0  0
 10 11  1  0  0  0  0
 11 12  1  0  0  0  0
 11 30  1  0  0  0  0
 11 31  1  0  0  0  0
 12 13  1  0  0  0  0
 12 14  1  0  0  0  0
 12 32  1  0  0  0  0
 13 33  1  0  0  0  0
 14 15  1  0  0  0  0
 14 34  1  0  0  0  0
 14 35  1  0  0  0  0
 15 16  1  0  0  0  0
 16 21  1  0  0  0  0
 16 17  2  0  0  0  0
 17 18  1  0  0  0  0
 17 36  1  0  0  0  0
 18 19  2  0  0  0  0
 18 37  1  0  0  0  0
 19 20  1  0  0  0  0
 19 38  1  0  0  0  0
 20 21  2  0  0  0  0
 20 39  1  0  0  0  0
 21 22  1  0  0  0  0
M  CHG  1   3   1
M  END
> <s_m_source_file>
AV-unprocessed.smi

> <i_m_source_file_index>
1994

> <i_lp_mmshare_version>
43012

> <i_f3d_flags>
0

> <s_epik_input>
W2NIXTFbY0hdW2NIXVtjSF1jKGMxMiluKGMobjIpW0NIM10pW0NIMl1bQ0BIXShbT0hdKVtDSDJdT2MzW2NIXVtjSF1bY0hdW2NIXWMzRg==

> <s_epik_cmdline>
J2VwaWtfcHl0aG9uJywgJy1waCcsICc3LjAnLCAnLXRuJywgJzgnLCAnLW1hJywgJzIwMCcsICctbWV0YWxfYmluZGluZycsICctaW1hZScsICc8aW5maWxlLm1hZT4nLCAnLW9tYWUnLCAnPG91dGZpbGUubWFlPic=

> <r_lp_tautomer_probability>
1

> <r_epik_Ionization_Penalty>
1.03916

> <r_epik_Ionization_Penalty_Charging>
1.03916

> <r_epik_Ionization_Penalty_Neutral>
2.3993e-06

> <r_epik_State_Penalty>
1.09101

> <r_epik_Charging_Adjusted_Penalty>
2.13018

> <i_epik_Tot_Q>
1

> <i_epik_Tot_abs_Q>
1

> <r_epik_Metal_State_Penalty>
5.08156

> <b_epik_Metal_Only>
0

> <s_lp_Force_Field>
OPLS_2005

> <r_lp_Energy>
18.0159

> <b_lp_Chiralities_Consistent>
1

> <s_lp_Variant>
AV-unprocessed.smi:1994-4

> <Gold.Version>
5.8.1

> <Gold.Id.Protein>
6NUR|6NUR_protein|mol2

> <Gold.PLP.Fitness>
59.1679

> <Gold.PLP.PLP>
-54.0011

> <Gold.PLP.part.hbond>
-2.0000

> <Gold.PLP.part.metal>
0.0000

> <Gold.PLP.part.buried>
2.4781

> <Gold.PLP.part.nonpolar>
-53.7725

> <Gold.PLP.part.repulsive>
0.0656

> <Gold.PLP.ligand.clash>
0.0000

> <Gold.PLP.ligand.torsion>
0.4319

> <Gold.PLP.Chemscore.Hbond>
2.0000

> <Gold.PLP.Chemscore.CHOScore>
0.0000

> <Gold.PLP.Chemscore.Metal>
0.0000

> <Gold.Chemscore.Hbonds>
donor molecule, donor type, donor heavy atom, donor atom, acceptor molecule, acceptor atom, score
      L1  H     3    40       P1  7948  1.73

> <Gold.PLP.Chemscore.Internal.Correction>
0.0307

> <Gold.Rescore>
     Score         DG    S(hbond)    S(metal)    S(lipo)     H(rot)  DE(clash)    DE(int)     intcor
     16.71     -18.81       0.91        0.00     137.55       2.27       1.83       0.27       ----

> <Gold.Chemscore.Fitness>
16.7084

> <Gold.Chemscore.DG>
-18.8136

> <Gold.Chemscore.ZeroCoef>
-5.4800

> <Gold.Chemscore.Hbond>
0.9140

> <Gold.Chemscore.Metal>
0.0000

> <Gold.Chemscore.Lipo>
137.5526

> <Gold.Chemscore.Internal_Hbond>
0.0000

> <Gold.Chemscore.DEClash>
1.8336

> <Gold.Chemscore.DEInternal>
0.2717

> <Gold.Chemscore.Rot>
2.2706

> <Gold.Chemscore.Internal.Correction>
   9.000000E+99

> <Gold.Chemscore.Hbonds>
donor molecule, donor type, donor heavy atom, donor atom, acceptor molecule, acceptor atom, score
      L1  H     3    40       P1  7948  0.48

> <Gold.Chemscore.Hbond.Weighted>
-3.0528

> <Gold.Chemscore.Metal.Weighted>
-0.0000

> <Gold.Chemscore.Lipo.Weighted>
-16.0937

> <Gold.Chemscore.Internal_Hbond.Weighted>
0.0000

> <Gold.Chemscore.DEClash.Weighted>
1.8336

> <Gold.Chemscore.DEInternal.Weighted>
0.2717

> <Gold.Chemscore.Rot.Weighted>
5.8128

> <Gold.Chemscore.Internal.Correction.Weighted>
   9.000000E+99

> <Gold.Protein.RotatedTorsions>
[ 6907 6896 6895 6894 ] final  -13.38 input  -60.11 | X-H torsion
[ 7974 7965 7964 7962 ] final   61.54 input  175.53 | X-H torsion
[ 8008 7997 7996 7995 ] final  156.30 input   59.86 | X-H torsion
[ 10167 10162 10161 10158 ] final  134.80 input  -65.29 | X-H torsion
[ 10718 10713 10712 10709 ] final   69.88 input   66.30 | X-H torsion
[ 10763 10752 10751 10750 ] final  -67.66 input  -60.55 | X-H torsion
[ 11005 11000 10999 10996 ] final    0.51 input  -57.11 | X-H torsion

> <Gold.Protein.ActiveResidues>
 VAL166  LYS551  ARG553  GLY616  TRP617  ASP618  TYR619  PRO620  LYS621  CYS622 
 ASP623  PHE694  ASN695  SER759  ASP760  ASP761  ALA762  ILE779  LEU786  VAL792 
 PHE793  MET794  SER795  GLU796  ALA797  LYS798  CYS799  TRP800  GLU811  SER814 

> <Gold.Protein.RotatedAtoms>
  151.3558  135.0894  159.9417 H   0  0  0  0  0  0  0  0  0  0  0  0  # atno 6907 bound_to 6896
  152.5175  133.9307  159.7589 H   0  0  0  0  0  0  0  0  0  0  0  0  # atno 6908 bound_to 6896
  150.9692  133.6308  159.2770 H   0  0  0  0  0  0  0  0  0  0  0  0  # atno 6909 bound_to 6896
  145.8835  139.3460  143.0692 H   0  0  0  0  0  0  0  0  0  0  0  0  # atno 7974 bound_to 7965
  156.2430  140.1916  156.6935 H   0  0  0  0  0  0  0  0  0  0  0  0  # atno 8008 bound_to 7997
  154.6234  140.0605  156.9670 H   0  0  0  0  0  0  0  0  0  0  0  0  # atno 8009 bound_to 7997
  155.1825  140.3277  155.4375 H   0  0  0  0  0  0  0  0  0  0  0  0  # atno 8010 bound_to 7997
  139.5242  144.6549  151.5192 H   0  0  0  0  0  0  0  0  0  0  0  0  # atno 10167 bound_to 10162
  157.6370  130.9448  150.0574 H   0  0  0  0  0  0  0  0  0  0  0  0  # atno 10718 bound_to 10713
  154.3777  135.6081  153.5773 H   0  0  0  0  0  0  0  0  0  0  0  0  # atno 10763 bound_to 10752
  152.9789  135.5853  154.4448 H   0  0  0  0  0  0  0  0  0  0  0  0  # atno 10764 bound_to 10752
  154.4212  135.2846  155.1952 H   0  0  0  0  0  0  0  0  0  0  0  0  # atno 10765 bound_to 10752
  140.6258  133.9620  155.8248 H   0  0  0  0  0  0  0  0  0  0  0  0  # atno 11005 bound_to 11000
  145.8994  140.9252  143.0510 LP  0  0  0  0  0  0  0  0  0  0  0  0  # atno 17320 bound_to 7965
  144.6728  140.1013  143.7460 LP  0  0  0  0  0  0  0  0  0  0  0  0  # atno 17321 bound_to 7965
  140.6370  143.8964  150.6656 LP  0  0  0  0  0  0  0  0  0  0  0  0  # atno 17342 bound_to 10162
  140.2286  143.3753  152.1584 LP  0  0  0  0  0  0  0  0  0  0  0  0  # atno 17343 bound_to 10162
  156.1617  130.3644  149.9290 LP  0  0  0  0  0  0  0  0  0  0  0  0  # atno 17370 bound_to 10713
  156.7287  130.9035  151.3624 LP  0  0  0  0  0  0  0  0  0  0  0  0  # atno 17371 bound_to 10713
  141.0711  134.0205  157.3525 LP  0  0  0  0  0  0  0  0  0  0  0  0  # atno 17394 bound_to 11000
  139.9135  135.0194  156.7790 LP  0  0  0  0  0  0  0  0  0  0  0  0  # atno 17395 bound_to 11000

$$$$
