AV-unprocessed.smi:2304|AV-procd|sdf|9245|dock3
  -GOLD-   2272012463D 1   1.00000     0.00000
 Structure written by MMmdl.
 37 38  0  0  0  0  0  0  0  0  1 V2000
  149.8901  138.7954  155.0639 C   0  0  0  0  0  0  0  0  0  0  0  0
  149.9016  140.1538  154.6623 O   0  0  0  0  0  0  0  0  0  0  0  0
  148.6285  140.6029  154.2268 C   0  0  0  0  0  0  0  0  0  0  0  0
  147.8464  141.1724  155.4224 C   0  0  1  0  0  0  0  0  0  0  0  0
  148.6436  142.2057  156.0790 N   0  0  0  0  0  0  0  0  0  0  0  0
  149.4354  142.0268  157.1470 C   0  0  0  0  0  0  0  0  0  0  0  0
  149.5967  140.9400  157.7030 O   0  0  0  0  0  0  0  0  0  0  0  0
  150.0158  143.1820  157.5170 N   0  0  0  0  0  0  0  0  0  0  0  0
  150.8847  143.4157  158.6160 C   0  0  0  0  0  0  0  0  0  0  0  0
  150.9463  144.7569  159.0570 C   0  0  0  0  0  0  0  0  0  0  0  0
  151.7756  145.0913  160.1448 C   0  0  0  0  0  0  0  0  0  0  0  0
  152.5235  144.0753  160.7662 C   0  0  0  0  0  0  0  0  0  0  0  0
  152.4048  142.7638  160.2660 C   0  0  0  0  0  0  0  0  0  0  0  0
  153.1800  141.6197  160.8850 C   0  0  0  0  0  0  0  0  0  0  0  0
  151.6104  142.4430  159.2221 N   0  0  0  0  0  0  0  0  0  0  0  0
  146.4884  141.6884  154.9853 C   0  0  0  0  0  0  0  0  0  0  0  0
  146.3523  143.0073  154.2633 C   0  0  0  0  0  0  0  0  0  0  0  0
  145.8397  142.8626  155.6788 C   0  0  0  0  0  0  0  0  0  0  0  0
  150.8909  138.4968  155.3754 H   0  0  0  0  0  0  0  0  0  0  0  0
  149.5836  138.1437  154.2447 H   0  0  0  0  0  0  0  0  0  0  0  0
  149.2153  138.6401  155.9067 H   0  0  0  0  0  0  0  0  0  0  0  0
  148.7342  141.3551  153.4431 H   0  0  0  0  0  0  0  0  0  0  0  0
  148.0833  139.7611  153.7968 H   0  0  0  0  0  0  0  0  0  0  0  0
  147.6606  140.3501  156.1162 H   0  0  0  0  0  0  0  0  0  0  0  0
  148.5812  143.1347  155.6899 H   0  0  0  0  0  0  0  0  0  0  0  0
  149.7985  143.9922  156.9565 H   0  0  0  0  0  0  0  0  0  0  0  0
  150.3646  145.5257  158.5694 H   0  0  0  0  0  0  0  0  0  0  0  0
  151.8362  146.1109  160.4959 H   0  0  0  0  0  0  0  0  0  0  0  0
  153.1689  144.2997  161.6028 H   0  0  0  0  0  0  0  0  0  0  0  0
  153.6858  141.9331  161.7987 H   0  0  0  0  0  0  0  0  0  0  0  0
  153.9321  141.2530  160.1862 H   0  0  0  0  0  0  0  0  0  0  0  0
  152.5103  140.7959  161.1341 H   0  0  0  0  0  0  0  0  0  0  0  0
  145.8086  140.9018  154.6629 H   0  0  0  0  0  0  0  0  0  0  0  0
  147.2542  143.5977  154.1124 H   0  0  0  0  0  0  0  0  0  0  0  0
  145.6153  143.0691  153.4654 H   0  0  0  0  0  0  0  0  0  0  0  0
  144.7620  142.8279  155.8228 H   0  0  0  0  0  0  0  0  0  0  0  0
  146.4004  143.3597  156.4681 H   0  0  0  0  0  0  0  0  0  0  0  0
  1  2  1  0  0  0  0
  1 19  1  0  0  0  0
  1 20  1  0  0  0  0
  1 21  1  0  0  0  0
  2  3  1  0  0  0  0
  3  4  1  0  0  0  0
  3 22  1  0  0  0  0
  3 23  1  0  0  0  0
  4  5  1  0  0  0  0
  4 16  1  0  0  0  0
  4 24  1  0  0  0  0
  5  6  1  0  0  0  0
  5 25  1  0  0  0  0
  6  7  2  0  0  0  0
  6  8  1  0  0  0  0
  8  9  1  0  0  0  0
  8 26  1  0  0  0  0
  9 15  1  0  0  0  0
  9 10  2  0  0  0  0
 10 11  1  0  0  0  0
 10 27  1  0  0  0  0
 11 12  2  0  0  0  0
 11 28  1  0  0  0  0
 12 13  1  0  0  0  0
 12 29  1  0  0  0  0
 13 14  1  0  0  0  0
 13 15  2  0  0  0  0
 14 30  1  0  0  0  0
 14 31  1  0  0  0  0
 14 32  1  0  0  0  0
 16 18  1  0  0  0  0
 16 17  1  0  0  0  0
 16 33  1  0  0  0  0
 17 18  1  0  0  0  0
 17 34  1  0  0  0  0
 17 35  1  0  0  0  0
 18 36  1  0  0  0  0
 18 37  1  0  0  0  0
M  END
> <s_m_source_file>
AV-unprocessed.smi

> <i_m_source_file_index>
2304

> <i_lp_mmshare_version>
43012

> <i_f3d_flags>
0

> <s_epik_input>
W0NIM11PW0NIMl1bQ0BASF0oW0NIXTFbQ0gyXVtDSDJdMSlbTkhdQyg9TylbTkhdYzJbY0hdW2NIXVtjSF1jKG4yKVtDSDNd

> <s_epik_cmdline>
J2VwaWtfcHl0aG9uJywgJy1waCcsICc3LjAnLCAnLXRuJywgJzgnLCAnLW1hJywgJzIwMCcsICctbWV0YWxfYmluZGluZycsICctaW1hZScsICc8aW5maWxlLm1hZT4nLCAnLW9tYWUnLCAnPG91dGZpbGUubWFlPic=

> <r_lp_tautomer_probability>
1

> <r_epik_Ionization_Penalty>
8.58396e-05

> <r_epik_Ionization_Penalty_Charging>
0

> <r_epik_Ionization_Penalty_Neutral>
8.58396e-05

> <r_epik_State_Penalty>
-0

> <r_epik_Charging_Adjusted_Penalty>
0

> <i_epik_Tot_Q>
0

> <i_epik_Tot_abs_Q>
0

> <r_epik_Metal_State_Penalty>
-0

> <b_epik_Metal_Only>
0

> <s_lp_Force_Field>
OPLS_2005

> <r_lp_Energy>
16.7335

> <b_lp_Chiralities_Consistent>
1

> <s_lp_Variant>
AV-unprocessed.smi:2304-2

> <Gold.Version>
5.8.1

> <Gold.Id.Protein>
6NUR|6NUR_protein|mol2

> <Gold.PLP.Fitness>
47.6226

> <Gold.PLP.PLP>
-39.8944

> <Gold.PLP.part.hbond>
-3.0000

> <Gold.PLP.part.metal>
0.0000

> <Gold.PLP.part.buried>
-4.6114

> <Gold.PLP.part.nonpolar>
-32.4158

> <Gold.PLP.part.repulsive>
0.2528

> <Gold.PLP.ligand.clash>
0.0000

> <Gold.PLP.ligand.torsion>
1.1758

> <Gold.PLP.Chemscore.Hbond>
3.0000

> <Gold.PLP.Chemscore.CHOScore>
0.0000

> <Gold.PLP.Chemscore.Metal>
0.0000

> <Gold.Chemscore.Hbonds>
donor molecule, donor type, donor heavy atom, donor atom, acceptor molecule, acceptor atom, score
      L1  H     5    25       P1  8028  1.00
      L1  H     8    26       P1  8028  1.00
      P1  H  7989  7998       L1     2  0.59

> <Gold.PLP.Chemscore.Internal.Correction>
1.0798

> <Gold.Rescore>
     Score         DG    S(hbond)    S(metal)    S(lipo)     H(rot)  DE(clash)    DE(int)     intcor
     18.76     -21.21       2.79        0.00      90.17       1.61       0.14       2.30       ----

> <Gold.Chemscore.Fitness>
18.7621

> <Gold.Chemscore.DG>
-21.2090

> <Gold.Chemscore.ZeroCoef>
-5.4800

> <Gold.Chemscore.Hbond>
2.7879

> <Gold.Chemscore.Metal>
0.0000

> <Gold.Chemscore.Lipo>
90.1679

> <Gold.Chemscore.Internal_Hbond>
0.0000

> <Gold.Chemscore.DEClash>
0.1446

> <Gold.Chemscore.DEInternal>
2.3023

> <Gold.Chemscore.Rot>
1.6142

> <Gold.Chemscore.Internal.Correction>
   9.000000E+99

> <Gold.Chemscore.Hbonds>
donor molecule, donor type, donor heavy atom, donor atom, acceptor molecule, acceptor atom, score
      L1  H     5    25       P1  8028  0.96
      L1  H     8    26       P1  8028  0.86
      P1  H  7989  7998       L1     2  0.48

> <Gold.Chemscore.Hbond.Weighted>
-9.3116

> <Gold.Chemscore.Metal.Weighted>
-0.0000

> <Gold.Chemscore.Lipo.Weighted>
-10.5496

> <Gold.Chemscore.Internal_Hbond.Weighted>
0.0000

> <Gold.Chemscore.DEClash.Weighted>
0.1446

> <Gold.Chemscore.DEInternal.Weighted>
2.3023

> <Gold.Chemscore.Rot.Weighted>
4.1323

> <Gold.Chemscore.Internal.Correction.Weighted>
   9.000000E+99

> <Gold.Protein.RotatedTorsions>
[ 6907 6896 6895 6894 ] final    7.36 input  -60.11 | X-H torsion
[ 7974 7965 7964 7962 ] final   36.80 input  175.53 | X-H torsion
[ 8008 7997 7996 7995 ] final   55.35 input   59.86 | X-H torsion
[ 10167 10162 10161 10158 ] final   57.99 input  -65.29 | X-H torsion
[ 10718 10713 10712 10709 ] final   32.39 input   66.30 | X-H torsion
[ 10763 10752 10751 10750 ] final -145.74 input  -60.55 | X-H torsion
[ 11005 11000 10999 10996 ] final -147.25 input  -57.11 | X-H torsion

> <Gold.Protein.ActiveResidues>
 VAL166  LYS551  ARG553  GLY616  TRP617  ASP618  TYR619  PRO620  LYS621  CYS622 
 ASP623  PHE694  ASN695  SER759  ASP760  ASP761  ALA762  ILE779  LEU786  VAL792 
 PHE793  MET794  SER795  GLU796  ALA797  LYS798  CYS799  TRP800  GLU811  SER814 

> <Gold.Protein.RotatedAtoms>
  151.6887  135.0950  160.0229 H   0  0  0  0  0  0  0  0  0  0  0  0  # atno 6907 bound_to 6896
  152.3792  133.6518  159.6156 H   0  0  0  0  0  0  0  0  0  0  0  0  # atno 6908 bound_to 6896
  150.7733  133.9059  159.3396 H   0  0  0  0  0  0  0  0  0  0  0  0  # atno 6909 bound_to 6896
  146.1184  139.5972  142.9306 H   0  0  0  0  0  0  0  0  0  0  0  0  # atno 7974 bound_to 7965
  155.4997  140.3474  155.4369 H   0  0  0  0  0  0  0  0  0  0  0  0  # atno 8008 bound_to 7997
  156.0922  140.1413  156.9605 H   0  0  0  0  0  0  0  0  0  0  0  0  # atno 8009 bound_to 7997
  154.4642  140.0924  156.6952 H   0  0  0  0  0  0  0  0  0  0  0  0  # atno 8010 bound_to 7997
  140.1921  144.4075  150.6566 H   0  0  0  0  0  0  0  0  0  0  0  0  # atno 10167 bound_to 10162
  157.2846  130.7272  149.6576 H   0  0  0  0  0  0  0  0  0  0  0  0  # atno 10718 bound_to 10713
  154.8369  135.3405  154.6552 H   0  0  0  0  0  0  0  0  0  0  0  0  # atno 10763 bound_to 10752
  153.7166  135.6960  153.5028 H   0  0  0  0  0  0  0  0  0  0  0  0  # atno 10764 bound_to 10752
  153.2412  135.4384  155.0653 H   0  0  0  0  0  0  0  0  0  0  0  0  # atno 10765 bound_to 10752
  140.7736  134.3160  157.5067 H   0  0  0  0  0  0  0  0  0  0  0  0  # atno 11005 bound_to 11000
  145.5517  141.0412  143.2275 LP  0  0  0  0  0  0  0  0  0  0  0  0  # atno 17320 bound_to 7965
  144.7575  139.7039  143.7248 LP  0  0  0  0  0  0  0  0  0  0  0  0  # atno 17321 bound_to 7965
  140.6449  143.2211  151.6209 LP  0  0  0  0  0  0  0  0  0  0  0  0  # atno 17342 bound_to 10162
  139.5252  144.3082  152.1015 LP  0  0  0  0  0  0  0  0  0  0  0  0  # atno 17343 bound_to 10162
  155.9665  130.4327  150.4977 LP  0  0  0  0  0  0  0  0  0  0  0  0  # atno 17370 bound_to 10713
  157.2927  131.0629  151.2122 LP  0  0  0  0  0  0  0  0  0  0  0  0  # atno 17371 bound_to 10713
  139.8752  134.9276  156.3429 LP  0  0  0  0  0  0  0  0  0  0  0  0  # atno 17394 bound_to 11000
  140.9550  133.7426  156.0323 LP  0  0  0  0  0  0  0  0  0  0  0  0  # atno 17395 bound_to 11000

$$$$
