AV-unprocessed.smi:2225|AV-procd|sdf|9000|dock9
  -GOLD-   2272012213D 1   1.00000     0.00000
 Structure written by MMmdl.
 33 34  0  0  0  0  0  0  0  0  1 V2000
  152.6328  139.5888  156.1850 O   0  0  0  0  0  0  0  0  0  0  0  0
  151.6373  139.7410  156.8916 C   0  0  0  0  0  0  0  0  0  0  0  0
  151.7643  139.5400  158.4118 C   0  0  0  0  0  0  0  0  0  0  0  0
  152.2251  140.7237  159.1613 N   0  0  0  0  0  0  0  0  0  0  0  0
  153.2125  140.5083  160.1392 C   0  0  0  0  0  0  0  0  0  0  0  0
  153.7047  141.5114  160.8782 C   0  0  0  0  0  0  0  0  0  0  0  0
  153.1920  142.8405  160.6515 C   0  0  0  0  0  0  0  0  0  0  0  0
  152.2451  143.0799  159.7149 C   0  0  0  0  0  0  0  0  0  0  0  0
  151.6947  144.4812  159.4601 C   0  0  0  0  0  0  0  0  0  0  0  0
  152.0913  144.9331  158.2696 F   0  0  0  0  0  0  0  0  0  0  0  0
  150.3614  144.4696  159.4786 F   0  0  0  0  0  0  0  0  0  0  0  0
  152.1083  145.3508  160.3832 F   0  0  0  0  0  0  0  0  0  0  0  0
  151.7170  141.9678  158.8984 C   0  0  0  0  0  0  0  0  0  0  0  0
  150.8677  142.1380  158.0225 O   0  0  0  0  0  0  0  0  0  0  0  0
  150.4386  140.0838  156.3906 N   0  0  0  0  0  0  0  0  0  0  0  0
  150.1549  140.3239  154.9801 C   0  0  1  0  0  0  0  0  0  0  0  0
  149.0590  139.3960  154.4602 C   0  0  0  0  0  0  0  0  0  0  0  0
  147.9261  140.3409  154.0656 C   0  0  0  0  0  0  0  0  0  0  0  0
  148.5984  141.5460  153.7440 O   0  0  0  0  0  0  0  0  0  0  0  0
  149.5917  141.7316  154.7391 C   0  0  0  0  0  0  0  0  0  0  0  0
  150.8030  139.1945  158.7959 H   0  0  0  0  0  0  0  0  0  0  0  0
  152.4458  138.7050  158.5822 H   0  0  0  0  0  0  0  0  0  0  0  0
  153.5454  139.4855  160.2414 H   0  0  0  0  0  0  0  0  0  0  0  0
  154.4663  141.3300  161.6221 H   0  0  0  0  0  0  0  0  0  0  0  0
  153.5824  143.6493  161.2511 H   0  0  0  0  0  0  0  0  0  0  0  0
  149.6687  140.1925  157.0347 H   0  0  0  0  0  0  0  0  0  0  0  0
  151.0573  140.1725  154.3847 H   0  0  0  0  0  0  0  0  0  0  0  0
  149.4193  138.8629  153.5797 H   0  0  0  0  0  0  0  0  0  0  0  0
  148.7321  138.6496  155.1857 H   0  0  0  0  0  0  0  0  0  0  0  0
  147.3390  139.9689  153.2257 H   0  0  0  0  0  0  0  0  0  0  0  0
  147.2529  140.5127  154.9073 H   0  0  0  0  0  0  0  0  0  0  0  0
  149.1180  142.1335  155.6367 H   0  0  0  0  0  0  0  0  0  0  0  0
  150.3557  142.4384  154.4146 H   0  0  0  0  0  0  0  0  0  0  0  0
  1  2  2  0  0  0  0
  2  3  1  0  0  0  0
  2 15  1  0  0  0  0
  3  4  1  0  0  0  0
  3 21  1  0  0  0  0
  3 22  1  0  0  0  0
  4 13  1  0  0  0  0
  4  5  1  0  0  0  0
  5  6  2  0  0  0  0
  5 23  1  0  0  0  0
  6  7  1  0  0  0  0
  6 24  1  0  0  0  0
  7  8  2  0  0  0  0
  7 25  1  0  0  0  0
  8  9  1  0  0  0  0
  8 13  1  0  0  0  0
  9 10  1  0  0  0  0
  9 11  1  0  0  0  0
  9 12  1  0  0  0  0
 13 14  2  0  0  0  0
 15 16  1  0  0  0  0
 15 26  1  0  0  0  0
 16 20  1  0  0  0  0
 16 17  1  0  0  0  0
 16 27  1  0  0  0  0
 17 18  1  0  0  0  0
 17 28  1  0  0  0  0
 17 29  1  0  0  0  0
 18 19  1  0  0  0  0
 18 30  1  0  0  0  0
 18 31  1  0  0  0  0
 19 20  1  0  0  0  0
 20 32  1  0  0  0  0
 20 33  1  0  0  0  0
M  END
> <s_m_source_file>
AV-unprocessed.smi

> <i_m_source_file_index>
2225

> <i_lp_mmshare_version>
43012

> <i_f3d_flags>
0

> <s_epik_input>
W0NIMl0xT1tDSDJdW0NIMl1bQ0BIXTFbTkhdQyg9TylbQ0gyXW4yW2NIXVtjSF1bY0hdYyhDKEYpKEYpRiljMj1P

> <s_epik_cmdline>
J2VwaWtfcHl0aG9uJywgJy1waCcsICc3LjAnLCAnLXRuJywgJzgnLCAnLW1hJywgJzIwMCcsICctbWV0YWxfYmluZGluZycsICctaW1hZScsICc8aW5maWxlLm1hZT4nLCAnLW9tYWUnLCAnPG91dGZpbGUubWFlPic=

> <r_lp_tautomer_probability>
1

> <r_epik_Ionization_Penalty>
3.32109e-08

> <r_epik_Ionization_Penalty_Charging>
1.91399e-09

> <r_epik_Ionization_Penalty_Neutral>
3.1297e-08

> <r_epik_State_Penalty>
-0

> <r_epik_Charging_Adjusted_Penalty>
1.91399e-09

> <i_epik_Tot_Q>
0

> <i_epik_Tot_abs_Q>
0

> <r_epik_Metal_State_Penalty>
-0

> <b_epik_Metal_Only>
0

> <s_lp_Force_Field>
OPLS_2005

> <r_lp_Energy>
24.9921

> <b_lp_Chiralities_Consistent>
1

> <s_lp_Variant>
AV-unprocessed.smi:2225-2

> <Gold.Version>
5.8.1

> <Gold.Id.Protein>
6NUR|6NUR_protein|mol2

> <Gold.PLP.Fitness>
49.3284

> <Gold.PLP.PLP>
-46.8916

> <Gold.PLP.part.hbond>
-2.0000

> <Gold.PLP.part.metal>
0.0000

> <Gold.PLP.part.buried>
-4.4647

> <Gold.PLP.part.nonpolar>
-40.1271

> <Gold.PLP.part.repulsive>
0.5291

> <Gold.PLP.ligand.clash>
0.0963

> <Gold.PLP.ligand.torsion>
0.7935

> <Gold.PLP.Chemscore.Hbond>
1.2530

> <Gold.PLP.Chemscore.CHOScore>
0.0000

> <Gold.PLP.Chemscore.Metal>
0.0000

> <Gold.Chemscore.Hbonds>
donor molecule, donor type, donor heavy atom, donor atom, acceptor molecule, acceptor atom, score
      P1  H  7997  8009       L1     1  1.00
      P1  H  8011  8017       L1    19  0.37

> <Gold.PLP.Chemscore.Internal.Correction>
0.3614

> <Gold.Rescore>
     Score         DG    S(hbond)    S(metal)    S(lipo)     H(rot)  DE(clash)    DE(int)     intcor
     10.92     -14.31       1.00        0.00      82.78       1.64       0.02       3.37       ----

> <Gold.Chemscore.Fitness>
10.9245

> <Gold.Chemscore.DG>
-14.3130

> <Gold.Chemscore.ZeroCoef>
-5.4800

> <Gold.Chemscore.Hbond>
1.0008

> <Gold.Chemscore.Metal>
0.0000

> <Gold.Chemscore.Lipo>
82.7842

> <Gold.Chemscore.Internal_Hbond>
0.0000

> <Gold.Chemscore.DEClash>
0.0195

> <Gold.Chemscore.DEInternal>
3.3690

> <Gold.Chemscore.Rot>
1.6389

> <Gold.Chemscore.Internal.Correction>
   9.000000E+99

> <Gold.Chemscore.Hbonds>
donor molecule, donor type, donor heavy atom, donor atom, acceptor molecule, acceptor atom, score
      P1  H  7997  8009       L1     1  1.00
      P1  H  8011  8017       L1    19  0.02

> <Gold.Chemscore.Hbond.Weighted>
-3.3428

> <Gold.Chemscore.Metal.Weighted>
-0.0000

> <Gold.Chemscore.Lipo.Weighted>
-9.6858

> <Gold.Chemscore.Internal_Hbond.Weighted>
0.0000

> <Gold.Chemscore.DEClash.Weighted>
0.0195

> <Gold.Chemscore.DEInternal.Weighted>
3.3690

> <Gold.Chemscore.Rot.Weighted>
4.1956

> <Gold.Chemscore.Internal.Correction.Weighted>
   9.000000E+99

> <Gold.Protein.RotatedTorsions>
[ 6907 6896 6895 6894 ] final   25.90 input  -60.11 | X-H torsion
[ 7974 7965 7964 7962 ] final  103.67 input  175.53 | X-H torsion
[ 8008 7997 7996 7995 ] final -162.88 input   59.86 | X-H torsion
[ 10167 10162 10161 10158 ] final -115.33 input  -65.29 | X-H torsion
[ 10718 10713 10712 10709 ] final -122.67 input   66.30 | X-H torsion
[ 10763 10752 10751 10750 ] final -136.11 input  -60.55 | X-H torsion
[ 11005 11000 10999 10996 ] final  145.15 input  -57.11 | X-H torsion

> <Gold.Protein.ActiveResidues>
 VAL166  LYS551  ARG553  GLY616  TRP617  ASP618  TYR619  PRO620  LYS621  CYS622 
 ASP623  PHE694  ASN695  SER759  ASP760  ASP761  ALA762  ILE779  LEU786  VAL792 
 PHE793  MET794  SER795  GLU796  ALA797  LYS798  CYS799  TRP800  GLU811  SER814 

> <Gold.Protein.RotatedAtoms>
  151.9794  135.0036  160.0556 H   0  0  0  0  0  0  0  0  0  0  0  0  # atno 6907 bound_to 6896
  152.1710  133.4639  159.4917 H   0  0  0  0  0  0  0  0  0  0  0  0  # atno 6908 bound_to 6896
  150.6902  134.1870  159.4313 H   0  0  0  0  0  0  0  0  0  0  0  0  # atno 6909 bound_to 6896
  145.3429  139.2458  143.3599 H   0  0  0  0  0  0  0  0  0  0  0  0  # atno 7974 bound_to 7965
  155.8132  140.0908  157.1892 H   0  0  0  0  0  0  0  0  0  0  0  0  # atno 8008 bound_to 7997
  154.3979  140.1450  156.3471 H   0  0  0  0  0  0  0  0  0  0  0  0  # atno 8009 bound_to 7997
  155.8343  140.3441  155.5594 H   0  0  0  0  0  0  0  0  0  0  0  0  # atno 8010 bound_to 7997
  140.0913  143.4697  152.1868 H   0  0  0  0  0  0  0  0  0  0  0  0  # atno 10167 bound_to 10162
  156.1438  130.6485  150.9811 H   0  0  0  0  0  0  0  0  0  0  0  0  # atno 10718 bound_to 10713
  154.8690  135.3682  154.5007 H   0  0  0  0  0  0  0  0  0  0  0  0  # atno 10763 bound_to 10752
  153.5648  135.7022  153.5536 H   0  0  0  0  0  0  0  0  0  0  0  0  # atno 10764 bound_to 10752
  153.3595  135.4050  155.1671 H   0  0  0  0  0  0  0  0  0  0  0  0  # atno 10765 bound_to 10752
  140.0689  134.9163  157.1311 H   0  0  0  0  0  0  0  0  0  0  0  0  # atno 11005 bound_to 11000
  146.3000  140.4030  142.8707 LP  0  0  0  0  0  0  0  0  0  0  0  0  # atno 17320 bound_to 7965
  144.8776  140.7357  143.6007 LP  0  0  0  0  0  0  0  0  0  0  0  0  # atno 17321 bound_to 7965
  139.5723  144.7469  151.3857 LP  0  0  0  0  0  0  0  0  0  0  0  0  # atno 17342 bound_to 10162
  140.7027  143.7591  150.7430 LP  0  0  0  0  0  0  0  0  0  0  0  0  # atno 17343 bound_to 10162
  157.6598  131.0883  150.7864 LP  0  0  0  0  0  0  0  0  0  0  0  0  # atno 17370 bound_to 10713
  156.7937  130.4898  149.5380 LP  0  0  0  0  0  0  0  0  0  0  0  0  # atno 17371 bound_to 10713
  140.3657  134.2445  155.7182 LP  0  0  0  0  0  0  0  0  0  0  0  0  # atno 17394 bound_to 11000
  141.2004  133.7989  157.0492 LP  0  0  0  0  0  0  0  0  0  0  0  0  # atno 17395 bound_to 11000

$$$$
