#       Name:                AV-unprocessed.smi:1488
#       Creating user name   scv26
#       Creation time:       Fri Mar 27 06:12:44 2020


#       File generated by GOLD software.
#

@<TRIPOS>MOLECULE
AV-unprocessed.smi:1488
    41    42     1
SMALL
NO_CHARGES


@<TRIPOS>ATOM
      1 ****        -6.6235  -1.4626  -0.4852 C.3            1 S1                 0.0000
      2 ****        -5.3176  -0.7611  -0.3320 C.2            1 S1                 0.0000
      3 ****        -4.0729  -1.1844   0.0412 C.2            1 S1                 0.0000
      4 ****        -3.2980   0.0038  -0.0257 C.2            1 S1                 0.0000
      5 ****        -1.9172  -0.0094   0.2968 N.am           1 S1                 0.0000
      6 ****        -1.0608   1.0257   0.2728 C.2            1 S1                 0.0000
      7 ****        -1.3496   2.1793  -0.0468 O.2            1 S1                 0.0000
      8 ****         0.1708   0.6447   0.6405 N.am           1 S1                 0.0000
      9 ****         1.3425   1.5162   0.7130 C.3            1 S1                 0.0000
     10 ****         1.9676   1.7379  -0.6802 C.3            1 S1                 0.0000
     11 ****         2.6297   0.4625  -1.2305 C.3            1 S1                 0.0000
     12 ****         3.6823  -0.1041  -0.2539 C.3            1 S1                 0.0000
     13 ****         4.3557  -1.3778  -0.8054 C.3            1 S1                 0.0000
     14 ****         3.4605  -2.3511  -0.9769 F              1 S1                 0.0000
     15 ****         4.9382  -1.1169  -1.9757 F              1 S1                 0.0000
     16 ****         5.2946  -1.8006   0.0412 F              1 S1                 0.0000
     17 ****         3.0474  -0.3423   1.1328 C.3            1 S1                 0.0000
     18 ****         2.3819   0.9303   1.6868 C.3            1 S1                 0.0000
     19 ****        -4.0050   1.0569  -0.4059 N.2            1 S1                 0.0000
     20 ****        -5.3033   0.5722  -0.6036 O.3            1 S1                 0.0000
     21 ****        -6.4785  -2.5395  -0.5722 H              1 S1                 0.0000
     22 ****        -7.1462  -1.1195  -1.3782 H              1 S1                 0.0000
     23 ****        -7.2649  -1.2753   0.3759 H              1 S1                 0.0000
     24 ****        -3.7698  -2.1834   0.3174 H              1 S1                 0.0000
     25 ****        -1.5413  -0.9034   0.5761 H              1 S1                 0.0000
     26 ****         0.3134  -0.3242   0.8853 H              1 S1                 0.0000
     27 ****         1.0214   2.4815   1.1089 H              1 S1                 0.0000
     28 ****         1.2169   2.1012  -1.3831 H              1 S1                 0.0000
     29 ****         2.7188   2.5257  -0.6121 H              1 S1                 0.0000
     30 ****         1.8653  -0.2893  -1.4299 H              1 S1                 0.0000
     31 ****         3.0940   0.6866  -2.1913 H              1 S1                 0.0000
     32 ****         4.4614   0.6505  -0.1350 H              1 S1                 0.0000
     33 ****         2.3096  -1.1426   1.0688 H              1 S1                 0.0000
     34 ****         3.8063  -0.6845   1.8366 H              1 S1                 0.0000
     35 ****         3.1522   1.6784   1.8793 H              1 S1                 0.0000
     36 ****         1.9186   0.7196   2.6517 H              1 S1                 0.0000
     37 ****        -2.2860   2.4039  -0.3164 LP             1 S1                 0.0000
     38 ****        -0.6477   2.8915  -0.0368 LP             1 S1                 0.0000
     39 ****        -3.6815   1.9954  -0.5259 LP             1 S1                 0.0000
     40 ****        -5.9364   1.0469   0.0078 LP             1 S1                 0.0000
     41 ****        -5.5787   0.7252  -1.5527 LP             1 S1                 0.0000
@<TRIPOS>BOND
    1    1    2 1     
    2    1   21 1     
    3    1   22 1     
    4    1   23 1     
    5    2   20 1     
    6    2    3 2     
    7    3    4 1     
    8    3   24 1     
    9    4    5 1     
   10    4   19 2     
   11    5    6 am    
   12    5   25 1     
   13    6    7 2     
   14    6    8 am    
   15    8    9 1     
   16    8   26 1     
   17    9   18 1     
   18    9   10 1     
   19    9   27 1     
   20   10   11 1     
   21   10   28 1     
   22   10   29 1     
   23   11   12 1     
   24   11   30 1     
   25   11   31 1     
   26   12   13 1     
   27   12   17 1     
   28   12   32 1     
   29   13   14 1     
   30   13   15 1     
   31   13   16 1     
   32   17   18 1     
   33   17   33 1     
   34   17   34 1     
   35   18   35 1     
   36   18   36 1     
   37   19   20 1     
   38    7   37 1     
   39    7   38 1     
   40   19   39 1     
   41   20   40 1     
   42   20   41 1     
@<TRIPOS>SUBSTRUCTURE
      1 S1             1
@<TRIPOS>SET
LONE_PAIRS      STATIC     ATOMS    <user>   **** ""
5 37 38 39 40 41
DONOR_HYDROGENS      STATIC     ATOMS    <user>   **** ""
2 25 26
ATOM$BLUE        STATIC     ATOMS    COLORGROUP SYSTEM
5 37 38 39 40 41
ATOM$RED        STATIC     ATOMS    COLORGROUP SYSTEM
2 25 26
