AV-unprocessed.smi:2281|AV-procd|sdf|9194|dock8
  -GOLD-   2272012413D 1   1.00000     0.00000
 Structure written by MMmdl.
 40 41  0  0  0  0  0  0  0  0  1 V2000
  147.7613  139.0203  153.7727 C   0  0  0  0  0  0  0  0  0  0  0  0
  148.8448  139.6754  154.6106 C   0  0  0  0  0  0  0  0  0  0  0  0
  148.9900  141.0545  154.4393 N   0  0  0  0  0  0  0  0  0  0  0  0
  149.8725  141.7004  155.1284 C   0  0  0  0  0  0  0  0  0  0  0  0
  150.7033  141.0530  156.0618 N   0  0  0  0  0  0  0  0  0  0  0  0
  151.6596  141.8964  156.8114 C   0  0  0  0  0  0  0  0  0  0  0  0
  151.0128  142.8350  157.8756 C   0  0  2  0  0  0  0  0  0  0  0  0
  149.5064  142.5244  158.0050 C   0  0  0  0  0  0  0  0  0  0  0  0
  151.0083  144.1422  157.3292 O   0  0  0  0  0  0  0  0  0  0  0  0
  151.7135  142.7708  159.2416 C   0  0  0  0  0  0  0  0  0  0  0  0
  151.4855  143.7602  160.2273 C   0  0  0  0  0  0  0  0  0  0  0  0
  152.1569  143.7070  161.4629 C   0  0  0  0  0  0  0  0  0  0  0  0
  153.0655  142.6669  161.7303 C   0  0  0  0  0  0  0  0  0  0  0  0
  153.3084  141.6726  160.7591 C   0  0  0  0  0  0  0  0  0  0  0  0
  154.2964  140.5447  161.0152 C   0  0  0  0  0  0  0  0  0  0  0  0
  153.7131  139.3713  160.7705 F   0  0  0  0  0  0  0  0  0  0  0  0
  155.3421  140.6823  160.2006 F   0  0  0  0  0  0  0  0  0  0  0  0
  154.7346  140.5422  162.2746 F   0  0  0  0  0  0  0  0  0  0  0  0
  152.6336  141.7340  159.5221 C   0  0  0  0  0  0  0  0  0  0  0  0
  150.6584  139.7023  156.2521 C   0  0  0  0  0  0  0  0  0  0  0  0
  151.4279  139.1310  157.0266 O   0  0  0  0  0  0  0  0  0  0  0  0
  149.6334  138.9842  155.4778 C   0  0  0  0  0  0  0  0  0  0  0  0
  149.5163  137.4830  155.7115 C   0  0  0  0  0  0  0  0  0  0  0  0
  148.1894  138.2543  153.1255 H   0  0  0  0  0  0  0  0  0  0  0  0
  147.2551  139.7485  153.1377 H   0  0  0  0  0  0  0  0  0  0  0  0
  147.0110  138.5570  154.4138 H   0  0  0  0  0  0  0  0  0  0  0  0
  150.0172  142.7780  155.0345 H   0  0  0  0  0  0  0  0  0  0  0  0
  152.4424  141.2824  157.2619 H   0  0  0  0  0  0  0  0  0  0  0  0
  152.2064  142.5188  156.1000 H   0  0  0  0  0  0  0  0  0  0  0  0
  149.3217  141.5062  158.3465 H   0  0  0  0  0  0  0  0  0  0  0  0
  148.9948  142.6299  157.0471 H   0  0  0  0  0  0  0  0  0  0  0  0
  149.0216  143.1994  158.7119 H   0  0  0  0  0  0  0  0  0  0  0  0
  150.2577  144.2296  156.7618 H   0  0  0  0  0  0  0  0  0  0  0  0
  150.8043  144.5780  160.0450 H   0  0  0  0  0  0  0  0  0  0  0  0
  151.9770  144.4698  162.2061 H   0  0  0  0  0  0  0  0  0  0  0  0
  153.5753  142.6446  162.6820 H   0  0  0  0  0  0  0  0  0  0  0  0
  152.8455  140.9804  158.7790 H   0  0  0  0  0  0  0  0  0  0  0  0
  149.2712  137.2843  156.7554 H   0  0  0  0  0  0  0  0  0  0  0  0
  150.4636  136.9915  155.4865 H   0  0  0  0  0  0  0  0  0  0  0  0
  148.7496  137.0107  155.0995 H   0  0  0  0  0  0  0  0  0  0  0  0
  1  2  1  0  0  0  0
  1 24  1  0  0  0  0
  1 25  1  0  0  0  0
  1 26  1  0  0  0  0
  2 22  2  0  0  0  0
  2  3  1  0  0  0  0
  3  4  2  0  0  0  0
  4  5  1  0  0  0  0
  4 27  1  0  0  0  0
  5  6  1  0  0  0  0
  5 20  1  0  0  0  0
  6  7  1  0  0  0  0
  6 28  1  0  0  0  0
  6 29  1  0  0  0  0
  7  8  1  0  0  0  0
  7  9  1  0  0  0  0
  7 10  1  0  0  0  0
  8 30  1  0  0  0  0
  8 31  1  0  0  0  0
  8 32  1  0  0  0  0
  9 33  1  0  0  0  0
 10 19  1  0  0  0  0
 10 11  2  0  0  0  0
 11 12  1  0  0  0  0
 11 34  1  0  0  0  0
 12 13  2  0  0  0  0
 12 35  1  0  0  0  0
 13 14  1  0  0  0  0
 13 36  1  0  0  0  0
 14 15  1  0  0  0  0
 14 19  2  0  0  0  0
 15 16  1  0  0  0  0
 15 17  1  0  0  0  0
 15 18  1  0  0  0  0
 19 37  1  0  0  0  0
 20 21  2  0  0  0  0
 20 22  1  0  0  0  0
 22 23  1  0  0  0  0
 23 38  1  0  0  0  0
 23 39  1  0  0  0  0
 23 40  1  0  0  0  0
M  END
> <s_m_source_file>
AV-unprocessed.smi

> <i_m_source_file_index>
2281

> <i_lp_mmshare_version>
43012

> <i_f3d_flags>
0

> <s_epik_input>
W0NIM11jMW5bY0hdbihjKD1PKWMxW0NIM10pW0NIMl1bQ0BAXShbQ0gzXSkoW09IXSljMltjSF1bY0hdW2NIXWMoQyhGKShGKUYpW2NIXTI=

> <s_epik_cmdline>
J2VwaWtfcHl0aG9uJywgJy1waCcsICc3LjAnLCAnLXRuJywgJzgnLCAnLW1hJywgJzIwMCcsICctbWV0YWxfYmluZGluZycsICctaW1hZScsICc8aW5maWxlLm1hZT4nLCAnLW9tYWUnLCAnPG91dGZpbGUubWFlPic=

> <r_lp_tautomer_probability>
1

> <r_epik_Ionization_Penalty>
5.68222e-05

> <r_epik_Ionization_Penalty_Charging>
9.07816e-08

> <r_epik_Ionization_Penalty_Neutral>
5.67314e-05

> <r_epik_State_Penalty>
-0

> <r_epik_Charging_Adjusted_Penalty>
9.07816e-08

> <i_epik_Tot_Q>
0

> <i_epik_Tot_abs_Q>
0

> <r_epik_Metal_State_Penalty>
-0

> <b_epik_Metal_Only>
0

> <s_lp_Force_Field>
OPLS_2005

> <r_lp_Energy>
21.2776

> <b_lp_Chiralities_Consistent>
1

> <s_lp_Variant>
AV-unprocessed.smi:2281-2

> <Gold.Version>
5.8.1

> <Gold.Id.Protein>
6NUR|6NUR_protein|mol2

> <Gold.PLP.Fitness>
47.2483

> <Gold.PLP.PLP>
-44.4436

> <Gold.PLP.part.hbond>
-1.1458

> <Gold.PLP.part.metal>
0.0000

> <Gold.PLP.part.buried>
-2.8711

> <Gold.PLP.part.nonpolar>
-39.4653

> <Gold.PLP.part.repulsive>
0.1492

> <Gold.PLP.ligand.clash>
0.0000

> <Gold.PLP.ligand.torsion>
1.7358

> <Gold.PLP.Chemscore.Hbond>
1.0000

> <Gold.PLP.Chemscore.CHOScore>
1.0000

> <Gold.PLP.Chemscore.Metal>
0.0000

> <Gold.Chemscore.Hbonds>
donor molecule, donor type, donor heavy atom, donor atom, acceptor molecule, acceptor atom, score
      L1  H     9    33       P1  8028  1.00
      L1  C     4    27       P1  8028  1.00

> <Gold.PLP.Chemscore.Internal.Correction>
0.2763

> <Gold.Rescore>
     Score         DG    S(hbond)    S(metal)    S(lipo)     H(rot)  DE(clash)    DE(int)     intcor
     12.88     -16.53       0.95        0.00     112.80       2.09       1.57       2.07       ----

> <Gold.Chemscore.Fitness>
12.8811

> <Gold.Chemscore.DG>
-16.5261

> <Gold.Chemscore.ZeroCoef>
-5.4800

> <Gold.Chemscore.Hbond>
0.9546

> <Gold.Chemscore.Metal>
0.0000

> <Gold.Chemscore.Lipo>
112.8041

> <Gold.Chemscore.Internal_Hbond>
0.0000

> <Gold.Chemscore.DEClash>
1.5733

> <Gold.Chemscore.DEInternal>
2.0717

> <Gold.Chemscore.Rot>
2.0860

> <Gold.Chemscore.Internal.Correction>
   9.000000E+99

> <Gold.Chemscore.Hbonds>
donor molecule, donor type, donor heavy atom, donor atom, acceptor molecule, acceptor atom, score
      L1  H     9    33       P1  8028  0.98

> <Gold.Chemscore.Hbond.Weighted>
-3.1882

> <Gold.Chemscore.Metal.Weighted>
-0.0000

> <Gold.Chemscore.Lipo.Weighted>
-13.1981

> <Gold.Chemscore.Internal_Hbond.Weighted>
0.0000

> <Gold.Chemscore.DEClash.Weighted>
1.5733

> <Gold.Chemscore.DEInternal.Weighted>
2.0717

> <Gold.Chemscore.Rot.Weighted>
5.3402

> <Gold.Chemscore.Internal.Correction.Weighted>
   9.000000E+99

> <Gold.Protein.RotatedTorsions>
[ 6907 6896 6895 6894 ] final  -30.68 input  -60.11 | X-H torsion
[ 7974 7965 7964 7962 ] final  -19.24 input  175.53 | X-H torsion
[ 8008 7997 7996 7995 ] final   48.71 input   59.86 | X-H torsion
[ 10167 10162 10161 10158 ] final  -19.32 input  -65.29 | X-H torsion
[ 10718 10713 10712 10709 ] final  -13.14 input   66.30 | X-H torsion
[ 10763 10752 10751 10750 ] final   46.81 input  -60.55 | X-H torsion
[ 11005 11000 10999 10996 ] final  -38.13 input  -57.11 | X-H torsion

> <Gold.Protein.ActiveResidues>
 VAL166  LYS551  ARG553  GLY616  TRP617  ASP618  TYR619  PRO620  LYS621  CYS622 
 ASP623  PHE694  ASN695  SER759  ASP760  ASP761  ALA762  ILE779  LEU786  VAL792 
 PHE793  MET794  SER795  GLU796  ALA797  LYS798  CYS799  TRP800  GLU811  SER814 

> <Gold.Protein.RotatedAtoms>
  151.1023  134.9979  159.8454 H   0  0  0  0  0  0  0  0  0  0  0  0  # atno 6907 bound_to 6896
  152.5438  134.1935  159.8693 H   0  0  0  0  0  0  0  0  0  0  0  0  # atno 6908 bound_to 6896
  151.1979  133.4584  159.2629 H   0  0  0  0  0  0  0  0  0  0  0  0  # atno 6909 bound_to 6896
  146.1852  140.4033  142.8479 H   0  0  0  0  0  0  0  0  0  0  0  0  # atno 7974 bound_to 7965
  155.3901  140.3433  155.4251 H   0  0  0  0  0  0  0  0  0  0  0  0  # atno 8008 bound_to 7997
  156.1562  140.1586  156.8721 H   0  0  0  0  0  0  0  0  0  0  0  0  # atno 8009 bound_to 7997
  154.5097  140.0793  156.7947 H   0  0  0  0  0  0  0  0  0  0  0  0  # atno 8010 bound_to 7997
  140.7267  143.4830  151.0092 H   0  0  0  0  0  0  0  0  0  0  0  0  # atno 10167 bound_to 10162
  156.6346  130.4911  149.6117 H   0  0  0  0  0  0  0  0  0  0  0  0  # atno 10718 bound_to 10713
  152.9806  135.5996  154.3660 H   0  0  0  0  0  0  0  0  0  0  0  0  # atno 10763 bound_to 10752
  154.3338  135.2768  155.2460 H   0  0  0  0  0  0  0  0  0  0  0  0  # atno 10764 bound_to 10752
  154.4572  135.5975  153.6286 H   0  0  0  0  0  0  0  0  0  0  0  0  # atno 10765 bound_to 10752
  141.0004  133.6958  156.2012 H   0  0  0  0  0  0  0  0  0  0  0  0  # atno 11005 bound_to 11000
  144.8384  140.6818  143.6245 LP  0  0  0  0  0  0  0  0  0  0  0  0  # atno 17320 bound_to 7965
  145.3961  139.1607  143.4203 LP  0  0  0  0  0  0  0  0  0  0  0  0  # atno 17321 bound_to 7965
  139.8529  143.7414  152.3177 LP  0  0  0  0  0  0  0  0  0  0  0  0  # atno 17342 bound_to 10162
  139.7602  144.7508  151.0374 LP  0  0  0  0  0  0  0  0  0  0  0  0  # atno 17343 bound_to 10162
  156.2208  130.6736  151.1366 LP  0  0  0  0  0  0  0  0  0  0  0  0  # atno 17370 bound_to 10713
  157.7190  131.0693  150.6214 LP  0  0  0  0  0  0  0  0  0  0  0  0  # atno 17371 bound_to 10713
  140.6898  134.4678  157.5588 LP  0  0  0  0  0  0  0  0  0  0  0  0  # atno 17394 bound_to 11000
  139.9036  134.8500  156.1795 LP  0  0  0  0  0  0  0  0  0  0  0  0  # atno 17395 bound_to 11000

$$$$
