AV-unprocessed.smi:3029|AV-procd|sdf|11531|dock8
  -GOLD-   2272016473D 1   1.00000     0.00000
 Structure written by MMmdl.
 41 42  0  0  0  0  0  0  0  0  3 V2000
  152.4490  140.0085  155.1913 O   0  0  0  0  0  0  0  0  0  0  0  0
  151.9545  138.9191  155.4814 C   0  0  0  0  0  0  0  0  0  0  0  0
  151.5697  137.9428  154.4571 C   0  0  0  0  0  0  0  0  0  0  0  0
  151.0489  136.7431  154.7820 C   0  0  0  0  0  0  0  0  0  0  0  0
  150.8534  136.3780  156.1719 C   0  0  0  0  0  0  0  0  0  0  0  0
  150.3140  135.0850  156.5318 N   0  3  0  0  0  0  0  0  0  0  0  0
  150.2255  134.7860  157.7189 O   0  0  0  0  0  0  0  0  0  0  0  0
  149.9611  134.3248  155.6360 O   0  5  0  0  0  0  0  0  0  0  0  0
  151.1974  137.2811  157.1110 C   0  0  0  0  0  0  0  0  0  0  0  0
  151.7310  138.5408  156.7767 N   0  0  0  0  0  0  0  0  0  0  0  0
  152.0728  139.4370  157.8886 C   0  0  0  0  0  0  0  0  0  0  0  0
  151.1378  140.6555  157.9225 C   0  0  0  0  0  0  0  0  0  0  0  0
  151.3750  141.4188  159.1378 N   0  0  0  0  0  0  0  0  0  0  0  0
  152.6609  142.1110  159.1039 C   0  0  2  0  0  0  0  0  0  0  0  0
  153.7384  141.1722  159.6869 C   0  0  0  0  0  0  0  0  0  0  0  0
  153.6341  141.0204  161.2148 C   0  0  0  0  0  0  0  0  0  0  0  0
  153.6319  142.3840  161.9182 C   0  0  0  0  0  0  0  0  0  0  0  0
  152.5153  143.2880  161.3752 C   0  0  0  0  0  0  0  0  0  0  0  0
  152.6277  143.4771  159.8468 C   0  0  2  0  0  0  0  0  0  0  0  0
  151.6045  144.4969  159.2951 C   0  0  0  0  0  0  0  0  0  0  0  0
  151.6834  145.6693  159.9254 F   0  0  0  0  0  0  0  0  0  0  0  0
  151.8359  144.7019  157.9982 F   0  0  0  0  0  0  0  0  0  0  0  0
  150.3673  144.0161  159.4189 F   0  0  0  0  0  0  0  0  0  0  0  0
  151.7067  138.1940  153.4154 H   0  0  0  0  0  0  0  0  0  0  0  0
  150.7791  136.0580  153.9918 H   0  0  0  0  0  0  0  0  0  0  0  0
  151.0976  137.1044  158.1726 H   0  0  0  0  0  0  0  0  0  0  0  0
  152.0263  138.8996  158.8379 H   0  0  0  0  0  0  0  0  0  0  0  0
  153.1092  139.7674  157.8009 H   0  0  0  0  0  0  0  0  0  0  0  0
  151.3140  141.2897  157.0528 H   0  0  0  0  0  0  0  0  0  0  0  0
  150.0987  140.3301  157.8835 H   0  0  0  0  0  0  0  0  0  0  0  0
  151.3495  140.7937  159.9308 H   0  0  0  0  0  0  0  0  0  0  0  0
  152.9338  142.2947  158.0633 H   0  0  0  0  0  0  0  0  0  0  0  0
  153.6926  140.1928  159.2083 H   0  0  0  0  0  0  0  0  0  0  0  0
  154.7222  141.5760  159.4441 H   0  0  0  0  0  0  0  0  0  0  0  0
  152.7224  140.4785  161.4694 H   0  0  0  0  0  0  0  0  0  0  0  0
  154.4623  140.4148  161.5835 H   0  0  0  0  0  0  0  0  0  0  0  0
  153.5074  142.2463  162.9927 H   0  0  0  0  0  0  0  0  0  0  0  0
  154.5984  142.8701  161.7787 H   0  0  0  0  0  0  0  0  0  0  0  0
  151.5430  142.8623  161.6259 H   0  0  0  0  0  0  0  0  0  0  0  0
  152.5634  144.2549  161.8767 H   0  0  0  0  0  0  0  0  0  0  0  0
  153.6064  143.9273  159.6711 H   0  0  0  0  0  0  0  0  0  0  0  0
  1  2  2  0  0  0  0
  2 10  1  0  0  0  0
  2  3  1  0  0  0  0
  3  4  2  0  0  0  0
  3 24  1  0  0  0  0
  4  5  1  0  0  0  0
  4 25  1  0  0  0  0
  5  6  1  0  0  0  0
  5  9  2  0  0  0  0
  6  7  2  0  0  0  0
  6  8  1  0  0  0  0
  9 10  1  0  0  0  0
  9 26  1  0  0  0  0
 10 11  1  0  0  0  0
 11 12  1  0  0  0  0
 11 27  1  0  0  0  0
 11 28  1  0  0  0  0
 12 13  1  0  0  0  0
 12 29  1  0  0  0  0
 12 30  1  0  0  0  0
 13 14  1  0  0  0  0
 13 31  1  0  0  0  0
 14 19  1  0  0  0  0
 14 15  1  0  0  0  0
 14 32  1  0  0  0  0
 15 16  1  0  0  0  0
 15 33  1  0  0  0  0
 15 34  1  0  0  0  0
 16 17  1  0  0  0  0
 16 35  1  0  0  0  0
 16 36  1  0  0  0  0
 17 18  1  0  0  0  0
 17 37  1  0  0  0  0
 17 38  1  0  0  0  0
 18 19  1  0  0  0  0
 18 39  1  0  0  0  0
 18 40  1  0  0  0  0
 19 20  1  0  0  0  0
 19 41  1  0  0  0  0
 20 21  1  0  0  0  0
 20 22  1  0  0  0  0
 20 23  1  0  0  0  0
M  CHG  1   6   1
M  CHG  1   8  -1
M  END
> <s_m_source_file>
AV-unprocessed.smi

> <i_m_source_file_index>
3029

> <i_lp_mmshare_version>
43012

> <i_f3d_flags>
0

> <s_epik_input>
Tz1jMVtjSF1bY0hdYyhbTitdKD1PKVtPLV0pW2NIXW4xW0NIMl1bQ0gyXVtOSF1bQ0BASF0yW0NIMl1bQ0gyXVtDSDJdW0NIMl1bQ0BIXTJDKEYpKEYpRg==

> <s_epik_cmdline>
J2VwaWtfcHl0aG9uJywgJy1waCcsICc3LjAnLCAnLXRuJywgJzgnLCAnLW1hJywgJzIwMCcsICctbWV0YWxfYmluZGluZycsICctaW1hZScsICc8aW5maWxlLm1hZT4nLCAnLW9tYWUnLCAnPG91dGZpbGUubWFlPic=

> <r_lp_tautomer_probability>
1

> <r_epik_Ionization_Penalty>
1.65565

> <r_epik_Ionization_Penalty_Charging>
3.32684e-10

> <r_epik_Ionization_Penalty_Neutral>
1.65565

> <r_epik_State_Penalty>
1.75811

> <r_epik_Charging_Adjusted_Penalty>
1.75811

> <i_epik_Tot_Q>
0

> <i_epik_Tot_abs_Q>
2

> <r_epik_Metal_State_Penalty>
1.75811

> <b_epik_Metal_Only>
0

> <s_lp_Force_Field>
OPLS_2005

> <r_lp_Energy>
35.9342

> <b_lp_Chiralities_Consistent>
1

> <s_lp_Variant>
AV-unprocessed.smi:3029-7

> <Gold.Version>
5.8.1

> <Gold.Id.Protein>
6NUR|6NUR_protein|mol2

> <Gold.PLP.Fitness>
59.7867

> <Gold.PLP.PLP>
-53.7563

> <Gold.PLP.part.hbond>
-3.0000

> <Gold.PLP.part.metal>
0.0000

> <Gold.PLP.part.buried>
-6.8425

> <Gold.PLP.part.nonpolar>
-44.5788

> <Gold.PLP.part.repulsive>
0.0778

> <Gold.PLP.ligand.clash>
0.0000

> <Gold.PLP.ligand.torsion>
0.5712

> <Gold.PLP.Chemscore.Hbond>
2.3480

> <Gold.PLP.Chemscore.CHOScore>
0.0000

> <Gold.PLP.Chemscore.Metal>
0.0000

> <Gold.Chemscore.Hbonds>
donor molecule, donor type, donor heavy atom, donor atom, acceptor molecule, acceptor atom, score
      P1  H  6896  6908       L1     7  0.74
      P1  H  7989  7998       L1     1  0.59
      P1  H  7997  8008       L1     1  0.78

> <Gold.PLP.Chemscore.Internal.Correction>
0.1287

> <Gold.Rescore>
     Score         DG    S(hbond)    S(metal)    S(lipo)     H(rot)  DE(clash)    DE(int)     intcor
     18.41     -20.58       2.13        0.00     108.92       1.86       0.07       2.10       ----

> <Gold.Chemscore.Fitness>
18.4052

> <Gold.Chemscore.DG>
-20.5813

> <Gold.Chemscore.ZeroCoef>
-5.4800

> <Gold.Chemscore.Hbond>
2.1303

> <Gold.Chemscore.Metal>
0.0000

> <Gold.Chemscore.Lipo>
108.9186

> <Gold.Chemscore.Internal_Hbond>
0.0000

> <Gold.Chemscore.DEClash>
0.0728

> <Gold.Chemscore.DEInternal>
2.1033

> <Gold.Chemscore.Rot>
1.8584

> <Gold.Chemscore.Internal.Correction>
   9.000000E+99

> <Gold.Chemscore.Hbonds>
donor molecule, donor type, donor heavy atom, donor atom, acceptor molecule, acceptor atom, score
      P1  H  6896  6908       L1     7  0.72
      P1  H  7989  7998       L1     1  0.51
      P1  H  7997  8008       L1     1  0.63

> <Gold.Chemscore.Hbond.Weighted>
-7.1154

> <Gold.Chemscore.Metal.Weighted>
-0.0000

> <Gold.Chemscore.Lipo.Weighted>
-12.7435

> <Gold.Chemscore.Internal_Hbond.Weighted>
0.0000

> <Gold.Chemscore.DEClash.Weighted>
0.0728

> <Gold.Chemscore.DEInternal.Weighted>
2.1033

> <Gold.Chemscore.Rot.Weighted>
4.7576

> <Gold.Chemscore.Internal.Correction.Weighted>
   9.000000E+99

> <Gold.Protein.RotatedTorsions>
[ 6907 6896 6895 6894 ] final  148.32 input  -60.11 | X-H torsion
[ 7974 7965 7964 7962 ] final  -76.59 input  175.53 | X-H torsion
[ 8008 7997 7996 7995 ] final  -18.38 input   59.86 | X-H torsion
[ 10167 10162 10161 10158 ] final  123.90 input  -65.29 | X-H torsion
[ 10718 10713 10712 10709 ] final  109.11 input   66.30 | X-H torsion
[ 10763 10752 10751 10750 ] final  179.18 input  -60.55 | X-H torsion
[ 11005 11000 10999 10996 ] final -144.51 input  -57.11 | X-H torsion

> <Gold.Protein.ActiveResidues>
 VAL166  LYS551  ARG553  GLY616  TRP617  ASP618  TYR619  PRO620  LYS621  CYS622 
 ASP623  PHE694  ASN695  SER759  ASP760  ASP761  ALA762  ILE779  LEU786  VAL792 
 PHE793  MET794  SER795  GLU796  ALA797  LYS798  CYS799  TRP800  GLU811  SER814 

> <Gold.Protein.RotatedAtoms>
  152.1430  133.4475  159.4775 H   0  0  0  0  0  0  0  0  0  0  0  0  # atno 6907 bound_to 6896
  150.6888  134.2282  159.4433 H   0  0  0  0  0  0  0  0  0  0  0  0  # atno 6908 bound_to 6896
  152.0173  134.9842  160.0620 H   0  0  0  0  0  0  0  0  0  0  0  0  # atno 6909 bound_to 6896
  145.6109  140.9387  143.1190 H   0  0  0  0  0  0  0  0  0  0  0  0  # atno 7974 bound_to 7965
  154.4910  140.2117  155.9549 H   0  0  0  0  0  0  0  0  0  0  0  0  # atno 8008 bound_to 7997
  156.1305  140.3198  155.8310 H   0  0  0  0  0  0  0  0  0  0  0  0  # atno 8009 bound_to 7997
  155.4305  140.0503  157.3009 H   0  0  0  0  0  0  0  0  0  0  0  0  # atno 8010 bound_to 7997
  139.5773  144.6969  151.3620 H   0  0  0  0  0  0  0  0  0  0  0  0  # atno 10167 bound_to 10162
  157.6556  131.0907  150.6406 H   0  0  0  0  0  0  0  0  0  0  0  0  # atno 10718 bound_to 10713
  154.5174  135.2792  155.1292 H   0  0  0  0  0  0  0  0  0  0  0  0  # atno 10763 bound_to 10752
  154.2863  135.6275  153.5371 H   0  0  0  0  0  0  0  0  0  0  0  0  # atno 10764 bound_to 10752
  152.9930  135.5663  154.5654 H   0  0  0  0  0  0  0  0  0  0  0  0  # atno 10765 bound_to 10752
  140.8017  134.2849  157.4976 H   0  0  0  0  0  0  0  0  0  0  0  0  # atno 11005 bound_to 11000
  144.7270  139.7844  143.7361 LP  0  0  0  0  0  0  0  0  0  0  0  0  # atno 17320 bound_to 7965
  146.1505  139.4587  143.0052 LP  0  0  0  0  0  0  0  0  0  0  0  0  # atno 17321 bound_to 7965
  140.7054  143.7526  150.7473 LP  0  0  0  0  0  0  0  0  0  0  0  0  # atno 17342 bound_to 10162
  140.1049  143.4753  152.2404 LP  0  0  0  0  0  0  0  0  0  0  0  0  # atno 17343 bound_to 10162
  156.6712  130.4540  149.5656 LP  0  0  0  0  0  0  0  0  0  0  0  0  # atno 17370 bound_to 10713
  156.1996  130.6611  151.1152 LP  0  0  0  0  0  0  0  0  0  0  0  0  # atno 17371 bound_to 10713
  139.8721  134.9433  156.3850 LP  0  0  0  0  0  0  0  0  0  0  0  0  # atno 17394 bound_to 11000
  140.9288  133.7594  155.9998 LP  0  0  0  0  0  0  0  0  0  0  0  0  # atno 17395 bound_to 11000

$$$$
