AV-unprocessed.smi:91|AV-procd|sdf|833|dock9
  -GOLD-   2262017253D 1   1.00000     0.00000
 Structure written by MMmdl.
 60 63  0  0  0  0  0  0  0  0  1 V2000
  153.0678  142.9064  162.1703 C   0  0  0  0  0  0  0  0  0  0  0  0
  153.6218  141.6644  161.7738 O   0  0  0  0  0  0  0  0  0  0  0  0
  153.8552  141.5940  160.3758 C   0  0  0  0  0  0  0  0  0  0  0  0
  152.5627  141.9079  159.6095 C   0  0  2  0  0  0  0  0  0  0  0  0
  152.3567  141.0010  158.3831 C   0  0  0  0  0  0  0  0  0  0  0  0
  151.1732  141.4256  157.6513 N   0  0  0  0  0  0  0  0  0  0  0  0
  150.8179  140.5811  156.6606 C   0  0  0  0  0  0  0  0  0  0  0  0
  150.4040  141.0705  155.4623 N   0  0  0  0  0  0  0  0  0  0  0  0
  150.0574  140.2276  154.4845 C   0  0  0  0  0  0  0  0  0  0  0  0
  150.0531  138.8926  154.4950 N   0  0  0  0  0  0  0  0  0  0  0  0
  150.4725  138.4026  155.6970 C   0  0  0  0  0  0  0  0  0  0  0  0
  150.8674  139.1731  156.8256 C   0  0  0  0  0  0  0  0  0  0  0  0
  151.2244  138.3374  157.8753 N   0  0  0  0  0  0  0  0  0  0  0  0
  151.0507  137.1365  157.3936 C   0  0  0  0  0  0  0  0  0  0  0  0
  150.6094  137.0824  156.0898 N   0  0  0  0  0  0  0  0  0  0  0  0
  150.3451  135.8874  155.3064 C   0  0  0  0  0  0  0  0  0  0  0  0
  150.3689  134.5961  156.1693 C   0  0  2  0  0  0  0  0  0  0  0  0
  151.8180  134.1034  156.3840 C   0  0  0  0  0  0  0  0  0  0  0  0
  151.8449  132.9603  157.2122 O   0  0  0  0  0  0  0  0  0  0  0  0
  149.4900  133.4791  155.5491 C   0  0  2  0  0  0  0  0  0  0  0  0
  149.8443  133.1025  154.1206 C   0  0  0  0  0  0  0  0  0  0  0  0
  148.5856  132.3797  153.6577 C   0  0  0  0  0  0  0  0  0  0  0  0
  147.5104  133.0413  154.3117 O   0  0  0  0  0  0  0  0  0  0  0  0
  148.0103  133.8455  155.3758 C   0  0  0  0  0  0  0  0  0  0  0  0
  151.2443  142.8233  157.2458 C   0  0  0  0  0  0  0  0  0  0  0  0
  151.4561  143.7405  158.4713 C   0  0  0  0  0  0  0  0  0  0  0  0
  151.8188  145.1577  158.0023 C   0  0  0  0  0  0  0  0  0  0  0  0
  150.1995  143.8083  159.3653 C   0  0  0  0  0  0  0  0  0  0  0  0
  152.5914  143.2811  159.2150 O   0  0  0  0  0  0  0  0  0  0  0  0
  152.9083  142.9088  163.2485 H   0  0  0  0  0  0  0  0  0  0  0  0
  152.1054  143.0809  161.6875 H   0  0  0  0  0  0  0  0  0  0  0  0
  153.7371  143.7325  161.9271 H   0  0  0  0  0  0  0  0  0  0  0  0
  154.6290  142.3115  160.0978 H   0  0  0  0  0  0  0  0  0  0  0  0
  154.2184  140.6021  160.1023 H   0  0  0  0  0  0  0  0  0  0  0  0
  151.7346  141.7599  160.3027 H   0  0  0  0  0  0  0  0  0  0  0  0
  153.2251  141.0504  157.7245 H   0  0  0  0  0  0  0  0  0  0  0  0
  152.2480  139.9621  158.6978 H   0  0  0  0  0  0  0  0  0  0  0  0
  149.7386  140.6884  153.5611 H   0  0  0  0  0  0  0  0  0  0  0  0
  151.2432  136.2534  157.9837 H   0  0  0  0  0  0  0  0  0  0  0  0
  149.3876  136.0157  154.8017 H   0  0  0  0  0  0  0  0  0  0  0  0
  151.0825  135.8405  154.5042 H   0  0  0  0  0  0  0  0  0  0  0  0
  149.9564  134.8199  157.1553 H   0  0  0  0  0  0  0  0  0  0  0  0
  152.2842  133.8225  155.4403 H   0  0  0  0  0  0  0  0  0  0  0  0
  152.4354  134.8868  156.8245 H   0  0  0  0  0  0  0  0  0  0  0  0
  152.7317  132.6363  157.2511 H   0  0  0  0  0  0  0  0  0  0  0  0
  149.5540  132.5821  156.1677 H   0  0  0  0  0  0  0  0  0  0  0  0
  150.0032  133.9977  153.5175 H   0  0  0  0  0  0  0  0  0  0  0  0
  150.7312  132.4736  154.0436 H   0  0  0  0  0  0  0  0  0  0  0  0
  148.4670  132.3953  152.5741 H   0  0  0  0  0  0  0  0  0  0  0  0
  148.6033  131.3388  153.9829 H   0  0  0  0  0  0  0  0  0  0  0  0
  147.4326  133.6831  156.2860 H   0  0  0  0  0  0  0  0  0  0  0  0
  147.9005  134.8924  155.0897 H   0  0  0  0  0  0  0  0  0  0  0  0
  152.0722  142.9469  156.5453 H   0  0  0  0  0  0  0  0  0  0  0  0
  150.3340  143.1047  156.7142 H   0  0  0  0  0  0  0  0  0  0  0  0
  151.0196  145.5938  157.4021 H   0  0  0  0  0  0  0  0  0  0  0  0
  152.7241  145.1534  157.3944 H   0  0  0  0  0  0  0  0  0  0  0  0
  151.9968  145.8204  158.8499 H   0  0  0  0  0  0  0  0  0  0  0  0
  149.3679  144.2712  158.8331 H   0  0  0  0  0  0  0  0  0  0  0  0
  150.3877  144.4003  160.2615 H   0  0  0  0  0  0  0  0  0  0  0  0
  149.8602  142.8234  159.6848 H   0  0  0  0  0  0  0  0  0  0  0  0
  1  2  1  0  0  0  0
  1 30  1  0  0  0  0
  1 31  1  0  0  0  0
  1 32  1  0  0  0  0
  2  3  1  0  0  0  0
  3  4  1  0  0  0  0
  3 33  1  0  0  0  0
  3 34  1  0  0  0  0
  4 29  1  0  0  0  0
  4  5  1  0  0  0  0
  4 35  1  0  0  0  0
  5  6  1  0  0  0  0
  5 36  1  0  0  0  0
  5 37  1  0  0  0  0
  6  7  1  0  0  0  0
  6 25  1  0  0  0  0
  7 12  1  0  0  0  0
  7  8  2  0  0  0  0
  8  9  1  0  0  0  0
  9 10  2  0  0  0  0
  9 38  1  0  0  0  0
 10 11  1  0  0  0  0
 11 15  1  0  0  0  0
 11 12  2  0  0  0  0
 12 13  1  0  0  0  0
 13 14  2  0  0  0  0
 14 15  1  0  0  0  0
 14 39  1  0  0  0  0
 15 16  1  0  0  0  0
 16 17  1  0  0  0  0
 16 40  1  0  0  0  0
 16 41  1  0  0  0  0
 17 18  1  0  0  0  0
 17 20  1  0  0  0  0
 17 42  1  0  0  0  0
 18 19  1  0  0  0  0
 18 43  1  0  0  0  0
 18 44  1  0  0  0  0
 19 45  1  0  0  0  0
 20 24  1  0  0  0  0
 20 21  1  0  0  0  0
 20 46  1  0  0  0  0
 21 22  1  0  0  0  0
 21 47  1  0  0  0  0
 21 48  1  0  0  0  0
 22 23  1  0  0  0  0
 22 49  1  0  0  0  0
 22 50  1  0  0  0  0
 23 24  1  0  0  0  0
 24 51  1  0  0  0  0
 24 52  1  0  0  0  0
 25 26  1  0  0  0  0
 25 53  1  0  0  0  0
 25 54  1  0  0  0  0
 26 27  1  0  0  0  0
 26 28  1  0  0  0  0
 26 29  1  0  0  0  0
 27 55  1  0  0  0  0
 27 56  1  0  0  0  0
 27 57  1  0  0  0  0
 28 58  1  0  0  0  0
 28 59  1  0  0  0  0
 28 60  1  0  0  0  0
M  END
> <s_m_source_file>
AV-unprocessed.smi

> <i_m_source_file_index>
91

> <i_lp_mmshare_version>
43012

> <i_f3d_flags>
0

> <s_epik_input>
W0NIM11PW0NIMl1bQ0BASF0oTzEpW0NIMl1OKFtDSDJdQzEoW0NIM10pW0NIM10pYyhuW2NIXW4yKWMoYzIzKW5bY0hdbjNbQ0gyXVtDQEhdKFtDSDJdW09IXSlbQ0BASF00W0NIMl1bQ0gyXU9bQ0gyXTQ=

> <s_epik_cmdline>
J2VwaWtfcHl0aG9uJywgJy1waCcsICc3LjAnLCAnLXRuJywgJzgnLCAnLW1hJywgJzIwMCcsICctbWV0YWxfYmluZGluZycsICctaW1hZScsICc8aW5maWxlLm1hZT4nLCAnLW9tYWUnLCAnPG91dGZpbGUubWFlPic=

> <r_lp_tautomer_probability>
1

> <r_epik_Ionization_Penalty>
8.63591e-05

> <r_epik_Ionization_Penalty_Charging>
0

> <r_epik_Ionization_Penalty_Neutral>
8.63591e-05

> <r_epik_State_Penalty>
-0

> <r_epik_Charging_Adjusted_Penalty>
0

> <i_epik_Tot_Q>
0

> <i_epik_Tot_abs_Q>
0

> <r_epik_Metal_State_Penalty>
-0

> <b_epik_Metal_Only>
0

> <s_lp_Force_Field>
OPLS_2005

> <r_lp_Energy>
49.9364

> <b_lp_Chiralities_Consistent>
1

> <s_lp_Variant>
AV-unprocessed.smi:91-1

> <Gold.Version>
5.8.1

> <Gold.Id.Protein>
6NUR|6NUR_protein|mol2

> <Gold.PLP.Fitness>
47.1059

> <Gold.PLP.PLP>
-43.7988

> <Gold.PLP.part.hbond>
-1.9039

> <Gold.PLP.part.metal>
0.0000

> <Gold.PLP.part.buried>
-6.8096

> <Gold.PLP.part.nonpolar>
-34.8730

> <Gold.PLP.part.repulsive>
0.3373

> <Gold.PLP.ligand.clash>
0.0000

> <Gold.PLP.ligand.torsion>
1.2688

> <Gold.PLP.Chemscore.Hbond>
0.8320

> <Gold.PLP.Chemscore.CHOScore>
1.0000

> <Gold.PLP.Chemscore.Metal>
0.0000

> <Gold.Chemscore.Hbonds>
donor molecule, donor type, donor heavy atom, donor atom, acceptor molecule, acceptor atom, score
      P1  H  6896  6908       L1    19  0.51
      L1  C     9    38       P1  7957  1.00

> <Gold.PLP.Chemscore.Internal.Correction>
0.3486

> <Gold.Rescore>
     Score         DG    S(hbond)    S(metal)    S(lipo)     H(rot)  DE(clash)    DE(int)     intcor
      9.46     -11.93       0.12        0.00     118.00       3.03       0.12       2.35       ----

> <Gold.Chemscore.Fitness>
9.4639

> <Gold.Chemscore.DG>
-11.9304

> <Gold.Chemscore.ZeroCoef>
-5.4800

> <Gold.Chemscore.Hbond>
0.1189

> <Gold.Chemscore.Metal>
0.0000

> <Gold.Chemscore.Lipo>
118.0008

> <Gold.Chemscore.Internal_Hbond>
0.0000

> <Gold.Chemscore.DEClash>
0.1201

> <Gold.Chemscore.DEInternal>
2.3465

> <Gold.Chemscore.Rot>
3.0284

> <Gold.Chemscore.Internal.Correction>
   9.000000E+99

> <Gold.Chemscore.Hbonds>
donor molecule, donor type, donor heavy atom, donor atom, acceptor molecule, acceptor atom, score
      P1  H  6896  6908       L1    19  0.27

> <Gold.Chemscore.Hbond.Weighted>
-0.3971

> <Gold.Chemscore.Metal.Weighted>
-0.0000

> <Gold.Chemscore.Lipo.Weighted>
-13.8061

> <Gold.Chemscore.Internal_Hbond.Weighted>
0.0000

> <Gold.Chemscore.DEClash.Weighted>
0.1201

> <Gold.Chemscore.DEInternal.Weighted>
2.3465

> <Gold.Chemscore.Rot.Weighted>
7.7528

> <Gold.Chemscore.Internal.Correction.Weighted>
   9.000000E+99

> <Gold.Protein.RotatedTorsions>
[ 6907 6896 6895 6894 ] final   88.02 input  -60.11 | X-H torsion
[ 7974 7965 7964 7962 ] final   25.11 input  175.53 | X-H torsion
[ 8008 7997 7996 7995 ] final    5.28 input   59.86 | X-H torsion
[ 10167 10162 10161 10158 ] final   91.47 input  -65.29 | X-H torsion
[ 10718 10713 10712 10709 ] final   33.61 input   66.30 | X-H torsion
[ 10763 10752 10751 10750 ] final    7.41 input  -60.55 | X-H torsion
[ 11005 11000 10999 10996 ] final   -8.87 input  -57.11 | X-H torsion

> <Gold.Protein.ActiveResidues>
 VAL166  LYS551  ARG553  GLY616  TRP617  ASP618  TYR619  PRO620  LYS621  CYS622 
 ASP623  PHE694  ASN695  SER759  ASP760  ASP761  ALA762  ILE779  LEU786  VAL792 
 PHE793  MET794  SER795  GLU796  ALA797  LYS798  CYS799  TRP800  GLU811  SER814 

> <Gold.Protein.RotatedAtoms>
  152.5419  134.2185  159.8778 H   0  0  0  0  0  0  0  0  0  0  0  0  # atno 6907 bound_to 6896
  151.2164  133.4520  159.2607 H   0  0  0  0  0  0  0  0  0  0  0  0  # atno 6908 bound_to 6896
  151.0848  134.9893  159.8429 H   0  0  0  0  0  0  0  0  0  0  0  0  # atno 6909 bound_to 6896
  146.1904  139.7511  142.8835 H   0  0  0  0  0  0  0  0  0  0  0  0  # atno 7974 bound_to 7965
  154.7265  140.2722  155.6495 H   0  0  0  0  0  0  0  0  0  0  0  0  # atno 8008 bound_to 7997
  156.2838  140.2724  156.1877 H   0  0  0  0  0  0  0  0  0  0  0  0  # atno 8009 bound_to 7997
  155.0438  140.0371  157.2509 H   0  0  0  0  0  0  0  0  0  0  0  0  # atno 8010 bound_to 7997
  139.8371  144.6659  150.9328 H   0  0  0  0  0  0  0  0  0  0  0  0  # atno 10167 bound_to 10162
  157.3000  130.7345  149.6661 H   0  0  0  0  0  0  0  0  0  0  0  0  # atno 10718 bound_to 10713
  153.2366  135.6899  153.7830 H   0  0  0  0  0  0  0  0  0  0  0  0  # atno 10763 bound_to 10752
  153.6975  135.3303  155.3217 H   0  0  0  0  0  0  0  0  0  0  0  0  # atno 10764 bound_to 10752
  154.8337  135.4560  154.1272 H   0  0  0  0  0  0  0  0  0  0  0  0  # atno 10765 bound_to 10752
  140.7281  133.8772  155.8871 H   0  0  0  0  0  0  0  0  0  0  0  0  # atno 11005 bound_to 11000
  145.3809  141.0358  143.3178 LP  0  0  0  0  0  0  0  0  0  0  0  0  # atno 17320 bound_to 7965
  144.8477  139.5371  143.6871 LP  0  0  0  0  0  0  0  0  0  0  0  0  # atno 17321 bound_to 7965
  140.7801  143.3946  151.1251 LP  0  0  0  0  0  0  0  0  0  0  0  0  # atno 17342 bound_to 10162
  139.7596  143.8656  152.3097 LP  0  0  0  0  0  0  0  0  0  0  0  0  # atno 17343 bound_to 10162
  155.9671  130.4283  150.4782 LP  0  0  0  0  0  0  0  0  0  0  0  0  # atno 17370 bound_to 10713
  157.2760  131.0597  151.2228 LP  0  0  0  0  0  0  0  0  0  0  0  0  # atno 17371 bound_to 10713
  140.9945  134.1234  157.4376 LP  0  0  0  0  0  0  0  0  0  0  0  0  # atno 17394 bound_to 11000
  139.8832  135.0050  156.6287 LP  0  0  0  0  0  0  0  0  0  0  0  0  # atno 17395 bound_to 11000

$$$$
