AV-unprocessed.smi:3330|AV-procd|sdf|12807|dock5
  -GOLD-   2272019173D 1   1.00000     0.00000
 Structure written by MMmdl.
 38 39  0  0  0  0  0  0  0  0  1 V2000
  151.9309  140.9095  157.8112 C   0  0  0  0  0  0  0  0  0  0  0  0
  151.1674  142.2495  157.9005 C   0  0  2  0  0  0  0  0  0  0  0  0
  150.7634  142.6675  156.5611 N   0  0  0  0  0  0  0  0  0  0  0  0
  150.2143  141.5802  155.7651 C   0  0  0  0  0  0  0  0  0  0  0  0
  148.7635  141.3202  156.1991 C   0  0  0  0  0  0  0  0  0  0  0  0
  147.9810  140.7280  155.1112 N   0  0  0  0  0  0  0  0  0  0  0  0
  148.3987  139.7088  154.3489 C   0  0  0  0  0  0  0  0  0  0  0  0
  149.4730  139.1124  154.4164 O   0  0  0  0  0  0  0  0  0  0  0  0
  147.3088  139.3779  153.3527 C   0  0  0  0  0  0  0  0  0  0  0  0
  146.3224  140.3594  153.7497 N   0  0  0  0  0  0  0  0  0  0  0  0
  146.7407  141.1211  154.7689 C   0  0  0  0  0  0  0  0  0  0  0  0
  146.0879  142.0210  155.2951 O   0  0  0  0  0  0  0  0  0  0  0  0
  152.0100  143.3919  158.5303 C   0  0  1  0  0  0  0  0  0  0  0  0
  151.2350  144.7199  158.6201 C   0  0  0  0  0  0  0  0  0  0  0  0
  152.5145  143.0327  159.8502 N   0  0  0  0  0  0  0  0  0  0  0  0
  152.2305  143.6146  161.0699 C   0  0  0  0  0  0  0  0  0  0  0  0
  152.9316  142.9321  162.0220 C   0  0  0  0  0  0  0  0  0  0  0  0
  153.6267  141.9369  161.2805 C   0  0  0  0  0  0  0  0  0  0  0  0
  153.3772  142.0004  159.9830 N   0  0  0  0  0  0  0  0  0  0  0  0
  152.2252  140.5471  158.7961 H   0  0  0  0  0  0  0  0  0  0  0  0
  152.8377  141.0111  157.2140 H   0  0  0  0  0  0  0  0  0  0  0  0
  151.3262  140.1208  157.3654 H   0  0  0  0  0  0  0  0  0  0  0  0
  150.2763  142.1077  158.5138 H   0  0  0  0  0  0  0  0  0  0  0  0
  151.5380  143.1039  156.0816 H   0  0  0  0  0  0  0  0  0  0  0  0
  150.2423  141.8318  154.7053 H   0  0  0  0  0  0  0  0  0  0  0  0
  150.8152  140.6806  155.9064 H   0  0  0  0  0  0  0  0  0  0  0  0
  148.7448  140.6586  157.0674 H   0  0  0  0  0  0  0  0  0  0  0  0
  148.2990  142.2519  156.5274 H   0  0  0  0  0  0  0  0  0  0  0  0
  147.6409  139.5332  152.3257 H   0  0  0  0  0  0  0  0  0  0  0  0
  146.9397  138.3600  153.4813 H   0  0  0  0  0  0  0  0  0  0  0  0
  145.4214  140.4469  153.3023 H   0  0  0  0  0  0  0  0  0  0  0  0
  152.8781  143.5626  157.8899 H   0  0  0  0  0  0  0  0  0  0  0  0
  150.9449  145.0815  157.6337 H   0  0  0  0  0  0  0  0  0  0  0  0
  151.8444  145.4972  159.0821 H   0  0  0  0  0  0  0  0  0  0  0  0
  150.3260  144.6131  159.2128 H   0  0  0  0  0  0  0  0  0  0  0  0
  151.5585  144.4556  161.1572 H   0  0  0  0  0  0  0  0  0  0  0  0
  152.9449  143.1156  163.0860 H   0  0  0  0  0  0  0  0  0  0  0  0
  154.3003  141.1748  161.6435 H   0  0  0  0  0  0  0  0  0  0  0  0
  1  2  1  0  0  0  0
  1 20  1  0  0  0  0
  1 21  1  0  0  0  0
  1 22  1  0  0  0  0
  2  3  1  0  0  0  0
  2 13  1  0  0  0  0
  2 23  1  0  0  0  0
  3  4  1  0  0  0  0
  3 24  1  0  0  0  0
  4  5  1  0  0  0  0
  4 25  1  0  0  0  0
  4 26  1  0  0  0  0
  5  6  1  0  0  0  0
  5 27  1  0  0  0  0
  5 28  1  0  0  0  0
  6 11  1  0  0  0  0
  6  7  1  0  0  0  0
  7  8  2  0  0  0  0
  7  9  1  0  0  0  0
  9 10  1  0  0  0  0
  9 29  1  0  0  0  0
  9 30  1  0  0  0  0
 10 11  1  0  0  0  0
 10 31  1  0  0  0  0
 11 12  2  0  0  0  0
 13 14  1  0  0  0  0
 13 15  1  0  0  0  0
 13 32  1  0  0  0  0
 14 33  1  0  0  0  0
 14 34  1  0  0  0  0
 14 35  1  0  0  0  0
 15 19  1  0  0  0  0
 15 16  1  0  0  0  0
 16 17  2  0  0  0  0
 16 36  1  0  0  0  0
 17 18  1  0  0  0  0
 17 37  1  0  0  0  0
 18 19  2  0  0  0  0
 18 38  1  0  0  0  0
M  END
> <s_m_source_file>
AV-unprocessed.smi

> <i_m_source_file_index>
3330

> <i_lp_mmshare_version>
43012

> <i_f3d_flags>
0

> <s_epik_input>
bjFbY0hdW2NIXVtjSF1uMVtDQEBIXShbQ0gzXSlbQ0BIXShbQ0gzXSlbTkhdW0NIMl1bQ0gyXU4yQyg9TylbQ0gyXVtOSF1DMj1P

> <s_epik_cmdline>
J2VwaWtfcHl0aG9uJywgJy1waCcsICc3LjAnLCAnLXRuJywgJzgnLCAnLW1hJywgJzIwMCcsICctbWV0YWxfYmluZGluZycsICctaW1hZScsICc8aW5maWxlLm1hZT4nLCAnLW9tYWUnLCAnPG91dGZpbGUubWFlPic=

> <r_lp_tautomer_probability>
1

> <r_epik_Ionization_Penalty>
2.2997

> <r_epik_Ionization_Penalty_Charging>
0

> <r_epik_Ionization_Penalty_Neutral>
2.2997

> <r_epik_State_Penalty>
2.44917

> <r_epik_Charging_Adjusted_Penalty>
2.44917

> <i_epik_Tot_Q>
0

> <i_epik_Tot_abs_Q>
0

> <r_epik_Metal_State_Penalty>
2.52438

> <b_epik_Metal_Only>
0

> <s_lp_Force_Field>
OPLS_2005

> <r_lp_Energy>
27.6633

> <b_lp_Chiralities_Consistent>
1

> <s_lp_Variant>
AV-unprocessed.smi:3330-7

> <Gold.Version>
5.8.1

> <Gold.Id.Protein>
6NUR|6NUR_protein|mol2

> <Gold.PLP.Fitness>
45.5311

> <Gold.PLP.PLP>
-43.5882

> <Gold.PLP.part.hbond>
-2.0000

> <Gold.PLP.part.metal>
0.0000

> <Gold.PLP.part.buried>
-6.0947

> <Gold.PLP.part.nonpolar>
-36.6315

> <Gold.PLP.part.repulsive>
0.3557

> <Gold.PLP.ligand.clash>
0.0000

> <Gold.PLP.ligand.torsion>
0.5973

> <Gold.PLP.Chemscore.Hbond>
1.0000

> <Gold.PLP.Chemscore.CHOScore>
0.0000

> <Gold.PLP.Chemscore.Metal>
0.0000

> <Gold.Chemscore.Hbonds>
donor molecule, donor type, donor heavy atom, donor atom, acceptor molecule, acceptor atom, score
      L1  H    10    31       P1 10175  1.00

> <Gold.PLP.Chemscore.Internal.Correction>
0.1375

> <Gold.Rescore>
     Score         DG    S(hbond)    S(metal)    S(lipo)     H(rot)  DE(clash)    DE(int)     intcor
     11.47     -13.00       0.99        0.00      92.73       2.60       0.00       1.53       ----

> <Gold.Chemscore.Fitness>
11.4727

> <Gold.Chemscore.DG>
-13.0050

> <Gold.Chemscore.ZeroCoef>
-5.4800

> <Gold.Chemscore.Hbond>
0.9938

> <Gold.Chemscore.Metal>
0.0000

> <Gold.Chemscore.Lipo>
92.7297

> <Gold.Chemscore.Internal_Hbond>
0.0000

> <Gold.Chemscore.DEClash>
0.0000

> <Gold.Chemscore.DEInternal>
1.5323

> <Gold.Chemscore.Rot>
2.5952

> <Gold.Chemscore.Internal.Correction>
   9.000000E+99

> <Gold.Chemscore.Hbonds>
donor molecule, donor type, donor heavy atom, donor atom, acceptor molecule, acceptor atom, score
      L1  H    10    31       P1 10175  0.96

> <Gold.Chemscore.Hbond.Weighted>
-3.3193

> <Gold.Chemscore.Metal.Weighted>
-0.0000

> <Gold.Chemscore.Lipo.Weighted>
-10.8494

> <Gold.Chemscore.Internal_Hbond.Weighted>
0.0000

> <Gold.Chemscore.DEClash.Weighted>
0.0000

> <Gold.Chemscore.DEInternal.Weighted>
1.5323

> <Gold.Chemscore.Rot.Weighted>
6.6437

> <Gold.Chemscore.Internal.Correction.Weighted>
   9.000000E+99

> <Gold.Protein.RotatedTorsions>
[ 6907 6896 6895 6894 ] final -168.11 input  -60.11 | X-H torsion
[ 7974 7965 7964 7962 ] final   74.23 input  175.53 | X-H torsion
[ 8008 7997 7996 7995 ] final  -77.20 input   59.86 | X-H torsion
[ 10167 10162 10161 10158 ] final  114.33 input  -65.29 | X-H torsion
[ 10718 10713 10712 10709 ] final  -52.12 input   66.30 | X-H torsion
[ 10763 10752 10751 10750 ] final -137.11 input  -60.55 | X-H torsion
[ 11005 11000 10999 10996 ] final  126.66 input  -57.11 | X-H torsion

> <Gold.Protein.ActiveResidues>
 VAL166  LYS551  ARG553  GLY616  TRP617  ASP618  TYR619  PRO620  LYS621  CYS622 
 ASP623  PHE694  ASN695  SER759  ASP760  ASP761  ALA762  ILE779  LEU786  VAL792 
 PHE793  MET794  SER795  GLU796  ALA797  LYS798  CYS799  TRP800  GLU811  SER814 

> <Gold.Protein.RotatedAtoms>
  151.4702  133.3571  159.2822 H   0  0  0  0  0  0  0  0  0  0  0  0  # atno 6907 bound_to 6896
  150.8966  134.8376  159.7341 H   0  0  0  0  0  0  0  0  0  0  0  0  # atno 6908 bound_to 6896
  152.4855  134.4618  159.9659 H   0  0  0  0  0  0  0  0  0  0  0  0  # atno 6909 bound_to 6896
  145.7309  139.2683  143.1542 H   0  0  0  0  0  0  0  0  0  0  0  0  # atno 7974 bound_to 7965
  154.5574  140.0714  156.8766 H   0  0  0  0  0  0  0  0  0  0  0  0  # atno 8008 bound_to 7997
  155.2875  140.3376  155.4236 H   0  0  0  0  0  0  0  0  0  0  0  0  # atno 8009 bound_to 7997
  156.2014  140.1723  156.7877 H   0  0  0  0  0  0  0  0  0  0  0  0  # atno 8010 bound_to 7997
  139.6396  144.7123  151.2264 H   0  0  0  0  0  0  0  0  0  0  0  0  # atno 10167 bound_to 10162
  156.1650  130.4149  149.9735 H   0  0  0  0  0  0  0  0  0  0  0  0  # atno 10718 bound_to 10713
  154.8669  135.3652  154.5169 H   0  0  0  0  0  0  0  0  0  0  0  0  # atno 10763 bound_to 10752
  153.5802  135.7018  153.5471 H   0  0  0  0  0  0  0  0  0  0  0  0  # atno 10764 bound_to 10752
  153.3464  135.4084  155.1575 H   0  0  0  0  0  0  0  0  0  0  0  0  # atno 10765 bound_to 10752
  139.9467  134.9628  156.8739 H   0  0  0  0  0  0  0  0  0  0  0  0  # atno 11005 bound_to 11000
  146.0538  140.8042  142.9768 LP  0  0  0  0  0  0  0  0  0  0  0  0  # atno 17320 bound_to 7965
  144.6893  140.3093  143.7250 LP  0  0  0  0  0  0  0  0  0  0  0  0  # atno 17321 bound_to 7965
  140.7484  143.6335  150.8401 LP  0  0  0  0  0  0  0  0  0  0  0  0  # atno 17342 bound_to 10162
  139.9971  143.5785  152.2889 LP  0  0  0  0  0  0  0  0  0  0  0  0  # atno 17343 bound_to 10162
  156.7552  130.9130  151.3639 LP  0  0  0  0  0  0  0  0  0  0  0  0  # atno 17370 bound_to 10713
  157.6761  130.9095  150.0153 LP  0  0  0  0  0  0  0  0  0  0  0  0  # atno 17371 bound_to 10713
  140.5817  134.0346  155.7466 LP  0  0  0  0  0  0  0  0  0  0  0  0  # atno 17394 bound_to 11000
  141.1119  133.9602  157.2893 LP  0  0  0  0  0  0  0  0  0  0  0  0  # atno 17395 bound_to 11000

$$$$
