AV-unprocessed.smi:2973|AV-procd|sdf|11341|dock2
  -GOLD-   2272016253D 1   1.00000     0.00000
 Structure written by MMmdl.
 50 52  0  0  0  0  0  0  0  0  2 V2000
  146.6849  133.5709  153.3644 C   0  0  0  0  0  0  0  0  0  0  0  0
  145.6379  132.9374  152.4234 C   0  0  2  0  0  0  0  0  0  0  0  0
  146.2611  132.6251  151.0455 C   0  0  0  0  0  0  0  0  0  0  0  0
  145.2655  131.9071  150.1212 C   0  0  0  0  0  0  0  0  0  0  0  0
  143.9730  132.7170  149.9496 C   0  0  0  0  0  0  0  0  0  0  0  0
  143.3329  133.0394  151.3117 C   0  0  0  0  0  0  0  0  0  0  0  0
  144.3064  133.7436  152.2901 C   0  0  1  0  0  0  0  0  0  0  0  0
  143.6644  133.9091  153.5827 N   0  0  0  0  0  0  0  0  0  0  0  0
  143.5101  135.1907  153.9363 C   0  0  0  0  0  0  0  0  0  0  0  0
  143.0089  135.5807  154.9898 O   0  0  0  0  0  0  0  0  0  0  0  0
  144.0045  135.9623  152.9528 N   0  0  0  0  0  0  0  0  0  0  0  0
  144.0570  137.4286  153.0072 C   0  0  0  0  0  0  0  0  0  0  0  0
  144.9947  137.9512  154.1045 C   0  0  0  0  0  0  0  0  0  0  0  0
  145.6007  137.1730  154.8429 O   0  0  0  0  0  0  0  0  0  0  0  0
  145.1112  139.2844  154.1937 N   0  0  0  0  0  0  0  0  0  0  0  0
  145.9381  139.9868  155.1679 C   0  0  0  0  0  0  0  0  0  0  0  0
  146.8623  141.0160  154.4934 C   0  0  0  0  0  0  0  0  0  0  0  0
  148.3230  140.7764  154.8201 C   0  0  0  0  0  0  0  0  0  0  0  0
  148.9417  139.5248  154.6118 C   0  0  0  0  0  0  0  0  0  0  0  0
  150.3074  139.3703  154.9287 C   0  0  0  0  0  0  0  0  0  0  0  0
  151.0246  140.4692  155.4456 C   0  0  0  0  0  0  0  0  0  0  0  0
  150.3573  141.6971  155.6317 C   0  0  0  0  0  0  0  0  0  0  0  0
  149.0480  141.8056  155.3154 N   0  3  0  0  0  0  0  0  0  0  0  0
  144.4965  135.2232  151.9488 C   0  0  0  0  0  0  0  0  0  0  0  0
  145.0298  135.6419  150.9212 O   0  0  0  0  0  0  0  0  0  0  0  0
  147.0498  134.5244  152.9820 H   0  0  0  0  0  0  0  0  0  0  0  0
  147.5492  132.9162  153.4791 H   0  0  0  0  0  0  0  0  0  0  0  0
  146.2797  133.7445  154.3613 H   0  0  0  0  0  0  0  0  0  0  0  0
  145.3765  131.9772  152.8712 H   0  0  0  0  0  0  0  0  0  0  0  0
  146.6101  133.5417  150.5693 H   0  0  0  0  0  0  0  0  0  0  0  0
  147.1443  131.9982  151.1735 H   0  0  0  0  0  0  0  0  0  0  0  0
  145.7239  131.7300  149.1480 H   0  0  0  0  0  0  0  0  0  0  0  0
  145.0279  130.9257  150.5333 H   0  0  0  0  0  0  0  0  0  0  0  0
  144.1849  133.6364  149.4039 H   0  0  0  0  0  0  0  0  0  0  0  0
  143.2668  132.1577  149.3353 H   0  0  0  0  0  0  0  0  0  0  0  0
  142.4420  133.6497  151.1543 H   0  0  0  0  0  0  0  0  0  0  0  0
  142.9800  132.1109  151.7628 H   0  0  0  0  0  0  0  0  0  0  0  0
  143.3788  133.1260  154.1526 H   0  0  0  0  0  0  0  0  0  0  0  0
  144.3850  137.8346  152.0490 H   0  0  0  0  0  0  0  0  0  0  0  0
  143.0524  137.8240  153.1688 H   0  0  0  0  0  0  0  0  0  0  0  0
  144.5870  139.8511  153.5427 H   0  0  0  0  0  0  0  0  0  0  0  0
  145.3033  140.4724  155.9112 H   0  0  0  0  0  0  0  0  0  0  0  0
  146.5315  139.2451  155.7031 H   0  0  0  0  0  0  0  0  0  0  0  0
  146.7309  140.9847  153.4109 H   0  0  0  0  0  0  0  0  0  0  0  0
  146.5964  142.0272  154.8045 H   0  0  0  0  0  0  0  0  0  0  0  0
  148.3793  138.6931  154.2121 H   0  0  0  0  0  0  0  0  0  0  0  0
  150.7989  138.4203  154.7764 H   0  0  0  0  0  0  0  0  0  0  0  0
  152.0713  140.3715  155.6947 H   0  0  0  0  0  0  0  0  0  0  0  0
  150.8272  142.5886  156.0210 H   0  0  0  0  0  0  0  0  0  0  0  0
  148.5855  142.7039  155.4582 H   0  0  0  0  0  0  0  0  0  0  0  0
  1  2  1  0  0  0  0
  1 26  1  0  0  0  0
  1 27  1  0  0  0  0
  1 28  1  0  0  0  0
  2  7  1  0  0  0  0
  2  3  1  0  0  0  0
  2 29  1  0  0  0  0
  3  4  1  0  0  0  0
  3 30  1  0  0  0  0
  3 31  1  0  0  0  0
  4  5  1  0  0  0  0
  4 32  1  0  0  0  0
  4 33  1  0  0  0  0
  5  6  1  0  0  0  0
  5 34  1  0  0  0  0
  5 35  1  0  0  0  0
  6  7  1  0  0  0  0
  6 36  1  0  0  0  0
  6 37  1  0  0  0  0
  7 24  1  0  0  0  0
  7  8  1  0  0  0  0
  8  9  1  0  0  0  0
  8 38  1  0  0  0  0
  9 10  2  0  0  0  0
  9 11  1  0  0  0  0
 11 12  1  0  0  0  0
 11 24  1  0  0  0  0
 12 13  1  0  0  0  0
 12 39  1  0  0  0  0
 12 40  1  0  0  0  0
 13 14  2  0  0  0  0
 13 15  1  0  0  0  0
 15 16  1  0  0  0  0
 15 41  1  0  0  0  0
 16 17  1  0  0  0  0
 16 42  1  0  0  0  0
 16 43  1  0  0  0  0
 17 18  1  0  0  0  0
 17 44  1  0  0  0  0
 17 45  1  0  0  0  0
 18 23  1  0  0  0  0
 18 19  2  0  0  0  0
 19 20  1  0  0  0  0
 19 46  1  0  0  0  0
 20 21  2  0  0  0  0
 20 47  1  0  0  0  0
 21 22  1  0  0  0  0
 21 48  1  0  0  0  0
 22 23  2  0  0  0  0
 22 49  1  0  0  0  0
 23 50  1  0  0  0  0
 24 25  2  0  0  0  0
M  CHG  1  23   1
M  END
> <s_m_source_file>
AV-unprocessed.smi

> <i_m_source_file_index>
2973

> <i_lp_mmshare_version>
43012

> <i_f3d_flags>
0

> <s_epik_input>
W0NIMl0xW0NIMl1bQ0gyXVtDSDJdW0NAQEhdKFtDSDNdKVtDQF0xMltOSF1DKD1PKU4oQzI9TylbQ0gyXUMoPU8pW05IXVtDSDJdW0NIMl1jM1tjSF1bY0hdW2NIXVtjSF1uMw==

> <s_epik_cmdline>
J2VwaWtfcHl0aG9uJywgJy1waCcsICc3LjAnLCAnLXRuJywgJzgnLCAnLW1hJywgJzIwMCcsICctbWV0YWxfYmluZGluZycsICctaW1hZScsICc8aW5maWxlLm1hZT4nLCAnLW9tYWUnLCAnPG91dGZpbGUubWFlPic=

> <r_lp_tautomer_probability>
1

> <r_epik_Ionization_Penalty>
1.90043

> <r_epik_Ionization_Penalty_Charging>
1.90039

> <r_epik_Ionization_Penalty_Neutral>
4.65525e-05

> <r_epik_State_Penalty>
2.02162

> <r_epik_Charging_Adjusted_Penalty>
3.922

> <i_epik_Tot_Q>
1

> <i_epik_Tot_abs_Q>
1

> <r_epik_Metal_State_Penalty>
2.06631

> <b_epik_Metal_Only>
0

> <s_lp_Force_Field>
OPLS_2005

> <r_lp_Energy>
22.6609

> <b_lp_Chiralities_Consistent>
1

> <s_lp_Variant>
AV-unprocessed.smi:2973-5

> <Gold.Version>
5.8.1

> <Gold.Id.Protein>
6NUR|6NUR_protein|mol2

> <Gold.PLP.Fitness>
47.9966

> <Gold.PLP.PLP>
-37.5514

> <Gold.PLP.part.hbond>
-2.9982

> <Gold.PLP.part.metal>
0.0000

> <Gold.PLP.part.buried>
-3.8729

> <Gold.PLP.part.nonpolar>
-31.4654

> <Gold.PLP.part.repulsive>
0.5027

> <Gold.PLP.ligand.clash>
0.0000

> <Gold.PLP.ligand.torsion>
0.5016

> <Gold.PLP.Chemscore.Hbond>
3.8080

> <Gold.PLP.Chemscore.CHOScore>
0.0000

> <Gold.PLP.Chemscore.Metal>
0.0000

> <Gold.Chemscore.Hbonds>
donor molecule, donor type, donor heavy atom, donor atom, acceptor molecule, acceptor atom, score
      L1  H     8    38       P1 10957  1.00
      L1  H    15    41       P1 10175  1.00
      L1  H    23    50       P1  8028  1.81

> <Gold.PLP.Chemscore.Internal.Correction>
0.0243

> <Gold.Rescore>
     Score         DG    S(hbond)    S(metal)    S(lipo)     H(rot)  DE(clash)    DE(int)     intcor
     19.37     -20.80       2.91        0.00      90.86       1.96       0.13       1.30       ----

> <Gold.Chemscore.Fitness>
19.3717

> <Gold.Chemscore.DG>
-20.7989

> <Gold.Chemscore.ZeroCoef>
-5.4800

> <Gold.Chemscore.Hbond>
2.9090

> <Gold.Chemscore.Metal>
0.0000

> <Gold.Chemscore.Lipo>
90.8573

> <Gold.Chemscore.Internal_Hbond>
0.0000

> <Gold.Chemscore.DEClash>
0.1283

> <Gold.Chemscore.DEInternal>
1.2989

> <Gold.Chemscore.Rot>
1.9638

> <Gold.Chemscore.Internal.Correction>
   9.000000E+99

> <Gold.Chemscore.Hbonds>
donor molecule, donor type, donor heavy atom, donor atom, acceptor molecule, acceptor atom, score
      L1  H     8    38       P1 10957  1.00
      L1  H    15    41       P1 10175  0.93
      L1  H    23    50       P1  8028  0.81

> <Gold.Chemscore.Hbond.Weighted>
-9.7160

> <Gold.Chemscore.Metal.Weighted>
-0.0000

> <Gold.Chemscore.Lipo.Weighted>
-10.6303

> <Gold.Chemscore.Internal_Hbond.Weighted>
0.0000

> <Gold.Chemscore.DEClash.Weighted>
0.1283

> <Gold.Chemscore.DEInternal.Weighted>
1.2989

> <Gold.Chemscore.Rot.Weighted>
5.0274

> <Gold.Chemscore.Internal.Correction.Weighted>
   9.000000E+99

> <Gold.Protein.RotatedTorsions>
[ 6907 6896 6895 6894 ] final  157.46 input  -60.11 | X-H torsion
[ 7974 7965 7964 7962 ] final  -57.63 input  175.53 | X-H torsion
[ 8008 7997 7996 7995 ] final    6.11 input   59.86 | X-H torsion
[ 10167 10162 10161 10158 ] final -147.17 input  -65.29 | X-H torsion
[ 10718 10713 10712 10709 ] final  -37.75 input   66.30 | X-H torsion
[ 10763 10752 10751 10750 ] final  -62.90 input  -60.55 | X-H torsion
[ 11005 11000 10999 10996 ] final -158.87 input  -57.11 | X-H torsion

> <Gold.Protein.ActiveResidues>
 VAL166  LYS551  ARG553  GLY616  TRP617  ASP618  TYR619  PRO620  LYS621  CYS622 
 ASP623  PHE694  ASN695  SER759  ASP760  ASP761  ALA762  ILE779  LEU786  VAL792 
 PHE793  MET794  SER795  GLU796  ALA797  LYS798  CYS799  TRP800  GLU811  SER814 

> <Gold.Protein.RotatedAtoms>
  152.0147  133.3875  159.4233 H   0  0  0  0  0  0  0  0  0  0  0  0  # atno 6907 bound_to 6896
  150.6896  134.3691  159.4993 H   0  0  0  0  0  0  0  0  0  0  0  0  # atno 6908 bound_to 6896
  152.1457  134.9027  160.0602 H   0  0  0  0  0  0  0  0  0  0  0  0  # atno 6909 bound_to 6896
  145.8487  140.8367  142.9997 H   0  0  0  0  0  0  0  0  0  0  0  0  # atno 7974 bound_to 7965
  154.7369  140.2741  155.6407 H   0  0  0  0  0  0  0  0  0  0  0  0  # atno 8008 bound_to 7997
  156.2864  140.2704  156.2011 H   0  0  0  0  0  0  0  0  0  0  0  0  # atno 8009 bound_to 7997
  155.0309  140.0371  157.2463 H   0  0  0  0  0  0  0  0  0  0  0  0  # atno 8010 bound_to 7997
  139.7646  143.8326  152.2614 H   0  0  0  0  0  0  0  0  0  0  0  0  # atno 10167 bound_to 10162
  156.3116  130.4253  149.8045 H   0  0  0  0  0  0  0  0  0  0  0  0  # atno 10718 bound_to 10713
  154.3069  135.6223  153.5449 H   0  0  0  0  0  0  0  0  0  0  0  0  # atno 10763 bound_to 10752
  152.9834  135.5692  154.5221 H   0  0  0  0  0  0  0  0  0  0  0  0  # atno 10764 bound_to 10752
  154.4863  135.2865  155.1508 H   0  0  0  0  0  0  0  0  0  0  0  0  # atno 10765 bound_to 10752
  140.6488  134.4472  157.5235 H   0  0  0  0  0  0  0  0  0  0  0  0  # atno 11005 bound_to 11000
  144.6730  140.0921  143.7464 LP  0  0  0  0  0  0  0  0  0  0  0  0  # atno 17320 bound_to 7965
  145.9382  139.2651  143.1284 LP  0  0  0  0  0  0  0  0  0  0  0  0  # atno 17321 bound_to 7965
  139.8342  144.7240  150.9412 LP  0  0  0  0  0  0  0  0  0  0  0  0  # atno 17342 bound_to 10162
  140.7810  143.4042  151.1099 LP  0  0  0  0  0  0  0  0  0  0  0  0  # atno 17343 bound_to 10162
  156.5386  130.8289  151.3261 LP  0  0  0  0  0  0  0  0  0  0  0  0  # atno 17370 bound_to 10713
  157.7392  130.9827  150.2300 LP  0  0  0  0  0  0  0  0  0  0  0  0  # atno 17371 bound_to 10713
  139.9053  134.8463  156.1731 LP  0  0  0  0  0  0  0  0  0  0  0  0  # atno 17394 bound_to 11000
  141.0552  133.6869  156.1846 LP  0  0  0  0  0  0  0  0  0  0  0  0  # atno 17395 bound_to 11000

$$$$
