AV-unprocessed.smi:40|AV-procd|sdf|377|dock5
  -GOLD-   2262016223D 1   1.00000     0.00000
 Structure written by MMmdl.
 47 48  0  0  0  0  0  0  0  0  1 V2000
  145.1997  132.7734  152.3283 C   0  0  0  0  0  0  0  0  0  0  0  0
  145.9804  131.9262  153.3390 C   0  0  0  0  0  0  0  0  0  0  0  0
  146.9667  132.7601  154.1692 C   0  0  0  0  0  0  0  0  0  0  0  0
  147.9990  131.8943  154.9037 C   0  0  0  0  0  0  0  0  0  0  0  0
  148.8068  132.6995  155.9334 C   0  0  0  0  0  0  0  0  0  0  0  0
  148.5520  134.0914  155.8013 O   0  0  0  0  0  0  0  0  0  0  0  0
  149.4521  135.0050  156.2262 C   0  0  0  0  0  0  0  0  0  0  0  0
  150.5317  134.7209  156.7447 O   0  0  0  0  0  0  0  0  0  0  0  0
  148.9663  136.3613  156.0392 N   0  0  0  0  0  0  0  0  0  0  0  0
  149.5791  137.5310  156.3410 C   0  0  0  0  0  0  0  0  0  0  0  0
  150.7289  137.8916  155.7920 N   0  0  0  0  0  0  0  0  0  0  0  0
  151.3839  139.0578  156.0851 C   0  0  0  0  0  0  0  0  0  0  0  0
  152.4382  139.3450  155.5204 O   0  0  0  0  0  0  0  0  0  0  0  0
  150.7908  139.9096  157.0465 N   0  0  0  0  0  0  0  0  0  0  0  0
  151.4649  141.2138  157.4123 C   0  0  2  0  0  0  0  0  0  0  0  0
  151.6205  141.2413  158.8003 O   0  0  0  0  0  0  0  0  0  0  0  0
  151.2958  142.5322  159.2986 C   0  0  1  0  0  0  0  0  0  0  0  0
  152.5837  143.3776  159.3345 C   0  0  0  0  0  0  0  0  0  0  0  0
  150.2079  143.0238  158.3336 C   0  0  1  0  0  0  0  0  0  0  0  0
  150.1116  144.4346  158.3055 O   0  0  0  0  0  0  0  0  0  0  0  0
  150.6470  142.4571  156.9899 C   0  0  2  0  0  0  0  0  0  0  0  0
  149.5282  142.1756  156.1668 O   0  0  0  0  0  0  0  0  0  0  0  0
  149.5951  139.5433  157.6449 C   0  0  0  0  0  0  0  0  0  0  0  0
  148.9695  138.3880  157.3350 C   0  0  0  0  0  0  0  0  0  0  0  0
  147.8117  138.0528  157.9303 F   0  0  0  0  0  0  0  0  0  0  0  0
  152.4589  141.1988  156.9639 H   0  0  0  0  0  0  0  0  0  0  0  0
  150.9016  142.4438  160.3114 H   0  0  0  0  0  0  0  0  0  0  0  0
  149.2488  142.5962  158.6307 H   0  0  0  0  0  0  0  0  0  0  0  0
  151.3214  143.1443  156.4767 H   0  0  0  0  0  0  0  0  0  0  0  0
  144.5117  132.1541  151.7521 H   0  0  0  0  0  0  0  0  0  0  0  0
  145.8721  133.2662  151.6254 H   0  0  0  0  0  0  0  0  0  0  0  0
  144.6137  133.5442  152.8296 H   0  0  0  0  0  0  0  0  0  0  0  0
  145.2782  131.4204  154.0026 H   0  0  0  0  0  0  0  0  0  0  0  0
  146.5208  131.1426  152.8068 H   0  0  0  0  0  0  0  0  0  0  0  0
  147.4849  133.4638  153.5165 H   0  0  0  0  0  0  0  0  0  0  0  0
  146.4157  133.3597  154.8948 H   0  0  0  0  0  0  0  0  0  0  0  0
  147.4918  131.0701  155.4066 H   0  0  0  0  0  0  0  0  0  0  0  0
  148.6753  131.4437  154.1762 H   0  0  0  0  0  0  0  0  0  0  0  0
  148.5925  132.3603  156.9481 H   0  0  0  0  0  0  0  0  0  0  0  0
  149.8721  132.5361  155.7702 H   0  0  0  0  0  0  0  0  0  0  0  0
  148.0658  136.4190  155.5860 H   0  0  0  0  0  0  0  0  0  0  0  0
  152.3948  144.3712  159.7411 H   0  0  0  0  0  0  0  0  0  0  0  0
  153.0173  143.5003  158.3417 H   0  0  0  0  0  0  0  0  0  0  0  0
  153.3357  142.9059  159.9674 H   0  0  0  0  0  0  0  0  0  0  0  0
  149.3324  144.6730  157.8267 H   0  0  0  0  0  0  0  0  0  0  0  0
  149.1754  142.9932  155.8514 H   0  0  0  0  0  0  0  0  0  0  0  0
  149.1401  140.1929  158.3785 H   0  0  0  0  0  0  0  0  0  0  0  0
  1  2  1  0  0  0  0
  1 30  1  0  0  0  0
  1 31  1  0  0  0  0
  1 32  1  0  0  0  0
  2  3  1  0  0  0  0
  2 33  1  0  0  0  0
  2 34  1  0  0  0  0
  3  4  1  0  0  0  0
  3 35  1  0  0  0  0
  3 36  1  0  0  0  0
  4  5  1  0  0  0  0
  4 37  1  0  0  0  0
  4 38  1  0  0  0  0
  5  6  1  0  0  0  0
  5 39  1  0  0  0  0
  5 40  1  0  0  0  0
  6  7  1  0  0  0  0
  7  8  2  0  0  0  0
  7  9  1  0  0  0  0
  9 10  1  0  0  0  0
  9 41  1  0  0  0  0
 10 24  1  0  0  0  0
 10 11  2  0  0  0  0
 11 12  1  0  0  0  0
 12 13  2  0  0  0  0
 12 14  1  0  0  0  0
 14 15  1  0  0  0  0
 14 23  1  0  0  0  0
 15 26  1  0  0  0  0
 15 21  1  0  0  0  0
 15 16  1  0  0  0  0
 16 17  1  0  0  0  0
 17 27  1  0  0  0  0
 17 18  1  0  0  0  0
 17 19  1  0  0  0  0
 18 42  1  0  0  0  0
 18 43  1  0  0  0  0
 18 44  1  0  0  0  0
 19 28  1  0  0  0  0
 19 20  1  0  0  0  0
 19 21  1  0  0  0  0
 20 45  1  0  0  0  0
 21 29  1  0  0  0  0
 21 22  1  0  0  0  0
 22 46  1  0  0  0  0
 23 24  2  0  0  0  0
 23 47  1  0  0  0  0
 24 25  1  0  0  0  0
M  END
> <s_m_source_file>
AV-unprocessed.smi

> <i_m_source_file_index>
40

> <i_lp_mmshare_version>
43012

> <i_f3d_flags>
0

> <s_epik_input>
W0NIM11bQ0gyXVtDSDJdW0NIMl1bQ0gyXU9DKD1PKVtOSF1jMW5jKD1PKW4oW2NIXWMxRilbQ0BASF0yT1tDQEhdKFtDSDNdKVtDQEBIXShbT0hdKVtDQEhdMltPSF0=

> <s_epik_cmdline>
J2VwaWtfcHl0aG9uJywgJy1waCcsICc3LjAnLCAnLXRuJywgJzgnLCAnLW1hJywgJzIwMCcsICctbWV0YWxfYmluZGluZycsICctaW1hZScsICc8aW5maWxlLm1hZT4nLCAnLW9tYWUnLCAnPG91dGZpbGUubWFlPic=

> <r_lp_tautomer_probability>
1

> <r_epik_Ionization_Penalty>
2.29506e-06

> <r_epik_Ionization_Penalty_Charging>
8.26867e-09

> <r_epik_Ionization_Penalty_Neutral>
2.2868e-06

> <r_epik_State_Penalty>
-0

> <r_epik_Charging_Adjusted_Penalty>
8.26867e-09

> <i_epik_Tot_Q>
0

> <i_epik_Tot_abs_Q>
0

> <r_epik_Metal_State_Penalty>
-0

> <b_epik_Metal_Only>
0

> <s_epik_Chemistry_Notes>
This compound has an ester and may undergo hydrolysis at high or low pH. This compound contains an acetal/aminal-like group ( X-CH(R)-Y where X, Y are N, S, or O) that may be acid/base labile, releasing an aldehyde.

> <s_lp_Force_Field>
OPLS_2005

> <r_lp_Energy>
38.4453

> <b_lp_Chiralities_Consistent>
1

> <s_lp_Variant>
AV-unprocessed.smi:40-11

> <Gold.Version>
5.8.1

> <Gold.Id.Protein>
6NUR|6NUR_protein|mol2

> <Gold.PLP.Fitness>
47.1960

> <Gold.PLP.PLP>
-36.3507

> <Gold.PLP.part.hbond>
-5.4918

> <Gold.PLP.part.metal>
0.0000

> <Gold.PLP.part.buried>
-2.4635

> <Gold.PLP.part.nonpolar>
-28.4803

> <Gold.PLP.part.repulsive>
0.3203

> <Gold.PLP.ligand.clash>
0.0000

> <Gold.PLP.ligand.torsion>
1.2318

> <Gold.PLP.Chemscore.Hbond>
4.3865

> <Gold.PLP.Chemscore.CHOScore>
0.0000

> <Gold.PLP.Chemscore.Metal>
0.0000

> <Gold.Chemscore.Hbonds>
donor molecule, donor type, donor heavy atom, donor atom, acceptor molecule, acceptor atom, score
      L1  H    20    45       P1  8029  0.50
      L1  H    22    46       P1  8028  1.00
      P1  H  7997  8009       L1    13  0.62

> <Gold.PLP.Chemscore.Internal.Correction>
0.1495

> <Gold.Rescore>
     Score         DG    S(hbond)    S(metal)    S(lipo)     H(rot)  DE(clash)    DE(int)     intcor
     12.53     -14.80       3.26        0.00      67.45       3.70       0.21       2.06       ----

> <Gold.Chemscore.Fitness>
12.5265

> <Gold.Chemscore.DG>
-14.8025

> <Gold.Chemscore.ZeroCoef>
-5.4800

> <Gold.Chemscore.Hbond>
3.2610

> <Gold.Chemscore.Metal>
0.0000

> <Gold.Chemscore.Lipo>
67.4501

> <Gold.Chemscore.Internal_Hbond>
0.0000

> <Gold.Chemscore.DEClash>
0.2145

> <Gold.Chemscore.DEInternal>
2.0616

> <Gold.Chemscore.Rot>
3.6957

> <Gold.Chemscore.Internal.Correction>
   9.000000E+99

> <Gold.Chemscore.Hbonds>
donor molecule, donor type, donor heavy atom, donor atom, acceptor molecule, acceptor atom, score
      L1  H    20    45       P1  8029  0.02
      L1  H    22    46       P1  8028  1.00
      P1  H  7997  8009       L1    13  0.63

> <Gold.Chemscore.Hbond.Weighted>
-10.8918

> <Gold.Chemscore.Metal.Weighted>
-0.0000

> <Gold.Chemscore.Lipo.Weighted>
-7.8917

> <Gold.Chemscore.Internal_Hbond.Weighted>
0.0000

> <Gold.Chemscore.DEClash.Weighted>
0.2145

> <Gold.Chemscore.DEInternal.Weighted>
2.0616

> <Gold.Chemscore.Rot.Weighted>
9.4610

> <Gold.Chemscore.Internal.Correction.Weighted>
   9.000000E+99

> <Gold.Protein.RotatedTorsions>
[ 6907 6896 6895 6894 ] final  -82.60 input  -60.11 | X-H torsion
[ 7974 7965 7964 7962 ] final  126.64 input  175.53 | X-H torsion
[ 8008 7997 7996 7995 ] final -142.20 input   59.86 | X-H torsion
[ 10167 10162 10161 10158 ] final  -55.90 input  -65.29 | X-H torsion
[ 10718 10713 10712 10709 ] final   16.91 input   66.30 | X-H torsion
[ 10763 10752 10751 10750 ] final -165.64 input  -60.55 | X-H torsion
[ 11005 11000 10999 10996 ] final  -14.62 input  -57.11 | X-H torsion

> <Gold.Protein.ActiveResidues>
 VAL166  LYS551  ARG553  GLY616  TRP617  ASP618  TYR619  PRO620  LYS621  CYS622 
 ASP623  PHE694  ASN695  SER759  ASP760  ASP761  ALA762  ILE779  LEU786  VAL792 
 PHE793  MET794  SER795  GLU796  ALA797  LYS798  CYS799  TRP800  GLU811  SER814 

> <Gold.Protein.RotatedAtoms>
  150.6895  134.3640  159.4962 H   0  0  0  0  0  0  0  0  0  0  0  0  # atno 6907 bound_to 6896
  152.1465  134.9019  160.0560 H   0  0  0  0  0  0  0  0  0  0  0  0  # atno 6908 bound_to 6896
  152.0133  133.3835  159.4265 H   0  0  0  0  0  0  0  0  0  0  0  0  # atno 6909 bound_to 6896
  145.0595  139.3817  143.5013 H   0  0  0  0  0  0  0  0  0  0  0  0  # atno 7974 bound_to 7965
  155.4903  140.0567  157.2954 H   0  0  0  0  0  0  0  0  0  0  0  0  # atno 8008 bound_to 7997
  154.4626  140.2003  156.0156 H   0  0  0  0  0  0  0  0  0  0  0  0  # atno 8009 bound_to 7997
  156.0917  140.3232  155.7828 H   0  0  0  0  0  0  0  0  0  0  0  0  # atno 8010 bound_to 7997
  140.6348  143.2477  151.5146 H   0  0  0  0  0  0  0  0  0  0  0  0  # atno 10167 bound_to 10162
  157.0746  130.6362  149.5813 H   0  0  0  0  0  0  0  0  0  0  0  0  # atno 10718 bound_to 10713
  154.6911  135.2971  154.9477 H   0  0  0  0  0  0  0  0  0  0  0  0  # atno 10763 bound_to 10752
  154.0440  135.6653  153.4797 H   0  0  0  0  0  0  0  0  0  0  0  0  # atno 10764 bound_to 10752
  153.0613  135.5114  154.8005 H   0  0  0  0  0  0  0  0  0  0  0  0  # atno 10765 bound_to 10752
  140.7883  133.8308  155.9356 H   0  0  0  0  0  0  0  0  0  0  0  0  # atno 11005 bound_to 11000
  146.3523  140.0285  142.8652 LP  0  0  0  0  0  0  0  0  0  0  0  0  # atno 17320 bound_to 7965
  145.1427  140.9580  143.4479 LP  0  0  0  0  0  0  0  0  0  0  0  0  # atno 17321 bound_to 7965
  139.5559  144.2276  152.1612 LP  0  0  0  0  0  0  0  0  0  0  0  0  # atno 17342 bound_to 10162
  140.1529  144.5097  150.6677 LP  0  0  0  0  0  0  0  0  0  0  0  0  # atno 17343 bound_to 10162
  155.9940  130.5003  150.7405 LP  0  0  0  0  0  0  0  0  0  0  0  0  # atno 17370 bound_to 10713
  157.4850  131.0906  151.0493 LP  0  0  0  0  0  0  0  0  0  0  0  0  # atno 17371 bound_to 10713
  140.9415  134.1895  157.4794 LP  0  0  0  0  0  0  0  0  0  0  0  0  # atno 17394 bound_to 11000
  139.8734  134.9873  156.5364 LP  0  0  0  0  0  0  0  0  0  0  0  0  # atno 17395 bound_to 11000

$$$$
