AV-unprocessed.smi:357|AV-procd|sdf|2416|dock9
  -GOLD-   2262022353D 1   1.00000     0.00000
 Structure written by MMmdl.
 37 38  0  0  0  0  0  0  0  0  1 V2000
  154.1450  135.7346  160.0523 O   0  0  0  0  0  0  0  0  0  0  0  0
  154.5476  135.7337  161.2164 C   0  0  0  0  0  0  0  0  0  0  0  0
  155.0803  134.5398  161.8888 C   0  0  0  0  0  0  0  0  0  0  0  0
  155.1457  133.0719  160.9710 Cl  0  0  0  0  0  0  0  0  0  0  0  0
  155.5064  134.5617  163.1806 C   0  0  0  0  0  0  0  0  0  0  0  0
  155.9965  133.4108  163.7866 N   0  0  0  0  0  0  0  0  0  0  0  0
  156.4939  133.2342  165.1432 C   0  0  0  0  0  0  0  0  0  0  0  0
  157.7494  134.0767  165.4118 C   0  0  0  0  0  0  0  0  0  0  0  0
  157.9911  134.1663  166.7997 O   0  0  0  0  0  0  0  0  0  0  0  0
  155.4073  135.8382  163.8725 C   0  0  0  0  0  0  0  0  0  0  0  0
  154.9502  136.9035  163.3108 N   0  0  0  0  0  0  0  0  0  0  0  0
  154.5280  136.8535  161.9980 N   0  0  0  0  0  0  0  0  0  0  0  0
  154.0073  138.1264  161.4885 C   0  0  0  0  0  0  0  0  0  0  0  0
  154.7356  138.5542  160.2056 C   0  0  0  0  0  0  0  0  0  0  0  0
  153.8116  139.2207  159.3564 O   0  0  0  0  0  0  0  0  0  0  0  0
  153.4296  140.5024  159.6897 C   0  0  0  0  0  0  0  0  0  0  0  0
  152.4807  141.1251  158.8525 C   0  0  0  0  0  0  0  0  0  0  0  0
  152.0345  142.4343  159.1170 C   0  0  0  0  0  0  0  0  0  0  0  0
  152.5363  143.1377  160.2275 C   0  0  0  0  0  0  0  0  0  0  0  0
  151.9919  144.7419  160.5541 Cl  0  0  0  0  0  0  0  0  0  0  0  0
  153.4841  142.5291  161.0712 C   0  0  0  0  0  0  0  0  0  0  0  0
  153.9296  141.2193  160.8067 C   0  0  0  0  0  0  0  0  0  0  0  0
  156.0357  132.5807  163.2120 H   0  0  0  0  0  0  0  0  0  0  0  0
  155.6987  133.5811  165.8034 H   0  0  0  0  0  0  0  0  0  0  0  0
  156.6483  132.1838  165.3907 H   0  0  0  0  0  0  0  0  0  0  0  0
  158.6232  133.6780  164.8949 H   0  0  0  0  0  0  0  0  0  0  0  0
  157.5948  135.0910  165.0432 H   0  0  0  0  0  0  0  0  0  0  0  0
  158.2342  135.0560  167.0056 H   0  0  0  0  0  0  0  0  0  0  0  0
  155.7417  135.8518  164.9089 H   0  0  0  0  0  0  0  0  0  0  0  0
  152.9386  138.0366  161.2855 H   0  0  0  0  0  0  0  0  0  0  0  0
  154.0929  138.9070  162.2464 H   0  0  0  0  0  0  0  0  0  0  0  0
  155.5650  139.2202  160.4496 H   0  0  0  0  0  0  0  0  0  0  0  0
  155.1408  137.6734  159.7046 H   0  0  0  0  0  0  0  0  0  0  0  0
  152.0897  140.5927  157.9978 H   0  0  0  0  0  0  0  0  0  0  0  0
  151.3070  142.8968  158.4662 H   0  0  0  0  0  0  0  0  0  0  0  0
  153.8721  143.0665  161.9240 H   0  0  0  0  0  0  0  0  0  0  0  0
  154.6571  140.7876  161.4768 H   0  0  0  0  0  0  0  0  0  0  0  0
  1  2  2  0  0  0  0
  2 12  1  0  0  0  0
  2  3  1  0  0  0  0
  3  4  1  0  0  0  0
  3  5  2  0  0  0  0
  5  6  1  0  0  0  0
  5 10  1  0  0  0  0
  6  7  1  0  0  0  0
  6 23  1  0  0  0  0
  7  8  1  0  0  0  0
  7 24  1  0  0  0  0
  7 25  1  0  0  0  0
  8  9  1  0  0  0  0
  8 26  1  0  0  0  0
  8 27  1  0  0  0  0
  9 28  1  0  0  0  0
 10 11  2  0  0  0  0
 10 29  1  0  0  0  0
 11 12  1  0  0  0  0
 12 13  1  0  0  0  0
 13 14  1  0  0  0  0
 13 30  1  0  0  0  0
 13 31  1  0  0  0  0
 14 15  1  0  0  0  0
 14 32  1  0  0  0  0
 14 33  1  0  0  0  0
 15 16  1  0  0  0  0
 16 22  1  0  0  0  0
 16 17  2  0  0  0  0
 17 18  1  0  0  0  0
 17 34  1  0  0  0  0
 18 19  2  0  0  0  0
 18 35  1  0  0  0  0
 19 20  1  0  0  0  0
 19 21  1  0  0  0  0
 21 22  2  0  0  0  0
 21 36  1  0  0  0  0
 22 37  1  0  0  0  0
M  END
> <s_m_source_file>
AV-unprocessed.smi

> <i_m_source_file_index>
357

> <i_lp_mmshare_version>
43012

> <i_f3d_flags>
0

> <s_epik_input>
W09IXVtDSDJdW0NIMl1bTkhdYyhjKENsKWMxPU8pW2NIXW5uMVtDSDJdW0NIMl1PYzJbY0hdW2NIXWMoQ2wpW2NIXVtjSF0y

> <s_epik_cmdline>
J2VwaWtfcHl0aG9uJywgJy1waCcsICc3LjAnLCAnLXRuJywgJzgnLCAnLW1hJywgJzIwMCcsICctbWV0YWxfYmluZGluZycsICctaW1hZScsICc8aW5maWxlLm1hZT4nLCAnLW9tYWUnLCAnPG91dGZpbGUubWFlPic=

> <r_lp_tautomer_probability>
1

> <r_epik_Ionization_Penalty>
2.22594e-05

> <r_epik_Ionization_Penalty_Charging>
1.05597e-09

> <r_epik_Ionization_Penalty_Neutral>
2.22583e-05

> <r_epik_State_Penalty>
-0

> <r_epik_Charging_Adjusted_Penalty>
1.05597e-09

> <i_epik_Tot_Q>
0

> <i_epik_Tot_abs_Q>
0

> <r_epik_Metal_State_Penalty>
-0

> <b_epik_Metal_Only>
0

> <s_lp_Force_Field>
OPLS_2005

> <r_lp_Energy>
32.065

> <b_lp_Chiralities_Consistent>
1

> <s_lp_Variant>
AV-unprocessed.smi:357-1

> <Gold.Version>
5.8.1

> <Gold.Id.Protein>
6NUR|6NUR_protein|mol2

> <Gold.PLP.Fitness>
42.7927

> <Gold.PLP.PLP>
-40.4866

> <Gold.PLP.part.hbond>
-2.0000

> <Gold.PLP.part.metal>
0.0000

> <Gold.PLP.part.buried>
-5.4986

> <Gold.PLP.part.nonpolar>
-33.1763

> <Gold.PLP.part.repulsive>
0.0293

> <Gold.PLP.ligand.clash>
0.0000

> <Gold.PLP.ligand.torsion>
0.3705

> <Gold.PLP.Chemscore.Hbond>
1.0000

> <Gold.PLP.Chemscore.CHOScore>
0.0000

> <Gold.PLP.Chemscore.Metal>
0.0000

> <Gold.Chemscore.Hbonds>
donor molecule, donor type, donor heavy atom, donor atom, acceptor molecule, acceptor atom, score
      P1  H  6896  6908       L1     1  1.00

> <Gold.PLP.Chemscore.Internal.Correction>
0.0472

> <Gold.Rescore>
     Score         DG    S(hbond)    S(metal)    S(lipo)     H(rot)  DE(clash)    DE(int)     intcor
     13.15     -14.86       0.99        0.00     110.99       2.70       0.00       1.71       ----

> <Gold.Chemscore.Fitness>
13.1464

> <Gold.Chemscore.DG>
-14.8631

> <Gold.Chemscore.ZeroCoef>
-5.4800

> <Gold.Chemscore.Hbond>
0.9909

> <Gold.Chemscore.Metal>
0.0000

> <Gold.Chemscore.Lipo>
110.9864

> <Gold.Chemscore.Internal_Hbond>
0.0000

> <Gold.Chemscore.DEClash>
0.0042

> <Gold.Chemscore.DEInternal>
1.7125

> <Gold.Chemscore.Rot>
2.6999

> <Gold.Chemscore.Internal.Correction>
   9.000000E+99

> <Gold.Chemscore.Hbonds>
donor molecule, donor type, donor heavy atom, donor atom, acceptor molecule, acceptor atom, score
      P1  H  6896  6908       L1     1  0.58

> <Gold.Chemscore.Hbond.Weighted>
-3.3095

> <Gold.Chemscore.Metal.Weighted>
-0.0000

> <Gold.Chemscore.Lipo.Weighted>
-12.9854

> <Gold.Chemscore.Internal_Hbond.Weighted>
0.0000

> <Gold.Chemscore.DEClash.Weighted>
0.0042

> <Gold.Chemscore.DEInternal.Weighted>
1.7125

> <Gold.Chemscore.Rot.Weighted>
6.9118

> <Gold.Chemscore.Internal.Correction.Weighted>
   9.000000E+99

> <Gold.Protein.RotatedTorsions>
[ 6907 6896 6895 6894 ] final  -52.13 input  -60.11 | X-H torsion
[ 7974 7965 7964 7962 ] final  -52.39 input  175.53 | X-H torsion
[ 8008 7997 7996 7995 ] final   37.15 input   59.86 | X-H torsion
[ 10167 10162 10161 10158 ] final -123.51 input  -65.29 | X-H torsion
[ 10718 10713 10712 10709 ] final -107.06 input   66.30 | X-H torsion
[ 10763 10752 10751 10750 ] final -107.58 input  -60.55 | X-H torsion
[ 11005 11000 10999 10996 ] final -161.24 input  -57.11 | X-H torsion

> <Gold.Protein.ActiveResidues>
 VAL166  LYS551  ARG553  GLY616  TRP617  ASP618  TYR619  PRO620  LYS621  CYS622 
 ASP623  PHE694  ASN695  SER759  ASP760  ASP761  ALA762  ILE779  LEU786  VAL792 
 PHE793  MET794  SER795  GLU796  ALA797  LYS798  CYS799  TRP800  GLU811  SER814 

> <Gold.Protein.RotatedAtoms>
  150.8547  134.7882  159.7035 H   0  0  0  0  0  0  0  0  0  0  0  0  # atno 6907 bound_to 6896
  152.4602  134.5199  159.9789 H   0  0  0  0  0  0  0  0  0  0  0  0  # atno 6908 bound_to 6896
  151.5313  133.3410  159.2954 H   0  0  0  0  0  0  0  0  0  0  0  0  # atno 6909 bound_to 6896
  145.9085  140.7935  142.9707 H   0  0  0  0  0  0  0  0  0  0  0  0  # atno 7974 bound_to 7965
  155.1991  140.3314  155.4346 H   0  0  0  0  0  0  0  0  0  0  0  0  # atno 8008 bound_to 7997
  156.2414  140.1897  156.7028 H   0  0  0  0  0  0  0  0  0  0  0  0  # atno 8009 bound_to 7997
  154.6154  140.0603  156.9533 H   0  0  0  0  0  0  0  0  0  0  0  0  # atno 8010 bound_to 7997
  140.0028  143.5523  152.2296 H   0  0  0  0  0  0  0  0  0  0  0  0  # atno 10167 bound_to 10162
  156.0419  130.5644  150.7768 H   0  0  0  0  0  0  0  0  0  0  0  0  # atno 10718 bound_to 10713
  154.8083  135.4670  154.0451 H   0  0  0  0  0  0  0  0  0  0  0  0  # atno 10763 bound_to 10752
  153.1902  135.6854  153.8370 H   0  0  0  0  0  0  0  0  0  0  0  0  # atno 10764 bound_to 10752
  153.7890  135.3246  155.3353 H   0  0  0  0  0  0  0  0  0  0  0  0  # atno 10765 bound_to 10752
  140.6226  134.4735  157.5224 H   0  0  0  0  0  0  0  0  0  0  0  0  # atno 11005 bound_to 11000
  144.6741  140.1788  143.7407 LP  0  0  0  0  0  0  0  0  0  0  0  0  # atno 17320 bound_to 7965
  145.8702  139.2268  143.1665 LP  0  0  0  0  0  0  0  0  0  0  0  0  # atno 17321 bound_to 7965
  139.6260  144.7637  151.2638 LP  0  0  0  0  0  0  0  0  0  0  0  0  # atno 17342 bound_to 10162
  140.7412  143.6564  150.8203 LP  0  0  0  0  0  0  0  0  0  0  0  0  # atno 17343 bound_to 10162
  157.5247  131.0933  151.0033 LP  0  0  0  0  0  0  0  0  0  0  0  0  # atno 17370 bound_to 10713
  157.0355  130.5728  149.5349 LP  0  0  0  0  0  0  0  0  0  0  0  0  # atno 17371 bound_to 10713
  139.9147  134.8270  156.1406 LP  0  0  0  0  0  0  0  0  0  0  0  0  # atno 17394 bound_to 11000
  141.0732  133.6787  156.2182 LP  0  0  0  0  0  0  0  0  0  0  0  0  # atno 17395 bound_to 11000

$$$$
