#       Name:                AV-unprocessed.smi:2061
#       Creating user name   scv26
#       Creation time:       Fri Mar 27 11:03:32 2020


#       File generated by GOLD software.
#

@<TRIPOS>MOLECULE
AV-unprocessed.smi:2061
    53    54     1
SMALL
NO_CHARGES


@<TRIPOS>ATOM
      1 ****        -4.3635   5.1355   3.0513 C.3            1 S1                 0.0000
      2 ****        -3.7078   3.8135   2.8405 C.2            1 S1                 0.0000
      3 ****        -3.2747   3.1577   1.7224 C.2            1 S1                 0.0000
      4 ****        -2.7568   1.9425   2.2445 C.2            1 S1                 0.0000
      5 ****        -2.2014   0.9586   1.3869 N.am           1 S1                 0.0000
      6 ****        -1.6963  -0.2377   1.7328 C.2            1 S1                 0.0000
      7 ****        -1.6316  -0.6738   2.8825 O.2            1 S1                 0.0000
      8 ****        -1.2609  -0.9107   0.6581 N.am           1 S1                 0.0000
      9 ****        -0.6458  -2.2368   0.6745 C.3            1 S1                 0.0000
     10 ****         0.9012  -2.1769   0.5680 C.3            1 S1                 0.0000
     11 ****         1.4659  -1.6782   1.9175 C.3            1 S1                 0.0000
     12 ****         1.3967  -1.4124  -0.5981 N.3            1 S1                 0.0000
     13 ****         0.8876  -1.9323  -1.8689 C.3            1 S1                 0.0000
     14 ****         1.3775  -1.1178  -3.0797 C.3            1 S1                 0.0000
     15 ****         0.9054  -1.7189  -4.4077 C.3            1 S1                 0.0000
     16 ****         2.8014  -1.0909  -3.0898 O.3            1 S1                 0.0000
     17 ****         3.4008  -0.6102  -1.8881 C.3            1 S1                 0.0000
     18 ****         3.2622   0.9156  -1.7487 C.3            1 S1                 0.0000
     19 ****         2.8605  -1.3868  -0.6708 C.3            1 S1                 0.0000
     20 ****        -2.8616   1.8651   3.5623 N.2            1 S1                 0.0000
     21 ****        -3.4722   3.0633   3.9508 O.3            1 S1                 0.0000
     22 ****        -4.1493   5.8125   2.2241 H              1 S1                 0.0000
     23 ****        -4.0098   5.6040   3.9699 H              1 S1                 0.0000
     24 ****        -5.4451   5.0210   3.1242 H              1 S1                 0.0000
     25 ****        -3.3249   3.4944   0.6977 H              1 S1                 0.0000
     26 ****        -2.1921   1.1885   0.4043 H              1 S1                 0.0000
     27 ****        -1.3461  -0.4675  -0.2448 H              1 S1                 0.0000
     28 ****        -0.9402  -2.7874   1.5695 H              1 S1                 0.0000
     29 ****        -1.0679  -2.8156  -0.1462 H              1 S1                 0.0000
     30 ****         1.2385  -3.2089   0.4590 H              1 S1                 0.0000
     31 ****         0.9824  -2.1772   2.7577 H              1 S1                 0.0000
     32 ****         1.3168  -0.6052   2.0424 H              1 S1                 0.0000
     33 ****         2.5312  -1.8835   2.0170 H              1 S1                 0.0000
     34 ****         1.1825  -2.9764  -1.9848 H              1 S1                 0.0000
     35 ****        -0.2006  -1.9095  -1.8823 H              1 S1                 0.0000
     36 ****         0.9951  -0.0991  -3.0116 H              1 S1                 0.0000
     37 ****        -0.1830  -1.7474  -4.4611 H              1 S1                 0.0000
     38 ****         1.2741  -2.7372  -4.5338 H              1 S1                 0.0000
     39 ****         1.2639  -1.1284  -5.2512 H              1 S1                 0.0000
     40 ****         4.4665  -0.8242  -1.9735 H              1 S1                 0.0000
     41 ****         3.8270   1.2784  -0.8897 H              1 S1                 0.0000
     42 ****         2.2261   1.2229  -1.6087 H              1 S1                 0.0000
     43 ****         3.6458   1.4230  -2.6339 H              1 S1                 0.0000
     44 ****         3.2844  -0.9357   0.2249 H              1 S1                 0.0000
     45 ****         3.2368  -2.4102  -0.7104 H              1 S1                 0.0000
     46 ****        -1.9713  -0.1241   3.6457 LP             1 S1                 0.0000
     47 ****        -1.2393  -1.5777   3.0531 LP             1 S1                 0.0000
     48 ****         1.0531  -0.4839  -0.4574 LP             1 S1                 0.0000
     49 ****         3.0958  -0.5008  -3.8415 LP             1 S1                 0.0000
     50 ****         3.1287  -2.0222  -3.2493 LP             1 S1                 0.0000
     51 ****        -2.5679   1.1131   4.1525 LP             1 S1                 0.0000
     52 ****        -4.3367   2.8659   4.4131 LP             1 S1                 0.0000
     53 ****        -2.8683   3.5625   4.5722 LP             1 S1                 0.0000
@<TRIPOS>BOND
    1    1    2 1     
    2    1   22 1     
    3    1   23 1     
    4    1   24 1     
    5    2   21 1     
    6    2    3 2     
    7    3    4 1     
    8    3   25 1     
    9    4    5 1     
   10    4   20 2     
   11    5    6 am    
   12    5   26 1     
   13    6    7 2     
   14    6    8 am    
   15    8    9 1     
   16    8   27 1     
   17    9   10 1     
   18    9   28 1     
   19    9   29 1     
   20   10   11 1     
   21   10   12 1     
   22   10   30 1     
   23   11   31 1     
   24   11   32 1     
   25   11   33 1     
   26   12   19 1     
   27   12   13 1     
   28   13   14 1     
   29   13   34 1     
   30   13   35 1     
   31   14   15 1     
   32   14   16 1     
   33   14   36 1     
   34   15   37 1     
   35   15   38 1     
   36   15   39 1     
   37   16   17 1     
   38   17   18 1     
   39   17   19 1     
   40   17   40 1     
   41   18   41 1     
   42   18   42 1     
   43   18   43 1     
   44   19   44 1     
   45   19   45 1     
   46   20   21 1     
   47    7   46 1     
   48    7   47 1     
   49   12   48 1     
   50   16   49 1     
   51   16   50 1     
   52   20   51 1     
   53   21   52 1     
   54   21   53 1     
@<TRIPOS>SUBSTRUCTURE
      1 S1             1
@<TRIPOS>SET
LONE_PAIRS      STATIC     ATOMS    <user>   **** ""
8 46 47 48 49 50 51 52 53
DONOR_HYDROGENS      STATIC     ATOMS    <user>   **** ""
2 26 27
ATOM$BLUE        STATIC     ATOMS    COLORGROUP SYSTEM
8 46 47 48 49 50 51 52 53
ATOM$RED        STATIC     ATOMS    COLORGROUP SYSTEM
2 26 27
