#       Name:                AV-unprocessed.smi:2567
#       Creating user name   scv26
#       Creation time:       Fri Mar 27 14:11:12 2020


#       File generated by GOLD software.
#

@<TRIPOS>MOLECULE
AV-unprocessed.smi:2567
    38    39     1
SMALL
NO_CHARGES


@<TRIPOS>ATOM
      1 ****        -3.2415   2.2413  -1.4154 C.3            1 S1                 0.0000
      2 ****        -2.6439   0.9002  -0.9446 C.3            1 S1                 0.0000
      3 ****        -3.3172   0.5423   0.3956 C.3            1 S1                 0.0000
      4 ****        -2.9279  -0.1954  -1.9863 C.3            1 S1                 0.0000
      5 ****        -1.1375   1.0407  -0.7493 C.2            1 S1                 0.0000
      6 ****        -0.3098   1.7920  -1.5016 N.pl3          1 S1                -1.0000
      7 ****         0.9409   1.5910  -1.1416 N.2            1 S1                 0.0000
      8 ****         0.8859   0.6723  -0.1665 C.2            1 S1                 0.0000
      9 ****         2.0981   0.0837   0.5275 C.3            1 S1                 0.0000
     10 ****         2.6066  -1.1672  -0.2172 C.3            1 S1                 0.0000
     11 ****         3.7680  -1.7392   0.4642 N.3            1 S1                 0.0000
     12 ****         3.4739  -2.0173   1.8681 C.3            1 S1                 0.0000
     13 ****         2.9533  -0.7485   2.5642 C.3            1 S1                 0.0000
     14 ****         1.8027  -0.2699   1.8775 O.3            1 S1                 0.0000
     15 ****        -0.3823   0.3009   0.0601 N.2            1 S1                 0.0000
     16 ****        -4.3228   2.1737  -1.5388 H              1 S1                 0.0000
     17 ****        -2.8254   2.5494  -2.3753 H              1 S1                 0.0000
     18 ****        -3.0402   3.0385  -0.6987 H              1 S1                 0.0000
     19 ****        -3.1164   1.2995   1.1544 H              1 S1                 0.0000
     20 ****        -2.9581  -0.4124   0.7816 H              1 S1                 0.0000
     21 ****        -4.3993   0.4612   0.2883 H              1 S1                 0.0000
     22 ****        -3.9988  -0.3252  -2.1458 H              1 S1                 0.0000
     23 ****        -2.5215  -1.1564  -1.6688 H              1 S1                 0.0000
     24 ****        -2.4775   0.0497  -2.9487 H              1 S1                 0.0000
     25 ****         2.8744   0.8514   0.5278 H              1 S1                 0.0000
     26 ****         1.8087  -1.9087  -0.2739 H              1 S1                 0.0000
     27 ****         2.8680  -0.9106  -1.2440 H              1 S1                 0.0000
     28 ****         2.7261  -2.8077   1.9413 H              1 S1                 0.0000
     29 ****         4.3681  -2.3827   2.3730 H              1 S1                 0.0000
     30 ****         2.6799  -0.9726   3.5951 H              1 S1                 0.0000
     31 ****         3.7225   0.0246   2.5997 H              1 S1                 0.0000
     32 ****         4.0436  -2.5977  -0.0016 H              1 S1                 0.0000
     33 ****        -0.6030   2.4128  -2.2286 LP             1 S1                 0.0000
     34 ****         1.7577   2.0300  -1.5158 LP             1 S1                 0.0000
     35 ****         4.5138  -1.0741   0.4270 LP             1 S1                 0.0000
     36 ****         1.1043  -0.9856   1.8789 LP             1 S1                 0.0000
     37 ****         1.4540   0.5370   2.3542 LP             1 S1                 0.0000
     38 ****        -0.6979  -0.3929   0.7075 LP             1 S1                 0.0000
@<TRIPOS>BOND
    1    1    2 1     
    2    1   16 1     
    3    1   17 1     
    4    1   18 1     
    5    2    3 1     
    6    2    4 1     
    7    2    5 1     
    8    3   19 1     
    9    3   20 1     
   10    3   21 1     
   11    4   22 1     
   12    4   23 1     
   13    4   24 1     
   14    5   15 2     
   15    5    6 1     
   16    6    7 1     
   17    7    8 2     
   18    8    9 1     
   19    8   15 1     
   20    9   14 1     
   21    9   10 1     
   22    9   25 1     
   23   10   11 1     
   24   10   26 1     
   25   10   27 1     
   26   11   12 1     
   27   11   32 1     
   28   12   13 1     
   29   12   28 1     
   30   12   29 1     
   31   13   14 1     
   32   13   30 1     
   33   13   31 1     
   34    6   33 1     
   35    7   34 1     
   36   11   35 1     
   37   14   36 1     
   38   14   37 1     
   39   15   38 1     
@<TRIPOS>SUBSTRUCTURE
      1 S1             1
@<TRIPOS>SET
LONE_PAIRS      STATIC     ATOMS    <user>   **** ""
6 33 34 35 36 37 38
DONOR_HYDROGENS      STATIC     ATOMS    <user>   **** ""
1 32
ATOM$BLUE        STATIC     ATOMS    COLORGROUP SYSTEM
6 33 34 35 36 37 38
ATOM$RED        STATIC     ATOMS    COLORGROUP SYSTEM
1 32
