#       Name:                AV-unprocessed.smi:72
#       Creating user name   scv26
#       Creation time:       Thu Mar 26 17:08:00 2020


#       File generated by GOLD software.
#

@<TRIPOS>MOLECULE
AV-unprocessed.smi:72
    41    42     1
SMALL
NO_CHARGES


@<TRIPOS>ATOM
      1 ****        -5.0490  -0.3840  -0.2854 N.pl3          1 S1                 0.0000
      2 ****        -3.6836  -0.5770  -0.2793 C.2            1 S1                 0.0000
      3 ****        -2.8907   0.5775  -0.3382 N.2            1 S1                 0.0000
      4 ****        -1.6077   0.3989  -0.3413 C.2            1 S1                 0.0000
      5 ****        -1.0302  -0.9320  -0.2867 N.am           1 S1                 0.0000
      6 ****         0.4715  -1.1361  -0.2897 C.3            1 S1                 0.0000
      7 ****         1.0565  -0.1723  -1.1147 O.3            1 S1                 0.0000
      8 ****         2.2322   0.3338  -0.4940 C.3            1 S1                 0.0000
      9 ****         2.6176   1.7037  -1.0796 C.3            1 S1                 0.0000
     10 ****         3.8414   2.1448  -0.5313 O.3            1 S1                 0.0000
     11 ****         1.9162   0.2780   1.0080 C.3            1 S1                 0.0000
     12 ****         1.1793   1.4178   1.4186 O.3            1 S1                 0.0000
     13 ****         1.1071  -1.0114   1.1129 C.3            1 S1                 0.0000
     14 ****         0.2053  -1.0201   2.2062 O.3            1 S1                 0.0000
     15 ****        -1.8945  -2.0590  -0.2117 C.2            1 S1                 0.0000
     16 ****        -1.4293  -3.1962  -0.1354 O.2            1 S1                 0.0000
     17 ****        -3.2725  -1.8112  -0.2192 N.2            1 S1                 0.0000
     18 ****         0.6517  -2.1118  -0.7426 H              1 S1                 0.0000
     19 ****         3.0303  -0.3803  -0.7067 H              1 S1                 0.0000
     20 ****         2.8254   0.2304   1.6084 H              1 S1                 0.0000
     21 ****         1.7926  -1.8520   1.2273 H              1 S1                 0.0000
     22 ****        -5.7173  -1.1397  -0.2463 H              1 S1                 0.0000
     23 ****        -5.4814   0.5272  -0.3289 H              1 S1                 0.0000
     24 ****        -0.8909   1.2200  -0.3825 H              1 S1                 0.0000
     25 ****         2.7369   1.6223  -2.1603 H              1 S1                 0.0000
     26 ****         1.8431   2.4505  -0.9034 H              1 S1                 0.0000
     27 ****         4.0747   2.9651  -0.9387 H              1 S1                 0.0000
     28 ****         1.7260   2.1809   1.3081 H              1 S1                 0.0000
     29 ****        -0.3602  -0.2668   2.1275 H              1 S1                 0.0000
     30 ****        -3.2946   1.4915  -0.3759 LP             1 S1                 0.0000
     31 ****         0.4098   0.5758  -1.2635 LP             1 S1                 0.0000
     32 ****         1.2952  -0.5862  -1.9932 LP             1 S1                 0.0000
     33 ****         4.5541   1.4659  -0.7078 LP             1 S1                 0.0000
     34 ****         3.7416   2.2746   0.4552 LP             1 S1                 0.0000
     35 ****         0.9197   1.3242   2.3798 LP             1 S1                 0.0000
     36 ****         0.3559   1.5078   0.8583 LP             1 S1                 0.0000
     37 ****         0.7144  -0.9732   3.0656 LP             1 S1                 0.0000
     38 ****        -0.3412  -1.8574   2.1878 LP             1 S1                 0.0000
     39 ****        -0.4386  -3.3316  -0.1259 LP             1 S1                 0.0000
     40 ****        -2.0422  -3.9847  -0.0829 LP             1 S1                 0.0000
     41 ****        -3.9272  -2.5661  -0.1792 LP             1 S1                 0.0000
@<TRIPOS>BOND
    1    1    2 1     
    2    1   22 1     
    3    1   23 1     
    4    2   17 2     
    5    2    3 1     
    6    3    4 2     
    7    4    5 1     
    8    4   24 1     
    9    5    6 1     
   10    5   15 am    
   11    6   18 1     
   12    6   13 1     
   13    6    7 1     
   14    7    8 1     
   15    8   19 1     
   16    8    9 1     
   17    8   11 1     
   18    9   10 1     
   19    9   25 1     
   20    9   26 1     
   21   10   27 1     
   22   11   20 1     
   23   11   12 1     
   24   11   13 1     
   25   12   28 1     
   26   13   21 1     
   27   13   14 1     
   28   14   29 1     
   29   15   16 2     
   30   15   17 1     
   31    3   30 1     
   32    7   31 1     
   33    7   32 1     
   34   10   33 1     
   35   10   34 1     
   36   12   35 1     
   37   12   36 1     
   38   14   37 1     
   39   14   38 1     
   40   16   39 1     
   41   16   40 1     
   42   17   41 1     
@<TRIPOS>SUBSTRUCTURE
      1 S1             1
@<TRIPOS>SET
LONE_PAIRS      STATIC     ATOMS    <user>   **** ""
12 30 31 32 33 34 35 36 37 38 39 40 41
DONOR_HYDROGENS      STATIC     ATOMS    <user>   **** ""
5 22 23 27 28 29
ATOM$BLUE        STATIC     ATOMS    COLORGROUP SYSTEM
12 30 31 32 33 34 35 36 37 38 39 40 41
ATOM$RED        STATIC     ATOMS    COLORGROUP SYSTEM
5 22 23 27 28 29
