AV-unprocessed.smi:3314|AV-procd|sdf|12742|dock3
  -GOLD-   2272019 83D 1   1.00000     0.00000
 Structure written by MMmdl.
 38 39  0  0  0  0  0  0  0  0  2 V2000
  153.2073  140.8738  159.8467 C   0  0  0  0  0  0  0  0  0  0  0  0
  152.4328  141.8812  159.0223 C   0  0  0  0  0  0  0  0  0  0  0  0
  152.5282  143.2614  159.2968 C   0  0  0  0  0  0  0  0  0  0  0  0
  151.8001  144.1692  158.5019 C   0  0  0  0  0  0  0  0  0  0  0  0
  151.8557  145.6657  158.7253 C   0  0  0  0  0  0  0  0  0  0  0  0
  151.0223  143.7053  157.4986 N   0  3  0  0  0  0  0  0  0  0  0  0
  150.8846  142.3932  157.1977 C   0  0  0  0  0  0  0  0  0  0  0  0
  150.0404  142.0720  156.0998 N   0  0  0  0  0  0  0  0  0  0  0  0
  150.1156  141.0361  155.2434 C   0  0  0  0  0  0  0  0  0  0  0  0
  150.9654  140.1466  155.2946 O   0  0  0  0  0  0  0  0  0  0  0  0
  149.0365  141.0163  154.1533 C   0  0  1  0  0  0  0  0  0  0  0  0
  148.2866  139.6682  154.0548 C   0  0  0  0  0  0  0  0  0  0  0  0
  147.2316  139.7133  153.0514 N   0  0  0  0  0  0  0  0  0  0  0  0
  146.5289  138.4430  152.9532 C   0  0  0  0  0  0  0  0  0  0  0  0
  146.3205  140.8100  153.3489 C   0  0  0  0  0  0  0  0  0  0  0  0
  147.0644  142.1522  153.4540 C   0  0  0  0  0  0  0  0  0  0  0  0
  148.0970  142.0543  154.4313 O   0  0  0  0  0  0  0  0  0  0  0  0
  151.6091  141.4440  157.9631 C   0  0  0  0  0  0  0  0  0  0  0  0
  153.7794  141.3607  160.6371 H   0  0  0  0  0  0  0  0  0  0  0  0
  153.9027  140.3221  159.2136 H   0  0  0  0  0  0  0  0  0  0  0  0
  152.5254  140.1606  160.3108 H   0  0  0  0  0  0  0  0  0  0  0  0
  153.1539  143.6195  160.1016 H   0  0  0  0  0  0  0  0  0  0  0  0
  152.4887  145.9124  159.5782 H   0  0  0  0  0  0  0  0  0  0  0  0
  150.8573  146.0597  158.9176 H   0  0  0  0  0  0  0  0  0  0  0  0
  152.2603  146.1663  157.8452 H   0  0  0  0  0  0  0  0  0  0  0  0
  149.2455  142.6816  155.9723 H   0  0  0  0  0  0  0  0  0  0  0  0
  149.5254  141.2289  153.2007 H   0  0  0  0  0  0  0  0  0  0  0  0
  148.9917  138.8740  153.8057 H   0  0  0  0  0  0  0  0  0  0  0  0
  147.8580  139.4126  155.0258 H   0  0  0  0  0  0  0  0  0  0  0  0
  145.7679  138.4823  152.1732 H   0  0  0  0  0  0  0  0  0  0  0  0
  146.0386  138.1897  153.8941 H   0  0  0  0  0  0  0  0  0  0  0  0
  147.2198  137.6376  152.7021 H   0  0  0  0  0  0  0  0  0  0  0  0
  145.5561  140.8774  152.5740 H   0  0  0  0  0  0  0  0  0  0  0  0
  145.7985  140.6128  154.2867 H   0  0  0  0  0  0  0  0  0  0  0  0
  147.4928  142.4322  152.4905 H   0  0  0  0  0  0  0  0  0  0  0  0
  146.3752  142.9463  153.7409 H   0  0  0  0  0  0  0  0  0  0  0  0
  151.5608  140.3868  157.7527 H   0  0  0  0  0  0  0  0  0  0  0  0
  150.5085  144.3868  156.9394 H   0  0  0  0  0  0  0  0  0  0  0  0
  1  2  1  0  0  0  0
  1 19  1  0  0  0  0
  1 20  1  0  0  0  0
  1 21  1  0  0  0  0
  2 18  1  0  0  0  0
  2  3  2  0  0  0  0
  3  4  1  0  0  0  0
  3 22  1  0  0  0  0
  4  5  1  0  0  0  0
  4  6  2  0  0  0  0
  5 23  1  0  0  0  0
  5 24  1  0  0  0  0
  5 25  1  0  0  0  0
  6  7  1  0  0  0  0
  6 38  1  0  0  0  0
  7  8  1  0  0  0  0
  7 18  2  0  0  0  0
  8  9  1  0  0  0  0
  8 26  1  0  0  0  0
  9 10  2  0  0  0  0
  9 11  1  0  0  0  0
 11 17  1  0  0  0  0
 11 12  1  0  0  0  0
 11 27  1  0  0  0  0
 12 13  1  0  0  0  0
 12 28  1  0  0  0  0
 12 29  1  0  0  0  0
 13 14  1  0  0  0  0
 13 15  1  0  0  0  0
 14 30  1  0  0  0  0
 14 31  1  0  0  0  0
 14 32  1  0  0  0  0
 15 16  1  0  0  0  0
 15 33  1  0  0  0  0
 15 34  1  0  0  0  0
 16 17  1  0  0  0  0
 16 35  1  0  0  0  0
 16 36  1  0  0  0  0
 18 37  1  0  0  0  0
M  CHG  1   6   1
M  END
> <s_m_source_file>
AV-unprocessed.smi

> <i_m_source_file_index>
3314

> <i_lp_mmshare_version>
43012

> <i_f3d_flags>
0

> <s_epik_input>
W0NIM11jMVtjSF1jKFtDSDNdKW5jKFtjSF0xKVtOSF1DKD1PKVtDQEBIXTJbQ0gyXU4oW0NIM10pW0NIMl1bQ0gyXU8y

> <s_epik_cmdline>
J2VwaWtfcHl0aG9uJywgJy1waCcsICc3LjAnLCAnLXRuJywgJzgnLCAnLW1hJywgJzIwMCcsICctbWV0YWxfYmluZGluZycsICctaW1hZScsICc8aW5maWxlLm1hZT4nLCAnLW9tYWUnLCAnPG91dGZpbGUubWFlPic=

> <r_epik_Ionization_Penalty>
2.57421

> <r_epik_Ionization_Penalty_Charging>
1.80498

> <r_epik_Ionization_Penalty_Neutral>
0.76923

> <r_epik_State_Penalty>
2.63884

> <r_epik_Charging_Adjusted_Penalty>
4.44382

> <i_epik_Tot_Q>
1

> <i_epik_Tot_abs_Q>
1

> <r_epik_Metal_State_Penalty>
6.15142

> <b_epik_Metal_Only>
0

> <s_lp_Force_Field>
OPLS_2005

> <r_lp_Energy>
30.3211

> <b_lp_Chiralities_Consistent>
1

> <s_lp_Variant>
AV-unprocessed.smi:3314-12

> <Gold.Version>
5.8.1

> <Gold.Id.Protein>
6NUR|6NUR_protein|mol2

> <Gold.PLP.Fitness>
43.6674

> <Gold.PLP.PLP>
-34.5652

> <Gold.PLP.part.hbond>
-3.0000

> <Gold.PLP.part.metal>
0.0000

> <Gold.PLP.part.buried>
0.0281

> <Gold.PLP.part.nonpolar>
-31.8432

> <Gold.PLP.part.repulsive>
1.0532

> <Gold.PLP.ligand.clash>
0.0000

> <Gold.PLP.ligand.torsion>
0.3041

> <Gold.PLP.Chemscore.Hbond>
3.2360

> <Gold.PLP.Chemscore.CHOScore>
0.0000

> <Gold.PLP.Chemscore.Metal>
0.0000

> <Gold.Chemscore.Hbonds>
donor molecule, donor type, donor heavy atom, donor atom, acceptor molecule, acceptor atom, score
      L1  H     6    38       P1  8028  1.78
      L1  H     8    26       P1  8028  0.65
      P1  H  7989  7998       L1    10  0.29

> <Gold.PLP.Chemscore.Internal.Correction>
0.0023

> <Gold.Rescore>
     Score         DG    S(hbond)    S(metal)    S(lipo)     H(rot)  DE(clash)    DE(int)     intcor
     16.84     -19.66       1.61        0.00      97.03       1.00       2.48       0.34       ----

> <Gold.Chemscore.Fitness>
16.8409

> <Gold.Chemscore.DG>
-19.6631

> <Gold.Chemscore.ZeroCoef>
-5.4800

> <Gold.Chemscore.Hbond>
1.6141

> <Gold.Chemscore.Metal>
0.0000

> <Gold.Chemscore.Lipo>
97.0250

> <Gold.Chemscore.Internal_Hbond>
0.0000

> <Gold.Chemscore.DEClash>
2.4824

> <Gold.Chemscore.DEInternal>
0.3397

> <Gold.Chemscore.Rot>
1.0000

> <Gold.Chemscore.Internal.Correction>
   9.000000E+99

> <Gold.Chemscore.Hbonds>
donor molecule, donor type, donor heavy atom, donor atom, acceptor molecule, acceptor atom, score
      L1  H     6    38       P1  8028  0.76
      L1  H     8    26       P1  8028  0.62

> <Gold.Chemscore.Hbond.Weighted>
-5.3912

> <Gold.Chemscore.Metal.Weighted>
-0.0000

> <Gold.Chemscore.Lipo.Weighted>
-11.3519

> <Gold.Chemscore.Internal_Hbond.Weighted>
0.0000

> <Gold.Chemscore.DEClash.Weighted>
2.4824

> <Gold.Chemscore.DEInternal.Weighted>
0.3397

> <Gold.Chemscore.Rot.Weighted>
2.5600

> <Gold.Chemscore.Internal.Correction.Weighted>
   9.000000E+99

> <Gold.Protein.RotatedTorsions>
[ 6907 6896 6895 6894 ] final  136.02 input  -60.11 | X-H torsion
[ 7974 7965 7964 7962 ] final -171.84 input  175.53 | X-H torsion
[ 8008 7997 7996 7995 ] final  171.92 input   59.86 | X-H torsion
[ 10167 10162 10161 10158 ] final   -3.96 input  -65.29 | X-H torsion
[ 10718 10713 10712 10709 ] final -111.86 input   66.30 | X-H torsion
[ 10763 10752 10751 10750 ] final   18.32 input  -60.55 | X-H torsion
[ 11005 11000 10999 10996 ] final   34.08 input  -57.11 | X-H torsion

> <Gold.Protein.ActiveResidues>
 VAL166  LYS551  ARG553  GLY616  TRP617  ASP618  TYR619  PRO620  LYS621  CYS622 
 ASP623  PHE694  ASN695  SER759  ASP760  ASP761  ALA762  ILE779  LEU786  VAL792 
 PHE793  MET794  SER795  GLU796  ALA797  LYS798  CYS799  TRP800  GLU811  SER814 

> <Gold.Protein.RotatedAtoms>
  152.2940  133.5589  159.5575 H   0  0  0  0  0  0  0  0  0  0  0  0  # atno 6907 bound_to 6896
  150.7247  134.0388  159.3767 H   0  0  0  0  0  0  0  0  0  0  0  0  # atno 6908 bound_to 6896
  151.8292  135.0627  160.0485 H   0  0  0  0  0  0  0  0  0  0  0  0  # atno 6909 bound_to 6896
  144.7152  140.1862  143.6353 H   0  0  0  0  0  0  0  0  0  0  0  0  # atno 7974 bound_to 7965
  156.1224  140.1499  156.9185 H   0  0  0  0  0  0  0  0  0  0  0  0  # atno 8008 bound_to 7997
  154.4846  140.0869  156.7498 H   0  0  0  0  0  0  0  0  0  0  0  0  # atno 8009 bound_to 7997
  155.4404  140.3431  155.4291 H   0  0  0  0  0  0  0  0  0  0  0  0  # atno 8010 bound_to 7997
  140.6910  143.6479  150.8376 H   0  0  0  0  0  0  0  0  0  0  0  0  # atno 10167 bound_to 10162
  156.0671  130.5889  150.8430 H   0  0  0  0  0  0  0  0  0  0  0  0  # atno 10718 bound_to 10713
  153.1259  135.6729  153.9257 H   0  0  0  0  0  0  0  0  0  0  0  0  # atno 10763 bound_to 10752
  153.8759  135.3064  155.3445 H   0  0  0  0  0  0  0  0  0  0  0  0  # atno 10764 bound_to 10752
  154.7664  135.4962  153.9644 H   0  0  0  0  0  0  0  0  0  0  0  0  # atno 10765 bound_to 10752
  140.2565  134.3242  155.7872 H   0  0  0  0  0  0  0  0  0  0  0  0  # atno 11005 bound_to 11000
  145.8811  139.2323  143.1605 LP  0  0  0  0  0  0  0  0  0  0  0  0  # atno 17320 bound_to 7965
  145.9994  140.8533  143.0026 LP  0  0  0  0  0  0  0  0  0  0  0  0  # atno 17321 bound_to 7965
  140.0192  143.5560  152.2807 LP  0  0  0  0  0  0  0  0  0  0  0  0  # atno 17342 bound_to 10162
  139.6312  144.7644  151.2532 LP  0  0  0  0  0  0  0  0  0  0  0  0  # atno 17343 bound_to 10162
  157.5720  131.0946  150.9403 LP  0  0  0  0  0  0  0  0  0  0  0  0  # atno 17370 bound_to 10713
  156.9617  130.5458  149.5286 LP  0  0  0  0  0  0  0  0  0  0  0  0  # atno 17371 bound_to 10713
  141.2195  133.7384  156.9120 LP  0  0  0  0  0  0  0  0  0  0  0  0  # atno 17394 bound_to 11000
  140.1506  134.9232  157.2588 LP  0  0  0  0  0  0  0  0  0  0  0  0  # atno 17395 bound_to 11000

$$$$
