AV-unprocessed.smi:1131|AV-procd|sdf|4852|dock10
  -GOLD-   22720 3423D 1   1.00000     0.00000
 Structure written by MMmdl.
 32 33  0  0  0  0  0  0  0  0  2 V2000
  150.6823  140.7412  154.7968 O   0  0  0  0  0  0  0  0  0  0  0  0
  151.2833  140.2876  155.7714 C   0  0  0  0  0  0  0  0  0  0  0  0
  152.0145  138.9429  155.6773 C   0  0  0  0  0  0  0  0  0  0  0  0
  151.2624  137.8519  156.3163 N   0  0  0  0  0  0  0  0  0  0  0  0
  150.8608  138.0255  157.6525 C   0  0  0  0  0  0  0  0  0  0  0  0
  150.1709  137.0778  158.3154 C   0  0  0  0  0  0  0  0  0  0  0  0
  149.8407  135.8446  157.6118 C   0  0  0  0  0  0  0  0  0  0  0  0
  149.2079  134.9701  158.2001 O   0  0  0  0  0  0  0  0  0  0  0  0
  150.2563  135.7219  156.3171 N   0  5  0  0  0  0  0  0  0  0  0  0
  150.9587  136.6934  155.6560 C   0  0  0  0  0  0  0  0  0  0  0  0
  151.3256  136.5613  154.4875 O   0  0  0  0  0  0  0  0  0  0  0  0
  151.3595  140.9211  156.9509 N   0  0  0  0  0  0  0  0  0  0  0  0
  150.7001  142.1813  157.2728 C   0  0  0  0  0  0  0  0  0  0  0  0
  151.6111  143.1145  158.0944 C   0  0  2  0  0  0  0  0  0  0  0  0
  151.9206  142.6038  159.4864 C   0  0  0  0  0  0  0  0  0  0  0  0
  152.3859  143.8779  160.1801 C   0  0  0  0  0  0  0  0  0  0  0  0
  151.5632  144.9078  159.6451 O   0  0  0  0  0  0  0  0  0  0  0  0
  151.0201  144.4971  158.3919 C   0  0  0  0  0  0  0  0  0  0  0  0
  152.1896  138.7251  154.6231 H   0  0  0  0  0  0  0  0  0  0  0  0
  153.0079  139.0205  156.1235 H   0  0  0  0  0  0  0  0  0  0  0  0
  151.1504  138.9637  158.1024 H   0  0  0  0  0  0  0  0  0  0  0  0
  149.8719  137.2256  159.3427 H   0  0  0  0  0  0  0  0  0  0  0  0
  151.8787  140.4747  157.6929 H   0  0  0  0  0  0  0  0  0  0  0  0
  150.4199  142.6614  156.3348 H   0  0  0  0  0  0  0  0  0  0  0  0
  149.7707  141.9877  157.8107 H   0  0  0  0  0  0  0  0  0  0  0  0
  152.5582  143.2527  157.5698 H   0  0  0  0  0  0  0  0  0  0  0  0
  151.0175  142.2247  159.9672 H   0  0  0  0  0  0  0  0  0  0  0  0
  152.6733  141.8149  159.4966 H   0  0  0  0  0  0  0  0  0  0  0  0
  152.3036  143.8215  161.2657 H   0  0  0  0  0  0  0  0  0  0  0  0
  153.4253  144.0912  159.9271 H   0  0  0  0  0  0  0  0  0  0  0  0
  151.2540  145.2168  157.6065 H   0  0  0  0  0  0  0  0  0  0  0  0
  149.9350  144.4485  158.4898 H   0  0  0  0  0  0  0  0  0  0  0  0
  1  2  2  0  0  0  0
  2  3  1  0  0  0  0
  2 12  1  0  0  0  0
  3  4  1  0  0  0  0
  3 19  1  0  0  0  0
  3 20  1  0  0  0  0
  4 10  1  0  0  0  0
  4  5  1  0  0  0  0
  5  6  2  0  0  0  0
  5 21  1  0  0  0  0
  6  7  1  0  0  0  0
  6 22  1  0  0  0  0
  7  8  2  0  0  0  0
  7  9  1  0  0  0  0
  9 10  1  0  0  0  0
 10 11  2  0  0  0  0
 12 13  1  0  0  0  0
 12 23  1  0  0  0  0
 13 14  1  0  0  0  0
 13 24  1  0  0  0  0
 13 25  1  0  0  0  0
 14 18  1  0  0  0  0
 14 15  1  0  0  0  0
 14 26  1  0  0  0  0
 15 16  1  0  0  0  0
 15 27  1  0  0  0  0
 15 28  1  0  0  0  0
 16 17  1  0  0  0  0
 16 29  1  0  0  0  0
 16 30  1  0  0  0  0
 17 18  1  0  0  0  0
 18 31  1  0  0  0  0
 18 32  1  0  0  0  0
M  CHG  1   9  -1
M  END
> <s_m_source_file>
AV-unprocessed.smi

> <i_m_source_file_index>
1131

> <i_lp_mmshare_version>
43012

> <i_f3d_flags>
0

> <s_epik_input>
W0NIMl0xT1tDSDJdW0NIMl1bQ0BIXTFbQ0gyXVtOSF1DKD1PKVtDSDJdbjJbY0hdW2NIXWMoPU8pW25IXWMyPU8=

> <s_epik_cmdline>
J2VwaWtfcHl0aG9uJywgJy1waCcsICc3LjAnLCAnLXRuJywgJzgnLCAnLW1hJywgJzIwMCcsICctbWV0YWxfYmluZGluZycsICctaW1hZScsICc8aW5maWxlLm1hZT4nLCAnLW9tYWUnLCAnPG91dGZpbGUubWFlPic=

> <r_lp_tautomer_probability>
0.999537

> <r_epik_Ionization_Penalty>
3.07866

> <r_epik_Ionization_Penalty_Charging>
2.6898e-08

> <r_epik_Ionization_Penalty_Neutral>
3.07866

> <r_epik_State_Penalty>
3.07769

> <r_epik_Charging_Adjusted_Penalty>
3.07769

> <i_epik_Tot_Q>
-1

> <i_epik_Tot_abs_Q>
1

> <r_epik_Metal_State_Penalty>
0.459839

> <b_epik_Metal_Only>
1

> <s_lp_Force_Field>
OPLS_2005

> <r_lp_Energy>
26.4243

> <b_lp_Chiralities_Consistent>
1

> <s_lp_Variant>
AV-unprocessed.smi:1131-3

> <Gold.Version>
5.8.1

> <Gold.Id.Protein>
6NUR|6NUR_protein|mol2

> <Gold.PLP.Fitness>
36.4223

> <Gold.PLP.PLP>
-28.6765

> <Gold.PLP.part.hbond>
-2.8615

> <Gold.PLP.part.metal>
0.0000

> <Gold.PLP.part.buried>
-3.6403

> <Gold.PLP.part.nonpolar>
-23.1307

> <Gold.PLP.part.repulsive>
0.4809

> <Gold.PLP.ligand.clash>
0.0000

> <Gold.PLP.ligand.torsion>
0.4260

> <Gold.PLP.Chemscore.Hbond>
2.8640

> <Gold.PLP.Chemscore.CHOScore>
0.0000

> <Gold.PLP.Chemscore.Metal>
0.0000

> <Gold.Chemscore.Hbonds>
donor molecule, donor type, donor heavy atom, donor atom, acceptor molecule, acceptor atom, score
      P1  H  6896  6908       L1     8  0.90
      P1  H  7989  7998       L1     1  0.88
      P1  H 10752 10764       L1    11  1.00

> <Gold.PLP.Chemscore.Internal.Correction>
0.0059

> <Gold.Rescore>
     Score         DG    S(hbond)    S(metal)    S(lipo)     H(rot)  DE(clash)    DE(int)     intcor
     13.68     -14.84       2.01        0.00      67.57       2.05       0.05       1.11       ----

> <Gold.Chemscore.Fitness>
13.6801

> <Gold.Chemscore.DG>
-14.8448

> <Gold.Chemscore.ZeroCoef>
-5.4800

> <Gold.Chemscore.Hbond>
2.0053

> <Gold.Chemscore.Metal>
0.0000

> <Gold.Chemscore.Lipo>
67.5695

> <Gold.Chemscore.Internal_Hbond>
0.0000

> <Gold.Chemscore.DEClash>
0.0529

> <Gold.Chemscore.DEInternal>
1.1117

> <Gold.Chemscore.Rot>
2.0463

> <Gold.Chemscore.Internal.Correction>
   9.000000E+99

> <Gold.Chemscore.Hbonds>
donor molecule, donor type, donor heavy atom, donor atom, acceptor molecule, acceptor atom, score
      P1  H  6896  6908       L1     8  0.17
      P1  H  7989  7998       L1     1  0.73
      P1  H 10752 10764       L1    11  0.94

> <Gold.Chemscore.Hbond.Weighted>
-6.6977

> <Gold.Chemscore.Metal.Weighted>
-0.0000

> <Gold.Chemscore.Lipo.Weighted>
-7.9056

> <Gold.Chemscore.Internal_Hbond.Weighted>
0.0000

> <Gold.Chemscore.DEClash.Weighted>
0.0529

> <Gold.Chemscore.DEInternal.Weighted>
1.1117

> <Gold.Chemscore.Rot.Weighted>
5.2386

> <Gold.Chemscore.Internal.Correction.Weighted>
   9.000000E+99

> <Gold.Protein.RotatedTorsions>
[ 6907 6896 6895 6894 ] final  158.65 input  -60.11 | X-H torsion
[ 7974 7965 7964 7962 ] final  -80.51 input  175.53 | X-H torsion
[ 8008 7997 7996 7995 ] final -161.39 input   59.86 | X-H torsion
[ 10167 10162 10161 10158 ] final  -91.71 input  -65.29 | X-H torsion
[ 10718 10713 10712 10709 ] final   83.78 input   66.30 | X-H torsion
[ 10763 10752 10751 10750 ] final  -90.36 input  -60.55 | X-H torsion
[ 11005 11000 10999 10996 ] final  -37.00 input  -57.11 | X-H torsion

> <Gold.Protein.ActiveResidues>
 VAL166  LYS551  ARG553  GLY616  TRP617  ASP618  TYR619  PRO620  LYS621  CYS622 
 ASP623  PHE694  ASN695  SER759  ASP760  ASP761  ALA762  ILE779  LEU786  VAL792 
 PHE793  MET794  SER795  GLU796  ALA797  LYS798  CYS799  TRP800  GLU811  SER814 

> <Gold.Protein.RotatedAtoms>
  151.9973  133.3812  159.4167 H   0  0  0  0  0  0  0  0  0  0  0  0  # atno 6907 bound_to 6896
  150.6914  134.3872  159.5069 H   0  0  0  0  0  0  0  0  0  0  0  0  # atno 6908 bound_to 6896
  152.1614  134.8909  160.0592 H   0  0  0  0  0  0  0  0  0  0  0  0  # atno 6909 bound_to 6896
  145.5589  140.9485  143.1458 H   0  0  0  0  0  0  0  0  0  0  0  0  # atno 7974 bound_to 7965
  155.7914  140.0879  157.2007 H   0  0  0  0  0  0  0  0  0  0  0  0  # atno 8008 bound_to 7997
  154.3985  140.1489  156.3226 H   0  0  0  0  0  0  0  0  0  0  0  0  # atno 8009 bound_to 7997
  155.8555  140.3432  155.5724 H   0  0  0  0  0  0  0  0  0  0  0  0  # atno 8010 bound_to 7997
  140.3421  143.2936  151.9823 H   0  0  0  0  0  0  0  0  0  0  0  0  # atno 10167 bound_to 10162
  157.6885  131.0105  150.2574 H   0  0  0  0  0  0  0  0  0  0  0  0  # atno 10718 bound_to 10713
  154.6649  135.5307  153.8065 H   0  0  0  0  0  0  0  0  0  0  0  0  # atno 10763 bound_to 10752
  153.0465  135.6515  154.0814 H   0  0  0  0  0  0  0  0  0  0  0  0  # atno 10764 bound_to 10752
  154.0719  135.2953  155.3286 H   0  0  0  0  0  0  0  0  0  0  0  0  # atno 10765 bound_to 10752
  140.9918  133.7001  156.1863 H   0  0  0  0  0  0  0  0  0  0  0  0  # atno 11005 bound_to 11000
  144.7492  139.7238  143.7280 LP  0  0  0  0  0  0  0  0  0  0  0  0  # atno 17320 bound_to 7965
  146.1865  139.5082  142.9833 LP  0  0  0  0  0  0  0  0  0  0  0  0  # atno 17321 bound_to 7965
  139.4839  144.6148  151.7367 LP  0  0  0  0  0  0  0  0  0  0  0  0  # atno 17342 bound_to 10162
  140.5299  144.0747  150.6050 LP  0  0  0  0  0  0  0  0  0  0  0  0  # atno 17343 bound_to 10162
  156.3160  130.3779  149.7618 LP  0  0  0  0  0  0  0  0  0  0  0  0  # atno 17370 bound_to 10713
  156.5204  130.8212  151.3201 LP  0  0  0  0  0  0  0  0  0  0  0  0  # atno 17371 bound_to 10713
  140.7028  134.4545  157.5585 LP  0  0  0  0  0  0  0  0  0  0  0  0  # atno 17394 bound_to 11000
  139.8996  134.8588  156.1954 LP  0  0  0  0  0  0  0  0  0  0  0  0  # atno 17395 bound_to 11000

$$$$
