AV-unprocessed.smi:653|AV-procd|sdf|3207|dock8
  -GOLD-   22720 0143D 1   1.00000     0.00000
 Structure written by MMmdl.
 44 45  0  0  0  0  0  0  0  0  1 V2000
  144.4670  131.6920  150.6443 C   0  0  0  0  0  0  0  0  0  0  0  0
  144.8940  133.1163  150.9323 C   0  0  0  0  0  0  0  0  0  0  0  0
  145.9705  133.3858  151.8034 C   0  0  0  0  0  0  0  0  0  0  0  0
  146.3257  134.7285  152.0352 C   0  0  0  0  0  0  0  0  0  0  0  0
  145.5936  135.7469  151.3903 C   0  0  0  0  0  0  0  0  0  0  0  0
  145.9308  137.2103  151.6145 C   0  0  0  0  0  0  0  0  0  0  0  0
  146.0349  137.5129  153.1099 C   0  0  0  0  0  0  0  0  0  0  0  0
  145.0147  137.6021  153.7926 O   0  0  0  0  0  0  0  0  0  0  0  0
  147.2728  137.6663  153.6057 N   0  0  0  0  0  0  0  0  0  0  0  0
  147.5882  137.9693  154.9969 C   0  0  0  0  0  0  0  0  0  0  0  0
  149.0015  138.5641  155.1546 C   0  0  1  0  0  0  0  0  0  0  0  0
  150.1225  137.6389  154.7216 C   0  0  0  0  0  0  0  0  0  0  0  0
  151.2748  138.6190  154.5362 C   0  0  0  0  0  0  0  0  0  0  0  0
  150.6790  139.8172  154.0509 O   0  0  0  0  0  0  0  0  0  0  0  0
  149.2682  139.7871  154.2641 C   0  0  2  0  0  0  0  0  0  0  0  0
  148.7525  141.1431  154.7984 C   0  0  0  0  0  0  0  0  0  0  0  0
  149.3599  141.4543  156.1753 C   0  0  0  0  0  0  0  0  0  0  0  0
  147.2166  141.2367  154.8512 C   0  0  0  0  0  0  0  0  0  0  0  0
  144.5368  135.3693  150.5347 C   0  0  0  0  0  0  0  0  0  0  0  0
  144.1887  134.0849  150.3072 N   0  0  0  0  0  0  0  0  0  0  0  0
  144.8914  130.9995  151.3716 H   0  0  0  0  0  0  0  0  0  0  0  0
  144.8012  131.3926  149.6507 H   0  0  0  0  0  0  0  0  0  0  0  0
  143.3811  131.6003  150.6846 H   0  0  0  0  0  0  0  0  0  0  0  0
  146.5121  132.5850  152.2850 H   0  0  0  0  0  0  0  0  0  0  0  0
  147.1420  134.9714  152.6998 H   0  0  0  0  0  0  0  0  0  0  0  0
  146.8736  137.4488  151.1201 H   0  0  0  0  0  0  0  0  0  0  0  0
  145.1680  137.8461  151.1631 H   0  0  0  0  0  0  0  0  0  0  0  0
  148.0525  137.5764  152.9702 H   0  0  0  0  0  0  0  0  0  0  0  0
  146.8402  138.6717  155.3658 H   0  0  0  0  0  0  0  0  0  0  0  0
  147.4857  137.0672  155.6021 H   0  0  0  0  0  0  0  0  0  0  0  0
  149.1702  138.8226  156.1995 H   0  0  0  0  0  0  0  0  0  0  0  0
  150.3438  136.8594  155.4512 H   0  0  0  0  0  0  0  0  0  0  0  0
  149.8803  137.1613  153.7711 H   0  0  0  0  0  0  0  0  0  0  0  0
  151.7497  138.8319  155.4946 H   0  0  0  0  0  0  0  0  0  0  0  0
  152.0384  138.2454  153.8537 H   0  0  0  0  0  0  0  0  0  0  0  0
  148.8170  139.5957  153.2889 H   0  0  0  0  0  0  0  0  0  0  0  0
  149.1033  141.9203  154.1184 H   0  0  0  0  0  0  0  0  0  0  0  0
  149.0516  140.7196  156.9199 H   0  0  0  0  0  0  0  0  0  0  0  0
  149.0486  142.4374  156.5296 H   0  0  0  0  0  0  0  0  0  0  0  0
  150.4496  141.4512  156.1363 H   0  0  0  0  0  0  0  0  0  0  0  0
  146.7919  140.4626  155.4913 H   0  0  0  0  0  0  0  0  0  0  0  0
  146.7660  141.1389  153.8644 H   0  0  0  0  0  0  0  0  0  0  0  0
  146.9002  142.2010  155.2494 H   0  0  0  0  0  0  0  0  0  0  0  0
  143.9499  136.1178  150.0227 H   0  0  0  0  0  0  0  0  0  0  0  0
  1  2  1  0  0  0  0
  1 21  1  0  0  0  0
  1 22  1  0  0  0  0
  1 23  1  0  0  0  0
  2 20  1  0  0  0  0
  2  3  2  0  0  0  0
  3  4  1  0  0  0  0
  3 24  1  0  0  0  0
  4  5  2  0  0  0  0
  4 25  1  0  0  0  0
  5  6  1  0  0  0  0
  5 19  1  0  0  0  0
  6  7  1  0  0  0  0
  6 26  1  0  0  0  0
  6 27  1  0  0  0  0
  7  8  2  0  0  0  0
  7  9  1  0  0  0  0
  9 10  1  0  0  0  0
  9 28  1  0  0  0  0
 10 11  1  0  0  0  0
 10 29  1  0  0  0  0
 10 30  1  0  0  0  0
 11 15  1  0  0  0  0
 11 12  1  0  0  0  0
 11 31  1  0  0  0  0
 12 13  1  0  0  0  0
 12 32  1  0  0  0  0
 12 33  1  0  0  0  0
 13 14  1  0  0  0  0
 13 34  1  0  0  0  0
 13 35  1  0  0  0  0
 14 15  1  0  0  0  0
 15 16  1  0  0  0  0
 15 36  1  0  0  0  0
 16 17  1  0  0  0  0
 16 18  1  0  0  0  0
 16 37  1  0  0  0  0
 17 38  1  0  0  0  0
 17 39  1  0  0  0  0
 17 40  1  0  0  0  0
 18 41  1  0  0  0  0
 18 42  1  0  0  0  0
 18 43  1  0  0  0  0
 19 20  2  0  0  0  0
 19 44  1  0  0  0  0
M  END
> <s_m_source_file>
AV-unprocessed.smi

> <i_m_source_file_index>
653

> <i_lp_mmshare_version>
43012

> <i_f3d_flags>
0

> <s_epik_input>
W0NIM11jMVtjSF1bY0hdYyhbY0hdbjEpW0NIMl1DKD1PKVtOSF1bQ0gyXVtDQEBIXTJbQ0gyXVtDSDJdT1tDQEhdMltDSF0oW0NIM10pW0NIM10=

> <s_epik_cmdline>
J2VwaWtfcHl0aG9uJywgJy1waCcsICc3LjAnLCAnLXRuJywgJzgnLCAnLW1hJywgJzIwMCcsICctbWV0YWxfYmluZGluZycsICctaW1hZScsICc8aW5maWxlLm1hZT4nLCAnLW9tYWUnLCAnPG91dGZpbGUubWFlPic=

> <r_epik_Ionization_Penalty>
0.0166429

> <r_epik_Ionization_Penalty_Charging>
0

> <r_epik_Ionization_Penalty_Neutral>
0.0166429

> <r_epik_State_Penalty>
0.0131478

> <r_epik_Charging_Adjusted_Penalty>
0.0131478

> <i_epik_Tot_Q>
0

> <i_epik_Tot_abs_Q>
0

> <r_epik_Metal_State_Penalty>
0.012786

> <b_epik_Metal_Only>
0

> <s_lp_Force_Field>
OPLS_2005

> <r_lp_Energy>
17.7281

> <b_lp_Chiralities_Consistent>
1

> <s_lp_Variant>
AV-unprocessed.smi:653-4

> <Gold.Version>
5.8.1

> <Gold.Id.Protein>
6NUR|6NUR_protein|mol2

> <Gold.PLP.Fitness>
40.1700

> <Gold.PLP.PLP>
-32.3589

> <Gold.PLP.part.hbond>
-2.0000

> <Gold.PLP.part.metal>
0.0000

> <Gold.PLP.part.buried>
-1.5100

> <Gold.PLP.part.nonpolar>
-29.8369

> <Gold.PLP.part.repulsive>
0.5438

> <Gold.PLP.ligand.clash>
0.0000

> <Gold.PLP.ligand.torsion>
0.4767

> <Gold.PLP.Chemscore.Hbond>
1.9120

> <Gold.PLP.Chemscore.CHOScore>
1.0000

> <Gold.PLP.Chemscore.Metal>
0.0000

> <Gold.Chemscore.Hbonds>
donor molecule, donor type, donor heavy atom, donor atom, acceptor molecule, acceptor atom, score
      L1  H     9    28       P1  7948  0.83
      P1  H  7989  7998       L1    14  0.96
      L1  C    19    44       P1 10171  1.00

> <Gold.PLP.Chemscore.Internal.Correction>
0.0286

> <Gold.Rescore>
     Score         DG    S(hbond)    S(metal)    S(lipo)     H(rot)  DE(clash)    DE(int)     intcor
     17.37     -18.18       1.94        0.00      85.75       1.48       0.41       0.40       ----

> <Gold.Chemscore.Fitness>
17.3675

> <Gold.Chemscore.DG>
-18.1827

> <Gold.Chemscore.ZeroCoef>
-5.4800

> <Gold.Chemscore.Hbond>
1.9374

> <Gold.Chemscore.Metal>
0.0000

> <Gold.Chemscore.Lipo>
85.7545

> <Gold.Chemscore.Internal_Hbond>
0.0000

> <Gold.Chemscore.DEClash>
0.4127

> <Gold.Chemscore.DEInternal>
0.4025

> <Gold.Chemscore.Rot>
1.4850

> <Gold.Chemscore.Internal.Correction>
   9.000000E+99

> <Gold.Chemscore.Hbonds>
donor molecule, donor type, donor heavy atom, donor atom, acceptor molecule, acceptor atom, score
      L1  H     9    28       P1  7948  0.81
      P1  H  7989  7998       L1    14  0.86

> <Gold.Chemscore.Hbond.Weighted>
-6.4710

> <Gold.Chemscore.Metal.Weighted>
-0.0000

> <Gold.Chemscore.Lipo.Weighted>
-10.0333

> <Gold.Chemscore.Internal_Hbond.Weighted>
0.0000

> <Gold.Chemscore.DEClash.Weighted>
0.4127

> <Gold.Chemscore.DEInternal.Weighted>
0.4025

> <Gold.Chemscore.Rot.Weighted>
3.8015

> <Gold.Chemscore.Internal.Correction.Weighted>
   9.000000E+99

> <Gold.Protein.RotatedTorsions>
[ 6907 6896 6895 6894 ] final    1.07 input  -60.11 | X-H torsion
[ 7974 7965 7964 7962 ] final -117.50 input  175.53 | X-H torsion
[ 8008 7997 7996 7995 ] final  -14.65 input   59.86 | X-H torsion
[ 10167 10162 10161 10158 ] final  -68.90 input  -65.29 | X-H torsion
[ 10718 10713 10712 10709 ] final -164.28 input   66.30 | X-H torsion
[ 10763 10752 10751 10750 ] final  139.37 input  -60.55 | X-H torsion
[ 11005 11000 10999 10996 ] final    6.76 input  -57.11 | X-H torsion

> <Gold.Protein.ActiveResidues>
 VAL166  LYS551  ARG553  GLY616  TRP617  ASP618  TYR619  PRO620  LYS621  CYS622 
 ASP623  PHE694  ASN695  SER759  ASP760  ASP761  ALA762  ILE779  LEU786  VAL792 
 PHE793  MET794  SER795  GLU796  ALA797  LYS798  CYS799  TRP800  GLU811  SER814 

> <Gold.Protein.RotatedAtoms>
  151.5866  135.1055  160.0029 H   0  0  0  0  0  0  0  0  0  0  0  0  # atno 6907 bound_to 6896
  152.4327  133.7302  159.6593 H   0  0  0  0  0  0  0  0  0  0  0  0  # atno 6908 bound_to 6896
  150.8221  133.8164  159.3157 H   0  0  0  0  0  0  0  0  0  0  0  0  # atno 6909 bound_to 6896
  145.0845  140.8448  143.4019 H   0  0  0  0  0  0  0  0  0  0  0  0  # atno 7974 bound_to 7965
  154.5193  140.2217  155.9006 H   0  0  0  0  0  0  0  0  0  0  0  0  # atno 8008 bound_to 7997
  156.1644  140.3135  155.8827 H   0  0  0  0  0  0  0  0  0  0  0  0  # atno 8009 bound_to 7997
  155.3687  140.0465  157.3036 H   0  0  0  0  0  0  0  0  0  0  0  0  # atno 8010 bound_to 7997
  140.5472  143.2313  151.6980 H   0  0  0  0  0  0  0  0  0  0  0  0  # atno 10167 bound_to 10162
  156.6368  130.8952  151.2988 H   0  0  0  0  0  0  0  0  0  0  0  0  # atno 10718 bound_to 10713
  153.9051  135.3017  155.3448 H   0  0  0  0  0  0  0  0  0  0  0  0  # atno 10763 bound_to 10752
  154.7651  135.4914  153.9542 H   0  0  0  0  0  0  0  0  0  0  0  0  # atno 10764 bound_to 10752
  153.1223  135.6785  153.9415 H   0  0  0  0  0  0  0  0  0  0  0  0  # atno 10765 bound_to 10752
  140.5558  134.0239  155.7953 H   0  0  0  0  0  0  0  0  0  0  0  0  # atno 11005 bound_to 11000
  145.1139  139.2738  143.5623 LP  0  0  0  0  0  0  0  0  0  0  0  0  # atno 17320 bound_to 7965
  146.3531  140.0743  142.8621 LP  0  0  0  0  0  0  0  0  0  0  0  0  # atno 17321 bound_to 7965
  139.5012  144.3876  152.0312 LP  0  0  0  0  0  0  0  0  0  0  0  0  # atno 17342 bound_to 10162
  140.2990  144.3668  150.6066 LP  0  0  0  0  0  0  0  0  0  0  0  0  # atno 17343 bound_to 10162
  157.7183  130.9525  150.1339 LP  0  0  0  0  0  0  0  0  0  0  0  0  # atno 17370 bound_to 10713
  156.2190  130.3672  149.8578 LP  0  0  0  0  0  0  0  0  0  0  0  0  # atno 17371 bound_to 10713
  141.1144  133.9564  157.2850 LP  0  0  0  0  0  0  0  0  0  0  0  0  # atno 17394 bound_to 11000
  139.9432  135.0188  156.8773 LP  0  0  0  0  0  0  0  0  0  0  0  0  # atno 17395 bound_to 11000

$$$$
