AV-unprocessed.smi:2159|AV-procd|sdf|8791|dock6
  -GOLD-   2272011573D 1   1.00000     0.00000
 Structure written by MMmdl.
 47 49  0  0  0  0  0  0  0  0  1 V2000
  151.8468  136.9797  154.4295 O   0  0  0  0  0  0  0  0  0  0  0  0
  150.9147  137.5583  154.9881 C   0  0  0  0  0  0  0  0  0  0  0  0
  151.1088  138.9727  155.5361 C   0  0  0  0  0  0  0  0  0  0  0  0
  150.8399  139.0412  157.0522 C   0  0  0  0  0  0  0  0  0  0  0  0
  151.0872  140.3844  157.5798 N   0  0  0  0  0  0  0  0  0  0  0  0
  150.2535  141.4290  157.4169 C   0  0  0  0  0  0  0  0  0  0  0  0
  149.1377  141.4183  156.8983 O   0  0  0  0  0  0  0  0  0  0  0  0
  150.9442  142.6899  157.9145 C   0  0  1  0  0  0  0  0  0  0  0  0
  150.1846  143.8363  158.5839 C   0  0  0  0  0  0  0  0  0  0  0  0
  151.2334  144.9274  158.9269 C   0  0  0  0  0  0  0  0  0  0  0  0
  152.4742  144.3920  159.7010 C   0  0  0  0  0  0  0  0  0  0  0  0
  153.0946  143.1069  159.0909 C   0  0  0  0  0  0  0  0  0  0  0  0
  151.9495  142.1130  158.8918 C   0  0  2  0  0  0  0  0  0  0  0  0
  152.1639  140.7211  158.3155 C   0  0  0  0  0  0  0  0  0  0  0  0
  153.1424  140.0187  158.5684 O   0  0  0  0  0  0  0  0  0  0  0  0
  149.7075  137.0030  155.1816 N   0  0  0  0  0  0  0  0  0  0  0  0
  149.3512  135.6216  154.8654 C   0  0  0  0  0  0  0  0  0  0  0  0
  150.2663  134.6000  155.5714 C   0  0  0  0  0  0  0  0  0  0  0  0
  150.0938  133.1718  155.0791 C   0  0  0  0  0  0  0  0  0  0  0  0
  150.6543  132.0940  155.7965 C   0  0  0  0  0  0  0  0  0  0  0  0
  150.4249  130.7856  155.3288 C   0  0  0  0  0  0  0  0  0  0  0  0
  149.6489  130.6061  154.1674 C   0  0  0  0  0  0  0  0  0  0  0  0
  149.1354  131.7480  153.5213 C   0  0  0  0  0  0  0  0  0  0  0  0
  149.3482  133.0064  153.9621 N   0  0  0  0  0  0  0  0  0  0  0  0
  152.1250  139.3023  155.3173 H   0  0  0  0  0  0  0  0  0  0  0  0
  150.4388  139.6547  155.0099 H   0  0  0  0  0  0  0  0  0  0  0  0
  149.8094  138.7522  157.2676 H   0  0  0  0  0  0  0  0  0  0  0  0
  151.4628  138.3142  157.5770 H   0  0  0  0  0  0  0  0  0  0  0  0
  151.4609  143.0943  157.0410 H   0  0  0  0  0  0  0  0  0  0  0  0
  149.4207  144.2383  157.9176 H   0  0  0  0  0  0  0  0  0  0  0  0
  149.6759  143.4921  159.4854 H   0  0  0  0  0  0  0  0  0  0  0  0
  151.5766  145.3842  157.9978 H   0  0  0  0  0  0  0  0  0  0  0  0
  150.7608  145.7285  159.4958 H   0  0  0  0  0  0  0  0  0  0  0  0
  153.2330  145.1722  159.7676 H   0  0  0  0  0  0  0  0  0  0  0  0
  152.1736  144.1796  160.7278 H   0  0  0  0  0  0  0  0  0  0  0  0
  153.5868  143.3276  158.1430 H   0  0  0  0  0  0  0  0  0  0  0  0
  153.8528  142.6967  159.7588 H   0  0  0  0  0  0  0  0  0  0  0  0
  151.4758  141.9483  159.8623 H   0  0  0  0  0  0  0  0  0  0  0  0
  149.0043  137.5566  155.6493 H   0  0  0  0  0  0  0  0  0  0  0  0
  148.3168  135.4553  155.1668 H   0  0  0  0  0  0  0  0  0  0  0  0
  149.3806  135.4561  153.7871 H   0  0  0  0  0  0  0  0  0  0  0  0
  151.3085  134.8942  155.4368 H   0  0  0  0  0  0  0  0  0  0  0  0
  150.0848  134.6276  156.6463 H   0  0  0  0  0  0  0  0  0  0  0  0
  151.2339  132.2644  156.6917 H   0  0  0  0  0  0  0  0  0  0  0  0
  150.8328  129.9350  155.8547 H   0  0  0  0  0  0  0  0  0  0  0  0
  149.4506  129.6170  153.7819 H   0  0  0  0  0  0  0  0  0  0  0  0
  148.5336  131.6481  152.6300 H   0  0  0  0  0  0  0  0  0  0  0  0
  1  2  2  0  0  0  0
  2  3  1  0  0  0  0
  2 16  1  0  0  0  0
  3  4  1  0  0  0  0
  3 25  1  0  0  0  0
  3 26  1  0  0  0  0
  4  5  1  0  0  0  0
  4 27  1  0  0  0  0
  4 28  1  0  0  0  0
  5 14  1  0  0  0  0
  5  6  1  0  0  0  0
  6  7  2  0  0  0  0
  6  8  1  0  0  0  0
  8 13  1  0  0  0  0
  8  9  1  0  0  0  0
  8 29  1  0  0  0  0
  9 10  1  0  0  0  0
  9 30  1  0  0  0  0
  9 31  1  0  0  0  0
 10 11  1  0  0  0  0
 10 32  1  0  0  0  0
 10 33  1  0  0  0  0
 11 12  1  0  0  0  0
 11 34  1  0  0  0  0
 11 35  1  0  0  0  0
 12 13  1  0  0  0  0
 12 36  1  0  0  0  0
 12 37  1  0  0  0  0
 13 14  1  0  0  0  0
 13 38  1  0  0  0  0
 14 15  2  0  0  0  0
 16 17  1  0  0  0  0
 16 39  1  0  0  0  0
 17 18  1  0  0  0  0
 17 40  1  0  0  0  0
 17 41  1  0  0  0  0
 18 19  1  0  0  0  0
 18 42  1  0  0  0  0
 18 43  1  0  0  0  0
 19 24  1  0  0  0  0
 19 20  2  0  0  0  0
 20 21  1  0  0  0  0
 20 44  1  0  0  0  0
 21 22  2  0  0  0  0
 21 45  1  0  0  0  0
 22 23  1  0  0  0  0
 22 46  1  0  0  0  0
 23 24  2  0  0  0  0
 23 47  1  0  0  0  0
M  END
> <s_m_source_file>
AV-unprocessed.smi

> <i_m_source_file_index>
2159

> <i_lp_mmshare_version>
43012

> <i_f3d_flags>
0

> <s_epik_input>
bjFbY0hdW2NIXVtjSF1bY0hdYzFbQ0gyXVtDSDJdW05IXUMoPU8pW0NIMl1bQ0gyXU4oQzI9TylDKD1PKVtDQEhdKFtDQEBIXTIzKVtDSDJdW0NIMl1bQ0gyXVtDSDJdMw==

> <s_epik_cmdline>
J2VwaWtfcHl0aG9uJywgJy1waCcsICc3LjAnLCAnLXRuJywgJzgnLCAnLW1hJywgJzIwMCcsICctbWV0YWxfYmluZGluZycsICctaW1hZScsICc8aW5maWxlLm1hZT4nLCAnLW9tYWUnLCAnPG91dGZpbGUubWFlPic=

> <r_lp_tautomer_probability>
1

> <r_epik_Ionization_Penalty>
0.026624

> <r_epik_Ionization_Penalty_Charging>
0

> <r_epik_Ionization_Penalty_Neutral>
0.026624

> <r_epik_State_Penalty>
0.0217444

> <r_epik_Charging_Adjusted_Penalty>
0.0217444

> <i_epik_Tot_Q>
0

> <i_epik_Tot_abs_Q>
0

> <r_epik_Metal_State_Penalty>
0.0208054

> <b_epik_Metal_Only>
0

> <s_lp_Force_Field>
OPLS_2005

> <r_lp_Energy>
31.6251

> <b_lp_Chiralities_Consistent>
1

> <s_lp_Variant>
AV-unprocessed.smi:2159-1

> <Gold.Version>
5.8.1

> <Gold.Id.Protein>
6NUR|6NUR_protein|mol2

> <Gold.PLP.Fitness>
51.1279

> <Gold.PLP.PLP>
-43.2246

> <Gold.PLP.part.hbond>
-2.0000

> <Gold.PLP.part.metal>
0.0000

> <Gold.PLP.part.buried>
-6.3065

> <Gold.PLP.part.nonpolar>
-34.8727

> <Gold.PLP.part.repulsive>
0.5436

> <Gold.PLP.ligand.clash>
0.0000

> <Gold.PLP.ligand.torsion>
0.3543

> <Gold.PLP.Chemscore.Hbond>
1.8406

> <Gold.PLP.Chemscore.CHOScore>
1.0000

> <Gold.PLP.Chemscore.Metal>
0.0000

> <Gold.Chemscore.Hbonds>
donor molecule, donor type, donor heavy atom, donor atom, acceptor molecule, acceptor atom, score
      P1  H  7997  8008       L1    15  0.56
      P1  H 10752 10763       L1     1  1.00
      L1  C    23    47       P1 10747  1.00

> <Gold.PLP.Chemscore.Internal.Correction>
0.0901

> <Gold.Rescore>
     Score         DG    S(hbond)    S(metal)    S(lipo)     H(rot)  DE(clash)    DE(int)     intcor
     19.13     -19.61       1.83        0.00     111.77       1.97       0.11       0.38       ----

> <Gold.Chemscore.Fitness>
19.1254

> <Gold.Chemscore.DG>
-19.6106

> <Gold.Chemscore.ZeroCoef>
-5.4800

> <Gold.Chemscore.Hbond>
1.8257

> <Gold.Chemscore.Metal>
0.0000

> <Gold.Chemscore.Lipo>
111.7683

> <Gold.Chemscore.Internal_Hbond>
0.0000

> <Gold.Chemscore.DEClash>
0.1071

> <Gold.Chemscore.DEInternal>
0.3781

> <Gold.Chemscore.Rot>
1.9704

> <Gold.Chemscore.Internal.Correction>
   9.000000E+99

> <Gold.Chemscore.Hbonds>
donor molecule, donor type, donor heavy atom, donor atom, acceptor molecule, acceptor atom, score
      P1  H  7997  8008       L1    15  0.55
      P1  H 10752 10763       L1     1  0.98

> <Gold.Chemscore.Hbond.Weighted>
-6.0979

> <Gold.Chemscore.Metal.Weighted>
-0.0000

> <Gold.Chemscore.Lipo.Weighted>
-13.0769

> <Gold.Chemscore.Internal_Hbond.Weighted>
0.0000

> <Gold.Chemscore.DEClash.Weighted>
0.1071

> <Gold.Chemscore.DEInternal.Weighted>
0.3781

> <Gold.Chemscore.Rot.Weighted>
5.0443

> <Gold.Chemscore.Internal.Correction.Weighted>
   9.000000E+99

> <Gold.Protein.RotatedTorsions>
[ 6907 6896 6895 6894 ] final   59.41 input  -60.11 | X-H torsion
[ 7974 7965 7964 7962 ] final   -6.48 input  175.53 | X-H torsion
[ 8008 7997 7996 7995 ] final -106.52 input   59.86 | X-H torsion
[ 10167 10162 10161 10158 ] final  127.85 input  -65.29 | X-H torsion
[ 10718 10713 10712 10709 ] final  158.99 input   66.30 | X-H torsion
[ 10763 10752 10751 10750 ] final   42.63 input  -60.55 | X-H torsion
[ 11005 11000 10999 10996 ] final -166.50 input  -57.11 | X-H torsion

> <Gold.Protein.ActiveResidues>
 VAL166  LYS551  ARG553  GLY616  TRP617  ASP618  TYR619  PRO620  LYS621  CYS622 
 ASP623  PHE694  ASN695  SER759  ASP760  ASP761  ALA762  ILE779  LEU786  VAL792 
 PHE793  MET794  SER795  GLU796  ALA797  LYS798  CYS799  TRP800  GLU811  SER814 

> <Gold.Protein.RotatedAtoms>
  152.3912  134.6438  160.0106 H   0  0  0  0  0  0  0  0  0  0  0  0  # atno 6907 bound_to 6896
  151.6672  133.3309  159.3196 H   0  0  0  0  0  0  0  0  0  0  0  0  # atno 6908 bound_to 6896
  150.7828  134.6830  159.6499 H   0  0  0  0  0  0  0  0  0  0  0  0  # atno 6909 bound_to 6896
  146.2330  140.2177  142.8336 H   0  0  0  0  0  0  0  0  0  0  0  0  # atno 7974 bound_to 7965
  154.9157  140.0408  157.1970 H   0  0  0  0  0  0  0  0  0  0  0  0  # atno 8008 bound_to 7997
  154.8304  140.2898  155.5705 H   0  0  0  0  0  0  0  0  0  0  0  0  # atno 8009 bound_to 7997
  156.2986  140.2502  156.3228 H   0  0  0  0  0  0  0  0  0  0  0  0  # atno 8010 bound_to 7997
  139.5557  144.6846  151.4190 H   0  0  0  0  0  0  0  0  0  0  0  0  # atno 10167 bound_to 10162
  157.1703  131.0608  151.2186 H   0  0  0  0  0  0  0  0  0  0  0  0  # atno 10718 bound_to 10713
  152.9878  135.6126  154.2981 H   0  0  0  0  0  0  0  0  0  0  0  0  # atno 10763 bound_to 10752
  154.2703  135.2780  155.2743 H   0  0  0  0  0  0  0  0  0  0  0  0  # atno 10764 bound_to 10752
  154.5128  135.5836  153.6675 H   0  0  0  0  0  0  0  0  0  0  0  0  # atno 10765 bound_to 10752
  140.5638  134.5306  157.5148 H   0  0  0  0  0  0  0  0  0  0  0  0  # atno 11005 bound_to 11000
  144.9657  140.8319  143.5486 LP  0  0  0  0  0  0  0  0  0  0  0  0  # atno 17320 bound_to 7965
  145.2152  139.2185  143.5122 LP  0  0  0  0  0  0  0  0  0  0  0  0  # atno 17321 bound_to 7965
  140.6829  143.8041  150.7146 LP  0  0  0  0  0  0  0  0  0  0  0  0  # atno 17342 bound_to 10162
  140.1499  143.4366  152.2138 LP  0  0  0  0  0  0  0  0  0  0  0  0  # atno 17343 bound_to 10162
  157.4050  130.7354  149.6795 LP  0  0  0  0  0  0  0  0  0  0  0  0  # atno 17370 bound_to 10713
  155.9739  130.4110  150.3962 LP  0  0  0  0  0  0  0  0  0  0  0  0  # atno 17371 bound_to 10713
  139.9395  134.7814  156.0716 LP  0  0  0  0  0  0  0  0  0  0  0  0  # atno 17394 bound_to 11000
  141.1098  133.6647  156.2951 LP  0  0  0  0  0  0  0  0  0  0  0  0  # atno 17395 bound_to 11000

$$$$
