AV-unprocessed.smi:1215|AV-procd|sdf|5097|dock4
  -GOLD-   22720 4153D 1   1.00000     0.00000
 Structure written by MMmdl.
 46 47  0  0  0  0  0  0  0  0  2 V2000
  150.0802  141.5714  156.7581 C   0  0  0  0  0  0  0  0  0  0  0  0
  151.5317  141.1238  156.5489 C   0  0  0  0  0  0  0  0  0  0  0  0
  151.6076  139.8558  155.8501 N   0  0  0  0  0  0  0  0  0  0  0  0
  150.5708  139.0314  155.4604 C   0  0  0  0  0  0  0  0  0  0  0  0
  151.1546  137.9664  154.8430 C   0  0  0  0  0  0  0  0  0  0  0  0
  150.4529  136.8680  154.2855 N   0  0  0  0  0  0  0  0  0  0  0  0
  150.4750  135.5942  154.7089 C   0  0  0  0  0  0  0  0  0  0  0  0
  151.1300  135.1761  155.6635 O   0  0  0  0  0  0  0  0  0  0  0  0
  149.6929  134.8100  153.9528 N   0  0  0  0  0  0  0  0  0  0  0  0
  149.5091  133.3773  154.1585 C   0  0  0  0  0  0  0  0  0  0  0  0
  148.1205  132.9110  153.6725 C   0  0  0  0  0  0  0  0  0  0  0  0
  148.1429  131.5611  153.0380 N   0  3  1  0  0  0  0  0  0  0  0  0
  148.8625  130.5670  153.8871 C   0  0  0  0  0  0  0  0  0  0  0  0
  149.0043  129.2060  153.1922 C   0  0  0  0  0  0  0  0  0  0  0  0
  147.6311  128.6550  152.8109 C   0  0  0  0  0  0  0  0  0  0  0  0
  146.9054  129.6775  151.9344 C   0  0  0  0  0  0  0  0  0  0  0  0
  146.7916  131.0575  152.6207 C   0  0  2  0  0  0  0  0  0  0  0  0
  146.0503  132.0150  151.6633 C   0  0  0  0  0  0  0  0  0  0  0  0
  152.5569  138.2079  154.8958 C   0  0  0  0  0  0  0  0  0  0  0  0
  152.8192  139.3536  155.5060 N   0  0  0  0  0  0  0  0  0  0  0  0
  150.0409  142.5315  157.2724 H   0  0  0  0  0  0  0  0  0  0  0  0
  149.5272  140.8496  157.3596 H   0  0  0  0  0  0  0  0  0  0  0  0
  149.5616  141.6825  155.8056 H   0  0  0  0  0  0  0  0  0  0  0  0
  152.0769  141.8724  155.9730 H   0  0  0  0  0  0  0  0  0  0  0  0
  152.0419  141.0281  157.5084 H   0  0  0  0  0  0  0  0  0  0  0  0
  149.5351  139.2704  155.6527 H   0  0  0  0  0  0  0  0  0  0  0  0
  149.8787  137.0742  153.4811 H   0  0  0  0  0  0  0  0  0  0  0  0
  149.1874  135.2332  153.1879 H   0  0  0  0  0  0  0  0  0  0  0  0
  150.2996  132.8239  153.6483 H   0  0  0  0  0  0  0  0  0  0  0  0
  149.6384  133.1956  155.2243 H   0  0  0  0  0  0  0  0  0  0  0  0
  147.4028  132.9187  154.4943 H   0  0  0  0  0  0  0  0  0  0  0  0
  147.7751  133.6573  152.9626 H   0  0  0  0  0  0  0  0  0  0  0  0
  149.8632  130.9186  154.1308 H   0  0  0  0  0  0  0  0  0  0  0  0
  148.3334  130.4478  154.8340 H   0  0  0  0  0  0  0  0  0  0  0  0
  149.6243  129.3082  152.3004 H   0  0  0  0  0  0  0  0  0  0  0  0
  149.5178  128.5029  153.8489 H   0  0  0  0  0  0  0  0  0  0  0  0
  147.7362  127.7081  152.2802 H   0  0  0  0  0  0  0  0  0  0  0  0
  147.0465  128.4508  153.7088 H   0  0  0  0  0  0  0  0  0  0  0  0
  147.4344  129.7802  150.9855 H   0  0  0  0  0  0  0  0  0  0  0  0
  145.9125  129.2971  151.6908 H   0  0  0  0  0  0  0  0  0  0  0  0
  146.1847  130.9413  153.5203 H   0  0  0  0  0  0  0  0  0  0  0  0
  145.1662  131.5357  151.2415 H   0  0  0  0  0  0  0  0  0  0  0  0
  146.6859  132.3185  150.8306 H   0  0  0  0  0  0  0  0  0  0  0  0
  145.6889  132.9122  152.1643 H   0  0  0  0  0  0  0  0  0  0  0  0
  153.3793  137.6136  154.5265 H   0  0  0  0  0  0  0  0  0  0  0  0
  148.6771  131.6579  152.1862 H   0  0  0  0  0  0  0  0  0  0  0  0
  1  2  1  0  0  0  0
  1 21  1  0  0  0  0
  1 22  1  0  0  0  0
  1 23  1  0  0  0  0
  2  3  1  0  0  0  0
  2 24  1  0  0  0  0
  2 25  1  0  0  0  0
  3 20  1  0  0  0  0
  3  4  1  0  0  0  0
  4  5  2  0  0  0  0
  4 26  1  0  0  0  0
  5  6  1  0  0  0  0
  5 19  1  0  0  0  0
  6  7  1  0  0  0  0
  6 27  1  0  0  0  0
  7  8  2  0  0  0  0
  7  9  1  0  0  0  0
  9 10  1  0  0  0  0
  9 28  1  0  0  0  0
 10 11  1  0  0  0  0
 10 29  1  0  0  0  0
 10 30  1  0  0  0  0
 11 12  1  0  0  0  0
 11 31  1  0  0  0  0
 11 32  1  0  0  0  0
 12 17  1  0  0  0  0
 12 13  1  0  0  0  0
 12 46  1  0  0  0  0
 13 14  1  0  0  0  0
 13 33  1  0  0  0  0
 13 34  1  0  0  0  0
 14 15  1  0  0  0  0
 14 35  1  0  0  0  0
 14 36  1  0  0  0  0
 15 16  1  0  0  0  0
 15 37  1  0  0  0  0
 15 38  1  0  0  0  0
 16 17  1  0  0  0  0
 16 39  1  0  0  0  0
 16 40  1  0  0  0  0
 17 18  1  0  0  0  0
 17 41  1  0  0  0  0
 18 42  1  0  0  0  0
 18 43  1  0  0  0  0
 18 44  1  0  0  0  0
 19 20  2  0  0  0  0
 19 45  1  0  0  0  0
M  CHG  1  12   1
M  END
> <s_m_source_file>
AV-unprocessed.smi

> <i_m_source_file_index>
1215

> <i_lp_mmshare_version>
43012

> <i_f3d_flags>
0

> <s_epik_input>
W0NIM11bQ0gyXW4xW2NIXWMoW2NIXW4xKVtOSF1DKD1PKVtOSF1bQ0gyXVtDSDJdTjJbQ0gyXVtDSDJdW0NIMl1bQ0gyXVtDQEhdMltDSDNd

> <s_epik_cmdline>
J2VwaWtfcHl0aG9uJywgJy1waCcsICc3LjAnLCAnLXRuJywgJzgnLCAnLW1hJywgJzIwMCcsICctbWV0YWxfYmluZGluZycsICctaW1hZScsICc8aW5maWxlLm1hZT4nLCAnLW9tYWUnLCAnPG91dGZpbGUubWFlPic=

> <r_lp_tautomer_probability>
1

> <r_epik_Ionization_Penalty>
0.00247187

> <r_epik_Ionization_Penalty_Charging>
0.00232067

> <r_epik_Ionization_Penalty_Neutral>
0.000151201

> <r_epik_State_Penalty>
0.00160128

> <r_epik_Charging_Adjusted_Penalty>
0.00392194

> <i_epik_Tot_Q>
1

> <i_epik_Tot_abs_Q>
1

> <r_epik_Metal_State_Penalty>
-0

> <b_epik_Metal_Only>
0

> <s_lp_Force_Field>
OPLS_2005

> <r_lp_Energy>
23.8268

> <b_lp_Chiralities_Consistent>
1

> <s_lp_Variant>
AV-unprocessed.smi:1215-4

> <Gold.Version>
5.8.1

> <Gold.Id.Protein>
6NUR|6NUR_protein|mol2

> <Gold.PLP.Fitness>
48.1493

> <Gold.PLP.PLP>
-36.9767

> <Gold.PLP.part.hbond>
-6.7747

> <Gold.PLP.part.metal>
0.0000

> <Gold.PLP.part.buried>
-1.2378

> <Gold.PLP.part.nonpolar>
-29.7295

> <Gold.PLP.part.repulsive>
0.1709

> <Gold.PLP.ligand.clash>
0.0000

> <Gold.PLP.ligand.torsion>
1.1211

> <Gold.PLP.Chemscore.Hbond>
4.4364

> <Gold.PLP.Chemscore.CHOScore>
0.0000

> <Gold.PLP.Chemscore.Metal>
0.0000

> <Gold.Chemscore.Hbonds>
donor molecule, donor type, donor heavy atom, donor atom, acceptor molecule, acceptor atom, score
      L1  H     6    27       P1  7948  0.86
      L1  H     9    28       P1  7948  0.85
      L1  H    12    46       P1 10747  0.80
      P1  H  7997  8010       L1    20  1.00
      P1  H 10752 10763       L1     8  0.73

> <Gold.PLP.Chemscore.Internal.Correction>
0.1054

> <Gold.Rescore>
     Score         DG    S(hbond)    S(metal)    S(lipo)     H(rot)  DE(clash)    DE(int)     intcor
     18.06     -21.13       2.88        0.00      86.51       1.59       1.93       1.14       ----

> <Gold.Chemscore.Fitness>
18.0615

> <Gold.Chemscore.DG>
-21.1316

> <Gold.Chemscore.ZeroCoef>
-5.4800

> <Gold.Chemscore.Hbond>
2.8752

> <Gold.Chemscore.Metal>
0.0000

> <Gold.Chemscore.Lipo>
86.5054

> <Gold.Chemscore.Internal_Hbond>
0.0000

> <Gold.Chemscore.DEClash>
1.9301

> <Gold.Chemscore.DEInternal>
1.1399

> <Gold.Chemscore.Rot>
1.5909

> <Gold.Chemscore.Internal.Correction>
   9.000000E+99

> <Gold.Chemscore.Hbonds>
donor molecule, donor type, donor heavy atom, donor atom, acceptor molecule, acceptor atom, score
      L1  H     6    27       P1  7948  0.36
      L1  H     9    28       P1  7948  0.14
      L1  H    12    46       P1 10747  0.73
      P1  H  7997  8010       L1    20  0.98
      P1  H 10752 10763       L1     8  0.10

> <Gold.Chemscore.Hbond.Weighted>
-9.6032

> <Gold.Chemscore.Metal.Weighted>
-0.0000

> <Gold.Chemscore.Lipo.Weighted>
-10.1211

> <Gold.Chemscore.Internal_Hbond.Weighted>
0.0000

> <Gold.Chemscore.DEClash.Weighted>
1.9301

> <Gold.Chemscore.DEInternal.Weighted>
1.1399

> <Gold.Chemscore.Rot.Weighted>
4.0728

> <Gold.Chemscore.Internal.Correction.Weighted>
   9.000000E+99

> <Gold.Protein.RotatedTorsions>
[ 6907 6896 6895 6894 ] final  126.29 input  -60.11 | X-H torsion
[ 7974 7965 7964 7962 ] final  -92.00 input  175.53 | X-H torsion
[ 8008 7997 7996 7995 ] final   87.38 input   59.86 | X-H torsion
[ 10167 10162 10161 10158 ] final -155.50 input  -65.29 | X-H torsion
[ 10718 10713 10712 10709 ] final -131.44 input   66.30 | X-H torsion
[ 10763 10752 10751 10750 ] final   73.91 input  -60.55 | X-H torsion
[ 11005 11000 10999 10996 ] final -129.56 input  -57.11 | X-H torsion

> <Gold.Protein.ActiveResidues>
 VAL166  LYS551  ARG553  GLY616  TRP617  ASP618  TYR619  PRO620  LYS621  CYS622 
 ASP623  PHE694  ASN695  SER759  ASP760  ASP761  ALA762  ILE779  LEU786  VAL792 
 PHE793  MET794  SER795  GLU796  ALA797  LYS798  CYS799  TRP800  GLU811  SER814 

> <Gold.Protein.RotatedAtoms>
  152.3916  133.6688  159.6242 H   0  0  0  0  0  0  0  0  0  0  0  0  # atno 6907 bound_to 6896
  150.7823  133.8944  159.3331 H   0  0  0  0  0  0  0  0  0  0  0  0  # atno 6908 bound_to 6896
  151.6729  135.0975  160.0253 H   0  0  0  0  0  0  0  0  0  0  0  0  # atno 6909 bound_to 6896
  145.4056  140.9541  143.2262 H   0  0  0  0  0  0  0  0  0  0  0  0  # atno 7974 bound_to 7965
  155.9747  140.3382  155.6607 H   0  0  0  0  0  0  0  0  0  0  0  0  # atno 8008 bound_to 7997
  155.6629  140.0718  157.2566 H   0  0  0  0  0  0  0  0  0  0  0  0  # atno 8009 bound_to 7997
  154.4175  140.1705  156.1783 H   0  0  0  0  0  0  0  0  0  0  0  0  # atno 8010 bound_to 7997
  139.6926  143.9395  152.2392 H   0  0  0  0  0  0  0  0  0  0  0  0  # atno 10167 bound_to 10162
  156.2245  130.6999  151.0791 H   0  0  0  0  0  0  0  0  0  0  0  0  # atno 10718 bound_to 10713
  153.0552  135.5045  154.7964 H   0  0  0  0  0  0  0  0  0  0  0  0  # atno 10763 bound_to 10752
  154.6795  135.2966  154.9635 H   0  0  0  0  0  0  0  0  0  0  0  0  # atno 10764 bound_to 10752
  154.0426  135.6715  153.4844 H   0  0  0  0  0  0  0  0  0  0  0  0  # atno 10765 bound_to 10752
  140.9421  134.1179  157.4141 H   0  0  0  0  0  0  0  0  0  0  0  0  # atno 11005 bound_to 11000
  144.8344  139.5575  143.6929 LP  0  0  0  0  0  0  0  0  0  0  0  0  # atno 17320 bound_to 7965
  146.2730  139.6683  142.9282 LP  0  0  0  0  0  0  0  0  0  0  0  0  # atno 17321 bound_to 7965
  139.9215  144.6796  150.8456 LP  0  0  0  0  0  0  0  0  0  0  0  0  # atno 17342 bound_to 10162
  140.7687  143.3371  151.2285 LP  0  0  0  0  0  0  0  0  0  0  0  0  # atno 17343 bound_to 10162
  157.7103  131.0737  150.6522 LP  0  0  0  0  0  0  0  0  0  0  0  0  # atno 17370 bound_to 10713
  156.6587  130.4506  149.5695 LP  0  0  0  0  0  0  0  0  0  0  0  0  # atno 17371 bound_to 10713
  139.8823  135.0040  156.6220 LP  0  0  0  0  0  0  0  0  0  0  0  0  # atno 17394 bound_to 11000
  140.7720  133.8731  155.8499 LP  0  0  0  0  0  0  0  0  0  0  0  0  # atno 17395 bound_to 11000

$$$$
