#       Name:                AV-unprocessed.smi:3290
#       Creating user name   scv26
#       Creation time:       Fri Mar 27 18:54:11 2020


#       File generated by GOLD software.
#

@<TRIPOS>MOLECULE
AV-unprocessed.smi:3290
    46    47     1
SMALL
NO_CHARGES


@<TRIPOS>ATOM
      1 ****        -2.0115   0.0856   1.9309 C.3            1 S1                 0.0000
      2 ****        -2.4615   1.1808   0.9469 C.3            1 S1                 0.0000
      3 ****        -4.0013   1.2892   0.9691 C.3            1 S1                 0.0000
      4 ****        -4.5159   2.4002   0.0443 C.3            1 S1                 0.0000
      5 ****        -4.0156   2.1896  -1.3885 C.3            1 S1                 0.0000
      6 ****        -2.4841   2.0964  -1.4225 C.3            1 S1                 0.0000
      7 ****        -1.9436   0.9737  -0.5080 C.3            1 S1                 0.0000
      8 ****        -0.4024   0.9283  -0.6165 C.3            1 S1                 0.0000
      9 ****         0.1445  -0.4015  -0.2802 N.4            1 S1                 1.0000
     10 ****         1.6196  -0.4662  -0.2951 C.3            1 S1                 0.0000
     11 ****         2.1294  -1.8636   0.0970 C.3            1 S1                 0.0000
     12 ****         1.7056  -2.1494   1.4162 O.3            1 S1                 0.0000
     13 ****         3.6411  -1.9521  -0.0425 C.ar           1 S1                 0.0000
     14 ****         4.2204  -2.5947  -1.1569 C.ar           1 S1                 0.0000
     15 ****         5.6258  -2.6443  -1.2514 C.ar           1 S1                 0.0000
     16 ****         6.4503  -2.1044  -0.3288 N.ar           1 S1                 0.0000
     17 ****         5.8916  -1.4891   0.7352 C.ar           1 S1                 0.0000
     18 ****         4.4992  -1.3843   0.9247 C.ar           1 S1                 0.0000
     19 ****        -2.2918  -0.9074   1.5777 H              1 S1                 0.0000
     20 ****        -2.4702   0.2282   2.9098 H              1 S1                 0.0000
     21 ****        -0.9339   0.1008   2.0896 H              1 S1                 0.0000
     22 ****        -2.0631   2.1278   1.3149 H              1 S1                 0.0000
     23 ****        -4.4425   0.3368   0.6710 H              1 S1                 0.0000
     24 ****        -4.3479   1.4824   1.9851 H              1 S1                 0.0000
     25 ****        -5.6060   2.4225   0.0589 H              1 S1                 0.0000
     26 ****        -4.1806   3.3705   0.4130 H              1 S1                 0.0000
     27 ****        -4.4496   1.2775  -1.8002 H              1 S1                 0.0000
     28 ****        -4.3537   3.0084  -2.0244 H              1 S1                 0.0000
     29 ****        -2.1636   1.9284  -2.4514 H              1 S1                 0.0000
     30 ****        -2.0567   3.0541  -1.1215 H              1 S1                 0.0000
     31 ****        -2.3422   0.0315  -0.8889 H              1 S1                 0.0000
     32 ****        -0.0910   1.1521  -1.6379 H              1 S1                 0.0000
     33 ****         0.0446   1.6925   0.0209 H              1 S1                 0.0000
     34 ****        -0.1689  -0.6489   0.6479 H              1 S1                 0.0000
     35 ****         1.9668  -0.2151  -1.2986 H              1 S1                 0.0000
     36 ****         2.0241   0.2882   0.3818 H              1 S1                 0.0000
     37 ****         1.6780  -2.6097  -0.5587 H              1 S1                 0.0000
     38 ****         1.9905  -3.0229   1.6397 H              1 S1                 0.0000
     39 ****         3.6073  -3.0408  -1.9262 H              1 S1                 0.0000
     40 ****         6.0997  -3.1291  -2.0922 H              1 S1                 0.0000
     41 ****         6.5743  -1.0647   1.4562 H              1 S1                 0.0000
     42 ****         4.1044  -0.8773   1.7930 H              1 S1                 0.0000
     43 ****        -0.2195  -1.0792  -0.9344 H              1 S1                 0.0000
     44 ****         0.7085  -2.0957   1.4694 LP             1 S1                 0.0000
     45 ****         2.1092  -1.4901   2.0506 LP             1 S1                 0.0000
     46 ****         7.4437  -2.1585  -0.4303 LP             1 S1                 0.0000
@<TRIPOS>BOND
    1    1    2 1     
    2    1   19 1     
    3    1   20 1     
    4    1   21 1     
    5    2    7 1     
    6    2    3 1     
    7    2   22 1     
    8    3    4 1     
    9    3   23 1     
   10    3   24 1     
   11    4    5 1     
   12    4   25 1     
   13    4   26 1     
   14    5    6 1     
   15    5   27 1     
   16    5   28 1     
   17    6    7 1     
   18    6   29 1     
   19    6   30 1     
   20    7    8 1     
   21    7   31 1     
   22    8    9 1     
   23    8   32 1     
   24    8   33 1     
   25    9   10 1     
   26    9   34 1     
   27    9   43 1     
   28   10   11 1     
   29   10   35 1     
   30   10   36 1     
   31   11   12 1     
   32   11   13 1     
   33   11   37 1     
   34   12   38 1     
   35   13   18 ar    
   36   13   14 ar    
   37   14   15 ar    
   38   14   39 1     
   39   15   16 ar    
   40   15   40 1     
   41   16   17 ar    
   42   17   18 ar    
   43   17   41 1     
   44   18   42 1     
   45   12   44 1     
   46   12   45 1     
   47   16   46 1     
@<TRIPOS>SUBSTRUCTURE
      1 S1             1
@<TRIPOS>SET
LONE_PAIRS      STATIC     ATOMS    <user>   **** ""
3 44 45 46
DONOR_HYDROGENS      STATIC     ATOMS    <user>   **** ""
3 34 43 38
ATOM$BLUE        STATIC     ATOMS    COLORGROUP SYSTEM
3 44 45 46
ATOM$RED        STATIC     ATOMS    COLORGROUP SYSTEM
3 34 43 38
