AV-unprocessed.smi:3330|AV-procd|sdf|12816|dock5
  -GOLD-   2272019183D 1   1.00000     0.00000
 Structure written by MMmdl.
 37 38  0  0  0  0  0  0  0  0  2 V2000
  144.4542  135.5798  153.9999 C   0  0  0  0  0  0  0  0  0  0  0  0
  143.7940  136.2497  152.7790 C   0  0  1  0  0  0  0  0  0  0  0  0
  143.4211  137.6161  153.1342 N   0  0  0  0  0  0  0  0  0  0  0  0
  142.2397  137.6583  153.9838 C   0  0  0  0  0  0  0  0  0  0  0  0
  141.0170  138.0779  153.1496 C   0  0  0  0  0  0  0  0  0  0  0  0
  139.7594  137.8809  153.8831 N   0  0  0  0  0  0  0  0  0  0  0  0
  139.3894  136.7314  154.4568 C   0  0  0  0  0  0  0  0  0  0  0  0
  140.0077  135.6670  154.4884 O   0  0  0  0  0  0  0  0  0  0  0  0
  138.0407  136.9559  155.0998 C   0  0  0  0  0  0  0  0  0  0  0  0
  137.7864  138.3478  154.8071 N   0  5  0  0  0  0  0  0  0  0  0  0
  138.8290  138.8326  154.0926 C   0  0  0  0  0  0  0  0  0  0  0  0
  138.9583  139.9812  153.6698 O   0  0  0  0  0  0  0  0  0  0  0  0
  144.7251  136.3018  151.5368 C   0  0  1  0  0  0  0  0  0  0  0  0
  145.9872  137.1537  151.7674 C   0  0  0  0  0  0  0  0  0  0  0  0
  145.1109  134.9644  151.0954 N   0  0  0  0  0  0  0  0  0  0  0  0
  144.3018  133.9710  150.5834 C   0  0  0  0  0  0  0  0  0  0  0  0
  145.0959  132.8927  150.3184 C   0  0  0  0  0  0  0  0  0  0  0  0
  146.3941  133.3250  150.7081 C   0  0  0  0  0  0  0  0  0  0  0  0
  146.4018  134.5661  151.1652 N   0  0  0  0  0  0  0  0  0  0  0  0
  144.6900  134.5346  153.8023 H   0  0  0  0  0  0  0  0  0  0  0  0
  143.7997  135.5892  154.8710 H   0  0  0  0  0  0  0  0  0  0  0  0
  145.3808  136.0838  154.2761 H   0  0  0  0  0  0  0  0  0  0  0  0
  142.8973  135.6912  152.5058 H   0  0  0  0  0  0  0  0  0  0  0  0
  143.2021  138.1130  152.2817 H   0  0  0  0  0  0  0  0  0  0  0  0
  142.0572  136.6862  154.4440 H   0  0  0  0  0  0  0  0  0  0  0  0
  142.4003  138.3730  154.7909 H   0  0  0  0  0  0  0  0  0  0  0  0
  141.1091  139.1331  152.8879 H   0  0  0  0  0  0  0  0  0  0  0  0
  141.0012  137.5459  152.1968 H   0  0  0  0  0  0  0  0  0  0  0  0
  137.3044  136.2826  154.6599 H   0  0  0  0  0  0  0  0  0  0  0  0
  138.0944  136.7435  156.1675 H   0  0  0  0  0  0  0  0  0  0  0  0
  144.1700  136.7571  150.7149 H   0  0  0  0  0  0  0  0  0  0  0  0
  145.7417  138.2030  151.9270 H   0  0  0  0  0  0  0  0  0  0  0  0
  146.6502  137.1102  150.9027 H   0  0  0  0  0  0  0  0  0  0  0  0
  146.5499  136.8062  152.6344 H   0  0  0  0  0  0  0  0  0  0  0  0
  143.2383  134.1102  150.4572 H   0  0  0  0  0  0  0  0  0  0  0  0
  144.7945  131.9371  149.9160 H   0  0  0  0  0  0  0  0  0  0  0  0
  147.3243  132.7773  150.6735 H   0  0  0  0  0  0  0  0  0  0  0  0
  1  2  1  0  0  0  0
  1 20  1  0  0  0  0
  1 21  1  0  0  0  0
  1 22  1  0  0  0  0
  2  3  1  0  0  0  0
  2 13  1  0  0  0  0
  2 23  1  0  0  0  0
  3  4  1  0  0  0  0
  3 24  1  0  0  0  0
  4  5  1  0  0  0  0
  4 25  1  0  0  0  0
  4 26  1  0  0  0  0
  5  6  1  0  0  0  0
  5 27  1  0  0  0  0
  5 28  1  0  0  0  0
  6 11  1  0  0  0  0
  6  7  1  0  0  0  0
  7  8  2  0  0  0  0
  7  9  1  0  0  0  0
  9 10  1  0  0  0  0
  9 29  1  0  0  0  0
  9 30  1  0  0  0  0
 10 11  1  0  0  0  0
 11 12  2  0  0  0  0
 13 14  1  0  0  0  0
 13 15  1  0  0  0  0
 13 31  1  0  0  0  0
 14 32  1  0  0  0  0
 14 33  1  0  0  0  0
 14 34  1  0  0  0  0
 15 19  1  0  0  0  0
 15 16  1  0  0  0  0
 16 17  2  0  0  0  0
 16 35  1  0  0  0  0
 17 18  1  0  0  0  0
 17 36  1  0  0  0  0
 18 19  2  0  0  0  0
 18 37  1  0  0  0  0
M  CHG  1  10  -1
M  END
> <s_m_source_file>
AV-unprocessed.smi

> <i_m_source_file_index>
3330

> <i_lp_mmshare_version>
43012

> <i_f3d_flags>
0

> <s_epik_input>
bjFbY0hdW2NIXVtjSF1uMVtDQEBIXShbQ0gzXSlbQ0BIXShbQ0gzXSlbTkhdW0NIMl1bQ0gyXU4yQyg9TylbQ0gyXVtOSF1DMj1P

> <s_epik_cmdline>
J2VwaWtfcHl0aG9uJywgJy1waCcsICc3LjAnLCAnLXRuJywgJzgnLCAnLW1hJywgJzIwMCcsICctbWV0YWxfYmluZGluZycsICctaW1hZScsICc8aW5maWxlLm1hZT4nLCAnLW9tYWUnLCAnPG91dGZpbGUubWFlPic=

> <r_lp_tautomer_probability>
1

> <r_epik_Ionization_Penalty>
8.77477

> <r_epik_Ionization_Penalty_Charging>
6.28461

> <r_epik_Ionization_Penalty_Neutral>
2.49016

> <r_epik_State_Penalty>
8.73376

> <r_epik_Charging_Adjusted_Penalty>
15.0184

> <i_epik_Tot_Q>
-1

> <i_epik_Tot_abs_Q>
1

> <r_epik_Metal_State_Penalty>
4.73175

> <b_epik_Metal_Only>
1

> <s_lp_Force_Field>
OPLS_2005

> <r_lp_Energy>
23.0712

> <b_lp_Chiralities_Consistent>
1

> <s_lp_Variant>
AV-unprocessed.smi:3330-16

> <Gold.Version>
5.8.1

> <Gold.Id.Protein>
6NUR|6NUR_protein|mol2

> <Gold.PLP.Fitness>
39.7174

> <Gold.PLP.PLP>
-31.6344

> <Gold.PLP.part.hbond>
-2.6049

> <Gold.PLP.part.metal>
0.0000

> <Gold.PLP.part.buried>
-4.1200

> <Gold.PLP.part.nonpolar>
-26.4567

> <Gold.PLP.part.repulsive>
2.0293

> <Gold.PLP.ligand.clash>
0.0000

> <Gold.PLP.ligand.torsion>
0.6622

> <Gold.PLP.Chemscore.Hbond>
1.1030

> <Gold.PLP.Chemscore.CHOScore>
2.0000

> <Gold.PLP.Chemscore.Metal>
0.0000

> <Gold.Chemscore.Hbonds>
donor molecule, donor type, donor heavy atom, donor atom, acceptor molecule, acceptor atom, score
      L1  H     3    24       P1 10175  0.05
      P1  H 11000 11005       L1     8  1.00
      L1  C    16    35       P1 10186  1.00
      L1  C    18    37       P1 10747  0.94

> <Gold.PLP.Chemscore.Internal.Correction>
0.0986

> <Gold.Rescore>
     Score         DG    S(hbond)    S(metal)    S(lipo)     H(rot)  DE(clash)    DE(int)     intcor
      8.85      -9.88       1.36        0.00      53.83       2.52       0.35       0.68       ----

> <Gold.Chemscore.Fitness>
8.8490

> <Gold.Chemscore.DG>
-9.8812

> <Gold.Chemscore.ZeroCoef>
-5.4800

> <Gold.Chemscore.Hbond>
1.3606

> <Gold.Chemscore.Metal>
0.0000

> <Gold.Chemscore.Lipo>
53.8278

> <Gold.Chemscore.Internal_Hbond>
0.0000

> <Gold.Chemscore.DEClash>
0.3500

> <Gold.Chemscore.DEInternal>
0.6822

> <Gold.Chemscore.Rot>
2.5160

> <Gold.Chemscore.Internal.Correction>
   9.000000E+99

> <Gold.Chemscore.Hbonds>
donor molecule, donor type, donor heavy atom, donor atom, acceptor molecule, acceptor atom, score
      L1  H     3    24       P1 10175  0.05
      P1  H 11000 11005       L1     8  0.99

> <Gold.Chemscore.Hbond.Weighted>
-4.5443

> <Gold.Chemscore.Metal.Weighted>
-0.0000

> <Gold.Chemscore.Lipo.Weighted>
-6.2979

> <Gold.Chemscore.Internal_Hbond.Weighted>
0.0000

> <Gold.Chemscore.DEClash.Weighted>
0.3500

> <Gold.Chemscore.DEInternal.Weighted>
0.6822

> <Gold.Chemscore.Rot.Weighted>
6.4410

> <Gold.Chemscore.Internal.Correction.Weighted>
   9.000000E+99

> <Gold.Protein.RotatedTorsions>
[ 6907 6896 6895 6894 ] final   87.12 input  -60.11 | X-H torsion
[ 7974 7965 7964 7962 ] final   12.37 input  175.53 | X-H torsion
[ 8008 7997 7996 7995 ] final   -9.56 input   59.86 | X-H torsion
[ 10167 10162 10161 10158 ] final -123.29 input  -65.29 | X-H torsion
[ 10718 10713 10712 10709 ] final    8.54 input   66.30 | X-H torsion
[ 10763 10752 10751 10750 ] final -164.23 input  -60.55 | X-H torsion
[ 11005 11000 10999 10996 ] final   42.50 input  -57.11 | X-H torsion

> <Gold.Protein.ActiveResidues>
 VAL166  LYS551  ARG553  GLY616  TRP617  ASP618  TYR619  PRO620  LYS621  CYS622 
 ASP623  PHE694  ASN695  SER759  ASP760  ASP761  ALA762  ILE779  LEU786  VAL792 
 PHE793  MET794  SER795  GLU796  ALA797  LYS798  CYS799  TRP800  GLU811  SER814 

> <Gold.Protein.RotatedAtoms>
  152.5406  134.2326  159.8830 H   0  0  0  0  0  0  0  0  0  0  0  0  # atno 6907 bound_to 6896
  151.2297  133.4450  159.2611 H   0  0  0  0  0  0  0  0  0  0  0  0  # atno 6908 bound_to 6896
  151.0727  134.9822  159.8372 H   0  0  0  0  0  0  0  0  0  0  0  0  # atno 6909 bound_to 6896
  146.2352  139.9346  142.8491 H   0  0  0  0  0  0  0  0  0  0  0  0  # atno 7974 bound_to 7965
  154.5636  140.2352  155.8298 H   0  0  0  0  0  0  0  0  0  0  0  0  # atno 8008 bound_to 7997
  156.2049  140.3042  155.9565 H   0  0  0  0  0  0  0  0  0  0  0  0  # atno 8009 bound_to 7997
  155.2843  140.0424  157.3008 H   0  0  0  0  0  0  0  0  0  0  0  0  # atno 8010 bound_to 7997
  140.0050  143.5500  152.2287 H   0  0  0  0  0  0  0  0  0  0  0  0  # atno 10167 bound_to 10162
  156.9531  130.5904  149.5658 H   0  0  0  0  0  0  0  0  0  0  0  0  # atno 10718 bound_to 10713
  154.7048  135.2995  154.9287 H   0  0  0  0  0  0  0  0  0  0  0  0  # atno 10763 bound_to 10752
  154.0208  135.6683  153.4776 H   0  0  0  0  0  0  0  0  0  0  0  0  # atno 10764 bound_to 10752
  153.0709  135.5062  154.8212 H   0  0  0  0  0  0  0  0  0  0  0  0  # atno 10765 bound_to 10752
  140.1733  134.4195  155.8244 H   0  0  0  0  0  0  0  0  0  0  0  0  # atno 11005 bound_to 11000
  145.2011  140.9855  143.4155 LP  0  0  0  0  0  0  0  0  0  0  0  0  # atno 17320 bound_to 7965
  144.9773  139.3819  143.6279 LP  0  0  0  0  0  0  0  0  0  0  0  0  # atno 17321 bound_to 7965
  139.6245  144.7635  151.2669 LP  0  0  0  0  0  0  0  0  0  0  0  0  # atno 17342 bound_to 10162
  140.7404  143.6589  150.8181 LP  0  0  0  0  0  0  0  0  0  0  0  0  # atno 17343 bound_to 10162
  156.0354  130.5442  150.8640 LP  0  0  0  0  0  0  0  0  0  0  0  0  # atno 17370 bound_to 10713
  157.5708  131.0946  150.9420 LP  0  0  0  0  0  0  0  0  0  0  0  0  # atno 17371 bound_to 10713
  141.2219  133.6966  156.7801 LP  0  0  0  0  0  0  0  0  0  0  0  0  # atno 17394 bound_to 11000
  140.2352  134.8655  157.3518 LP  0  0  0  0  0  0  0  0  0  0  0  0  # atno 17395 bound_to 11000

$$$$
