#       Name:                AV-unprocessed.smi:3068
#       Creating user name   scv26
#       Creation time:       Fri Mar 27 17:10:32 2020


#       File generated by GOLD software.
#

@<TRIPOS>MOLECULE
AV-unprocessed.smi:3068
    45    47     1
SMALL
NO_CHARGES


@<TRIPOS>ATOM
      1 ****        -3.0847  -4.8625   0.7012 N.1            1 S1                 0.0000
      2 ****        -3.6157  -3.8343   0.7092 C.1            1 S1                 0.0000
      3 ****        -4.2820  -2.5382   0.7189 C.ar           1 S1                 0.0000
      4 ****        -5.6337  -2.5474   0.6552 N.ar           1 S1                 0.0000
      5 ****        -6.2611  -1.3519   0.6588 C.ar           1 S1                 0.0000
      6 ****        -5.5431  -0.1422   0.7268 C.ar           1 S1                 0.0000
      7 ****        -4.1948  -0.1234   0.7915 N.ar           1 S1                 0.0000
      8 ****        -3.5519  -1.3181   0.7865 C.ar           1 S1                 0.0000
      9 ****        -2.1473  -1.3119   0.8544 N.pl3          1 S1                 0.0000
     10 ****        -1.4044  -0.0738   0.6652 C.3            1 S1                 0.0000
     11 ****         0.1107  -0.3171   0.6615 C.3            1 S1                 0.0000
     12 ****         0.8938   1.0084   0.6353 C.3            1 S1                 0.0000
     13 ****         2.3521   0.7537   0.5312 N.4            1 S1                 1.0000
     14 ****         3.1811   1.9873   0.5519 C.3            1 S1                 0.0000
     15 ****         3.1180   2.7538  -0.7834 C.3            1 S1                 0.0000
     16 ****         3.4878   1.8421  -1.9615 C.3            1 S1                 0.0000
     17 ****         2.6105   0.5823  -1.9597 C.3            1 S1                 0.0000
     18 ****         2.6929  -0.1500  -0.6020 C.3            1 S1                 0.0000
     19 ****         1.8143  -1.4151  -0.5551 C.3            1 S1                 0.0000
     20 ****         0.4388  -1.0567  -0.5102 O.3            1 S1                 0.0000
     21 ****        -7.3397  -1.3608   0.6073 H              1 S1                 0.0000
     22 ****        -6.0501   0.8115   0.7288 H              1 S1                 0.0000
     23 ****        -1.6490  -2.1880   0.7859 H              1 S1                 0.0000
     24 ****        -1.7107   0.4011  -0.2681 H              1 S1                 0.0000
     25 ****        -1.6614   0.6100   1.4754 H              1 S1                 0.0000
     26 ****         0.3861  -0.8871   1.5513 H              1 S1                 0.0000
     27 ****         0.5537   1.6219  -0.1994 H              1 S1                 0.0000
     28 ****         0.6917   1.5751   1.5449 H              1 S1                 0.0000
     29 ****         2.8731   2.6300   1.3774 H              1 S1                 0.0000
     30 ****         4.2137   1.7006   0.7554 H              1 S1                 0.0000
     31 ****         2.1198   3.1657  -0.9349 H              1 S1                 0.0000
     32 ****         3.7950   3.6079  -0.7509 H              1 S1                 0.0000
     33 ****         3.3733   2.3793  -2.9033 H              1 S1                 0.0000
     34 ****         4.5385   1.5581  -1.8901 H              1 S1                 0.0000
     35 ****         1.5784   0.8534  -2.1844 H              1 S1                 0.0000
     36 ****         2.9295  -0.0844  -2.7615 H              1 S1                 0.0000
     37 ****         3.7282  -0.4644  -0.4623 H              1 S1                 0.0000
     38 ****         1.9930  -2.0368  -1.4327 H              1 S1                 0.0000
     39 ****         2.0639  -2.0249   0.3147 H              1 S1                 0.0000
     40 ****         2.5910   0.2461   1.3712 H              1 S1                 0.0000
     41 ****        -2.6258  -5.7510   0.6943 LP             1 S1                 0.0000
     42 ****        -6.1468  -3.4044   0.6074 LP             1 S1                 0.0000
     43 ****        -3.6893   0.7380   0.8412 LP             1 S1                 0.0000
     44 ****         0.2254  -0.4993  -1.3126 LP             1 S1                 0.0000
     45 ****        -0.1117  -1.8913  -0.5283 LP             1 S1                 0.0000
@<TRIPOS>BOND
    1    1    2 3     
    2    2    3 1     
    3    3    8 ar    
    4    3    4 ar    
    5    4    5 ar    
    6    5    6 ar    
    7    5   21 1     
    8    6    7 ar    
    9    6   22 1     
   10    7    8 ar    
   11    8    9 1     
   12    9   10 1     
   13    9   23 1     
   14   10   11 1     
   15   10   24 1     
   16   10   25 1     
   17   11   20 1     
   18   11   12 1     
   19   11   26 1     
   20   12   13 1     
   21   12   27 1     
   22   12   28 1     
   23   13   18 1     
   24   13   14 1     
   25   13   40 1     
   26   14   15 1     
   27   14   29 1     
   28   14   30 1     
   29   15   16 1     
   30   15   31 1     
   31   15   32 1     
   32   16   17 1     
   33   16   33 1     
   34   16   34 1     
   35   17   18 1     
   36   17   35 1     
   37   17   36 1     
   38   18   19 1     
   39   18   37 1     
   40   19   20 1     
   41   19   38 1     
   42   19   39 1     
   43    1   41 1     
   44    4   42 1     
   45    7   43 1     
   46   20   44 1     
   47   20   45 1     
@<TRIPOS>SUBSTRUCTURE
      1 S1             1
@<TRIPOS>SET
LONE_PAIRS      STATIC     ATOMS    <user>   **** ""
5 41 42 43 44 45
DONOR_HYDROGENS      STATIC     ATOMS    <user>   **** ""
2 23 40
ATOM$BLUE        STATIC     ATOMS    COLORGROUP SYSTEM
5 41 42 43 44 45
ATOM$RED        STATIC     ATOMS    COLORGROUP SYSTEM
2 23 40
