#       Name:                AV-unprocessed.smi:2562
#       Creating user name   scv26
#       Creation time:       Fri Mar 27 14:08:50 2020


#       File generated by GOLD software.
#

@<TRIPOS>MOLECULE
AV-unprocessed.smi:2562
    35    36     1
SMALL
NO_CHARGES


@<TRIPOS>ATOM
      1 ****        -2.9491   4.2742   1.0546 C.3            1 S1                 0.0000
      2 ****        -2.4270   2.8334   1.0430 C.3            1 S1                 0.0000
      3 ****        -0.9049   2.7566   1.2291 C.3            1 S1                 0.0000
      4 ****        -0.3968   1.3519   1.2234 C.2            1 S1                 0.0000
      5 ****        -0.1696   0.6709   2.3485 N.pl3          1 S1                 0.0000
      6 ****         0.2695  -0.5679   2.0401 N.2            1 S1                 0.0000
      7 ****         0.2502  -0.5464   0.7080 C.2            1 S1                 0.0000
      8 ****         0.7100  -1.7312  -0.0833 C.3            1 S1                 0.0000
      9 ****         2.2063  -1.6492  -0.4401 C.3            1 S1                 0.0000
     10 ****         2.5801  -2.7878  -1.3014 N.4            1 S1                 1.0000
     11 ****         1.7197  -2.8657  -2.4990 C.3            1 S1                 0.0000
     12 ****         0.2370  -2.8967  -2.0869 C.3            1 S1                 0.0000
     13 ****        -0.0630  -1.7613  -1.2814 O.3            1 S1                 0.0000
     14 ****        -0.1424   0.6330   0.1353 N.2            1 S1                 0.0000
     15 ****        -0.2884   0.9950   3.2981 H              1 S1                 0.0000
     16 ****        -4.0303   4.2965   0.9169 H              1 S1                 0.0000
     17 ****        -2.4995   4.8619   0.2538 H              1 S1                 0.0000
     18 ****        -2.7241   4.7674   2.0007 H              1 S1                 0.0000
     19 ****        -2.9213   2.2665   1.8327 H              1 S1                 0.0000
     20 ****        -2.7049   2.3591   0.1011 H              1 S1                 0.0000
     21 ****        -0.4035   3.3097   0.4338 H              1 S1                 0.0000
     22 ****        -0.6173   3.2329   2.1674 H              1 S1                 0.0000
     23 ****         0.5105  -2.6364   0.4940 H              1 S1                 0.0000
     24 ****         2.4232  -0.7183  -0.9665 H              1 S1                 0.0000
     25 ****         2.8200  -1.6605   0.4611 H              1 S1                 0.0000
     26 ****         3.5447  -2.6923  -1.5859 H              1 S1                 0.0000
     27 ****         1.9146  -2.0030  -3.1377 H              1 S1                 0.0000
     28 ****         1.9780  -3.7559  -3.0730 H              1 S1                 0.0000
     29 ****        -0.3994  -2.8810  -2.9718 H              1 S1                 0.0000
     30 ****         0.0026  -3.8133  -1.5433 H              1 S1                 0.0000
     31 ****         2.4753  -3.6415  -0.7716 H              1 S1                 0.0000
     32 ****         0.5396  -1.3102   2.6533 LP             1 S1                 0.0000
     33 ****         0.1276  -0.9331  -1.8085 LP             1 S1                 0.0000
     34 ****        -1.0327  -1.7860  -1.0384 LP             1 S1                 0.0000
     35 ****        -0.2168   0.8832  -0.8300 LP             1 S1                 0.0000
@<TRIPOS>BOND
    1    1    2 1     
    2    1   16 1     
    3    1   17 1     
    4    1   18 1     
    5    2    3 1     
    6    2   19 1     
    7    2   20 1     
    8    3   21 1     
    9    3   22 1     
   10    3    4 1     
   11    4   14 2     
   12    4    5 1     
   13    5    6 1     
   14    5   15 1     
   15    6    7 2     
   16    7   14 1     
   17    7    8 1     
   18    8   13 1     
   19    8    9 1     
   20    8   23 1     
   21    9   10 1     
   22    9   24 1     
   23    9   25 1     
   24   10   11 1     
   25   10   26 1     
   26   10   31 1     
   27   11   12 1     
   28   11   27 1     
   29   11   28 1     
   30   12   13 1     
   31   12   29 1     
   32   12   30 1     
   33    6   32 1     
   34   13   33 1     
   35   13   34 1     
   36   14   35 1     
@<TRIPOS>SUBSTRUCTURE
      1 S1             1
@<TRIPOS>SET
LONE_PAIRS      STATIC     ATOMS    <user>   **** ""
4 32 33 34 35
DONOR_HYDROGENS      STATIC     ATOMS    <user>   **** ""
3 15 26 31
ATOM$BLUE        STATIC     ATOMS    COLORGROUP SYSTEM
4 32 33 34 35
ATOM$RED        STATIC     ATOMS    COLORGROUP SYSTEM
3 15 26 31
