AV-unprocessed.smi:504|AV-procd|sdf|2747|dock3
  -GOLD-   2262023213D 1   1.00000     0.00000
 Structure written by MMmdl.
 35 36  0  0  0  0  0  0  0  0  1 V2000
  153.1870  139.5822  154.6697 N   0  0  0  0  0  0  0  0  0  0  0  0
  152.1843  139.3564  155.2016 C   0  0  0  0  0  0  0  0  0  0  0  0
  150.9039  139.0690  155.8799 C   0  0  0  0  0  0  0  0  0  0  0  0
  150.9057  137.7198  156.4504 N   0  0  0  0  0  0  0  0  0  0  0  0
  151.2225  136.5767  155.8202 C   0  0  0  0  0  0  0  0  0  0  0  0
  151.5890  136.5295  154.6455 O   0  0  0  0  0  0  0  0  0  0  0  0
  151.1227  135.2975  156.6642 C   0  0  0  0  0  0  0  0  0  0  0  0
  150.4520  134.1886  155.9694 N   0  0  0  0  0  0  0  0  0  0  0  0
  149.7948  134.5635  154.8107 N   0  0  0  0  0  0  0  0  0  0  0  0
  149.1603  133.6755  154.1257 C   0  0  0  0  0  0  0  0  0  0  0  0
  149.1109  132.2859  154.5233 C   0  0  0  0  0  0  0  0  0  0  0  0
  148.2431  131.1400  153.5635 Cl  0  0  0  0  0  0  0  0  0  0  0  0
  149.7630  131.9276  155.6579 C   0  0  0  0  0  0  0  0  0  0  0  0
  149.7502  130.2834  156.1971 Cl  0  0  0  0  0  0  0  0  0  0  0  0
  150.4981  132.9127  156.4634 C   0  0  0  0  0  0  0  0  0  0  0  0
  151.1062  132.6274  157.4960 O   0  0  0  0  0  0  0  0  0  0  0  0
  150.6290  140.1144  156.9908 C   0  0  0  0  0  0  0  0  0  0  0  0
  150.4365  141.5313  156.4232 C   0  0  0  0  0  0  0  0  0  0  0  0
  149.3085  141.5626  155.3822 C   0  0  0  0  0  0  0  0  0  0  0  0
  149.5535  140.5363  154.2669 C   0  0  0  0  0  0  0  0  0  0  0  0
  149.7543  139.1260  154.8479 C   0  0  0  0  0  0  0  0  0  0  0  0
  150.6227  137.6488  157.4167 H   0  0  0  0  0  0  0  0  0  0  0  0
  152.1339  135.0062  156.9542 H   0  0  0  0  0  0  0  0  0  0  0  0
  150.6025  135.5166  157.5988 H   0  0  0  0  0  0  0  0  0  0  0  0
  148.6267  133.9246  153.2083 H   0  0  0  0  0  0  0  0  0  0  0  0
  149.7363  139.8315  157.5504 H   0  0  0  0  0  0  0  0  0  0  0  0
  151.4467  140.1308  157.7119 H   0  0  0  0  0  0  0  0  0  0  0  0
  150.2134  142.2275  157.2320 H   0  0  0  0  0  0  0  0  0  0  0  0
  151.3652  141.8777  155.9684 H   0  0  0  0  0  0  0  0  0  0  0  0
  148.3562  141.3508  155.8702 H   0  0  0  0  0  0  0  0  0  0  0  0
  149.2217  142.5627  154.9567 H   0  0  0  0  0  0  0  0  0  0  0  0
  148.7114  140.5355  153.5741 H   0  0  0  0  0  0  0  0  0  0  0  0
  150.4290  140.8270  153.6850 H   0  0  0  0  0  0  0  0  0  0  0  0
  149.9473  138.4241  154.0352 H   0  0  0  0  0  0  0  0  0  0  0  0
  148.8223  138.8015  155.3140 H   0  0  0  0  0  0  0  0  0  0  0  0
  1  2  3  0  0  0  0
  2  3  1  0  0  0  0
  3 21  1  0  0  0  0
  3  4  1  0  0  0  0
  3 17  1  0  0  0  0
  4  5  1  0  0  0  0
  4 22  1  0  0  0  0
  5  6  2  0  0  0  0
  5  7  1  0  0  0  0
  7  8  1  0  0  0  0
  7 23  1  0  0  0  0
  7 24  1  0  0  0  0
  8 15  1  0  0  0  0
  8  9  1  0  0  0  0
  9 10  2  0  0  0  0
 10 11  1  0  0  0  0
 10 25  1  0  0  0  0
 11 12  1  0  0  0  0
 11 13  2  0  0  0  0
 13 14  1  0  0  0  0
 13 15  1  0  0  0  0
 15 16  2  0  0  0  0
 17 18  1  0  0  0  0
 17 26  1  0  0  0  0
 17 27  1  0  0  0  0
 18 19  1  0  0  0  0
 18 28  1  0  0  0  0
 18 29  1  0  0  0  0
 19 20  1  0  0  0  0
 19 30  1  0  0  0  0
 19 31  1  0  0  0  0
 20 21  1  0  0  0  0
 20 32  1  0  0  0  0
 20 33  1  0  0  0  0
 21 34  1  0  0  0  0
 21 35  1  0  0  0  0
M  END
> <s_m_source_file>
AV-unprocessed.smi

> <i_m_source_file_index>
504

> <i_lp_mmshare_version>
43012

> <i_f3d_flags>
0

> <s_epik_input>
W0NIMl0xW0NIMl1bQ0gyXVtDSDJdW0NIMl1DMShDI04pW05IXUMoPU8pW0NIMl1uMm5bY0hdYyhDbCljKENsKWMyPU8=

> <s_epik_cmdline>
J2VwaWtfcHl0aG9uJywgJy1waCcsICc3LjAnLCAnLXRuJywgJzgnLCAnLW1hJywgJzIwMCcsICctbWV0YWxfYmluZGluZycsICctaW1hZScsICc8aW5maWxlLm1hZT4nLCAnLW9tYWUnLCAnPG91dGZpbGUubWFlPic=

> <r_lp_tautomer_probability>
1

> <r_epik_Ionization_Penalty>
4.52612e-07

> <r_epik_Ionization_Penalty_Charging>
2.33921e-11

> <r_epik_Ionization_Penalty_Neutral>
4.52589e-07

> <r_epik_State_Penalty>
-0

> <r_epik_Charging_Adjusted_Penalty>
2.33921e-11

> <i_epik_Tot_Q>
0

> <i_epik_Tot_abs_Q>
0

> <r_epik_Metal_State_Penalty>
-0

> <b_epik_Metal_Only>
0

> <s_lp_Force_Field>
OPLS_2005

> <r_lp_Energy>
21.394

> <b_lp_Chiralities_Consistent>
1

> <s_lp_Variant>
AV-unprocessed.smi:504-1

> <Gold.Version>
5.8.1

> <Gold.Id.Protein>
6NUR|6NUR_protein|mol2

> <Gold.PLP.Fitness>
43.4572

> <Gold.PLP.PLP>
-33.1864

> <Gold.PLP.part.hbond>
-4.0000

> <Gold.PLP.part.metal>
0.0000

> <Gold.PLP.part.buried>
-0.5610

> <Gold.PLP.part.nonpolar>
-29.2677

> <Gold.PLP.part.repulsive>
0.3649

> <Gold.PLP.ligand.clash>
0.0000

> <Gold.PLP.ligand.torsion>
0.4090

> <Gold.PLP.Chemscore.Hbond>
3.0000

> <Gold.PLP.Chemscore.CHOScore>
0.6945

> <Gold.PLP.Chemscore.Metal>
0.0000

> <Gold.Chemscore.Hbonds>
donor molecule, donor type, donor heavy atom, donor atom, acceptor molecule, acceptor atom, score
      P1  H  6896  6909       L1    16  1.00
      P1  H  7997  8009       L1     1  1.00
      P1  H 10752 10763       L1     6  1.00
      L1  C    10    25       P1  7948  0.44

> <Gold.PLP.Chemscore.Internal.Correction>
0.0055

> <Gold.Rescore>
     Score         DG    S(hbond)    S(metal)    S(lipo)     H(rot)  DE(clash)    DE(int)     intcor
     15.66     -18.88       2.97        0.00      64.91       1.60       0.08       3.15       ----

> <Gold.Chemscore.Fitness>
15.6581

> <Gold.Chemscore.DG>
-18.8839

> <Gold.Chemscore.ZeroCoef>
-5.4800

> <Gold.Chemscore.Hbond>
2.9661

> <Gold.Chemscore.Metal>
0.0000

> <Gold.Chemscore.Lipo>
64.9136

> <Gold.Chemscore.Internal_Hbond>
0.0000

> <Gold.Chemscore.DEClash>
0.0793

> <Gold.Chemscore.DEInternal>
3.1465

> <Gold.Chemscore.Rot>
1.6007

> <Gold.Chemscore.Internal.Correction>
   9.000000E+99

> <Gold.Chemscore.Hbonds>
donor molecule, donor type, donor heavy atom, donor atom, acceptor molecule, acceptor atom, score
      P1  H  6896  6909       L1    16  0.99
      P1  H  7997  8009       L1     1  0.94
      P1  H 10752 10763       L1     6  0.90

> <Gold.Chemscore.Hbond.Weighted>
-9.9068

> <Gold.Chemscore.Metal.Weighted>
-0.0000

> <Gold.Chemscore.Lipo.Weighted>
-7.5949

> <Gold.Chemscore.Internal_Hbond.Weighted>
0.0000

> <Gold.Chemscore.DEClash.Weighted>
0.0793

> <Gold.Chemscore.DEInternal.Weighted>
3.1465

> <Gold.Chemscore.Rot.Weighted>
4.0978

> <Gold.Chemscore.Internal.Correction.Weighted>
   9.000000E+99

> <Gold.Protein.RotatedTorsions>
[ 6907 6896 6895 6894 ] final  -36.76 input  -60.11 | X-H torsion
[ 7974 7965 7964 7962 ] final   74.60 input  175.53 | X-H torsion
[ 8008 7997 7996 7995 ] final -124.05 input   59.86 | X-H torsion
[ 10167 10162 10161 10158 ] final   32.17 input  -65.29 | X-H torsion
[ 10718 10713 10712 10709 ] final -171.96 input   66.30 | X-H torsion
[ 10763 10752 10751 10750 ] final   46.05 input  -60.55 | X-H torsion
[ 11005 11000 10999 10996 ] final  -27.26 input  -57.11 | X-H torsion

> <Gold.Protein.ActiveResidues>
 VAL166  LYS551  ARG553  GLY616  TRP617  ASP618  TYR619  PRO620  LYS621  CYS622 
 ASP623  PHE694  ASN695  SER759  ASP760  ASP761  ALA762  ILE779  LEU786  VAL792 
 PHE793  MET794  SER795  GLU796  ALA797  LYS798  CYS799  TRP800  GLU811  SER814 

> <Gold.Protein.RotatedAtoms>
  151.0231  134.9484  159.8070 H   0  0  0  0  0  0  0  0  0  0  0  0  # atno 6907 bound_to 6896
  152.5329  134.2877  159.9041 H   0  0  0  0  0  0  0  0  0  0  0  0  # atno 6908 bound_to 6896
  151.2885  133.4134  159.2665 H   0  0  0  0  0  0  0  0  0  0  0  0  # atno 6909 bound_to 6896
  145.7262  139.2666  143.1567 H   0  0  0  0  0  0  0  0  0  0  0  0  # atno 7974 bound_to 7965
  155.1905  140.0413  157.2899 H   0  0  0  0  0  0  0  0  0  0  0  0  # atno 8008 bound_to 7997
  154.6142  140.2484  155.7603 H   0  0  0  0  0  0  0  0  0  0  0  0  # atno 8009 bound_to 7997
  156.2396  140.2908  156.0418 H   0  0  0  0  0  0  0  0  0  0  0  0  # atno 8010 bound_to 7997
  140.4522  144.1031  150.6194 H   0  0  0  0  0  0  0  0  0  0  0  0  # atno 10167 bound_to 10162
  156.7485  130.9369  151.3113 H   0  0  0  0  0  0  0  0  0  0  0  0  # atno 10718 bound_to 10713
  152.9816  135.6020  154.3536 H   0  0  0  0  0  0  0  0  0  0  0  0  # atno 10763 bound_to 10752
  154.3223  135.2769  155.2515 H   0  0  0  0  0  0  0  0  0  0  0  0  # atno 10764 bound_to 10752
  154.4676  135.5950  153.6355 H   0  0  0  0  0  0  0  0  0  0  0  0  # atno 10765 bound_to 10752
  140.9103  133.7465  156.0662 H   0  0  0  0  0  0  0  0  0  0  0  0  # atno 11005 bound_to 11000
  146.0580  140.8001  142.9749 LP  0  0  0  0  0  0  0  0  0  0  0  0  # atno 17320 bound_to 7965
  144.6904  140.3153  143.7241 LP  0  0  0  0  0  0  0  0  0  0  0  0  # atno 17321 bound_to 7965
  140.4193  143.2619  151.9735 LP  0  0  0  0  0  0  0  0  0  0  0  0  # atno 17342 bound_to 10162
  139.4798  144.5845  151.7876 LP  0  0  0  0  0  0  0  0  0  0  0  0  # atno 17343 bound_to 10162
  157.6787  130.9119  150.0214 LP  0  0  0  0  0  0  0  0  0  0  0  0  # atno 17370 bound_to 10713
  156.1417  130.3642  149.9572 LP  0  0  0  0  0  0  0  0  0  0  0  0  # atno 17371 bound_to 10713
  140.8118  134.3390  157.5409 LP  0  0  0  0  0  0  0  0  0  0  0  0  # atno 17394 bound_to 11000
  139.8756  134.9259  156.3385 LP  0  0  0  0  0  0  0  0  0  0  0  0  # atno 17395 bound_to 11000

$$$$
