#       Name:                AV-unprocessed.smi:2489
#       Creating user name   scv26
#       Creation time:       Fri Mar 27 13:43:22 2020


#       File generated by GOLD software.
#

@<TRIPOS>MOLECULE
AV-unprocessed.smi:2489
    40    41     1
SMALL
NO_CHARGES


@<TRIPOS>ATOM
      1 ****        -5.8246   1.9087   1.5683 C.3            1 S1                 0.0000
      2 ****        -4.4082   2.0037   1.5346 O.3            1 S1                 0.0000
      3 ****        -3.7245   1.1351   0.7120 C.ar           1 S1                 0.0000
      4 ****        -4.3359   0.1528  -0.1023 C.ar           1 S1                 0.0000
      5 ****        -3.5124  -0.6688  -0.8935 C.ar           1 S1                 0.0000
      6 ****        -2.1680  -0.5685  -0.9161 N.ar           1 S1                 0.0000
      7 ****        -1.5649   0.3663  -0.1422 C.ar           1 S1                 0.0000
      8 ****        -0.1587   0.5577  -0.0880 N.am           1 S1                 0.0000
      9 ****         0.8029  -0.1206  -0.7415 C.2            1 S1                 0.0000
     10 ****         0.5958  -1.0599  -1.5109 O.2            1 S1                 0.0000
     11 ****         2.2391   0.3364  -0.4558 C.3            1 S1                 0.0000
     12 ****         3.2088   0.1644  -1.6392 C.3            1 S1                 0.0000
     13 ****         4.0263  -1.0492  -1.2481 C.3            1 S1                 0.0000
     14 ****         4.0682  -0.9125   0.2698 C.3            1 S1                 0.0000
     15 ****         4.4008  -2.2135   1.0072 C.3            1 S1                 0.0000
     16 ****         2.7565  -0.4760   0.5971 O.3            1 S1                 0.0000
     17 ****        -2.3185   1.2325   0.6809 C.ar           1 S1                 0.0000
     18 ****        -6.2192   2.6541   2.2585 H              1 S1                 0.0000
     19 ****        -6.1505   0.9291   1.9201 H              1 S1                 0.0000
     20 ****        -6.2605   2.1039   0.5876 H              1 S1                 0.0000
     21 ****        -5.4057   0.0130  -0.1362 H              1 S1                 0.0000
     22 ****        -3.9458  -1.4292  -1.5261 H              1 S1                 0.0000
     23 ****         0.1562   1.2961   0.5240 H              1 S1                 0.0000
     24 ****         2.2367   1.3799  -0.1364 H              1 S1                 0.0000
     25 ****         2.7205   0.0417  -2.6068 H              1 S1                 0.0000
     26 ****         3.8564   1.0392  -1.7120 H              1 S1                 0.0000
     27 ****         3.5019  -1.9612  -1.5372 H              1 S1                 0.0000
     28 ****         5.0168  -1.0624  -1.7035 H              1 S1                 0.0000
     29 ****         4.7740  -0.1291   0.5508 H              1 S1                 0.0000
     30 ****         5.3957  -2.5707   0.7405 H              1 S1                 0.0000
     31 ****         3.6854  -2.9996   0.7640 H              1 S1                 0.0000
     32 ****         4.3779  -2.0651   2.0869 H              1 S1                 0.0000
     33 ****        -1.8227   1.9731   1.2919 H              1 S1                 0.0000
     34 ****        -4.0772   1.8546   2.4664 LP             1 S1                 0.0000
     35 ****        -4.1786   2.9325   1.2440 LP             1 S1                 0.0000
     36 ****        -1.6238  -1.1752  -1.4955 LP             1 S1                 0.0000
     37 ****        -0.3400  -1.3663  -1.6853 LP             1 S1                 0.0000
     38 ****         1.3634  -1.5161  -1.9610 LP             1 S1                 0.0000
     39 ****         2.1641  -1.2716   0.7240 LP             1 S1                 0.0000
     40 ****         2.7855   0.0562   1.4432 LP             1 S1                 0.0000
@<TRIPOS>BOND
    1    1    2 1     
    2    1   18 1     
    3    1   19 1     
    4    1   20 1     
    5    2    3 1     
    6    3   17 ar    
    7    3    4 ar    
    8    4    5 ar    
    9    4   21 1     
   10    5    6 ar    
   11    5   22 1     
   12    6    7 ar    
   13    7    8 1     
   14    7   17 ar    
   15    8    9 am    
   16    8   23 1     
   17    9   10 2     
   18    9   11 1     
   19   11   16 1     
   20   11   12 1     
   21   11   24 1     
   22   12   13 1     
   23   12   25 1     
   24   12   26 1     
   25   13   14 1     
   26   13   27 1     
   27   13   28 1     
   28   14   15 1     
   29   14   16 1     
   30   14   29 1     
   31   15   30 1     
   32   15   31 1     
   33   15   32 1     
   34   17   33 1     
   35    2   34 1     
   36    2   35 1     
   37    6   36 1     
   38   10   37 1     
   39   10   38 1     
   40   16   39 1     
   41   16   40 1     
@<TRIPOS>SUBSTRUCTURE
      1 S1             1
@<TRIPOS>SET
LONE_PAIRS      STATIC     ATOMS    <user>   **** ""
7 34 35 36 37 38 39 40
DONOR_HYDROGENS      STATIC     ATOMS    <user>   **** ""
1 23
ATOM$BLUE        STATIC     ATOMS    COLORGROUP SYSTEM
7 34 35 36 37 38 39 40
ATOM$RED        STATIC     ATOMS    COLORGROUP SYSTEM
1 23
