AV-unprocessed.smi:1679|AV-procd|sdf|6732|dock2
  -GOLD-   22720 7473D 1   1.00000     0.00000
 Structure written by MMmdl.
 45 46  0  0  0  0  0  0  0  0  1 V2000
  151.2336  140.4455  157.9097 C   0  0  0  0  0  0  0  0  0  0  0  0
  151.8046  141.8600  158.1016 C   0  0  1  0  0  0  0  0  0  0  0  0
  150.7058  142.9216  157.8962 C   0  0  0  0  0  0  0  0  0  0  0  0
  151.2505  144.3456  158.0760 C   0  0  0  0  0  0  0  0  0  0  0  0
  151.8997  144.5124  159.4555 C   0  0  0  0  0  0  0  0  0  0  0  0
  153.0000  143.4657  159.6768 C   0  0  0  0  0  0  0  0  0  0  0  0
  152.4804  142.0230  159.4828 C   0  0  2  0  0  0  0  0  0  0  0  0
  153.5765  141.1182  159.5242 O   0  0  0  0  0  0  0  0  0  0  0  0
  154.3579  141.1695  160.7106 C   0  0  0  0  0  0  0  0  0  0  0  0
  155.3260  139.9744  160.7125 C   0  0  0  0  0  0  0  0  0  0  0  0
  154.6731  138.7552  161.1790 N   0  0  0  0  0  0  0  0  0  0  0  0
  155.0675  138.0067  162.2203 C   0  0  0  0  0  0  0  0  0  0  0  0
  155.9800  138.3270  162.9814 O   0  0  0  0  0  0  0  0  0  0  0  0
  154.3267  136.6811  162.4202 C   0  0  0  0  0  0  0  0  0  0  0  0
  155.2398  135.5441  162.2398 N   0  0  0  0  0  0  0  0  0  0  0  0
  155.3774  134.6011  163.2492 C   0  0  0  0  0  0  0  0  0  0  0  0
  156.1660  133.5053  163.1461 C   0  0  0  0  0  0  0  0  0  0  0  0
  156.9307  133.2587  161.9287 C   0  0  0  0  0  0  0  0  0  0  0  0
  157.6655  132.2927  161.7364 O   0  0  0  0  0  0  0  0  0  0  0  0
  156.7676  134.2293  160.9368 N   0  0  0  0  0  0  0  0  0  0  0  0
  155.9560  135.3607  161.0363 C   0  0  0  0  0  0  0  0  0  0  0  0
  155.8791  136.1489  160.0949 O   0  0  0  0  0  0  0  0  0  0  0  0
  157.2753  134.0996  160.0738 H   0  0  0  0  0  0  0  0  0  0  0  0
  150.4725  140.2209  158.6572 H   0  0  0  0  0  0  0  0  0  0  0  0
  152.0127  139.6871  157.9903 H   0  0  0  0  0  0  0  0  0  0  0  0
  150.7756  140.3377  156.9263 H   0  0  0  0  0  0  0  0  0  0  0  0
  152.5645  142.0170  157.3342 H   0  0  0  0  0  0  0  0  0  0  0  0
  150.2735  142.8228  156.8999 H   0  0  0  0  0  0  0  0  0  0  0  0
  149.8924  142.7528  158.6029 H   0  0  0  0  0  0  0  0  0  0  0  0
  151.9821  144.5604  157.2962 H   0  0  0  0  0  0  0  0  0  0  0  0
  150.4455  145.0707  157.9538 H   0  0  0  0  0  0  0  0  0  0  0  0
  152.3186  145.5148  159.5499 H   0  0  0  0  0  0  0  0  0  0  0  0
  151.1412  144.4172  160.2334 H   0  0  0  0  0  0  0  0  0  0  0  0
  153.8127  143.6478  158.9765 H   0  0  0  0  0  0  0  0  0  0  0  0
  153.4219  143.6026  160.6718 H   0  0  0  0  0  0  0  0  0  0  0  0
  151.7585  141.7767  160.2639 H   0  0  0  0  0  0  0  0  0  0  0  0
  154.9242  142.0970  160.7811 H   0  0  0  0  0  0  0  0  0  0  0  0
  153.7036  141.1339  161.5824 H   0  0  0  0  0  0  0  0  0  0  0  0
  155.7455  139.8186  159.7178 H   0  0  0  0  0  0  0  0  0  0  0  0
  156.1631  140.1814  161.3794 H   0  0  0  0  0  0  0  0  0  0  0  0
  153.9078  138.4114  160.6172 H   0  0  0  0  0  0  0  0  0  0  0  0
  153.8709  136.6683  163.4119 H   0  0  0  0  0  0  0  0  0  0  0  0
  153.4900  136.6111  161.7226 H   0  0  0  0  0  0  0  0  0  0  0  0
  154.8215  134.7386  164.1660 H   0  0  0  0  0  0  0  0  0  0  0  0
  156.2269  132.8050  163.9666 H   0  0  0  0  0  0  0  0  0  0  0  0
  1  2  1  0  0  0  0
  1 24  1  0  0  0  0
  1 25  1  0  0  0  0
  1 26  1  0  0  0  0
  2  7  1  0  0  0  0
  2  3  1  0  0  0  0
  2 27  1  0  0  0  0
  3  4  1  0  0  0  0
  3 28  1  0  0  0  0
  3 29  1  0  0  0  0
  4  5  1  0  0  0  0
  4 30  1  0  0  0  0
  4 31  1  0  0  0  0
  5  6  1  0  0  0  0
  5 32  1  0  0  0  0
  5 33  1  0  0  0  0
  6  7  1  0  0  0  0
  6 34  1  0  0  0  0
  6 35  1  0  0  0  0
  7  8  1  0  0  0  0
  7 36  1  0  0  0  0
  8  9  1  0  0  0  0
  9 10  1  0  0  0  0
  9 37  1  0  0  0  0
  9 38  1  0  0  0  0
 10 11  1  0  0  0  0
 10 39  1  0  0  0  0
 10 40  1  0  0  0  0
 11 12  1  0  0  0  0
 11 41  1  0  0  0  0
 12 13  2  0  0  0  0
 12 14  1  0  0  0  0
 14 15  1  0  0  0  0
 14 42  1  0  0  0  0
 14 43  1  0  0  0  0
 15 21  1  0  0  0  0
 15 16  1  0  0  0  0
 16 17  2  0  0  0  0
 16 44  1  0  0  0  0
 17 18  1  0  0  0  0
 17 45  1  0  0  0  0
 18 19  2  0  0  0  0
 18 20  1  0  0  0  0
 20 23  1  0  0  0  0
 20 21  1  0  0  0  0
 21 22  2  0  0  0  0
M  END
> <s_m_source_file>
AV-unprocessed.smi

> <i_m_source_file_index>
1679

> <i_lp_mmshare_version>
43012

> <i_f3d_flags>
0

> <s_epik_input>
W0NIM11bQ0BASF0xW0NIMl1bQ0gyXVtDSDJdW0NIMl1bQ0BIXTFPW0NIMl1bQ0gyXVtOSF1DKD1PKVtDSDJdbjJbY0hdW2NIXWMoPU8pW25IXWMyPU8=

> <s_epik_cmdline>
J2VwaWtfcHl0aG9uJywgJy1waCcsICc3LjAnLCAnLXRuJywgJzgnLCAnLW1hJywgJzIwMCcsICctbWV0YWxfYmluZGluZycsICctaW1hZScsICc8aW5maWxlLm1hZT4nLCAnLW9tYWUnLCAnPG91dGZpbGUubWFlPic=

> <r_lp_tautomer_probability>
0.999537

> <r_epik_Ionization_Penalty>
0.0033132

> <r_epik_Ionization_Penalty_Charging>
0.00331317

> <r_epik_Ionization_Penalty_Neutral>
2.78599e-08

> <r_epik_State_Penalty>
0.002342

> <r_epik_Charging_Adjusted_Penalty>
0.00565517

> <i_epik_Tot_Q>
0

> <i_epik_Tot_abs_Q>
0

> <r_epik_Metal_State_Penalty>
0.365595

> <b_epik_Metal_Only>
0

> <s_lp_Force_Field>
OPLS_2005

> <r_lp_Energy>
10.1003

> <b_lp_Chiralities_Consistent>
1

> <s_lp_Variant>
AV-unprocessed.smi:1679-4

> <Gold.Version>
5.8.1

> <Gold.Id.Protein>
6NUR|6NUR_protein|mol2

> <Gold.PLP.Fitness>
42.6645

> <Gold.PLP.PLP>
-42.8557

> <Gold.PLP.part.hbond>
0.0000

> <Gold.PLP.part.metal>
0.0000

> <Gold.PLP.part.buried>
-5.1980

> <Gold.PLP.part.nonpolar>
-37.2190

> <Gold.PLP.part.repulsive>
0.0328

> <Gold.PLP.ligand.clash>
0.0000

> <Gold.PLP.ligand.torsion>
0.1692

> <Gold.PLP.Chemscore.Hbond>
0.0000

> <Gold.PLP.Chemscore.CHOScore>
0.0000

> <Gold.PLP.Chemscore.Metal>
0.0000

> <Gold.PLP.Chemscore.Internal.Correction>
0.1471

> <Gold.Rescore>
     Score         DG    S(hbond)    S(metal)    S(lipo)     H(rot)  DE(clash)    DE(int)     intcor
     12.36     -12.74       0.00        0.00     117.18       2.52       0.05       0.33       ----

> <Gold.Chemscore.Fitness>
12.3637

> <Gold.Chemscore.DG>
-12.7426

> <Gold.Chemscore.ZeroCoef>
-5.4800

> <Gold.Chemscore.Hbond>
0.0000

> <Gold.Chemscore.Metal>
0.0000

> <Gold.Chemscore.Lipo>
117.1784

> <Gold.Chemscore.Internal_Hbond>
0.0000

> <Gold.Chemscore.DEClash>
0.0508

> <Gold.Chemscore.DEInternal>
0.3281

> <Gold.Chemscore.Rot>
2.5185

> <Gold.Chemscore.Internal.Correction>
   9.000000E+99

> <Gold.Chemscore.Hbond.Weighted>
-0.0000

> <Gold.Chemscore.Metal.Weighted>
-0.0000

> <Gold.Chemscore.Lipo.Weighted>
-13.7099

> <Gold.Chemscore.Internal_Hbond.Weighted>
0.0000

> <Gold.Chemscore.DEClash.Weighted>
0.0508

> <Gold.Chemscore.DEInternal.Weighted>
0.3281

> <Gold.Chemscore.Rot.Weighted>
6.4472

> <Gold.Chemscore.Internal.Correction.Weighted>
   9.000000E+99

> <Gold.Protein.RotatedTorsions>
[ 6907 6896 6895 6894 ] final   38.51 input  -60.11 | X-H torsion
[ 7974 7965 7964 7962 ] final  172.07 input  175.53 | X-H torsion
[ 8008 7997 7996 7995 ] final   32.99 input   59.86 | X-H torsion
[ 10167 10162 10161 10158 ] final    6.01 input  -65.29 | X-H torsion
[ 10718 10713 10712 10709 ] final -114.65 input   66.30 | X-H torsion
[ 10763 10752 10751 10750 ] final  -63.12 input  -60.55 | X-H torsion
[ 11005 11000 10999 10996 ] final   66.19 input  -57.11 | X-H torsion

> <Gold.Protein.ActiveResidues>
 VAL166  LYS551  ARG553  GLY616  TRP617  ASP618  TYR619  PRO620  LYS621  CYS622 
 ASP623  PHE694  ASN695  SER759  ASP760  ASP761  ALA762  ILE779  LEU786  VAL792 
 PHE793  MET794  SER795  GLU796  ALA797  LYS798  CYS799  TRP800  GLU811  SER814 

> <Gold.Protein.RotatedAtoms>
  152.1574  134.8940  160.0543 H   0  0  0  0  0  0  0  0  0  0  0  0  # atno 6907 bound_to 6896
  151.9948  133.3799  159.4167 H   0  0  0  0  0  0  0  0  0  0  0  0  # atno 6908 bound_to 6896
  150.6883  134.3820  159.5082 H   0  0  0  0  0  0  0  0  0  0  0  0  # atno 6909 bound_to 6896
  144.7277  139.9445  143.6430 H   0  0  0  0  0  0  0  0  0  0  0  0  # atno 7974 bound_to 7965
  155.1315  140.3257  155.4473 H   0  0  0  0  0  0  0  0  0  0  0  0  # atno 8008 bound_to 7997
  156.2633  140.2009  156.6382 H   0  0  0  0  0  0  0  0  0  0  0  0  # atno 8009 bound_to 7997
  154.6609  140.0547  157.0048 H   0  0  0  0  0  0  0  0  0  0  0  0  # atno 8010 bound_to 7997
  140.6451  143.7681  150.7487 H   0  0  0  0  0  0  0  0  0  0  0  0  # atno 10167 bound_to 10162
  156.0843  130.6038  150.8802 H   0  0  0  0  0  0  0  0  0  0  0  0  # atno 10718 bound_to 10713
  154.3103  135.6217  153.5463 H   0  0  0  0  0  0  0  0  0  0  0  0  # atno 10763 bound_to 10752
  152.9830  135.5699  154.5185 H   0  0  0  0  0  0  0  0  0  0  0  0  # atno 10764 bound_to 10752
  154.4833  135.2864  155.1530 H   0  0  0  0  0  0  0  0  0  0  0  0  # atno 10765 bound_to 10752
  139.9847  134.6687  156.0197 H   0  0  0  0  0  0  0  0  0  0  0  0  # atno 11005 bound_to 11000
  146.0759  139.3747  143.0494 LP  0  0  0  0  0  0  0  0  0  0  0  0  # atno 17320 bound_to 7965
  145.7905  140.9816  143.1051 LP  0  0  0  0  0  0  0  0  0  0  0  0  # atno 17321 bound_to 7965
  140.1320  143.4517  152.2248 LP  0  0  0  0  0  0  0  0  0  0  0  0  # atno 17342 bound_to 10162
  139.5661  144.7436  151.4018 LP  0  0  0  0  0  0  0  0  0  0  0  0  # atno 17343 bound_to 10162
  157.5972  131.0942  150.9020 LP  0  0  0  0  0  0  0  0  0  0  0  0  # atno 17370 bound_to 10713
  156.9185  130.5306  149.5279 LP  0  0  0  0  0  0  0  0  0  0  0  0  # atno 17371 bound_to 10713
  141.1514  133.6548  156.4025 LP  0  0  0  0  0  0  0  0  0  0  0  0  # atno 17394 bound_to 11000
  140.5026  134.6471  157.5254 LP  0  0  0  0  0  0  0  0  0  0  0  0  # atno 17395 bound_to 11000

$$$$
