AV-unprocessed.smi:2777|AV-procd|sdf|10709|dock5
  -GOLD-   2272015143D 1   1.00000     0.00000
 Structure written by MMmdl.
 31 32  0  0  0  0  0  0  0  0  1 V2000
  153.8446  137.9629  158.7239 C   0  0  0  0  0  0  0  0  0  0  0  0
  152.9913  138.6588  157.7421 N   0  0  0  0  0  0  0  0  0  0  0  0
  152.3503  139.8039  158.1370 C   0  0  0  0  0  0  0  0  0  0  0  0
  152.4258  140.3005  159.2611 O   0  0  0  0  0  0  0  0  0  0  0  0
  151.5324  140.4189  157.0862 C   0  0  0  0  0  0  0  0  0  0  0  0
  151.4177  139.8948  155.8418 C   0  0  0  0  0  0  0  0  0  0  0  0
  150.5816  140.6651  155.0416 N   0  0  0  0  0  0  0  0  0  0  0  0
  150.2268  141.6449  155.8734 C   0  0  0  0  0  0  0  0  0  0  0  0
  150.7498  141.5735  157.1146 N   0  0  0  0  0  0  0  0  0  0  0  0
  150.5148  142.5184  158.1962 C   0  0  0  0  0  0  0  0  0  0  0  0
  151.5966  143.6155  158.2734 C   0  0  1  0  0  0  0  0  0  0  0  0
  151.4879  144.4877  157.1642 O   0  0  0  0  0  0  0  0  0  0  0  0
  151.5170  144.4383  159.5732 C   0  0  0  0  0  0  0  0  0  0  0  0
  152.3194  145.5001  159.4949 F   0  0  0  0  0  0  0  0  0  0  0  0
  150.2671  144.8387  159.8101 F   0  0  0  0  0  0  0  0  0  0  0  0
  151.9255  143.6892  160.5973 F   0  0  0  0  0  0  0  0  0  0  0  0
  152.1205  138.7030  155.5376 N   0  0  0  0  0  0  0  0  0  0  0  0
  151.9692  138.1658  154.1822 C   0  0  0  0  0  0  0  0  0  0  0  0
  152.9059  138.0887  156.4829 C   0  0  0  0  0  0  0  0  0  0  0  0
  153.5200  137.0524  156.2148 O   0  0  0  0  0  0  0  0  0  0  0  0
  153.8954  138.4344  159.7059 H   0  0  0  0  0  0  0  0  0  0  0  0
  154.8708  137.9000  158.3585 H   0  0  0  0  0  0  0  0  0  0  0  0
  153.4844  136.9458  158.8876 H   0  0  0  0  0  0  0  0  0  0  0  0
  149.5633  142.4417  155.5707 H   0  0  0  0  0  0  0  0  0  0  0  0
  149.5215  142.9523  158.0909 H   0  0  0  0  0  0  0  0  0  0  0  0
  150.4944  141.9575  159.1312 H   0  0  0  0  0  0  0  0  0  0  0  0
  152.5792  143.1449  158.2184 H   0  0  0  0  0  0  0  0  0  0  0  0
  150.5733  144.6717  157.0145 H   0  0  0  0  0  0  0  0  0  0  0  0
  152.5343  137.2528  153.9928 H   0  0  0  0  0  0  0  0  0  0  0  0
  152.2960  138.9058  153.4508 H   0  0  0  0  0  0  0  0  0  0  0  0
  150.9197  137.9436  153.9864 H   0  0  0  0  0  0  0  0  0  0  0  0
  1  2  1  0  0  0  0
  1 21  1  0  0  0  0
  1 22  1  0  0  0  0
  1 23  1  0  0  0  0
  2 19  1  0  0  0  0
  2  3  1  0  0  0  0
  3  4  2  0  0  0  0
  3  5  1  0  0  0  0
  5  9  1  0  0  0  0
  5  6  2  0  0  0  0
  6  7  1  0  0  0  0
  6 17  1  0  0  0  0
  7  8  2  0  0  0  0
  8  9  1  0  0  0  0
  8 24  1  0  0  0  0
  9 10  1  0  0  0  0
 10 11  1  0  0  0  0
 10 25  1  0  0  0  0
 10 26  1  0  0  0  0
 11 12  1  0  0  0  0
 11 13  1  0  0  0  0
 11 27  1  0  0  0  0
 12 28  1  0  0  0  0
 13 14  1  0  0  0  0
 13 15  1  0  0  0  0
 13 16  1  0  0  0  0
 17 18  1  0  0  0  0
 17 19  1  0  0  0  0
 18 29  1  0  0  0  0
 18 30  1  0  0  0  0
 18 31  1  0  0  0  0
 19 20  2  0  0  0  0
M  END
> <s_m_source_file>
AV-unprocessed.smi

> <i_m_source_file_index>
2777

> <i_lp_mmshare_version>
43012

> <i_f3d_flags>
0

> <s_epik_input>
Tz1jMW4oW0NIM10pYyg9TyluKFtDSDNdKWMoYzEyKW5bY0hdbjJbQ0gyXVtDQEhdKFtPSF0pQyhGKShGKUY=

> <s_epik_cmdline>
J2VwaWtfcHl0aG9uJywgJy1waCcsICc3LjAnLCAnLXRuJywgJzgnLCAnLW1hJywgJzIwMCcsICctbWV0YWxfYmluZGluZycsICctaW1hZScsICc8aW5maWxlLm1hZT4nLCAnLW9tYWUnLCAnPG91dGZpbGUubWFlPic=

> <r_epik_Ionization_Penalty>
0.000551612

> <r_epik_Ionization_Penalty_Charging>
2.619e-09

> <r_epik_Ionization_Penalty_Neutral>
0.00055161

> <r_epik_State_Penalty>
0.000345115

> <r_epik_Charging_Adjusted_Penalty>
0.000345118

> <i_epik_Tot_Q>
0

> <i_epik_Tot_abs_Q>
0

> <r_epik_Metal_State_Penalty>
-0

> <b_epik_Metal_Only>
0

> <s_lp_Force_Field>
OPLS_2005

> <r_lp_Energy>
33.5503

> <b_lp_Chiralities_Consistent>
1

> <s_lp_Variant>
AV-unprocessed.smi:2777-2

> <Gold.Version>
5.8.1

> <Gold.Id.Protein>
6NUR|6NUR_protein|mol2

> <Gold.PLP.Fitness>
50.9537

> <Gold.PLP.PLP>
-41.1287

> <Gold.PLP.part.hbond>
-3.0000

> <Gold.PLP.part.metal>
0.0000

> <Gold.PLP.part.buried>
-5.0167

> <Gold.PLP.part.nonpolar>
-32.6997

> <Gold.PLP.part.repulsive>
0.0668

> <Gold.PLP.ligand.clash>
0.0000

> <Gold.PLP.ligand.torsion>
0.6500

> <Gold.PLP.Chemscore.Hbond>
2.7040

> <Gold.PLP.Chemscore.CHOScore>
1.0000

> <Gold.PLP.Chemscore.Metal>
0.0000

> <Gold.Chemscore.Hbonds>
donor molecule, donor type, donor heavy atom, donor atom, acceptor molecule, acceptor atom, score
      L1  H    12    28       P1  8028  0.76
      P1  H  7989  7998       L1     7  0.91
      P1  H 10752 10765       L1    20  0.56
      L1  C     8    24       P1  8028  1.00

> <Gold.PLP.Chemscore.Internal.Correction>
0.0129

> <Gold.Rescore>
     Score         DG    S(hbond)    S(metal)    S(lipo)     H(rot)  DE(clash)    DE(int)     intcor
     12.22     -13.53       2.43        0.00      47.47       2.20       0.50       0.82       ----

> <Gold.Chemscore.Fitness>
12.2163

> <Gold.Chemscore.DG>
-13.5337

> <Gold.Chemscore.ZeroCoef>
-5.4800

> <Gold.Chemscore.Hbond>
2.4322

> <Gold.Chemscore.Metal>
0.0000

> <Gold.Chemscore.Lipo>
47.4715

> <Gold.Chemscore.Internal_Hbond>
0.0000

> <Gold.Chemscore.DEClash>
0.4977

> <Gold.Chemscore.DEInternal>
0.8197

> <Gold.Chemscore.Rot>
2.1969

> <Gold.Chemscore.Internal.Correction>
   9.000000E+99

> <Gold.Chemscore.Hbonds>
donor molecule, donor type, donor heavy atom, donor atom, acceptor molecule, acceptor atom, score
      L1  H    12    28       P1  8028  0.53
      P1  H  7989  7998       L1     7  0.31
      P1  H 10752 10765       L1    20  0.56

> <Gold.Chemscore.Hbond.Weighted>
-8.1235

> <Gold.Chemscore.Metal.Weighted>
-0.0000

> <Gold.Chemscore.Lipo.Weighted>
-5.5542

> <Gold.Chemscore.Internal_Hbond.Weighted>
0.0000

> <Gold.Chemscore.DEClash.Weighted>
0.4977

> <Gold.Chemscore.DEInternal.Weighted>
0.8197

> <Gold.Chemscore.Rot.Weighted>
5.6239

> <Gold.Chemscore.Internal.Correction.Weighted>
   9.000000E+99

> <Gold.Protein.RotatedTorsions>
[ 6907 6896 6895 6894 ] final -121.36 input  -60.11 | X-H torsion
[ 7974 7965 7964 7962 ] final   59.10 input  175.53 | X-H torsion
[ 8008 7997 7996 7995 ] final   94.88 input   59.86 | X-H torsion
[ 10167 10162 10161 10158 ] final  107.38 input  -65.29 | X-H torsion
[ 10718 10713 10712 10709 ] final  174.31 input   66.30 | X-H torsion
[ 10763 10752 10751 10750 ] final -115.54 input  -60.55 | X-H torsion
[ 11005 11000 10999 10996 ] final   17.04 input  -57.11 | X-H torsion

> <Gold.Protein.ActiveResidues>
 VAL166  LYS551  ARG553  GLY616  TRP617  ASP618  TYR619  PRO620  LYS621  CYS622 
 ASP623  PHE694  ASN695  SER759  ASP760  ASP761  ALA762  ILE779  LEU786  VAL792 
 PHE793  MET794  SER795  GLU796  ALA797  LYS798  CYS799  TRP800  GLU811  SER814 

> <Gold.Protein.RotatedAtoms>
  150.8476  133.7837  159.3036 H   0  0  0  0  0  0  0  0  0  0  0  0  # atno 6907 bound_to 6896
  151.5518  135.1065  159.9961 H   0  0  0  0  0  0  0  0  0  0  0  0  # atno 6908 bound_to 6896
  152.4526  133.7617  159.6806 H   0  0  0  0  0  0  0  0  0  0  0  0  # atno 6909 bound_to 6896
  145.9108  139.3653  143.0536 H   0  0  0  0  0  0  0  0  0  0  0  0  # atno 7974 bound_to 7965
  156.0628  140.3294  155.7482 H   0  0  0  0  0  0  0  0  0  0  0  0  # atno 8008 bound_to 7997
  155.5428  140.0603  157.2884 H   0  0  0  0  0  0  0  0  0  0  0  0  # atno 8009 bound_to 7997
  154.4490  140.1908  156.0596 H   0  0  0  0  0  0  0  0  0  0  0  0  # atno 8010 bound_to 7997
  139.6932  144.7105  151.1312 H   0  0  0  0  0  0  0  0  0  0  0  0  # atno 10167 bound_to 10162
  156.9515  131.0032  151.2947 H   0  0  0  0  0  0  0  0  0  0  0  0  # atno 10718 bound_to 10713
  154.8485  135.4378  154.1679 H   0  0  0  0  0  0  0  0  0  0  0  0  # atno 10763 bound_to 10752
  153.2800  135.6952  153.7401 H   0  0  0  0  0  0  0  0  0  0  0  0  # atno 10764 bound_to 10752
  153.6609  135.3435  155.3102 H   0  0  0  0  0  0  0  0  0  0  0  0  # atno 10765 bound_to 10752
  140.4403  134.1328  155.7690 H   0  0  0  0  0  0  0  0  0  0  0  0  # atno 11005 bound_to 11000
  145.8673  140.9440  143.0669 LP  0  0  0  0  0  0  0  0  0  0  0  0  # atno 17320 bound_to 7965
  144.6743  140.0609  143.7476 LP  0  0  0  0  0  0  0  0  0  0  0  0  # atno 17321 bound_to 7965
  140.7689  143.5529  150.9184 LP  0  0  0  0  0  0  0  0  0  0  0  0  # atno 17342 bound_to 10162
  139.9208  143.6608  152.3097 LP  0  0  0  0  0  0  0  0  0  0  0  0  # atno 17343 bound_to 10162
  157.5719  130.8316  149.8403 LP  0  0  0  0  0  0  0  0  0  0  0  0  # atno 17370 bound_to 10713
  156.0361  130.3751  150.1557 LP  0  0  0  0  0  0  0  0  0  0  0  0  # atno 17371 bound_to 10713
  141.1708  133.8612  157.1576 LP  0  0  0  0  0  0  0  0  0  0  0  0  # atno 17394 bound_to 11000
  140.0074  135.0002  157.0322 LP  0  0  0  0  0  0  0  0  0  0  0  0  # atno 17395 bound_to 11000

$$$$
