AV-unprocessed.smi:1268|AV-procd|sdf|5324|dock6
  -GOLD-   22720 4453D 1   1.00000     0.00000
 Structure written by MMmdl.
 40 41  0  0  0  0  0  0  0  0  2 V2000
  144.3503  136.6798  151.5190 O   0  0  0  0  0  0  0  0  0  0  0  0
  145.5547  136.4341  151.5886 C   0  0  0  0  0  0  0  0  0  0  0  0
  146.4776  137.3587  151.8921 N   0  0  0  0  0  0  0  0  0  0  0  0
  146.1937  138.7650  152.1608 C   0  0  0  0  0  0  0  0  0  0  0  0
  147.0718  139.3259  153.2985 C   0  0  1  0  0  0  0  0  0  0  0  0
  148.3602  138.7542  153.1815 O   0  0  0  0  0  0  0  0  0  0  0  0
  147.2280  140.8558  153.1878 C   0  0  0  0  0  0  0  0  0  0  0  0
  146.0957  141.5909  153.8077 N   0  3  0  0  0  0  0  0  0  0  0  0
  145.8524  141.1726  155.2128 C   0  0  0  0  0  0  0  0  0  0  0  0
  144.5822  141.8317  155.7757 C   0  0  0  0  0  0  0  0  0  0  0  0
  144.6618  143.3602  155.6699 C   0  0  0  0  0  0  0  0  0  0  0  0
  144.9545  143.7713  154.2209 C   0  0  0  0  0  0  0  0  0  0  0  0
  146.2169  143.0694  153.6917 C   0  0  0  0  0  0  0  0  0  0  0  0
  146.1164  135.2322  151.3835 N   0  0  0  0  0  0  0  0  0  0  0  0
  145.4689  134.0202  151.0377 C   0  0  0  0  0  0  0  0  0  0  0  0
  144.2415  134.0710  150.5171 N   0  0  0  0  0  0  0  0  0  0  0  0
  143.7376  132.7977  150.2353 C   0  0  0  0  0  0  0  0  0  0  0  0
  144.6030  131.7794  150.5496 C   0  0  0  0  0  0  0  0  0  0  0  0
  146.0975  132.3799  151.2165 S   0  0  0  0  0  0  0  0  0  0  0  0
  147.4459  137.0745  151.9261 H   0  0  0  0  0  0  0  0  0  0  0  0
  146.3217  139.3436  151.2450 H   0  0  0  0  0  0  0  0  0  0  0  0
  145.1382  138.8531  152.4244 H   0  0  0  0  0  0  0  0  0  0  0  0
  146.6479  139.0586  154.2658 H   0  0  0  0  0  0  0  0  0  0  0  0
  148.7921  139.1385  152.4331 H   0  0  0  0  0  0  0  0  0  0  0  0
  148.1656  141.1423  153.6677 H   0  0  0  0  0  0  0  0  0  0  0  0
  147.3195  141.1588  152.1436 H   0  0  0  0  0  0  0  0  0  0  0  0
  145.7408  140.0887  155.2617 H   0  0  0  0  0  0  0  0  0  0  0  0
  146.7171  141.4319  155.8261 H   0  0  0  0  0  0  0  0  0  0  0  0
  143.7100  141.4710  155.2287 H   0  0  0  0  0  0  0  0  0  0  0  0
  144.4388  141.5372  156.8157 H   0  0  0  0  0  0  0  0  0  0  0  0
  143.7286  143.8105  156.0098 H   0  0  0  0  0  0  0  0  0  0  0  0
  145.4479  143.7354  156.3264 H   0  0  0  0  0  0  0  0  0  0  0  0
  144.1026  143.5182  153.5883 H   0  0  0  0  0  0  0  0  0  0  0  0
  145.0755  144.8533  154.1588 H   0  0  0  0  0  0  0  0  0  0  0  0
  147.0930  143.4079  154.2469 H   0  0  0  0  0  0  0  0  0  0  0  0
  146.3722  143.3601  152.6535 H   0  0  0  0  0  0  0  0  0  0  0  0
  147.1195  135.1765  151.4811 H   0  0  0  0  0  0  0  0  0  0  0  0
  142.7488  132.7071  149.8106 H   0  0  0  0  0  0  0  0  0  0  0  0
  144.4520  130.7169  150.4301 H   0  0  0  0  0  0  0  0  0  0  0  0
  145.2723  141.3190  153.2894 H   0  0  0  0  0  0  0  0  0  0  0  0
  1  2  2  0  0  0  0
  2  3  1  0  0  0  0
  2 14  1  0  0  0  0
  3  4  1  0  0  0  0
  3 20  1  0  0  0  0
  4  5  1  0  0  0  0
  4 21  1  0  0  0  0
  4 22  1  0  0  0  0
  5  6  1  0  0  0  0
  5  7  1  0  0  0  0
  5 23  1  0  0  0  0
  6 24  1  0  0  0  0
  7  8  1  0  0  0  0
  7 25  1  0  0  0  0
  7 26  1  0  0  0  0
  8 13  1  0  0  0  0
  8  9  1  0  0  0  0
  8 40  1  0  0  0  0
  9 10  1  0  0  0  0
  9 27  1  0  0  0  0
  9 28  1  0  0  0  0
 10 11  1  0  0  0  0
 10 29  1  0  0  0  0
 10 30  1  0  0  0  0
 11 12  1  0  0  0  0
 11 31  1  0  0  0  0
 11 32  1  0  0  0  0
 12 13  1  0  0  0  0
 12 33  1  0  0  0  0
 12 34  1  0  0  0  0
 13 35  1  0  0  0  0
 13 36  1  0  0  0  0
 14 15  1  0  0  0  0
 14 37  1  0  0  0  0
 15 19  1  0  0  0  0
 15 16  2  0  0  0  0
 16 17  1  0  0  0  0
 17 18  2  0  0  0  0
 17 38  1  0  0  0  0
 18 19  1  0  0  0  0
 18 39  1  0  0  0  0
M  CHG  1   8   1
M  END
> <s_m_source_file>
AV-unprocessed.smi

> <i_m_source_file_index>
1268

> <i_lp_mmshare_version>
43012

> <i_f3d_flags>
0

> <s_epik_input>
czFbY0hdW2NIXW5jMVtOSF1DKD1PKVtOSF1bQ0gyXVtDQEhdKFtPSF0pW0NIMl1OMltDSDJdW0NIMl1bQ0gyXVtDSDJdW0NIMl0y

> <s_epik_cmdline>
J2VwaWtfcHl0aG9uJywgJy1waCcsICc3LjAnLCAnLXRuJywgJzgnLCAnLW1hJywgJzIwMCcsICctbWV0YWxfYmluZGluZycsICctaW1hZScsICc8aW5maWxlLm1hZT4nLCAnLW9tYWUnLCAnPG91dGZpbGUubWFlPic=

> <r_lp_tautomer_probability>
0.999

> <r_epik_Ionization_Penalty>
0.00539631

> <r_epik_Ionization_Penalty_Charging>
0.00525788

> <r_epik_Ionization_Penalty_Neutral>
0.000138432

> <r_epik_State_Penalty>
0.0038355

> <r_epik_Charging_Adjusted_Penalty>
0.00909338

> <i_epik_Tot_Q>
1

> <i_epik_Tot_abs_Q>
1

> <r_epik_Metal_State_Penalty>
0.0500806

> <b_epik_Metal_Only>
0

> <s_lp_Force_Field>
OPLS_2005

> <r_lp_Energy>
15.7881

> <b_lp_Chiralities_Consistent>
1

> <s_lp_Variant>
AV-unprocessed.smi:1268-2

> <Gold.Version>
5.8.1

> <Gold.Id.Protein>
6NUR|6NUR_protein|mol2

> <Gold.PLP.Fitness>
51.3746

> <Gold.PLP.PLP>
-34.8834

> <Gold.PLP.part.hbond>
-4.9777

> <Gold.PLP.part.metal>
0.0000

> <Gold.PLP.part.buried>
-6.6962

> <Gold.PLP.part.nonpolar>
-27.2075

> <Gold.PLP.part.repulsive>
3.1577

> <Gold.PLP.ligand.clash>
0.0000

> <Gold.PLP.ligand.torsion>
0.7371

> <Gold.PLP.Chemscore.Hbond>
4.9760

> <Gold.PLP.Chemscore.CHOScore>
0.9937

> <Gold.PLP.Chemscore.Metal>
0.0000

> <Gold.Chemscore.Hbonds>
donor molecule, donor type, donor heavy atom, donor atom, acceptor molecule, acceptor atom, score
      L1  H     3    20       P1  7948  1.00
      L1  H     6    24       P1  7957  1.00
      L1  H     8    40       P1 10175  1.70
      L1  H    14    37       P1  7948  0.80
      L1  C    17    38       P1 10186  0.99

> <Gold.PLP.Chemscore.Internal.Correction>
0.0563

> <Gold.Rescore>
     Score         DG    S(hbond)    S(metal)    S(lipo)     H(rot)  DE(clash)    DE(int)     intcor
     15.77     -18.80       3.53        0.00      68.63       2.54       0.83       2.19       ----

> <Gold.Chemscore.Fitness>
15.7746

> <Gold.Chemscore.DG>
-18.7995

> <Gold.Chemscore.ZeroCoef>
-5.4800

> <Gold.Chemscore.Hbond>
3.5294

> <Gold.Chemscore.Metal>
0.0000

> <Gold.Chemscore.Lipo>
68.6263

> <Gold.Chemscore.Internal_Hbond>
0.0000

> <Gold.Chemscore.DEClash>
0.8327

> <Gold.Chemscore.DEInternal>
2.1922

> <Gold.Chemscore.Rot>
2.5383

> <Gold.Chemscore.Internal.Correction>
   9.000000E+99

> <Gold.Chemscore.Hbonds>
donor molecule, donor type, donor heavy atom, donor atom, acceptor molecule, acceptor atom, score
      L1  H     3    20       P1  7948  1.00
      L1  H     6    24       P1  7957  1.00
      L1  H     8    40       P1 10175  0.14
      L1  H    14    37       P1  7948  0.67

> <Gold.Chemscore.Hbond.Weighted>
-11.7883

> <Gold.Chemscore.Metal.Weighted>
-0.0000

> <Gold.Chemscore.Lipo.Weighted>
-8.0293

> <Gold.Chemscore.Internal_Hbond.Weighted>
0.0000

> <Gold.Chemscore.DEClash.Weighted>
0.8327

> <Gold.Chemscore.DEInternal.Weighted>
2.1922

> <Gold.Chemscore.Rot.Weighted>
6.4981

> <Gold.Chemscore.Internal.Correction.Weighted>
   9.000000E+99

> <Gold.Protein.RotatedTorsions>
[ 6907 6896 6895 6894 ] final  154.65 input  -60.11 | X-H torsion
[ 7974 7965 7964 7962 ] final   67.36 input  175.53 | X-H torsion
[ 8008 7997 7996 7995 ] final  -98.61 input   59.86 | X-H torsion
[ 10167 10162 10161 10158 ] final   81.80 input  -65.29 | X-H torsion
[ 10718 10713 10712 10709 ] final   83.87 input   66.30 | X-H torsion
[ 10763 10752 10751 10750 ] final  -71.52 input  -60.55 | X-H torsion
[ 11005 11000 10999 10996 ] final  -87.07 input  -57.11 | X-H torsion

> <Gold.Protein.ActiveResidues>
 VAL166  LYS551  ARG553  GLY616  TRP617  ASP618  TYR619  PRO620  LYS621  CYS622 
 ASP623  PHE694  ASN695  SER759  ASP760  ASP761  ALA762  ILE779  LEU786  VAL792 
 PHE793  MET794  SER795  GLU796  ALA797  LYS798  CYS799  TRP800  GLU811  SER814 

> <Gold.Protein.RotatedAtoms>
  152.0554  133.4038  159.4394 H   0  0  0  0  0  0  0  0  0  0  0  0  # atno 6907 bound_to 6896
  150.6868  134.3260  159.4816 H   0  0  0  0  0  0  0  0  0  0  0  0  # atno 6908 bound_to 6896
  152.1075  134.9297  160.0618 H   0  0  0  0  0  0  0  0  0  0  0  0  # atno 6909 bound_to 6896
  145.8155  139.3056  143.1074 H   0  0  0  0  0  0  0  0  0  0  0  0  # atno 7974 bound_to 7965
  154.8035  140.0454  157.1290 H   0  0  0  0  0  0  0  0  0  0  0  0  # atno 8008 bound_to 7997
  154.9451  140.3057  155.5082 H   0  0  0  0  0  0  0  0  0  0  0  0  # atno 8009 bound_to 7997
  156.2964  140.2298  156.4523 H   0  0  0  0  0  0  0  0  0  0  0  0  # atno 8010 bound_to 7997
  139.9354  144.6125  150.8303 H   0  0  0  0  0  0  0  0  0  0  0  0  # atno 10167 bound_to 10162
  157.6887  131.0109  150.2588 H   0  0  0  0  0  0  0  0  0  0  0  0  # atno 10718 bound_to 10713
  154.4330  135.5959  153.6080 H   0  0  0  0  0  0  0  0  0  0  0  0  # atno 10763 bound_to 10752
  152.9800  135.5979  154.3816 H   0  0  0  0  0  0  0  0  0  0  0  0  # atno 10764 bound_to 10752
  154.3656  135.2841  155.2274 H   0  0  0  0  0  0  0  0  0  0  0  0  # atno 10765 bound_to 10752
  141.1622  133.7490  156.9253 H   0  0  0  0  0  0  0  0  0  0  0  0  # atno 11005 bound_to 11000
  145.9731  140.8744  143.0152 LP  0  0  0  0  0  0  0  0  0  0  0  0  # atno 17320 bound_to 7965
  144.6753  140.1974  143.7390 LP  0  0  0  0  0  0  0  0  0  0  0  0  # atno 17321 bound_to 7965
  140.7626  143.3202  151.2640 LP  0  0  0  0  0  0  0  0  0  0  0  0  # atno 17342 bound_to 10162
  139.6748  143.9957  152.2774 LP  0  0  0  0  0  0  0  0  0  0  0  0  # atno 17343 bound_to 10162
  156.3172  130.3780  149.7608 LP  0  0  0  0  0  0  0  0  0  0  0  0  # atno 17370 bound_to 10713
  156.5190  130.8206  151.3196 LP  0  0  0  0  0  0  0  0  0  0  0  0  # atno 17371 bound_to 10713
  140.1423  134.9285  157.2483 LP  0  0  0  0  0  0  0  0  0  0  0  0  # atno 17394 bound_to 11000
  140.2822  134.3337  155.7340 LP  0  0  0  0  0  0  0  0  0  0  0  0  # atno 17395 bound_to 11000

$$$$
