AV-unprocessed.smi:91|AV-procd|sdf|839|dock9
  -GOLD-   2262017273D 1   1.00000     0.00000
 Structure written by MMmdl.
 60 63  0  0  0  0  0  0  0  0  1 V2000
  153.4286  142.1669  161.9412 C   0  0  0  0  0  0  0  0  0  0  0  0
  154.1900  141.5102  160.9433 O   0  0  0  0  0  0  0  0  0  0  0  0
  153.3926  140.7033  160.0910 C   0  0  0  0  0  0  0  0  0  0  0  0
  152.2653  141.5450  159.4778 C   0  0  2  0  0  0  0  0  0  0  0  0
  151.5980  140.8641  158.2683 C   0  0  0  0  0  0  0  0  0  0  0  0
  150.6313  141.7679  157.6637 N   0  0  0  0  0  0  0  0  0  0  0  0
  149.8813  141.1863  156.7044 C   0  0  0  0  0  0  0  0  0  0  0  0
  150.4307  140.8806  155.4994 N   0  0  0  0  0  0  0  0  0  0  0  0
  149.6829  140.3030  154.5538 C   0  0  0  0  0  0  0  0  0  0  0  0
  148.3945  139.9553  154.6043 N   0  0  0  0  0  0  0  0  0  0  0  0
  147.8450  140.2626  155.8147 C   0  0  0  0  0  0  0  0  0  0  0  0
  148.5137  140.8716  156.9124 C   0  0  0  0  0  0  0  0  0  0  0  0
  147.6376  141.0314  157.9783 N   0  0  0  0  0  0  0  0  0  0  0  0
  146.5091  140.5482  157.5332 C   0  0  0  0  0  0  0  0  0  0  0  0
  146.5426  140.0711  156.2419 N   0  0  0  0  0  0  0  0  0  0  0  0
  145.4346  139.4903  155.5033 C   0  0  0  0  0  0  0  0  0  0  0  0
  144.0507  139.8125  156.1203 C   0  0  1  0  0  0  0  0  0  0  0  0
  143.8069  141.3319  156.2940 C   0  0  0  0  0  0  0  0  0  0  0  0
  143.7070  141.9871  155.0462 O   0  0  0  0  0  0  0  0  0  0  0  0
  142.9046  139.1218  155.3381 C   0  0  1  0  0  0  0  0  0  0  0  0
  142.9410  137.6037  155.3590 C   0  0  0  0  0  0  0  0  0  0  0  0
  141.5198  137.2464  154.9398 C   0  0  0  0  0  0  0  0  0  0  0  0
  140.6958  138.2733  155.4790 O   0  0  0  0  0  0  0  0  0  0  0  0
  141.4994  139.3731  155.8967 C   0  0  0  0  0  0  0  0  0  0  0  0
  151.2292  143.0387  157.2743 C   0  0  0  0  0  0  0  0  0  0  0  0
  151.8930  143.7273  158.4873 C   0  0  0  0  0  0  0  0  0  0  0  0
  152.7530  144.9070  158.0087 C   0  0  0  0  0  0  0  0  0  0  0  0
  150.8491  144.2386  159.5026 C   0  0  0  0  0  0  0  0  0  0  0  0
  152.8071  142.8136  159.1048 O   0  0  0  0  0  0  0  0  0  0  0  0
  154.0871  142.7691  162.5671 H   0  0  0  0  0  0  0  0  0  0  0  0
  152.9170  141.4490  162.5835 H   0  0  0  0  0  0  0  0  0  0  0  0
  152.6862  142.8314  161.4974 H   0  0  0  0  0  0  0  0  0  0  0  0
  154.0136  140.2855  159.2970 H   0  0  0  0  0  0  0  0  0  0  0  0
  152.9699  139.8660  160.6486 H   0  0  0  0  0  0  0  0  0  0  0  0
  151.5165  141.6981  160.2551 H   0  0  0  0  0  0  0  0  0  0  0  0
  152.3475  140.5910  157.5242 H   0  0  0  0  0  0  0  0  0  0  0  0
  151.1040  139.9432  158.5818 H   0  0  0  0  0  0  0  0  0  0  0  0
  150.1887  140.0909  153.6235 H   0  0  0  0  0  0  0  0  0  0  0  0
  145.6128  140.5307  158.1362 H   0  0  0  0  0  0  0  0  0  0  0  0
  145.4804  139.8436  154.4726 H   0  0  0  0  0  0  0  0  0  0  0  0
  145.5944  138.4128  155.4642 H   0  0  0  0  0  0  0  0  0  0  0  0
  144.0516  139.3893  157.1258 H   0  0  0  0  0  0  0  0  0  0  0  0
  142.8921  141.5160  156.8569 H   0  0  0  0  0  0  0  0  0  0  0  0
  144.6077  141.7959  156.8699 H   0  0  0  0  0  0  0  0  0  0  0  0
  143.6141  141.3325  154.3702 H   0  0  0  0  0  0  0  0  0  0  0  0
  142.9256  139.4480  154.2968 H   0  0  0  0  0  0  0  0  0  0  0  0
  143.6907  137.1795  154.6906 H   0  0  0  0  0  0  0  0  0  0  0  0
  143.1352  137.2384  156.3685 H   0  0  0  0  0  0  0  0  0  0  0  0
  141.4295  137.2631  153.8528 H   0  0  0  0  0  0  0  0  0  0  0  0
  141.2137  136.2609  155.2913 H   0  0  0  0  0  0  0  0  0  0  0  0
  141.5120  139.3884  156.9873 H   0  0  0  0  0  0  0  0  0  0  0  0
  141.0779  140.3177  155.5518 H   0  0  0  0  0  0  0  0  0  0  0  0
  151.9770  142.8569  156.5006 H   0  0  0  0  0  0  0  0  0  0  0  0
  150.4703  143.6897  156.8371 H   0  0  0  0  0  0  0  0  0  0  0  0
  152.1483  145.6582  157.4995 H   0  0  0  0  0  0  0  0  0  0  0  0
  153.5251  144.5766  157.3130 H   0  0  0  0  0  0  0  0  0  0  0  0
  153.2536  145.3955  158.8453 H   0  0  0  0  0  0  0  0  0  0  0  0
  150.2269  145.0178  159.0615 H   0  0  0  0  0  0  0  0  0  0  0  0
  151.3325  144.6629  160.3829 H   0  0  0  0  0  0  0  0  0  0  0  0
  150.1758  143.4521  159.8421 H   0  0  0  0  0  0  0  0  0  0  0  0
  1  2  1  0  0  0  0
  1 30  1  0  0  0  0
  1 31  1  0  0  0  0
  1 32  1  0  0  0  0
  2  3  1  0  0  0  0
  3  4  1  0  0  0  0
  3 33  1  0  0  0  0
  3 34  1  0  0  0  0
  4 29  1  0  0  0  0
  4  5  1  0  0  0  0
  4 35  1  0  0  0  0
  5  6  1  0  0  0  0
  5 36  1  0  0  0  0
  5 37  1  0  0  0  0
  6  7  1  0  0  0  0
  6 25  1  0  0  0  0
  7 12  1  0  0  0  0
  7  8  2  0  0  0  0
  8  9  1  0  0  0  0
  9 10  2  0  0  0  0
  9 38  1  0  0  0  0
 10 11  1  0  0  0  0
 11 15  1  0  0  0  0
 11 12  2  0  0  0  0
 12 13  1  0  0  0  0
 13 14  2  0  0  0  0
 14 15  1  0  0  0  0
 14 39  1  0  0  0  0
 15 16  1  0  0  0  0
 16 17  1  0  0  0  0
 16 40  1  0  0  0  0
 16 41  1  0  0  0  0
 17 18  1  0  0  0  0
 17 20  1  0  0  0  0
 17 42  1  0  0  0  0
 18 19  1  0  0  0  0
 18 43  1  0  0  0  0
 18 44  1  0  0  0  0
 19 45  1  0  0  0  0
 20 24  1  0  0  0  0
 20 21  1  0  0  0  0
 20 46  1  0  0  0  0
 21 22  1  0  0  0  0
 21 47  1  0  0  0  0
 21 48  1  0  0  0  0
 22 23  1  0  0  0  0
 22 49  1  0  0  0  0
 22 50  1  0  0  0  0
 23 24  1  0  0  0  0
 24 51  1  0  0  0  0
 24 52  1  0  0  0  0
 25 26  1  0  0  0  0
 25 53  1  0  0  0  0
 25 54  1  0  0  0  0
 26 27  1  0  0  0  0
 26 28  1  0  0  0  0
 26 29  1  0  0  0  0
 27 55  1  0  0  0  0
 27 56  1  0  0  0  0
 27 57  1  0  0  0  0
 28 58  1  0  0  0  0
 28 59  1  0  0  0  0
 28 60  1  0  0  0  0
M  END
> <s_m_source_file>
AV-unprocessed.smi

> <i_m_source_file_index>
91

> <i_lp_mmshare_version>
43012

> <i_f3d_flags>
0

> <s_epik_input>
W0NIM11PW0NIMl1bQ0BASF0oTzEpW0NIMl1OKFtDSDJdQzEoW0NIM10pW0NIM10pYyhuW2NIXW4yKWMoYzIzKW5bY0hdbjNbQ0gyXVtDQEhdKFtDSDJdW09IXSlbQ0BASF00W0NIMl1bQ0gyXU9bQ0gyXTQ=

> <s_epik_cmdline>
J2VwaWtfcHl0aG9uJywgJy1waCcsICc3LjAnLCAnLXRuJywgJzgnLCAnLW1hJywgJzIwMCcsICctbWV0YWxfYmluZGluZycsICctaW1hZScsICc8aW5maWxlLm1hZT4nLCAnLW9tYWUnLCAnPG91dGZpbGUubWFlPic=

> <r_lp_tautomer_probability>
1

> <r_epik_Ionization_Penalty>
8.63591e-05

> <r_epik_Ionization_Penalty_Charging>
0

> <r_epik_Ionization_Penalty_Neutral>
8.63591e-05

> <r_epik_State_Penalty>
-0

> <r_epik_Charging_Adjusted_Penalty>
0

> <i_epik_Tot_Q>
0

> <i_epik_Tot_abs_Q>
0

> <r_epik_Metal_State_Penalty>
-0

> <b_epik_Metal_Only>
0

> <s_lp_Force_Field>
OPLS_2005

> <r_lp_Energy>
46.8468

> <b_lp_Chiralities_Consistent>
1

> <s_lp_Variant>
AV-unprocessed.smi:91-7

> <Gold.Version>
5.8.1

> <Gold.Id.Protein>
6NUR|6NUR_protein|mol2

> <Gold.PLP.Fitness>
43.3656

> <Gold.PLP.PLP>
-38.1809

> <Gold.PLP.part.hbond>
-3.0402

> <Gold.PLP.part.metal>
0.0000

> <Gold.PLP.part.buried>
-6.5066

> <Gold.PLP.part.nonpolar>
-28.5298

> <Gold.PLP.part.repulsive>
0.2531

> <Gold.PLP.ligand.clash>
0.0000

> <Gold.PLP.ligand.torsion>
0.5843

> <Gold.PLP.Chemscore.Hbond>
1.0000

> <Gold.PLP.Chemscore.CHOScore>
1.0000

> <Gold.PLP.Chemscore.Metal>
0.0000

> <Gold.Chemscore.Hbonds>
donor molecule, donor type, donor heavy atom, donor atom, acceptor molecule, acceptor atom, score
      L1  H    19    45       P1 10175  1.00
      L1  C     9    38       P1  7957  1.00

> <Gold.PLP.Chemscore.Internal.Correction>
0.3533

> <Gold.Rescore>
     Score         DG    S(hbond)    S(metal)    S(lipo)     H(rot)  DE(clash)    DE(int)     intcor
      9.13      -9.89       0.39        0.00      92.97       3.03       0.09       0.68       ----

> <Gold.Chemscore.Fitness>
9.1259

> <Gold.Chemscore.DG>
-9.8935

> <Gold.Chemscore.ZeroCoef>
-5.4800

> <Gold.Chemscore.Hbond>
0.3859

> <Gold.Chemscore.Metal>
0.0000

> <Gold.Chemscore.Lipo>
92.9690

> <Gold.Chemscore.Internal_Hbond>
0.0000

> <Gold.Chemscore.DEClash>
0.0891

> <Gold.Chemscore.DEInternal>
0.6786

> <Gold.Chemscore.Rot>
3.0284

> <Gold.Chemscore.Internal.Correction>
   9.000000E+99

> <Gold.Chemscore.Hbonds>
donor molecule, donor type, donor heavy atom, donor atom, acceptor molecule, acceptor atom, score
      L1  H    19    45       P1 10175  0.37

> <Gold.Chemscore.Hbond.Weighted>
-1.2890

> <Gold.Chemscore.Metal.Weighted>
-0.0000

> <Gold.Chemscore.Lipo.Weighted>
-10.8774

> <Gold.Chemscore.Internal_Hbond.Weighted>
0.0000

> <Gold.Chemscore.DEClash.Weighted>
0.0891

> <Gold.Chemscore.DEInternal.Weighted>
0.6786

> <Gold.Chemscore.Rot.Weighted>
7.7528

> <Gold.Chemscore.Internal.Correction.Weighted>
   9.000000E+99

> <Gold.Protein.RotatedTorsions>
[ 6907 6896 6895 6894 ] final   55.51 input  -60.11 | X-H torsion
[ 7974 7965 7964 7962 ] final  -94.17 input  175.53 | X-H torsion
[ 8008 7997 7996 7995 ] final   -1.04 input   59.86 | X-H torsion
[ 10167 10162 10161 10158 ] final  103.53 input  -65.29 | X-H torsion
[ 10718 10713 10712 10709 ] final   12.11 input   66.30 | X-H torsion
[ 10763 10752 10751 10750 ] final  112.93 input  -60.55 | X-H torsion
[ 11005 11000 10999 10996 ] final  -93.16 input  -57.11 | X-H torsion

> <Gold.Protein.ActiveResidues>
 VAL166  LYS551  ARG553  GLY616  TRP617  ASP618  TYR619  PRO620  LYS621  CYS622 
 ASP623  PHE694  ASN695  SER759  ASP760  ASP761  ALA762  ILE779  LEU786  VAL792 
 PHE793  MET794  SER795  GLU796  ALA797  LYS798  CYS799  TRP800  GLU811  SER814 

> <Gold.Protein.RotatedAtoms>
  152.3546  134.6958  160.0225 H   0  0  0  0  0  0  0  0  0  0  0  0  # atno 6907 bound_to 6896
  151.7301  133.3312  159.3346 H   0  0  0  0  0  0  0  0  0  0  0  0  # atno 6908 bound_to 6896
  150.7563  134.6305  159.6228 H   0  0  0  0  0  0  0  0  0  0  0  0  # atno 6909 bound_to 6896
  145.3768  140.9512  143.2416 H   0  0  0  0  0  0  0  0  0  0  0  0  # atno 7974 bound_to 7965
  154.6512  140.2569  155.7212 H   0  0  0  0  0  0  0  0  0  0  0  0  # atno 8008 bound_to 7997
  156.2576  140.2867  156.0867 H   0  0  0  0  0  0  0  0  0  0  0  0  # atno 8009 bound_to 7997
  155.1448  140.0381  157.2797 H   0  0  0  0  0  0  0  0  0  0  0  0  # atno 8010 bound_to 7997
  139.7255  144.7048  151.0805 H   0  0  0  0  0  0  0  0  0  0  0  0  # atno 10167 bound_to 10162
  157.0053  130.6096  149.5701 H   0  0  0  0  0  0  0  0  0  0  0  0  # atno 10718 bound_to 10713
  153.4851  135.3671  155.2462 H   0  0  0  0  0  0  0  0  0  0  0  0  # atno 10763 bound_to 10752
  154.8754  135.3963  154.3654 H   0  0  0  0  0  0  0  0  0  0  0  0  # atno 10764 bound_to 10752
  153.4264  135.7081  153.6325 H   0  0  0  0  0  0  0  0  0  0  0  0  # atno 10765 bound_to 10752
  141.1504  133.7869  157.0121 H   0  0  0  0  0  0  0  0  0  0  0  0  # atno 11005 bound_to 11000
  144.8536  139.5283  143.6845 LP  0  0  0  0  0  0  0  0  0  0  0  0  # atno 17320 bound_to 7965
  146.2860  139.7006  142.9195 LP  0  0  0  0  0  0  0  0  0  0  0  0  # atno 17321 bound_to 7965
  140.7762  143.5111  150.9652 LP  0  0  0  0  0  0  0  0  0  0  0  0  # atno 17342 bound_to 10162
  139.8798  143.7086  152.3158 LP  0  0  0  0  0  0  0  0  0  0  0  0  # atno 17343 bound_to 10162
  156.0156  130.5250  150.8123 LP  0  0  0  0  0  0  0  0  0  0  0  0  # atno 17370 bound_to 10713
  157.5360  131.0939  150.9892 LP  0  0  0  0  0  0  0  0  0  0  0  0  # atno 17371 bound_to 10713
  140.0871  134.9614  157.1717 LP  0  0  0  0  0  0  0  0  0  0  0  0  # atno 17394 bound_to 11000
  140.3497  134.2613  155.7200 LP  0  0  0  0  0  0  0  0  0  0  0  0  # atno 17395 bound_to 11000

$$$$
