AV-unprocessed.smi:1378|AV-procd|sdf|5597|dock7
  -GOLD-   22720 5203D 1   1.00000     0.00000
 Structure written by MMmdl.
 47 49  0  0  0  0  0  0  0  0  2 V2000
  151.3373  129.8445  154.7554 C   0  0  0  0  0  0  0  0  0  0  0  0
  150.1203  130.5706  154.7364 O   0  0  0  0  0  0  0  0  0  0  0  0
  149.1868  130.0354  153.8160 C   0  0  0  0  0  0  0  0  0  0  0  0
  147.8156  130.6811  154.0653 C   0  0  0  0  0  0  0  0  0  0  0  0
  147.6081  131.8964  153.2647 N   0  0  0  0  0  0  0  0  0  0  0  0
  148.2964  133.0733  153.2258 C   0  0  0  0  0  0  0  0  0  0  0  0
  149.6921  133.5306  154.2032 S   0  0  0  0  0  0  0  0  0  0  0  0
  149.2086  135.0493  155.0737 C   0  0  0  0  0  0  0  0  0  0  0  0
  150.1988  136.1940  154.8615 C   0  0  0  0  0  0  0  0  0  0  0  0
  151.4005  136.0187  155.0564 O   0  0  0  0  0  0  0  0  0  0  0  0
  149.6756  137.3537  154.4388 N   0  0  0  0  0  0  0  0  0  0  0  0
  150.4196  138.5660  154.1180 C   0  0  0  0  0  0  0  0  0  0  0  0
  151.6088  138.7608  155.0811 C   0  0  0  0  0  0  0  0  0  0  0  0
  151.4001  140.1197  155.7574 C   0  0  0  0  0  0  0  0  0  0  0  0
  149.8995  140.3797  155.6609 C   0  0  0  0  0  0  0  0  0  0  0  0
  149.5146  139.7949  154.3038 C   0  0  0  0  0  0  0  0  0  0  0  0
  147.7008  133.8720  152.2992 N   0  3  0  0  0  0  0  0  0  0  0  0
  146.6164  133.2013  151.7333 C   0  0  0  0  0  0  0  0  0  0  0  0
  145.7064  133.6000  150.7593 C   0  0  0  0  0  0  0  0  0  0  0  0
  144.7123  132.6657  150.4019 C   0  0  0  0  0  0  0  0  0  0  0  0
  144.6509  131.3921  151.0039 C   0  0  0  0  0  0  0  0  0  0  0  0
  145.5789  130.9989  151.9904 C   0  0  0  0  0  0  0  0  0  0  0  0
  146.5561  131.9296  152.3416 C   0  0  0  0  0  0  0  0  0  0  0  0
  152.0221  130.2955  155.4736 H   0  0  0  0  0  0  0  0  0  0  0  0
  151.8195  129.8566  153.7772 H   0  0  0  0  0  0  0  0  0  0  0  0
  151.1736  128.8074  155.0518 H   0  0  0  0  0  0  0  0  0  0  0  0
  149.5247  130.2245  152.7964 H   0  0  0  0  0  0  0  0  0  0  0  0
  149.1262  128.9558  153.9450 H   0  0  0  0  0  0  0  0  0  0  0  0
  147.0184  129.9770  153.8260 H   0  0  0  0  0  0  0  0  0  0  0  0
  147.6946  130.9416  155.1175 H   0  0  0  0  0  0  0  0  0  0  0  0
  148.2148  135.3485  154.7400 H   0  0  0  0  0  0  0  0  0  0  0  0
  149.1282  134.8323  156.1391 H   0  0  0  0  0  0  0  0  0  0  0  0
  148.6744  137.3971  154.3163 H   0  0  0  0  0  0  0  0  0  0  0  0
  150.7629  138.5271  153.0825 H   0  0  0  0  0  0  0  0  0  0  0  0
  151.6314  137.9759  155.8390 H   0  0  0  0  0  0  0  0  0  0  0  0
  152.5637  138.7224  154.5563 H   0  0  0  0  0  0  0  0  0  0  0  0
  151.7630  140.1356  156.7855 H   0  0  0  0  0  0  0  0  0  0  0  0
  151.9390  140.8899  155.2042 H   0  0  0  0  0  0  0  0  0  0  0  0
  149.3788  139.8424  156.4549 H   0  0  0  0  0  0  0  0  0  0  0  0
  149.6487  141.4370  155.7505 H   0  0  0  0  0  0  0  0  0  0  0  0
  149.7352  140.5256  153.5245 H   0  0  0  0  0  0  0  0  0  0  0  0
  148.4504  139.5664  154.2369 H   0  0  0  0  0  0  0  0  0  0  0  0
  145.7524  134.5742  150.2949 H   0  0  0  0  0  0  0  0  0  0  0  0
  143.9834  132.9306  149.6497 H   0  0  0  0  0  0  0  0  0  0  0  0
  143.8757  130.7021  150.7031 H   0  0  0  0  0  0  0  0  0  0  0  0
  145.5223  130.0214  152.4464 H   0  0  0  0  0  0  0  0  0  0  0  0
  148.0130  134.8087  152.0772 H   0  0  0  0  0  0  0  0  0  0  0  0
  1  2  1  0  0  0  0
  1 24  1  0  0  0  0
  1 25  1  0  0  0  0
  1 26  1  0  0  0  0
  2  3  1  0  0  0  0
  3  4  1  0  0  0  0
  3 27  1  0  0  0  0
  3 28  1  0  0  0  0
  4  5  1  0  0  0  0
  4 29  1  0  0  0  0
  4 30  1  0  0  0  0
  5 23  1  0  0  0  0
  5  6  1  0  0  0  0
  6  7  1  0  0  0  0
  6 17  2  0  0  0  0
  7  8  1  0  0  0  0
  8  9  1  0  0  0  0
  8 31  1  0  0  0  0
  8 32  1  0  0  0  0
  9 10  2  0  0  0  0
  9 11  1  0  0  0  0
 11 12  1  0  0  0  0
 11 33  1  0  0  0  0
 12 16  1  0  0  0  0
 12 13  1  0  0  0  0
 12 34  1  0  0  0  0
 13 14  1  0  0  0  0
 13 35  1  0  0  0  0
 13 36  1  0  0  0  0
 14 15  1  0  0  0  0
 14 37  1  0  0  0  0
 14 38  1  0  0  0  0
 15 16  1  0  0  0  0
 15 39  1  0  0  0  0
 15 40  1  0  0  0  0
 16 41  1  0  0  0  0
 16 42  1  0  0  0  0
 17 18  1  0  0  0  0
 17 47  1  0  0  0  0
 18 23  2  0  0  0  0
 18 19  1  0  0  0  0
 19 20  2  0  0  0  0
 19 43  1  0  0  0  0
 20 21  1  0  0  0  0
 20 44  1  0  0  0  0
 21 22  2  0  0  0  0
 21 45  1  0  0  0  0
 22 23  1  0  0  0  0
 22 46  1  0  0  0  0
M  CHG  1  17   1
M  END
> <s_m_source_file>
AV-unprocessed.smi

> <i_m_source_file_index>
1378

> <i_lp_mmshare_version>
43012

> <i_f3d_flags>
0

> <s_epik_input>
W2NIXTFbY0hdW2NIXVtjSF1jKGMxMiluKFtDSDJdW0NIMl1PW0NIM10pYyhuMilTW0NIMl1DKD1PKVtOSF1bQ0hdM1tDSDJdW0NIMl1bQ0gyXVtDSDJdMw==

> <s_epik_cmdline>
J2VwaWtfcHl0aG9uJywgJy1waCcsICc3LjAnLCAnLXRuJywgJzgnLCAnLW1hJywgJzIwMCcsICctbWV0YWxfYmluZGluZycsICctaW1hZScsICc8aW5maWxlLm1hZT4nLCAnLW9tYWUnLCAnPG91dGZpbGUubWFlPic=

> <r_epik_Ionization_Penalty>
1.66257

> <r_epik_Ionization_Penalty_Charging>
1.66257

> <r_epik_Ionization_Penalty_Neutral>
9.72138e-08

> <r_epik_State_Penalty>
1.76557

> <r_epik_Charging_Adjusted_Penalty>
3.42813

> <i_epik_Tot_Q>
1

> <i_epik_Tot_abs_Q>
1

> <r_epik_Metal_State_Penalty>
1.80074

> <b_epik_Metal_Only>
0

> <s_lp_Force_Field>
OPLS_2005

> <r_lp_Energy>
23.1428

> <b_lp_Chiralities_Consistent>
1

> <s_lp_Variant>
AV-unprocessed.smi:1378-2

> <Gold.Version>
5.8.1

> <Gold.Id.Protein>
6NUR|6NUR_protein|mol2

> <Gold.PLP.Fitness>
53.6169

> <Gold.PLP.PLP>
-46.5161

> <Gold.PLP.part.hbond>
-3.0000

> <Gold.PLP.part.metal>
0.0000

> <Gold.PLP.part.buried>
-3.8987

> <Gold.PLP.part.nonpolar>
-39.1433

> <Gold.PLP.part.repulsive>
0.2101

> <Gold.PLP.ligand.clash>
0.0000

> <Gold.PLP.ligand.torsion>
1.0098

> <Gold.PLP.Chemscore.Hbond>
3.0000

> <Gold.PLP.Chemscore.CHOScore>
0.0000

> <Gold.PLP.Chemscore.Metal>
0.0000

> <Gold.Chemscore.Hbonds>
donor molecule, donor type, donor heavy atom, donor atom, acceptor molecule, acceptor atom, score
      L1  H    17    47       P1  7948  2.00
      P1  H 10752 10763       L1    10  1.00

> <Gold.PLP.Chemscore.Internal.Correction>
0.1205

> <Gold.Rescore>
     Score         DG    S(hbond)    S(metal)    S(lipo)     H(rot)  DE(clash)    DE(int)     intcor
     15.78     -17.78       1.84        0.00      97.60       2.06       0.04       1.96       ----

> <Gold.Chemscore.Fitness>
15.7819

> <Gold.Chemscore.DG>
-17.7802

> <Gold.Chemscore.ZeroCoef>
-5.4800

> <Gold.Chemscore.Hbond>
1.8404

> <Gold.Chemscore.Metal>
0.0000

> <Gold.Chemscore.Lipo>
97.5952

> <Gold.Chemscore.Internal_Hbond>
0.0000

> <Gold.Chemscore.DEClash>
0.0402

> <Gold.Chemscore.DEInternal>
1.9581

> <Gold.Chemscore.Rot>
2.0567

> <Gold.Chemscore.Internal.Correction>
   9.000000E+99

> <Gold.Chemscore.Hbonds>
donor molecule, donor type, donor heavy atom, donor atom, acceptor molecule, acceptor atom, score
      L1  H    17    47       P1  7948  0.40
      P1  H 10752 10763       L1    10  1.00

> <Gold.Chemscore.Hbond.Weighted>
-6.1468

> <Gold.Chemscore.Metal.Weighted>
-0.0000

> <Gold.Chemscore.Lipo.Weighted>
-11.4186

> <Gold.Chemscore.Internal_Hbond.Weighted>
0.0000

> <Gold.Chemscore.DEClash.Weighted>
0.0402

> <Gold.Chemscore.DEInternal.Weighted>
1.9581

> <Gold.Chemscore.Rot.Weighted>
5.2652

> <Gold.Chemscore.Internal.Correction.Weighted>
   9.000000E+99

> <Gold.Protein.RotatedTorsions>
[ 6907 6896 6895 6894 ] final   91.16 input  -60.11 | X-H torsion
[ 7974 7965 7964 7962 ] final  124.12 input  175.53 | X-H torsion
[ 8008 7997 7996 7995 ] final  129.47 input   59.86 | X-H torsion
[ 10167 10162 10161 10158 ] final  171.37 input  -65.29 | X-H torsion
[ 10718 10713 10712 10709 ] final  118.73 input   66.30 | X-H torsion
[ 10763 10752 10751 10750 ] final   67.02 input  -60.55 | X-H torsion
[ 11005 11000 10999 10996 ] final   77.52 input  -57.11 | X-H torsion

> <Gold.Protein.ActiveResidues>
 VAL166  LYS551  ARG553  GLY616  TRP617  ASP618  TYR619  PRO620  LYS621  CYS622 
 ASP623  PHE694  ASN695  SER759  ASP760  ASP761  ALA762  ILE779  LEU786  VAL792 
 PHE793  MET794  SER795  GLU796  ALA797  LYS798  CYS799  TRP800  GLU811  SER814 

> <Gold.Protein.RotatedAtoms>
  152.5448  134.1699  159.8592 H   0  0  0  0  0  0  0  0  0  0  0  0  # atno 6907 bound_to 6896
  151.1710  133.4777  159.2601 H   0  0  0  0  0  0  0  0  0  0  0  0  # atno 6908 bound_to 6896
  151.1275  135.0124  159.8622 H   0  0  0  0  0  0  0  0  0  0  0  0  # atno 6909 bound_to 6896
  145.0880  139.3607  143.4875 H   0  0  0  0  0  0  0  0  0  0  0  0  # atno 7974 bound_to 7965
  156.2936  140.2620  156.2604 H   0  0  0  0  0  0  0  0  0  0  0  0  # atno 8008 bound_to 7997
  154.9794  140.0390  157.2289 H   0  0  0  0  0  0  0  0  0  0  0  0  # atno 8009 bound_to 7997
  154.7785  140.2791  155.6087 H   0  0  0  0  0  0  0  0  0  0  0  0  # atno 8010 bound_to 7997
  139.5045  144.3493  151.9939 H   0  0  0  0  0  0  0  0  0  0  0  0  # atno 10167 bound_to 10162
  157.6010  131.1051  150.7797 H   0  0  0  0  0  0  0  0  0  0  0  0  # atno 10718 bound_to 10713
  153.0167  135.5299  154.6915 H   0  0  0  0  0  0  0  0  0  0  0  0  # atno 10763 bound_to 10752
  154.6048  135.2872  155.0498 H   0  0  0  0  0  0  0  0  0  0  0  0  # atno 10764 bound_to 10752
  154.1542  135.6558  153.5023 H   0  0  0  0  0  0  0  0  0  0  0  0  # atno 10765 bound_to 10752
  139.9251  134.7689  156.1532 H   0  0  0  0  0  0  0  0  0  0  0  0  # atno 11005 bound_to 11000
  146.3531  140.0701  142.8624 LP  0  0  0  0  0  0  0  0  0  0  0  0  # atno 17320 bound_to 7965
  145.1099  140.9399  143.4662 LP  0  0  0  0  0  0  0  0  0  0  0  0  # atno 17321 bound_to 7965
  140.2930  144.3732  150.6083 LP  0  0  0  0  0  0  0  0  0  0  0  0  # atno 17342 bound_to 10162
  140.5932  143.2167  151.7214 LP  0  0  0  0  0  0  0  0  0  0  0  0  # atno 17343 bound_to 10162
  156.8196  130.4979  149.5345 LP  0  0  0  0  0  0  0  0  0  0  0  0  # atno 17370 bound_to 10713
  156.1083  130.6021  151.0007 LP  0  0  0  0  0  0  0  0  0  0  0  0  # atno 17371 bound_to 10713
  141.0802  133.6757  156.2321 LP  0  0  0  0  0  0  0  0  0  0  0  0  # atno 17394 bound_to 11000
  140.6360  134.5215  157.5564 LP  0  0  0  0  0  0  0  0  0  0  0  0  # atno 17395 bound_to 11000

$$$$
