AV-unprocessed.smi:1131|AV-procd|sdf|4852|dock3
  -GOLD-   22720 3423D 1   1.00000     0.00000
 Structure written by MMmdl.
 32 33  0  0  0  0  0  0  0  0  2 V2000
  152.7719  139.5122  155.1974 O   0  0  0  0  0  0  0  0  0  0  0  0
  151.5883  139.6752  155.4965 C   0  0  0  0  0  0  0  0  0  0  0  0
  150.4779  139.3066  154.5052 C   0  0  0  0  0  0  0  0  0  0  0  0
  149.2299  140.0407  154.7656 N   0  0  0  0  0  0  0  0  0  0  0  0
  148.9386  141.1504  153.9529 C   0  0  0  0  0  0  0  0  0  0  0  0
  147.8198  141.8806  154.1225 C   0  0  0  0  0  0  0  0  0  0  0  0
  146.8975  141.4947  155.1834 C   0  0  0  0  0  0  0  0  0  0  0  0
  145.8692  142.1475  155.3501 O   0  0  0  0  0  0  0  0  0  0  0  0
  147.2268  140.4127  155.9481 N   0  5  0  0  0  0  0  0  0  0  0  0
  148.3689  139.6803  155.7652 C   0  0  0  0  0  0  0  0  0  0  0  0
  148.6476  138.7079  156.4682 O   0  0  0  0  0  0  0  0  0  0  0  0
  151.1871  140.1562  156.6823 N   0  0  0  0  0  0  0  0  0  0  0  0
  152.0719  140.6135  157.7473 C   0  0  0  0  0  0  0  0  0  0  0  0
  151.8638  142.1068  158.0676 C   0  0  2  0  0  0  0  0  0  0  0  0
  152.6885  142.6068  159.2355 C   0  0  0  0  0  0  0  0  0  0  0  0
  151.9482  143.8865  159.6034 C   0  0  0  0  0  0  0  0  0  0  0  0
  150.5730  143.5866  159.3967 O   0  0  0  0  0  0  0  0  0  0  0  0
  150.4432  142.4827  158.5031 C   0  0  0  0  0  0  0  0  0  0  0  0
  150.8419  139.5097  153.4974 H   0  0  0  0  0  0  0  0  0  0  0  0
  150.2891  138.2316  154.5313 H   0  0  0  0  0  0  0  0  0  0  0  0
  149.6755  141.3727  153.1953 H   0  0  0  0  0  0  0  0  0  0  0  0
  147.6118  142.7319  153.4911 H   0  0  0  0  0  0  0  0  0  0  0  0
  150.1944  140.2513  156.8407 H   0  0  0  0  0  0  0  0  0  0  0  0
  151.8708  140.0087  158.6321 H   0  0  0  0  0  0  0  0  0  0  0  0
  153.1112  140.4250  157.4738 H   0  0  0  0  0  0  0  0  0  0  0  0
  152.1237  142.7060  157.1930 H   0  0  0  0  0  0  0  0  0  0  0  0
  152.6486  141.8999  160.0657 H   0  0  0  0  0  0  0  0  0  0  0  0
  153.7344  142.7791  158.9799 H   0  0  0  0  0  0  0  0  0  0  0  0
  152.1400  144.2053  160.6281 H   0  0  0  0  0  0  0  0  0  0  0  0
  152.2355  144.6982  158.9338 H   0  0  0  0  0  0  0  0  0  0  0  0
  149.8109  142.7374  157.6516 H   0  0  0  0  0  0  0  0  0  0  0  0
  149.9665  141.6625  159.0410 H   0  0  0  0  0  0  0  0  0  0  0  0
  1  2  2  0  0  0  0
  2  3  1  0  0  0  0
  2 12  1  0  0  0  0
  3  4  1  0  0  0  0
  3 19  1  0  0  0  0
  3 20  1  0  0  0  0
  4 10  1  0  0  0  0
  4  5  1  0  0  0  0
  5  6  2  0  0  0  0
  5 21  1  0  0  0  0
  6  7  1  0  0  0  0
  6 22  1  0  0  0  0
  7  8  2  0  0  0  0
  7  9  1  0  0  0  0
  9 10  1  0  0  0  0
 10 11  2  0  0  0  0
 12 13  1  0  0  0  0
 12 23  1  0  0  0  0
 13 14  1  0  0  0  0
 13 24  1  0  0  0  0
 13 25  1  0  0  0  0
 14 18  1  0  0  0  0
 14 15  1  0  0  0  0
 14 26  1  0  0  0  0
 15 16  1  0  0  0  0
 15 27  1  0  0  0  0
 15 28  1  0  0  0  0
 16 17  1  0  0  0  0
 16 29  1  0  0  0  0
 16 30  1  0  0  0  0
 17 18  1  0  0  0  0
 18 31  1  0  0  0  0
 18 32  1  0  0  0  0
M  CHG  1   9  -1
M  END
> <s_m_source_file>
AV-unprocessed.smi

> <i_m_source_file_index>
1131

> <i_lp_mmshare_version>
43012

> <i_f3d_flags>
0

> <s_epik_input>
W0NIMl0xT1tDSDJdW0NIMl1bQ0BIXTFbQ0gyXVtOSF1DKD1PKVtDSDJdbjJbY0hdW2NIXWMoPU8pW25IXWMyPU8=

> <s_epik_cmdline>
J2VwaWtfcHl0aG9uJywgJy1waCcsICc3LjAnLCAnLXRuJywgJzgnLCAnLW1hJywgJzIwMCcsICctbWV0YWxfYmluZGluZycsICctaW1hZScsICc8aW5maWxlLm1hZT4nLCAnLW9tYWUnLCAnPG91dGZpbGUubWFlPic=

> <r_lp_tautomer_probability>
0.999537

> <r_epik_Ionization_Penalty>
3.07866

> <r_epik_Ionization_Penalty_Charging>
2.6898e-08

> <r_epik_Ionization_Penalty_Neutral>
3.07866

> <r_epik_State_Penalty>
3.07769

> <r_epik_Charging_Adjusted_Penalty>
3.07769

> <i_epik_Tot_Q>
-1

> <i_epik_Tot_abs_Q>
1

> <r_epik_Metal_State_Penalty>
0.459839

> <b_epik_Metal_Only>
1

> <s_lp_Force_Field>
OPLS_2005

> <r_lp_Energy>
26.4243

> <b_lp_Chiralities_Consistent>
1

> <s_lp_Variant>
AV-unprocessed.smi:1131-3

> <Gold.Version>
5.8.1

> <Gold.Id.Protein>
6NUR|6NUR_protein|mol2

> <Gold.PLP.Fitness>
35.0831

> <Gold.PLP.PLP>
-30.8783

> <Gold.PLP.part.hbond>
-1.8610

> <Gold.PLP.part.metal>
0.0000

> <Gold.PLP.part.buried>
-2.7354

> <Gold.PLP.part.nonpolar>
-26.2185

> <Gold.PLP.part.repulsive>
0.3070

> <Gold.PLP.ligand.clash>
0.0000

> <Gold.PLP.ligand.torsion>
0.6030

> <Gold.PLP.Chemscore.Hbond>
1.0000

> <Gold.PLP.Chemscore.CHOScore>
0.7987

> <Gold.PLP.Chemscore.Metal>
0.0000

> <Gold.Chemscore.Hbonds>
donor molecule, donor type, donor heavy atom, donor atom, acceptor molecule, acceptor atom, score
      P1  H  7997  8009       L1     1  1.00
      L1  C     5    21       P1  7957  0.76

> <Gold.PLP.Chemscore.Internal.Correction>
0.0146

> <Gold.Rescore>
     Score         DG    S(hbond)    S(metal)    S(lipo)     H(rot)  DE(clash)    DE(int)     intcor
     11.08     -11.73       1.00        0.00      69.61       2.05       0.00       0.64       ----

> <Gold.Chemscore.Fitness>
11.0828

> <Gold.Chemscore.DG>
-11.7259

> <Gold.Chemscore.ZeroCoef>
-5.4800

> <Gold.Chemscore.Hbond>
1.0000

> <Gold.Chemscore.Metal>
0.0000

> <Gold.Chemscore.Lipo>
69.6111

> <Gold.Chemscore.Internal_Hbond>
0.0000

> <Gold.Chemscore.DEClash>
0.0004

> <Gold.Chemscore.DEInternal>
0.6427

> <Gold.Chemscore.Rot>
2.0463

> <Gold.Chemscore.Internal.Correction>
   9.000000E+99

> <Gold.Chemscore.Hbonds>
donor molecule, donor type, donor heavy atom, donor atom, acceptor molecule, acceptor atom, score
      P1  H  7997  8009       L1     1  0.89

> <Gold.Chemscore.Hbond.Weighted>
-3.3400

> <Gold.Chemscore.Metal.Weighted>
-0.0000

> <Gold.Chemscore.Lipo.Weighted>
-8.1445

> <Gold.Chemscore.Internal_Hbond.Weighted>
0.0000

> <Gold.Chemscore.DEClash.Weighted>
0.0004

> <Gold.Chemscore.DEInternal.Weighted>
0.6427

> <Gold.Chemscore.Rot.Weighted>
5.2386

> <Gold.Chemscore.Internal.Correction.Weighted>
   9.000000E+99

> <Gold.Protein.RotatedTorsions>
[ 6907 6896 6895 6894 ] final  -29.65 input  -60.11 | X-H torsion
[ 7974 7965 7964 7962 ] final -125.44 input  175.53 | X-H torsion
[ 8008 7997 7996 7995 ] final -120.19 input   59.86 | X-H torsion
[ 10167 10162 10161 10158 ] final   86.32 input  -65.29 | X-H torsion
[ 10718 10713 10712 10709 ] final   60.69 input   66.30 | X-H torsion
[ 10763 10752 10751 10750 ] final  125.16 input  -60.55 | X-H torsion
[ 11005 11000 10999 10996 ] final  140.16 input  -57.11 | X-H torsion

> <Gold.Protein.ActiveResidues>
 VAL166  LYS551  ARG553  GLY616  TRP617  ASP618  TYR619  PRO620  LYS621  CYS622 
 ASP623  PHE694  ASN695  SER759  ASP760  ASP761  ALA762  ILE779  LEU786  VAL792 
 PHE793  MET794  SER795  GLU796  ALA797  LYS798  CYS799  TRP800  GLU811  SER814 

> <Gold.Protein.RotatedAtoms>
  151.1162  135.0054  159.8516 H   0  0  0  0  0  0  0  0  0  0  0  0  # atno 6907 bound_to 6896
  152.5446  134.1777  159.8632 H   0  0  0  0  0  0  0  0  0  0  0  0  # atno 6908 bound_to 6896
  151.1831  133.4668  159.2627 H   0  0  0  0  0  0  0  0  0  0  0  0  # atno 6909 bound_to 6896
  144.9976  140.7790  143.4516 H   0  0  0  0  0  0  0  0  0  0  0  0  # atno 7974 bound_to 7965
  155.1279  140.0399  157.2767 H   0  0  0  0  0  0  0  0  0  0  0  0  # atno 8008 bound_to 7997
  154.6564  140.2581  155.7130 H   0  0  0  0  0  0  0  0  0  0  0  0  # atno 8009 bound_to 7997
  156.2600  140.2826  156.1019 H   0  0  0  0  0  0  0  0  0  0  0  0  # atno 8010 bound_to 7997
  139.8887  144.6398  150.8762 H   0  0  0  0  0  0  0  0  0  0  0  0  # atno 10167 bound_to 10162
  157.5772  130.8953  149.9368 H   0  0  0  0  0  0  0  0  0  0  0  0  # atno 10718 bound_to 10713
  153.6730  135.3327  155.3158 H   0  0  0  0  0  0  0  0  0  0  0  0  # atno 10763 bound_to 10752
  154.8486  135.4391  154.1686 H   0  0  0  0  0  0  0  0  0  0  0  0  # atno 10764 bound_to 10752
  153.2682  135.6998  153.7584 H   0  0  0  0  0  0  0  0  0  0  0  0  # atno 10765 bound_to 10752
  140.0307  134.9353  157.0656 H   0  0  0  0  0  0  0  0  0  0  0  0  # atno 11005 bound_to 11000
  145.2198  139.2164  143.5099 LP  0  0  0  0  0  0  0  0  0  0  0  0  # atno 17320 bound_to 7965
  146.3445  140.2054  142.8589 LP  0  0  0  0  0  0  0  0  0  0  0  0  # atno 17321 bound_to 7965
  140.7731  143.3527  151.1982 LP  0  0  0  0  0  0  0  0  0  0  0  0  # atno 17342 bound_to 10162
  139.7129  143.9347  152.2955 LP  0  0  0  0  0  0  0  0  0  0  0  0  # atno 17343 bound_to 10162
  156.0817  130.3672  150.0567 LP  0  0  0  0  0  0  0  0  0  0  0  0  # atno 17370 bound_to 10713
  156.8712  130.9525  151.3609 LP  0  0  0  0  0  0  0  0  0  0  0  0  # atno 17371 bound_to 10713
  140.4231  134.1860  155.7165 LP  0  0  0  0  0  0  0  0  0  0  0  0  # atno 17394 bound_to 11000
  141.1829  133.8375  157.1193 LP  0  0  0  0  0  0  0  0  0  0  0  0  # atno 17395 bound_to 11000

$$$$
