#       Name:                AV-unprocessed.smi:1748
#       Creating user name   scv26
#       Creation time:       Fri Mar 27 08:26:10 2020


#       File generated by GOLD software.
#

@<TRIPOS>MOLECULE
AV-unprocessed.smi:1748
    44    45     1
SMALL
NO_CHARGES


@<TRIPOS>ATOM
      1 ****        -3.6515  -1.9890   2.3076 C.3            1 S1                 0.0000
      2 ****        -3.3004  -1.5556   0.9381 N.4            1 S1                 1.0000
      3 ****        -3.8786  -2.4444  -0.1006 C.3            1 S1                 0.0000
      4 ****        -3.6034  -1.8964  -1.5107 C.3            1 S1                 0.0000
      5 ****        -2.0999  -1.6848  -1.7373 C.3            1 S1                 0.0000
      6 ****        -1.5186  -0.7872  -0.6327 C.3            1 S1                 0.0000
      7 ****        -0.0777  -0.6405  -0.8161 N.am           1 S1                 0.0000
      8 ****         0.6643   0.3631  -0.3257 C.2            1 S1                 0.0000
      9 ****         0.1930   1.2784   0.3492 O.2            1 S1                 0.0000
     10 ****         1.9599   0.2079  -0.6524 N.am           1 S1                 0.0000
     11 ****         3.0543   1.0416  -0.3661 C.2            1 S1                 0.0000
     12 ****         2.9579   2.3532  -0.0120 C.2            1 S1                 0.0000
     13 ****         4.1319   3.1755   0.2552 C.2            1 S1                 0.0000
     14 ****         4.0803   4.6385   0.6559 C.3            1 S1                 0.0000
     15 ****         4.6453   4.8087   1.8507 F              1 S1                 0.0000
     16 ****         4.7491   5.3817  -0.2253 F              1 S1                 0.0000
     17 ****         2.8254   5.0839   0.7160 F              1 S1                 0.0000
     18 ****         5.3113   2.4765   0.0936 C.2            1 S1                 0.0000
     19 ****         5.4938   1.1859  -0.2620 N.pl3          1 S1                -1.0000
     20 ****         4.3898   0.4241  -0.5050 C.2            1 S1                 0.0000
     21 ****         4.4827  -0.7591  -0.8344 O.2            1 S1                 0.0000
     22 ****        -1.8386  -1.3701   0.7605 C.3            1 S1                 0.0000
     23 ****        -3.2288  -2.9702   2.5279 H              1 S1                 0.0000
     24 ****        -4.7337  -2.0477   2.4276 H              1 S1                 0.0000
     25 ****        -3.2741  -1.2797   3.0448 H              1 S1                 0.0000
     26 ****        -3.4598  -3.4469   0.0016 H              1 S1                 0.0000
     27 ****        -4.9551  -2.5332   0.0511 H              1 S1                 0.0000
     28 ****        -4.0001  -2.5815  -2.2607 H              1 S1                 0.0000
     29 ****        -4.1311  -0.9512  -1.6455 H              1 S1                 0.0000
     30 ****        -1.5920  -2.6504  -1.7415 H              1 S1                 0.0000
     31 ****        -1.9309  -1.2381  -2.7180 H              1 S1                 0.0000
     32 ****        -1.9832   0.1974  -0.7187 H              1 S1                 0.0000
     33 ****         0.3895  -1.3524  -1.3588 H              1 S1                 0.0000
     34 ****         2.2042  -0.6407  -1.1418 H              1 S1                 0.0000
     35 ****         1.9963   2.8337   0.0607 H              1 S1                 0.0000
     36 ****         6.2494   3.0429   0.2775 H              1 S1                 0.0000
     37 ****        -1.4684  -0.6993   1.5371 H              1 S1                 0.0000
     38 ****        -1.3305  -2.3261   0.8997 H              1 S1                 0.0000
     39 ****        -3.7218  -0.6466   0.8088 H              1 S1                 0.0000
     40 ****        -0.7856   1.2957   0.5543 LP             1 S1                 0.0000
     41 ****         0.7887   2.0045   0.6924 LP             1 S1                 0.0000
     42 ****         6.4128   0.8004  -0.3446 LP             1 S1                 0.0000
     43 ****         3.6571  -1.2966  -1.0062 LP             1 S1                 0.0000
     44 ****         5.3837  -1.1823  -0.9299 LP             1 S1                 0.0000
@<TRIPOS>BOND
    1    1    2 1     
    2    1   23 1     
    3    1   24 1     
    4    1   25 1     
    5    2   22 1     
    6    2    3 1     
    7    2   39 1     
    8    3    4 1     
    9    3   26 1     
   10    3   27 1     
   11    4    5 1     
   12    4   28 1     
   13    4   29 1     
   14    5    6 1     
   15    5   30 1     
   16    5   31 1     
   17    6    7 1     
   18    6   22 1     
   19    6   32 1     
   20    7    8 am    
   21    7   33 1     
   22    8    9 2     
   23    8   10 am    
   24   10   11 1     
   25   10   34 1     
   26   11   20 1     
   27   11   12 2     
   28   12   13 1     
   29   12   35 1     
   30   13   14 1     
   31   13   18 2     
   32   14   15 1     
   33   14   16 1     
   34   14   17 1     
   35   18   19 1     
   36   18   36 1     
   37   19   20 1     
   38   20   21 2     
   39   22   37 1     
   40   22   38 1     
   41    9   40 1     
   42    9   41 1     
   43   19   42 1     
   44   21   43 1     
   45   21   44 1     
@<TRIPOS>SUBSTRUCTURE
      1 S1             1
@<TRIPOS>SET
LONE_PAIRS      STATIC     ATOMS    <user>   **** ""
5 40 41 42 43 44
DONOR_HYDROGENS      STATIC     ATOMS    <user>   **** ""
3 39 33 34
ATOM$BLUE        STATIC     ATOMS    COLORGROUP SYSTEM
5 40 41 42 43 44
ATOM$RED        STATIC     ATOMS    COLORGROUP SYSTEM
3 39 33 34
