AV-unprocessed.smi:162|AV-procd|sdf|1378|dock5
  -GOLD-   2262019103D 1   1.00000     0.00000
 Structure written by MMmdl.
 54 57  0  0  0  0  0  0  0  0  1 V2000
  151.9807  139.2496  155.1924 C   0  0  0  0  0  0  0  0  0  0  0  0
  151.1202  140.2801  154.7423 O   0  0  0  0  0  0  0  0  0  0  0  0
  149.9018  140.3304  155.4666 C   0  0  0  0  0  0  0  0  0  0  0  0
  150.1328  141.0698  156.7946 C   0  0  2  0  0  0  0  0  0  0  0  0
  150.4873  142.5444  156.6248 C   0  0  0  0  0  0  0  0  0  0  0  0
  151.0697  142.8896  157.9982 C   0  0  2  0  0  0  0  0  0  0  0  0
  152.0075  143.9556  157.9604 O   0  0  0  0  0  0  0  0  0  0  0  0
  152.5108  144.3154  159.2367 C   0  0  0  0  0  0  0  0  0  0  0  0
  151.7479  141.5849  158.4432 C   0  0  0  0  0  0  0  0  0  0  0  0
  151.2556  140.5364  157.5568 N   0  0  0  0  0  0  0  0  0  0  0  0
  151.0836  139.3329  158.1436 C   0  0  0  0  0  0  0  0  0  0  0  0
  152.1514  138.8114  158.7951 N   0  0  0  0  0  0  0  0  0  0  0  0
  152.0533  137.6182  159.3888 C   0  0  0  0  0  0  0  0  0  0  0  0
  151.0006  136.7996  159.4506 N   0  0  0  0  0  0  0  0  0  0  0  0
  149.9230  137.3273  158.8017 C   0  0  0  0  0  0  0  0  0  0  0  0
  149.8752  138.5805  158.1291 C   0  0  0  0  0  0  0  0  0  0  0  0
  148.6078  138.7839  157.5960 N   0  0  0  0  0  0  0  0  0  0  0  0
  147.9479  137.7070  157.9251 C   0  0  0  0  0  0  0  0  0  0  0  0
  148.6599  136.7815  158.6546 N   0  0  0  0  0  0  0  0  0  0  0  0
  148.1771  135.5017  159.1504 C   0  0  0  0  0  0  0  0  0  0  0  0
  147.4270  135.5941  160.5020 C   0  0  0  0  0  0  0  0  0  0  0  0
  146.2294  136.3188  160.2789 O   0  0  0  0  0  0  0  0  0  0  0  0
  147.0558  134.1859  161.0091 C   0  0  0  0  0  0  0  0  0  0  0  0
  146.4538  134.2198  162.4253 C   0  0  0  0  0  0  0  0  0  0  0  0
  147.3499  134.8696  163.3185 O   0  0  0  0  0  0  0  0  0  0  0  0
  147.5788  136.2307  162.9745 C   0  0  0  0  0  0  0  0  0  0  0  0
  148.2452  136.3240  161.5901 C   0  0  0  0  0  0  0  0  0  0  0  0
  149.2202  141.0174  157.3883 H   0  0  0  0  0  0  0  0  0  0  0  0
  150.2602  143.1141  158.6953 H   0  0  0  0  0  0  0  0  0  0  0  0
  152.8959  139.2532  154.6005 H   0  0  0  0  0  0  0  0  0  0  0  0
  151.5126  138.2706  155.0834 H   0  0  0  0  0  0  0  0  0  0  0  0
  152.2549  139.3938  156.2383 H   0  0  0  0  0  0  0  0  0  0  0  0
  149.1178  140.8177  154.8844 H   0  0  0  0  0  0  0  0  0  0  0  0
  149.5726  139.3099  155.6691 H   0  0  0  0  0  0  0  0  0  0  0  0
  151.2482  142.6638  155.8517 H   0  0  0  0  0  0  0  0  0  0  0  0
  149.6277  143.1594  156.3574 H   0  0  0  0  0  0  0  0  0  0  0  0
  153.2403  145.1175  159.1261 H   0  0  0  0  0  0  0  0  0  0  0  0
  153.0095  143.4726  159.7170 H   0  0  0  0  0  0  0  0  0  0  0  0
  151.7188  144.6750  159.8939 H   0  0  0  0  0  0  0  0  0  0  0  0
  152.8288  141.6519  158.3159 H   0  0  0  0  0  0  0  0  0  0  0  0
  151.5523  141.3762  159.4962 H   0  0  0  0  0  0  0  0  0  0  0  0
  152.9468  137.2697  159.8854 H   0  0  0  0  0  0  0  0  0  0  0  0
  146.9143  137.5585  157.6474 H   0  0  0  0  0  0  0  0  0  0  0  0
  147.5341  135.0600  158.3876 H   0  0  0  0  0  0  0  0  0  0  0  0
  149.0340  134.8336  159.2459 H   0  0  0  0  0  0  0  0  0  0  0  0
  146.4050  137.2373  160.4161 H   0  0  0  0  0  0  0  0  0  0  0  0
  146.3650  133.6992  160.3194 H   0  0  0  0  0  0  0  0  0  0  0  0
  147.9518  133.5639  161.0322 H   0  0  0  0  0  0  0  0  0  0  0  0
  145.4861  134.7235  162.4314 H   0  0  0  0  0  0  0  0  0  0  0  0
  146.2815  133.2037  162.7807 H   0  0  0  0  0  0  0  0  0  0  0  0
  146.6399  136.7861  162.9967 H   0  0  0  0  0  0  0  0  0  0  0  0
  148.2257  136.6780  163.7292 H   0  0  0  0  0  0  0  0  0  0  0  0
  149.2382  135.8768  161.6523 H   0  0  0  0  0  0  0  0  0  0  0  0
  148.3978  137.3716  161.3278 H   0  0  0  0  0  0  0  0  0  0  0  0
  1  2  1  0  0  0  0
  1 30  1  0  0  0  0
  1 31  1  0  0  0  0
  1 32  1  0  0  0  0
  2  3  1  0  0  0  0
  3  4  1  0  0  0  0
  3 33  1  0  0  0  0
  3 34  1  0  0  0  0
  4 28  1  0  0  0  0
  4 10  1  0  0  0  0
  4  5  1  0  0  0  0
  5  6  1  0  0  0  0
  5 35  1  0  0  0  0
  5 36  1  0  0  0  0
  6 29  1  0  0  0  0
  6  7  1  0  0  0  0
  6  9  1  0  0  0  0
  7  8  1  0  0  0  0
  8 37  1  0  0  0  0
  8 38  1  0  0  0  0
  8 39  1  0  0  0  0
  9 10  1  0  0  0  0
  9 40  1  0  0  0  0
  9 41  1  0  0  0  0
 10 11  1  0  0  0  0
 11 16  1  0  0  0  0
 11 12  2  0  0  0  0
 12 13  1  0  0  0  0
 13 14  2  0  0  0  0
 13 42  1  0  0  0  0
 14 15  1  0  0  0  0
 15 19  1  0  0  0  0
 15 16  2  0  0  0  0
 16 17  1  0  0  0  0
 17 18  2  0  0  0  0
 18 19  1  0  0  0  0
 18 43  1  0  0  0  0
 19 20  1  0  0  0  0
 20 21  1  0  0  0  0
 20 44  1  0  0  0  0
 20 45  1  0  0  0  0
 21 27  1  0  0  0  0
 21 22  1  0  0  0  0
 21 23  1  0  0  0  0
 22 46  1  0  0  0  0
 23 24  1  0  0  0  0
 23 47  1  0  0  0  0
 23 48  1  0  0  0  0
 24 25  1  0  0  0  0
 24 49  1  0  0  0  0
 24 50  1  0  0  0  0
 25 26  1  0  0  0  0
 26 27  1  0  0  0  0
 26 51  1  0  0  0  0
 26 52  1  0  0  0  0
 27 53  1  0  0  0  0
 27 54  1  0  0  0  0
M  END
> <s_m_source_file>
AV-unprocessed.smi

> <i_m_source_file_index>
162

> <i_lp_mmshare_version>
43012

> <i_f3d_flags>
0

> <s_epik_input>
W0NIM11PW0NIMl1bQ0BASF0xW0NIMl1bQ0BASF0oT1tDSDNdKVtDSDJdTjFjKG5bY0hdbjIpYyhjMjMpbltjSF1uM1tDSDJdQzQoW09IXSlbQ0gyXVtDSDJdT1tDSDJdW0NIMl00

> <s_epik_cmdline>
J2VwaWtfcHl0aG9uJywgJy1waCcsICc3LjAnLCAnLXRuJywgJzgnLCAnLW1hJywgJzIwMCcsICctbWV0YWxfYmluZGluZycsICctaW1hZScsICc8aW5maWxlLm1hZT4nLCAnLW9tYWUnLCAnPG91dGZpbGUubWFlPic=

> <r_lp_tautomer_probability>
1

> <r_epik_Ionization_Penalty>
0.00660334

> <r_epik_Ionization_Penalty_Charging>
0

> <r_epik_Ionization_Penalty_Neutral>
0.00660334

> <r_epik_State_Penalty>
0.00469459

> <r_epik_Charging_Adjusted_Penalty>
0.00469459

> <i_epik_Tot_Q>
0

> <i_epik_Tot_abs_Q>
0

> <r_epik_Metal_State_Penalty>
-0

> <b_epik_Metal_Only>
0

> <s_lp_Force_Field>
OPLS_2005

> <r_lp_Energy>
44.4659

> <b_lp_Chiralities_Consistent>
1

> <s_lp_Variant>
AV-unprocessed.smi:162-3

> <Gold.Version>
5.8.1

> <Gold.Id.Protein>
6NUR|6NUR_protein|mol2

> <Gold.PLP.Fitness>
50.7555

> <Gold.PLP.PLP>
-45.8962

> <Gold.PLP.part.hbond>
-2.9643

> <Gold.PLP.part.metal>
0.0000

> <Gold.PLP.part.buried>
-5.0176

> <Gold.PLP.part.nonpolar>
-38.3438

> <Gold.PLP.part.repulsive>
0.1788

> <Gold.PLP.ligand.clash>
0.0000

> <Gold.PLP.ligand.torsion>
0.5484

> <Gold.PLP.Chemscore.Hbond>
1.9263

> <Gold.PLP.Chemscore.CHOScore>
0.0000

> <Gold.PLP.Chemscore.Metal>
0.0000

> <Gold.Chemscore.Hbonds>
donor molecule, donor type, donor heavy atom, donor atom, acceptor molecule, acceptor atom, score
      P1  H  6896  6909       L1    14  1.00
      P1  H  7989  7998       L1     2  0.84

> <Gold.PLP.Chemscore.Internal.Correction>
0.1773

> <Gold.Rescore>
     Score         DG    S(hbond)    S(metal)    S(lipo)     H(rot)  DE(clash)    DE(int)     intcor
     11.87     -16.42       1.90        0.00     102.05       2.86       0.10       4.45       ----

> <Gold.Chemscore.Fitness>
11.8721

> <Gold.Chemscore.DG>
-16.4206

> <Gold.Chemscore.ZeroCoef>
-5.4800

> <Gold.Chemscore.Hbond>
1.8961

> <Gold.Chemscore.Metal>
0.0000

> <Gold.Chemscore.Lipo>
102.0520

> <Gold.Chemscore.Internal_Hbond>
0.0000

> <Gold.Chemscore.DEClash>
0.1024

> <Gold.Chemscore.DEInternal>
4.4461

> <Gold.Chemscore.Rot>
2.8642

> <Gold.Chemscore.Internal.Correction>
   9.000000E+99

> <Gold.Chemscore.Hbonds>
donor molecule, donor type, donor heavy atom, donor atom, acceptor molecule, acceptor atom, score
      P1  H  6896  6909       L1    14  0.97
      P1  H  7989  7998       L1     2  0.61

> <Gold.Chemscore.Hbond.Weighted>
-6.3329

> <Gold.Chemscore.Metal.Weighted>
-0.0000

> <Gold.Chemscore.Lipo.Weighted>
-11.9401

> <Gold.Chemscore.Internal_Hbond.Weighted>
0.0000

> <Gold.Chemscore.DEClash.Weighted>
0.1024

> <Gold.Chemscore.DEInternal.Weighted>
4.4461

> <Gold.Chemscore.Rot.Weighted>
7.3324

> <Gold.Chemscore.Internal.Correction.Weighted>
   9.000000E+99

> <Gold.Protein.RotatedTorsions>
[ 6907 6896 6895 6894 ] final  100.83 input  -60.11 | X-H torsion
[ 7974 7965 7964 7962 ] final  -62.80 input  175.53 | X-H torsion
[ 8008 7997 7996 7995 ] final   49.29 input   59.86 | X-H torsion
[ 10167 10162 10161 10158 ] final   51.51 input  -65.29 | X-H torsion
[ 10718 10713 10712 10709 ] final -146.71 input   66.30 | X-H torsion
[ 10763 10752 10751 10750 ] final  -30.59 input  -60.55 | X-H torsion
[ 11005 11000 10999 10996 ] final  171.50 input  -57.11 | X-H torsion

> <Gold.Protein.ActiveResidues>
 VAL166  LYS551  ARG553  GLY616  TRP617  ASP618  TYR619  PRO620  LYS621  CYS622 
 ASP623  PHE694  ASN695  SER759  ASP760  ASP761  ALA762  ILE779  LEU786  VAL792 
 PHE793  MET794  SER795  GLU796  ALA797  LYS798  CYS799  TRP800  GLU811  SER814 

> <Gold.Protein.RotatedAtoms>
  152.5363  134.0217  159.7984 H   0  0  0  0  0  0  0  0  0  0  0  0  # atno 6907 bound_to 6896
  151.0402  133.5705  159.2659 H   0  0  0  0  0  0  0  0  0  0  0  0  # atno 6908 bound_to 6896
  151.2677  135.0682  159.9176 H   0  0  0  0  0  0  0  0  0  0  0  0  # atno 6909 bound_to 6896
  145.7868  140.8731  143.0301 H   0  0  0  0  0  0  0  0  0  0  0  0  # atno 7974 bound_to 7965
  155.3998  140.3437  155.4256 H   0  0  0  0  0  0  0  0  0  0  0  0  # atno 8008 bound_to 7997
  156.1510  140.1571  156.8802 H   0  0  0  0  0  0  0  0  0  0  0  0  # atno 8009 bound_to 7997
  154.5052  140.0804  156.7862 H   0  0  0  0  0  0  0  0  0  0  0  0  # atno 8010 bound_to 7997
  140.2611  144.3372  150.6318 H   0  0  0  0  0  0  0  0  0  0  0  0  # atno 10167 bound_to 10162
  156.3984  130.7921  151.2130 H   0  0  0  0  0  0  0  0  0  0  0  0  # atno 10718 bound_to 10713
  153.7835  135.6903  153.4884 H   0  0  0  0  0  0  0  0  0  0  0  0  # atno 10763 bound_to 10752
  153.1796  135.4511  155.0009 H   0  0  0  0  0  0  0  0  0  0  0  0  # atno 10764 bound_to 10752
  154.8072  135.3362  154.7336 H   0  0  0  0  0  0  0  0  0  0  0  0  # atno 10765 bound_to 10752
  140.3197  134.7448  157.4054 H   0  0  0  0  0  0  0  0  0  0  0  0  # atno 11005 bound_to 11000
  144.6788  140.0067  143.7484 LP  0  0  0  0  0  0  0  0  0  0  0  0  # atno 17320 bound_to 7965
  146.0017  139.3097  143.0923 LP  0  0  0  0  0  0  0  0  0  0  0  0  # atno 17321 bound_to 7965
  140.5965  143.2167  151.7154 LP  0  0  0  0  0  0  0  0  0  0  0  0  # atno 17342 bound_to 10162
  139.5016  144.3859  152.0329 LP  0  0  0  0  0  0  0  0  0  0  0  0  # atno 17343 bound_to 10162
  157.7503  131.0294  150.4092 LP  0  0  0  0  0  0  0  0  0  0  0  0  # atno 17370 bound_to 10713
  156.4367  130.3983  149.6724 LP  0  0  0  0  0  0  0  0  0  0  0  0  # atno 17371 bound_to 10713
  140.0953  134.5546  155.8404 LP  0  0  0  0  0  0  0  0  0  0  0  0  # atno 17394 bound_to 11000
  141.2089  133.6679  156.6405 LP  0  0  0  0  0  0  0  0  0  0  0  0  # atno 17395 bound_to 11000

$$$$
