#       Name:                AV-unprocessed.smi:1686
#       Creating user name   scv26
#       Creation time:       Fri Mar 27 07:51:52 2020


#       File generated by GOLD software.
#

@<TRIPOS>MOLECULE
AV-unprocessed.smi:1686
    46    48     1
SMALL
NO_CHARGES


@<TRIPOS>ATOM
      1 ****        -3.3536   2.5699   1.5624 C.3            1 S1                 0.0000
      2 ****        -3.5751   2.9065   0.1159 C.2            1 S1                 0.0000
      3 ****        -4.0494   4.1037  -0.2031 N.2            1 S1                 0.0000
      4 ****        -4.1392   4.1332  -1.5995 O.3            1 S1                 0.0000
      5 ****        -3.7091   2.9323  -2.0496 C.2            1 S1                 0.0000
      6 ****        -3.6474   2.5451  -3.7234 Cl             1 S1                 0.0000
      7 ****        -3.3395   2.0974  -1.0347 C.2            1 S1                 0.0000
      8 ****        -2.8097   0.6851  -1.1020 C.3            1 S1                 0.0000
      9 ****        -1.2767   0.6493  -1.0897 C.2            1 S1                 0.0000
     10 ****        -0.6139   1.6852  -1.0140 O.2            1 S1                 0.0000
     11 ****        -0.7286  -0.5741  -1.1564 N.am           1 S1                 0.0000
     12 ****         0.7008  -0.8838  -1.1436 C.3            1 S1                 0.0000
     13 ****         1.0275  -1.7417  -2.3754 C.3            1 S1                 0.0000
     14 ****         1.0692  -1.5886   0.1848 C.3            1 S1                 0.0000
     15 ****         0.8446  -0.7418   1.4597 C.3            1 S1                 0.0000
     16 ****         2.1749  -0.8972   2.2193 C.3            1 S1                 0.0000
     17 ****         3.2551  -0.0573   1.5137 C.3            1 S1                 0.0000
     18 ****         3.5282  -0.8666   0.2329 C.3            1 S1                 0.0000
     19 ****         2.5400  -2.0450   0.3547 C.3            1 S1                 0.0000
     20 ****         2.5916  -2.3174   1.8549 C.3            1 S1                 0.0000
     21 ****        -2.8177   1.6276   1.6758 H              1 S1                 0.0000
     22 ****        -4.3019   2.4790   2.0922 H              1 S1                 0.0000
     23 ****        -2.7657   3.3416   2.0600 H              1 S1                 0.0000
     24 ****        -3.1747   0.0922  -0.2628 H              1 S1                 0.0000
     25 ****        -3.1588   0.1779  -2.0020 H              1 S1                 0.0000
     26 ****        -1.3565  -1.3626  -1.2153 H              1 S1                 0.0000
     27 ****         1.2708   0.0415  -1.2279 H              1 S1                 0.0000
     28 ****         2.0964  -1.9428  -2.4468 H              1 S1                 0.0000
     29 ****         0.7326  -1.2346  -3.2948 H              1 S1                 0.0000
     30 ****         0.5089  -2.7004  -2.3420 H              1 S1                 0.0000
     31 ****         0.4454  -2.4813   0.2645 H              1 S1                 0.0000
     32 ****         0.6284   0.3058   1.2474 H              1 S1                 0.0000
     33 ****         0.0109  -1.1388   2.0399 H              1 S1                 0.0000
     34 ****         2.0948  -0.6972   3.2883 H              1 S1                 0.0000
     35 ****         2.9175   0.9575   1.3005 H              1 S1                 0.0000
     36 ****         4.1567   0.0116   2.1237 H              1 S1                 0.0000
     37 ****         3.3967  -0.2804  -0.6755 H              1 S1                 0.0000
     38 ****         4.5556  -1.2330   0.2324 H              1 S1                 0.0000
     39 ****         2.8056  -2.9023  -0.2645 H              1 S1                 0.0000
     40 ****         3.5876  -2.5817   2.2149 H              1 S1                 0.0000
     41 ****         1.8795  -3.0758   2.1853 H              1 S1                 0.0000
     42 ****        -4.2942   4.8392   0.4288 LP             1 S1                 0.0000
     43 ****        -3.5624   4.8636  -1.9653 LP             1 S1                 0.0000
     44 ****        -5.0871   4.2854  -1.8794 LP             1 S1                 0.0000
     45 ****        -1.0750   2.5709  -0.9591 LP             1 S1                 0.0000
     46 ****         0.3850   1.6403  -1.0074 LP             1 S1                 0.0000
@<TRIPOS>BOND
    1    1    2 1     
    2    1   21 1     
    3    1   22 1     
    4    1   23 1     
    5    2    7 1     
    6    2    3 2     
    7    3    4 1     
    8    4    5 1     
    9    5    6 1     
   10    5    7 2     
   11    7    8 1     
   12    8    9 1     
   13    8   24 1     
   14    8   25 1     
   15    9   10 2     
   16    9   11 am    
   17   11   12 1     
   18   11   26 1     
   19   12   13 1     
   20   12   14 1     
   21   12   27 1     
   22   13   28 1     
   23   13   29 1     
   24   13   30 1     
   25   14   19 1     
   26   14   15 1     
   27   14   31 1     
   28   15   16 1     
   29   15   32 1     
   30   15   33 1     
   31   16   20 1     
   32   16   17 1     
   33   16   34 1     
   34   17   18 1     
   35   17   35 1     
   36   17   36 1     
   37   18   19 1     
   38   18   37 1     
   39   18   38 1     
   40   19   20 1     
   41   19   39 1     
   42   20   40 1     
   43   20   41 1     
   44    3   42 1     
   45    4   43 1     
   46    4   44 1     
   47   10   45 1     
   48   10   46 1     
@<TRIPOS>SUBSTRUCTURE
      1 S1             1
@<TRIPOS>SET
LONE_PAIRS      STATIC     ATOMS    <user>   **** ""
5 42 43 44 45 46
DONOR_HYDROGENS      STATIC     ATOMS    <user>   **** ""
1 26
ATOM$BLUE        STATIC     ATOMS    COLORGROUP SYSTEM
5 42 43 44 45 46
ATOM$RED        STATIC     ATOMS    COLORGROUP SYSTEM
1 26
