AV-unprocessed.smi:2451|AV-procd|sdf|9670|dock1
  -GOLD-   2272013303D 1   1.00000     0.00000
 Structure written by MMmdl.
 38 39  0  0  0  0  0  0  0  0  1 V2000
  153.3716  142.5853  162.8518 C   0  0  0  0  0  0  0  0  0  0  0  0
  152.4162  142.6579  161.6492 C   0  0  1  0  0  0  0  0  0  0  0  0
  152.2047  144.1109  161.1723 C   0  0  0  0  0  0  0  0  0  0  0  0
  151.1725  144.1923  160.0348 C   0  0  0  0  0  0  0  0  0  0  0  0
  151.5358  143.2604  158.8682 C   0  0  0  0  0  0  0  0  0  0  0  0
  151.7442  141.8191  159.3661 C   0  0  1  0  0  0  0  0  0  0  0  0
  152.0539  140.9278  158.2447 N   0  0  0  0  0  0  0  0  0  0  0  0
  152.3255  139.2564  158.5664 S   0  0  0  0  0  0  0  0  0  0  0  0
  153.5352  138.8537  157.8322 O   0  0  0  0  0  0  0  0  0  0  0  0
  152.2566  139.0717  160.0240 O   0  0  0  0  0  0  0  0  0  0  0  0
  150.8650  138.4544  157.7814 C   0  0  0  0  0  0  0  0  0  0  0  0
  150.8325  138.7896  156.3175 C   0  0  0  0  0  0  0  0  0  0  0  0
  150.7976  137.9017  155.2067 C   0  0  0  0  0  0  0  0  0  0  0  0
  150.7786  138.7398  154.1292 C   0  0  0  0  0  0  0  0  0  0  0  0
  150.8045  140.0346  154.5340 O   0  0  0  0  0  0  0  0  0  0  0  0
  150.8404  140.0562  155.9328 N   0  0  0  0  0  0  0  0  0  0  0  0
  152.8214  141.7258  160.4758 C   0  0  1  0  0  0  0  0  0  0  0  0
  154.2541  141.9880  159.9549 C   0  0  0  0  0  0  0  0  0  0  0  0
  154.3470  143.0149  162.6231 H   0  0  0  0  0  0  0  0  0  0  0  0
  153.5232  141.5546  163.1732 H   0  0  0  0  0  0  0  0  0  0  0  0
  152.9666  143.1366  163.7010 H   0  0  0  0  0  0  0  0  0  0  0  0
  151.4513  142.3013  162.0136 H   0  0  0  0  0  0  0  0  0  0  0  0
  151.8685  144.7285  162.0058 H   0  0  0  0  0  0  0  0  0  0  0  0
  153.1507  144.5406  160.8414 H   0  0  0  0  0  0  0  0  0  0  0  0
  150.1888  143.9208  160.4198 H   0  0  0  0  0  0  0  0  0  0  0  0
  151.0910  145.2196  159.6791 H   0  0  0  0  0  0  0  0  0  0  0  0
  150.7413  143.2858  158.1215 H   0  0  0  0  0  0  0  0  0  0  0  0
  152.4350  143.6247  158.3709 H   0  0  0  0  0  0  0  0  0  0  0  0
  150.7980  141.4898  159.7987 H   0  0  0  0  0  0  0  0  0  0  0  0
  151.3949  141.0564  157.4772 H   0  0  0  0  0  0  0  0  0  0  0  0
  150.9373  137.3784  157.9419 H   0  0  0  0  0  0  0  0  0  0  0  0
  149.9655  138.8068  158.2857 H   0  0  0  0  0  0  0  0  0  0  0  0
  150.7830  136.8219  155.2025 H   0  0  0  0  0  0  0  0  0  0  0  0
  150.7481  138.5765  153.0621 H   0  0  0  0  0  0  0  0  0  0  0  0
  152.8086  140.7019  160.8528 H   0  0  0  0  0  0  0  0  0  0  0  0
  154.3762  143.0006  159.5723 H   0  0  0  0  0  0  0  0  0  0  0  0
  154.5185  141.3012  159.1508 H   0  0  0  0  0  0  0  0  0  0  0  0
  154.9965  141.8402  160.7385 H   0  0  0  0  0  0  0  0  0  0  0  0
  1  2  1  0  0  0  0
  1 19  1  0  0  0  0
  1 20  1  0  0  0  0
  1 21  1  0  0  0  0
  2 17  1  0  0  0  0
  2  3  1  0  0  0  0
  2 22  1  0  0  0  0
  3  4  1  0  0  0  0
  3 23  1  0  0  0  0
  3 24  1  0  0  0  0
  4  5  1  0  0  0  0
  4 25  1  0  0  0  0
  4 26  1  0  0  0  0
  5  6  1  0  0  0  0
  5 27  1  0  0  0  0
  5 28  1  0  0  0  0
  6  7  1  0  0  0  0
  6 17  1  0  0  0  0
  6 29  1  0  0  0  0
  7  8  1  0  0  0  0
  7 30  1  0  0  0  0
  8  9  2  0  0  0  0
  8 10  2  0  0  0  0
  8 11  1  0  0  0  0
 11 12  1  0  0  0  0
 11 31  1  0  0  0  0
 11 32  1  0  0  0  0
 12 16  2  0  0  0  0
 12 13  1  0  0  0  0
 13 14  2  0  0  0  0
 13 33  1  0  0  0  0
 14 15  1  0  0  0  0
 14 34  1  0  0  0  0
 15 16  1  0  0  0  0
 17 18  1  0  0  0  0
 17 35  1  0  0  0  0
 18 36  1  0  0  0  0
 18 37  1  0  0  0  0
 18 38  1  0  0  0  0
M  END
> <s_m_source_file>
AV-unprocessed.smi

> <i_m_source_file_index>
2451

> <i_lp_mmshare_version>
43012

> <i_f3d_flags>
0

> <s_epik_input>
W0NIM11bQ0BASF0xW0NIMl1bQ0gyXVtDSDJdW0NASF0oW0NASF0xW0NIM10pW05IXVMoPU8pKD1PKVtDSDJdYzJbY0hdW2NIXW9uMg==

> <s_epik_cmdline>
J2VwaWtfcHl0aG9uJywgJy1waCcsICc3LjAnLCAnLXRuJywgJzgnLCAnLW1hJywgJzIwMCcsICctbWV0YWxfYmluZGluZycsICctaW1hZScsICc8aW5maWxlLm1hZT4nLCAnLW9tYWUnLCAnPG91dGZpbGUubWFlPic=

> <r_lp_tautomer_probability>
1

> <r_epik_Ionization_Penalty>
8.73668e-05

> <r_epik_Ionization_Penalty_Charging>
0

> <r_epik_Ionization_Penalty_Neutral>
8.73668e-05

> <r_epik_State_Penalty>
-0

> <r_epik_Charging_Adjusted_Penalty>
0

> <i_epik_Tot_Q>
0

> <i_epik_Tot_abs_Q>
0

> <r_epik_Metal_State_Penalty>
0.0716439

> <b_epik_Metal_Only>
0

> <s_lp_Force_Field>
OPLS_2005

> <r_lp_Energy>
8.89421

> <b_lp_Chiralities_Consistent>
1

> <s_lp_Variant>
AV-unprocessed.smi:2451-2

> <Gold.Version>
5.8.1

> <Gold.Id.Protein>
6NUR|6NUR_protein|mol2

> <Gold.PLP.Fitness>
42.8332

> <Gold.PLP.PLP>
-34.0608

> <Gold.PLP.part.hbond>
-2.0000

> <Gold.PLP.part.metal>
0.0000

> <Gold.PLP.part.buried>
-5.0523

> <Gold.PLP.part.nonpolar>
-26.0495

> <Gold.PLP.part.repulsive>
0.0969

> <Gold.PLP.ligand.clash>
0.0000

> <Gold.PLP.ligand.torsion>
0.1872

> <Gold.PLP.Chemscore.Hbond>
2.0000

> <Gold.PLP.Chemscore.CHOScore>
1.0000

> <Gold.PLP.Chemscore.Metal>
0.0000

> <Gold.Chemscore.Hbonds>
donor molecule, donor type, donor heavy atom, donor atom, acceptor molecule, acceptor atom, score
      P1  H  7989  7998       L1    15  1.00
      P1  H  7997  8009       L1     9  0.98
      L1  C    14    34       P1  7957  0.69

> <Gold.PLP.Chemscore.Internal.Correction>
0.1469

> <Gold.Rescore>
     Score         DG    S(hbond)    S(metal)    S(lipo)     H(rot)  DE(clash)    DE(int)     intcor
     17.10     -20.31       1.94        0.00     107.58       1.66       0.04       3.17       ----

> <Gold.Chemscore.Fitness>
17.0993

> <Gold.Chemscore.DG>
-20.3132

> <Gold.Chemscore.ZeroCoef>
-5.4800

> <Gold.Chemscore.Hbond>
1.9441

> <Gold.Chemscore.Metal>
0.0000

> <Gold.Chemscore.Lipo>
107.5758

> <Gold.Chemscore.Internal_Hbond>
0.0000

> <Gold.Chemscore.DEClash>
0.0440

> <Gold.Chemscore.DEInternal>
3.1699

> <Gold.Chemscore.Rot>
1.6588

> <Gold.Chemscore.Internal.Correction>
   9.000000E+99

> <Gold.Chemscore.Hbonds>
donor molecule, donor type, donor heavy atom, donor atom, acceptor molecule, acceptor atom, score
      P1  H  7989  7998       L1    15  0.68
      P1  H  7997  8009       L1     9  0.92

> <Gold.Chemscore.Hbond.Weighted>
-6.4934

> <Gold.Chemscore.Metal.Weighted>
-0.0000

> <Gold.Chemscore.Lipo.Weighted>
-12.5864

> <Gold.Chemscore.Internal_Hbond.Weighted>
0.0000

> <Gold.Chemscore.DEClash.Weighted>
0.0440

> <Gold.Chemscore.DEInternal.Weighted>
3.1699

> <Gold.Chemscore.Rot.Weighted>
4.2466

> <Gold.Chemscore.Internal.Correction.Weighted>
   9.000000E+99

> <Gold.Protein.RotatedTorsions>
[ 6907 6896 6895 6894 ] final  116.91 input  -60.11 | X-H torsion
[ 7974 7965 7964 7962 ] final  -78.05 input  175.53 | X-H torsion
[ 8008 7997 7996 7995 ] final  175.35 input   59.86 | X-H torsion
[ 10167 10162 10161 10158 ] final -101.25 input  -65.29 | X-H torsion
[ 10718 10713 10712 10709 ] final  -56.20 input   66.30 | X-H torsion
[ 10763 10752 10751 10750 ] final   30.66 input  -60.55 | X-H torsion
[ 11005 11000 10999 10996 ] final   60.62 input  -57.11 | X-H torsion

> <Gold.Protein.ActiveResidues>
 VAL166  LYS551  ARG553  GLY616  TRP617  ASP618  TYR619  PRO620  LYS621  CYS622 
 ASP623  PHE694  ASN695  SER759  ASP760  ASP761  ALA762  ILE779  LEU786  VAL792 
 PHE793  MET794  SER795  GLU796  ALA797  LYS798  CYS799  TRP800  GLU811  SER814 

> <Gold.Protein.RotatedAtoms>
  152.4647  133.7897  159.6894 H   0  0  0  0  0  0  0  0  0  0  0  0  # atno 6907 bound_to 6896
  150.8606  133.7640  159.3000 H   0  0  0  0  0  0  0  0  0  0  0  0  # atno 6908 bound_to 6896
  151.5206  135.1070  159.9929 H   0  0  0  0  0  0  0  0  0  0  0  0  # atno 6909 bound_to 6896
  145.5916  140.9428  143.1289 H   0  0  0  0  0  0  0  0  0  0  0  0  # atno 7974 bound_to 7965
  156.0880  140.1411  156.9629 H   0  0  0  0  0  0  0  0  0  0  0  0  # atno 8008 bound_to 7997
  154.4624  140.0938  156.6977 H   0  0  0  0  0  0  0  0  0  0  0  0  # atno 8009 bound_to 7997
  155.4967  140.3449  155.4366 H   0  0  0  0  0  0  0  0  0  0  0  0  # atno 8010 bound_to 7997
  140.2433  143.3523  152.0782 H   0  0  0  0  0  0  0  0  0  0  0  0  # atno 10167 bound_to 10162
  156.1307  130.4159  150.0273 H   0  0  0  0  0  0  0  0  0  0  0  0  # atno 10718 bound_to 10713
  153.0359  135.6458  154.1079 H   0  0  0  0  0  0  0  0  0  0  0  0  # atno 10763 bound_to 10752
  154.0794  135.2874  155.3295 H   0  0  0  0  0  0  0  0  0  0  0  0  # atno 10764 bound_to 10752
  154.6540  135.5415  153.8000 H   0  0  0  0  0  0  0  0  0  0  0  0  # atno 10765 bound_to 10752
  140.0219  134.6140  155.9627 H   0  0  0  0  0  0  0  0  0  0  0  0  # atno 11005 bound_to 11000
  144.7349  139.7616  143.7333 LP  0  0  0  0  0  0  0  0  0  0  0  0  # atno 17320 bound_to 7965
  146.1642  139.4768  142.9968 LP  0  0  0  0  0  0  0  0  0  0  0  0  # atno 17321 bound_to 7965
  139.5070  144.6824  151.5975 LP  0  0  0  0  0  0  0  0  0  0  0  0  # atno 17342 bound_to 10162
  140.6097  143.9459  150.6444 LP  0  0  0  0  0  0  0  0  0  0  0  0  # atno 17343 bound_to 10162
  156.8186  130.9350  151.3642 LP  0  0  0  0  0  0  0  0  0  0  0  0  # atno 17370 bound_to 10713
  157.6485  130.8865  149.9586 LP  0  0  0  0  0  0  0  0  0  0  0  0  # atno 17371 bound_to 10713
  141.1779  133.6542  156.4901 LP  0  0  0  0  0  0  0  0  0  0  0  0  # atno 17394 bound_to 11000
  140.4372  134.7048  157.4973 LP  0  0  0  0  0  0  0  0  0  0  0  0  # atno 17395 bound_to 11000

$$$$
