AV-unprocessed.smi:2108|AV-procd|sdf|8604|dock10
  -GOLD-   2272011343D 1   1.00000     0.00000
 Structure written by MMmdl.
 35 36  0  0  0  0  0  0  0  0  1 V2000
  150.6194  139.5703  154.4031 O   0  0  0  0  0  0  0  0  0  0  0  0
  151.1336  139.7210  155.7726 S   0  0  0  0  0  0  0  0  0  0  0  0
  152.5763  139.8263  156.0403 O   0  0  0  0  0  0  0  0  0  0  0  0
  150.3492  141.0698  156.5101 N   0  0  0  0  0  0  0  0  0  0  0  0
  151.1516  142.1588  157.0681 C   0  0  0  0  0  0  0  0  0  0  0  0
  152.1251  141.6210  158.1246 C   0  0  0  0  0  0  0  0  0  0  0  0
  152.2854  142.5791  159.2900 C   0  0  0  0  0  0  0  0  0  0  0  0
  152.9564  142.1780  160.4649 C   0  0  0  0  0  0  0  0  0  0  0  0
  153.0640  143.0997  161.5242 C   0  0  0  0  0  0  0  0  0  0  0  0
  152.4984  144.3802  161.3688 C   0  0  0  0  0  0  0  0  0  0  0  0
  151.8473  144.6828  160.1564 C   0  0  0  0  0  0  0  0  0  0  0  0
  151.7380  143.8060  159.1347 N   0  0  0  0  0  0  0  0  0  0  0  0
  150.4821  138.4422  156.7426 N   0  0  0  0  0  0  0  0  0  0  0  0
  150.4410  138.6527  158.1982 C   0  0  0  0  0  0  0  0  0  0  0  0
  149.5806  137.5787  158.8837 C   0  0  0  0  0  0  0  0  0  0  0  0
  150.0382  136.2832  158.5265 O   0  0  0  0  0  0  0  0  0  0  0  0
  149.9232  136.0579  157.1295 C   0  0  0  0  0  0  0  0  0  0  0  0
  150.8031  137.0559  156.3600 C   0  0  0  0  0  0  0  0  0  0  0  0
  149.5448  140.8060  157.0786 H   0  0  0  0  0  0  0  0  0  0  0  0
  151.6986  142.6495  156.2624 H   0  0  0  0  0  0  0  0  0  0  0  0
  150.4894  142.9031  157.5116 H   0  0  0  0  0  0  0  0  0  0  0  0
  151.7760  140.6570  158.4979 H   0  0  0  0  0  0  0  0  0  0  0  0
  153.1035  141.4410  157.6763 H   0  0  0  0  0  0  0  0  0  0  0  0
  153.3752  141.1863  160.5557 H   0  0  0  0  0  0  0  0  0  0  0  0
  153.5694  142.8288  162.4394 H   0  0  0  0  0  0  0  0  0  0  0  0
  152.5612  145.1127  162.1600 H   0  0  0  0  0  0  0  0  0  0  0  0
  151.4007  145.6542  160.0039 H   0  0  0  0  0  0  0  0  0  0  0  0
  151.4594  138.6262  158.5877 H   0  0  0  0  0  0  0  0  0  0  0  0
  150.0381  139.6413  158.4181 H   0  0  0  0  0  0  0  0  0  0  0  0
  149.6399  137.6885  159.9666 H   0  0  0  0  0  0  0  0  0  0  0  0
  148.5301  137.6936  158.6116 H   0  0  0  0  0  0  0  0  0  0  0  0
  150.2362  135.0372  156.9098 H   0  0  0  0  0  0  0  0  0  0  0  0
  148.8803  136.1430  156.8193 H   0  0  0  0  0  0  0  0  0  0  0  0
  150.6635  136.9191  155.2881 H   0  0  0  0  0  0  0  0  0  0  0  0
  151.8563  136.8672  156.5716 H   0  0  0  0  0  0  0  0  0  0  0  0
  1  2  2  0  0  0  0
  2  3  2  0  0  0  0
  2  4  1  0  0  0  0
  2 13  1  0  0  0  0
  4  5  1  0  0  0  0
  4 19  1  0  0  0  0
  5  6  1  0  0  0  0
  5 20  1  0  0  0  0
  5 21  1  0  0  0  0
  6  7  1  0  0  0  0
  6 22  1  0  0  0  0
  6 23  1  0  0  0  0
  7 12  1  0  0  0  0
  7  8  2  0  0  0  0
  8  9  1  0  0  0  0
  8 24  1  0  0  0  0
  9 10  2  0  0  0  0
  9 25  1  0  0  0  0
 10 11  1  0  0  0  0
 10 26  1  0  0  0  0
 11 12  2  0  0  0  0
 11 27  1  0  0  0  0
 13 18  1  0  0  0  0
 13 14  1  0  0  0  0
 14 15  1  0  0  0  0
 14 28  1  0  0  0  0
 14 29  1  0  0  0  0
 15 16  1  0  0  0  0
 15 30  1  0  0  0  0
 15 31  1  0  0  0  0
 16 17  1  0  0  0  0
 17 18  1  0  0  0  0
 17 32  1  0  0  0  0
 17 33  1  0  0  0  0
 18 34  1  0  0  0  0
 18 35  1  0  0  0  0
M  END
> <s_m_source_file>
AV-unprocessed.smi

> <i_m_source_file_index>
2108

> <i_lp_mmshare_version>
43012

> <i_f3d_flags>
0

> <s_epik_input>
W0NIMl0xW0NIMl1PW0NIMl1bQ0gyXU4xUyg9TykoPU8pW05IXVtDSDJdW0NIMl1jMltjSF1bY0hdW2NIXVtjSF1uMg==

> <s_epik_cmdline>
J2VwaWtfcHl0aG9uJywgJy1waCcsICc3LjAnLCAnLXRuJywgJzgnLCAnLW1hJywgJzIwMCcsICctbWV0YWxfYmluZGluZycsICctaW1hZScsICc8aW5maWxlLm1hZT4nLCAnLW9tYWUnLCAnPG91dGZpbGUubWFlPic=

> <r_epik_Ionization_Penalty>
0.085378

> <r_epik_Ionization_Penalty_Charging>
0

> <r_epik_Ionization_Penalty_Neutral>
0.085378

> <r_epik_State_Penalty>
0.0441186

> <r_epik_Charging_Adjusted_Penalty>
0.0441186

> <i_epik_Tot_Q>
0

> <i_epik_Tot_abs_Q>
0

> <r_epik_Metal_State_Penalty>
0.24397

> <b_epik_Metal_Only>
0

> <s_lp_Force_Field>
OPLS_2005

> <r_lp_Energy>
7.91242

> <b_lp_Chiralities_Consistent>
1

> <s_lp_Variant>
AV-unprocessed.smi:2108-1

> <Gold.Version>
5.8.1

> <Gold.Id.Protein>
6NUR|6NUR_protein|mol2

> <Gold.PLP.Fitness>
42.7718

> <Gold.PLP.PLP>
-34.5464

> <Gold.PLP.part.hbond>
-3.0000

> <Gold.PLP.part.metal>
0.0000

> <Gold.PLP.part.buried>
-6.0114

> <Gold.PLP.part.nonpolar>
-25.6014

> <Gold.PLP.part.repulsive>
0.1605

> <Gold.PLP.ligand.clash>
0.0000

> <Gold.PLP.ligand.torsion>
0.7871

> <Gold.PLP.Chemscore.Hbond>
2.9920

> <Gold.PLP.Chemscore.CHOScore>
0.0000

> <Gold.PLP.Chemscore.Metal>
0.0000

> <Gold.Chemscore.Hbonds>
donor molecule, donor type, donor heavy atom, donor atom, acceptor molecule, acceptor atom, score
      P1  H  6896  6908       L1    16  1.00
      P1  H  7989  7998       L1     1  1.00
      P1  H  7997  8009       L1     3  1.00

> <Gold.PLP.Chemscore.Internal.Correction>
0.8235

> <Gold.Rescore>
     Score         DG    S(hbond)    S(metal)    S(lipo)     H(rot)  DE(clash)    DE(int)     intcor
     17.90     -20.33       2.80        0.00      87.17       1.84       0.07       2.37       ----

> <Gold.Chemscore.Fitness>
17.8992

> <Gold.Chemscore.DG>
-20.3313

> <Gold.Chemscore.ZeroCoef>
-5.4800

> <Gold.Chemscore.Hbond>
2.8017

> <Gold.Chemscore.Metal>
0.0000

> <Gold.Chemscore.Lipo>
87.1739

> <Gold.Chemscore.Internal_Hbond>
0.0000

> <Gold.Chemscore.DEClash>
0.0662

> <Gold.Chemscore.DEInternal>
2.3659

> <Gold.Chemscore.Rot>
1.8382

> <Gold.Chemscore.Internal.Correction>
   9.000000E+99

> <Gold.Chemscore.Hbonds>
donor molecule, donor type, donor heavy atom, donor atom, acceptor molecule, acceptor atom, score
      P1  H  6896  6908       L1    16  0.90
      P1  H  7989  7998       L1     1  0.35
      P1  H  7997  8009       L1     3  0.99

> <Gold.Chemscore.Hbond.Weighted>
-9.3576

> <Gold.Chemscore.Metal.Weighted>
-0.0000

> <Gold.Chemscore.Lipo.Weighted>
-10.1993

> <Gold.Chemscore.Internal_Hbond.Weighted>
0.0000

> <Gold.Chemscore.DEClash.Weighted>
0.0662

> <Gold.Chemscore.DEInternal.Weighted>
2.3659

> <Gold.Chemscore.Rot.Weighted>
4.7057

> <Gold.Chemscore.Internal.Correction.Weighted>
   9.000000E+99

> <Gold.Protein.RotatedTorsions>
[ 6907 6896 6895 6894 ] final -175.50 input  -60.11 | X-H torsion
[ 7974 7965 7964 7962 ] final  133.07 input  175.53 | X-H torsion
[ 8008 7997 7996 7995 ] final -145.47 input   59.86 | X-H torsion
[ 10167 10162 10161 10158 ] final -118.58 input  -65.29 | X-H torsion
[ 10718 10713 10712 10709 ] final   89.51 input   66.30 | X-H torsion
[ 10763 10752 10751 10750 ] final  173.04 input  -60.55 | X-H torsion
[ 11005 11000 10999 10996 ] final  -52.24 input  -57.11 | X-H torsion

> <Gold.Protein.ActiveResidues>
 VAL166  LYS551  ARG553  GLY616  TRP617  ASP618  TYR619  PRO620  LYS621  CYS622 
 ASP623  PHE694  ASN695  SER759  ASP760  ASP761  ALA762  ILE779  LEU786  VAL792 
 PHE793  MET794  SER795  GLU796  ALA797  LYS798  CYS799  TRP800  GLU811  SER814 

> <Gold.Protein.RotatedAtoms>
  151.5895  133.3368  159.3024 H   0  0  0  0  0  0  0  0  0  0  0  0  # atno 6907 bound_to 6896
  150.8268  134.7506  159.6831 H   0  0  0  0  0  0  0  0  0  0  0  0  # atno 6908 bound_to 6896
  152.4356  134.5699  159.9969 H   0  0  0  0  0  0  0  0  0  0  0  0  # atno 6909 bound_to 6896
  144.9903  139.4413  143.5342 H   0  0  0  0  0  0  0  0  0  0  0  0  # atno 7974 bound_to 7965
  155.5437  140.0610  157.2865 H   0  0  0  0  0  0  0  0  0  0  0  0  # atno 8008 bound_to 7997
  154.4443  140.1915  156.0660 H   0  0  0  0  0  0  0  0  0  0  0  0  # atno 8009 bound_to 7997
  156.0566  140.3277  155.7417 H   0  0  0  0  0  0  0  0  0  0  0  0  # atno 8010 bound_to 7997
  140.0559  143.5015  152.2057 H   0  0  0  0  0  0  0  0  0  0  0  0  # atno 10167 bound_to 10162
  157.6955  131.0336  150.3436 H   0  0  0  0  0  0  0  0  0  0  0  0  # atno 10718 bound_to 10713
  154.4345  135.2760  155.1890 H   0  0  0  0  0  0  0  0  0  0  0  0  # atno 10763 bound_to 10752
  154.3782  135.6093  153.5780 H   0  0  0  0  0  0  0  0  0  0  0  0  # atno 10764 bound_to 10752
  152.9837  135.5874  154.4662 H   0  0  0  0  0  0  0  0  0  0  0  0  # atno 10765 bound_to 10752
  141.0914  133.6632  156.3995 H   0  0  0  0  0  0  0  0  0  0  0  0  # atno 11005 bound_to 11000
  146.3430  139.9231  142.8764 LP  0  0  0  0  0  0  0  0  0  0  0  0  # atno 17320 bound_to 7965
  145.2295  140.9967  143.3999 LP  0  0  0  0  0  0  0  0  0  0  0  0  # atno 17321 bound_to 7965
  139.5924  144.7555  151.3369 LP  0  0  0  0  0  0  0  0  0  0  0  0  # atno 17342 bound_to 10162
  140.7195  143.7175  150.7721 LP  0  0  0  0  0  0  0  0  0  0  0  0  # atno 17343 bound_to 10162
  156.3894  130.3895  149.7041 LP  0  0  0  0  0  0  0  0  0  0  0  0  # atno 17370 bound_to 10713
  156.4396  130.7855  151.2876 LP  0  0  0  0  0  0  0  0  0  0  0  0  # atno 17371 bound_to 10713
  140.5244  134.6273  157.5329 LP  0  0  0  0  0  0  0  0  0  0  0  0  # atno 17394 bound_to 11000
  139.9740  134.7245  155.9985 LP  0  0  0  0  0  0  0  0  0  0  0  0  # atno 17395 bound_to 11000

$$$$
