#       Name:                AV-unprocessed.smi:2214
#       Creating user name   scv26
#       Creation time:       Fri Mar 27 12:17:48 2020


#       File generated by GOLD software.
#

@<TRIPOS>MOLECULE
AV-unprocessed.smi:2214
    48    49     1
SMALL
NO_CHARGES


@<TRIPOS>ATOM
      1 ****        -6.4867  -0.3481   1.0101 C.3            1 S1                 0.0000
      2 ****        -5.2583   0.5355   0.9368 C.ar           1 S1                 0.0000
      3 ****        -5.3872   1.9381   0.9698 C.ar           1 S1                 0.0000
      4 ****        -4.2405   2.7503   0.9037 C.ar           1 S1                 0.0000
      5 ****        -2.9634   2.1652   0.8048 C.ar           1 S1                 0.0000
      6 ****        -1.5702   3.1838   0.7210 Cl             1 S1                 0.0000
      7 ****        -2.8181   0.7608   0.7692 C.ar           1 S1                 0.0000
      8 ****        -1.5371   0.2615   0.6723 O.3            1 S1                 0.0000
      9 ****        -1.3628  -1.1384   0.5022 C.3            1 S1                 0.0000
     10 ****         0.1369  -1.4117   0.3154 C.3            1 S1                 0.0000
     11 ****         0.3134  -2.8137   0.3173 O.3            1 S1                 0.0000
     12 ****         0.6760  -0.8351  -1.0152 C.3            1 S1                 0.0000
     13 ****         2.0576  -0.3476  -0.8786 N.am           1 S1                 0.0000
     14 ****         2.2102   0.9731  -0.4227 C.2            1 S1                 0.0000
     15 ****         3.3776   1.5020  -0.2534 N.2            1 S1                 0.0000
     16 ****         4.5272   0.7532  -0.5217 C.2            1 S1                 0.0000
     17 ****         5.8453   1.4700  -0.2885 C.3            1 S1                 0.0000
     18 ****         4.4473  -0.5336  -0.9588 C.2            1 S1                 0.0000
     19 ****         5.6645  -1.3973  -1.2655 C.3            1 S1                 0.0000
     20 ****         3.1250  -1.1508  -1.1523 C.2            1 S1                 0.0000
     21 ****         2.9799  -2.3134  -1.5350 O.2            1 S1                 0.0000
     22 ****        -3.9795  -0.0500   0.8373 C.ar           1 S1                 0.0000
     23 ****        -7.4033   0.2422   0.9969 H              1 S1                 0.0000
     24 ****        -6.4732  -0.9373   1.9273 H              1 S1                 0.0000
     25 ****        -6.5118  -1.0328   0.1620 H              1 S1                 0.0000
     26 ****        -6.3625   2.3964   1.0461 H              1 S1                 0.0000
     27 ****        -4.3421   3.8253   0.9284 H              1 S1                 0.0000
     28 ****        -1.7281  -1.6603   1.3884 H              1 S1                 0.0000
     29 ****        -1.9227  -1.4990  -0.3625 H              1 S1                 0.0000
     30 ****         0.6753  -0.9980   1.1694 H              1 S1                 0.0000
     31 ****        -0.1430  -3.1761  -0.4266 H              1 S1                 0.0000
     32 ****         0.5800  -1.5621  -1.8241 H              1 S1                 0.0000
     33 ****         0.0453  -0.0058  -1.3423 H              1 S1                 0.0000
     34 ****         1.2817   1.5100  -0.2189 H              1 S1                 0.0000
     35 ****         6.4219   1.5220  -1.2125 H              1 S1                 0.0000
     36 ****         6.4361   0.9464   0.4634 H              1 S1                 0.0000
     37 ****         5.6859   2.4900   0.0634 H              1 S1                 0.0000
     38 ****         5.6699  -2.2795  -0.6245 H              1 S1                 0.0000
     39 ****         6.6092  -0.8769  -1.1167 H              1 S1                 0.0000
     40 ****         5.6353  -1.7330  -2.3029 H              1 S1                 0.0000
     41 ****        -3.9128  -1.1273   0.8183 H              1 S1                 0.0000
     42 ****        -1.0565   0.5185   1.5108 LP             1 S1                 0.0000
     43 ****        -1.1047   0.7095  -0.1103 LP             1 S1                 0.0000
     44 ****        -0.0591  -3.1989   1.1615 LP             1 S1                 0.0000
     45 ****         1.2875  -3.0306   0.2533 LP             1 S1                 0.0000
     46 ****         3.4582   2.4452   0.0689 LP             1 S1                 0.0000
     47 ****         2.0611  -2.6902  -1.6521 LP             1 S1                 0.0000
     48 ****         3.7811  -2.8798  -1.7284 LP             1 S1                 0.0000
@<TRIPOS>BOND
    1    1    2 1     
    2    1   23 1     
    3    1   24 1     
    4    1   25 1     
    5    2   22 ar    
    6    2    3 ar    
    7    3    4 ar    
    8    3   26 1     
    9    4    5 ar    
   10    4   27 1     
   11    5    6 1     
   12    5    7 ar    
   13    7    8 1     
   14    7   22 ar    
   15    8    9 1     
   16    9   10 1     
   17    9   28 1     
   18    9   29 1     
   19   10   11 1     
   20   10   12 1     
   21   10   30 1     
   22   11   31 1     
   23   12   13 1     
   24   12   32 1     
   25   12   33 1     
   26   13   20 am    
   27   13   14 1     
   28   14   15 2     
   29   14   34 1     
   30   15   16 1     
   31   16   17 1     
   32   16   18 2     
   33   17   35 1     
   34   17   36 1     
   35   17   37 1     
   36   18   19 1     
   37   18   20 1     
   38   19   38 1     
   39   19   39 1     
   40   19   40 1     
   41   20   21 2     
   42   22   41 1     
   43    8   42 1     
   44    8   43 1     
   45   11   44 1     
   46   11   45 1     
   47   15   46 1     
   48   21   47 1     
   49   21   48 1     
@<TRIPOS>SUBSTRUCTURE
      1 S1             1
@<TRIPOS>SET
LONE_PAIRS      STATIC     ATOMS    <user>   **** ""
7 42 43 44 45 46 47 48
DONOR_HYDROGENS      STATIC     ATOMS    <user>   **** ""
1 31
ATOM$BLUE        STATIC     ATOMS    COLORGROUP SYSTEM
7 42 43 44 45 46 47 48
ATOM$RED        STATIC     ATOMS    COLORGROUP SYSTEM
1 31
