AV-unprocessed.smi:1041|AV-procd|sdf|4533|dock6
  -GOLD-   22720 2553D 1   1.00000     0.00000
 Structure written by MMmdl.
 52 53  0  0  0  0  0  0  0  0  3 V2000
  144.7244  133.7209  150.4717 C   0  0  0  0  0  0  0  0  0  0  0  0
  145.1061  134.1393  151.7706 O   0  0  0  0  0  0  0  0  0  0  0  0
  146.0171  135.2258  151.7472 C   0  0  0  0  0  0  0  0  0  0  0  0
  146.2892  135.6778  153.1900 C   0  0  0  0  0  0  0  0  0  0  0  0
  147.0571  136.9476  153.2514 N   0  3  2  0  0  0  0  0  0  0  0  0
  147.7233  137.1371  154.5648 C   0  0  0  0  0  0  0  0  0  0  0  0
  148.6256  138.3802  154.5541 C   0  0  0  0  0  0  0  0  0  0  0  0
  147.8330  139.6481  154.1730 C   0  0  1  0  0  0  0  0  0  0  0  0
  148.7044  140.9209  154.1348 C   0  0  0  0  0  0  0  0  0  0  0  0
  149.0215  141.3622  155.4867 N   0  0  0  0  0  0  0  0  0  0  0  0
  150.2234  141.2801  156.0763 C   0  0  0  0  0  0  0  0  0  0  0  0
  151.2683  141.0320  155.4753 O   0  0  0  0  0  0  0  0  0  0  0  0
  150.2228  141.4344  157.5964 C   0  0  0  0  0  0  0  0  0  0  0  0
  151.6168  141.3576  158.2201 C   0  0  0  0  0  0  0  0  0  0  0  0
  152.1521  142.3536  158.9827 C   0  0  0  0  0  0  0  0  0  0  0  0
  151.4028  143.6302  159.3215 C   0  0  0  0  0  0  0  0  0  0  0  0
  153.4590  142.2580  159.4900 N   0  0  0  0  0  0  0  0  0  0  0  0
  154.1662  141.2284  159.2192 C   0  0  0  0  0  0  0  0  0  0  0  0
  155.5741  141.1332  159.7671 C   0  0  0  0  0  0  0  0  0  0  0  0
  153.7263  140.1751  158.4496 N   0  5  0  0  0  0  0  0  0  0  0  0
  152.4633  140.1837  157.9374 C   0  0  0  0  0  0  0  0  0  0  0  0
  152.0334  139.2612  157.2457 O   0  0  0  0  0  0  0  0  0  0  0  0
  147.1290  139.4069  152.8275 C   0  0  0  0  0  0  0  0  0  0  0  0
  146.2559  138.1415  152.8709 C   0  0  0  0  0  0  0  0  0  0  0  0
  144.0233  132.8898  150.5462 H   0  0  0  0  0  0  0  0  0  0  0  0
  145.5877  133.3823  149.8970 H   0  0  0  0  0  0  0  0  0  0  0  0
  144.2334  134.5269  149.9248 H   0  0  0  0  0  0  0  0  0  0  0  0
  146.9371  134.9477  151.2329 H   0  0  0  0  0  0  0  0  0  0  0  0
  145.5782  136.0531  151.1875 H   0  0  0  0  0  0  0  0  0  0  0  0
  145.3528  135.7898  153.7387 H   0  0  0  0  0  0  0  0  0  0  0  0
  146.8450  134.8844  153.6919 H   0  0  0  0  0  0  0  0  0  0  0  0
  146.9706  137.2241  155.3501 H   0  0  0  0  0  0  0  0  0  0  0  0
  148.3295  136.2619  154.8026 H   0  0  0  0  0  0  0  0  0  0  0  0
  149.0758  138.4877  155.5406 H   0  0  0  0  0  0  0  0  0  0  0  0
  149.4496  138.2326  153.8547 H   0  0  0  0  0  0  0  0  0  0  0  0
  147.0621  139.7995  154.9307 H   0  0  0  0  0  0  0  0  0  0  0  0
  149.6070  140.7445  153.5479 H   0  0  0  0  0  0  0  0  0  0  0  0
  148.1648  141.7268  153.6369 H   0  0  0  0  0  0  0  0  0  0  0  0
  148.2355  141.5951  156.0774 H   0  0  0  0  0  0  0  0  0  0  0  0
  149.7643  142.3904  157.8495 H   0  0  0  0  0  0  0  0  0  0  0  0
  149.5621  140.6848  158.0338 H   0  0  0  0  0  0  0  0  0  0  0  0
  150.5001  143.4052  159.8899 H   0  0  0  0  0  0  0  0  0  0  0  0
  151.1200  144.1612  158.4127 H   0  0  0  0  0  0  0  0  0  0  0  0
  152.0174  144.3015  159.9225 H   0  0  0  0  0  0  0  0  0  0  0  0
  155.6100  140.4153  160.5869 H   0  0  0  0  0  0  0  0  0  0  0  0
  155.9157  142.0995  160.1409 H   0  0  0  0  0  0  0  0  0  0  0  0
  156.2659  140.8065  158.9900 H   0  0  0  0  0  0  0  0  0  0  0  0
  146.5111  140.2680  152.5705 H   0  0  0  0  0  0  0  0  0  0  0  0
  147.8706  139.3112  152.0329 H   0  0  0  0  0  0  0  0  0  0  0  0
  145.7995  137.9977  151.8925 H   0  0  0  0  0  0  0  0  0  0  0  0
  145.4395  138.2749  153.5827 H   0  0  0  0  0  0  0  0  0  0  0  0
  147.8010  136.8606  152.5732 H   0  0  0  0  0  0  0  0  0  0  0  0
  1  2  1  0  0  0  0
  1 25  1  0  0  0  0
  1 26  1  0  0  0  0
  1 27  1  0  0  0  0
  2  3  1  0  0  0  0
  3  4  1  0  0  0  0
  3 28  1  0  0  0  0
  3 29  1  0  0  0  0
  4  5  1  0  0  0  0
  4 30  1  0  0  0  0
  4 31  1  0  0  0  0
  5 24  1  0  0  0  0
  5  6  1  0  0  0  0
  5 52  1  0  0  0  0
  6  7  1  0  0  0  0
  6 32  1  0  0  0  0
  6 33  1  0  0  0  0
  7  8  1  0  0  0  0
  7 34  1  0  0  0  0
  7 35  1  0  0  0  0
  8  9  1  0  0  0  0
  8 23  1  0  0  0  0
  8 36  1  0  0  0  0
  9 10  1  0  0  0  0
  9 37  1  0  0  0  0
  9 38  1  0  0  0  0
 10 11  1  0  0  0  0
 10 39  1  0  0  0  0
 11 12  2  0  0  0  0
 11 13  1  0  0  0  0
 13 14  1  0  0  0  0
 13 40  1  0  0  0  0
 13 41  1  0  0  0  0
 14 21  1  0  0  0  0
 14 15  2  0  0  0  0
 15 16  1  0  0  0  0
 15 17  1  0  0  0  0
 16 42  1  0  0  0  0
 16 43  1  0  0  0  0
 16 44  1  0  0  0  0
 17 18  2  0  0  0  0
 18 19  1  0  0  0  0
 18 20  1  0  0  0  0
 19 45  1  0  0  0  0
 19 46  1  0  0  0  0
 19 47  1  0  0  0  0
 20 21  1  0  0  0  0
 21 22  2  0  0  0  0
 23 24  1  0  0  0  0
 23 48  1  0  0  0  0
 23 49  1  0  0  0  0
 24 50  1  0  0  0  0
 24 51  1  0  0  0  0
M  CHG  1   5   1
M  CHG  1  20  -1
M  END
> <s_m_source_file>
AV-unprocessed.smi

> <i_m_source_file_index>
1041

> <i_lp_mmshare_version>
43012

> <i_f3d_flags>
0

> <s_epik_input>
W0NIM11PW0NIMl1bQ0gyXU4xW0NIMl1bQ0gyXVtDSF0oW0NIMl1bQ0gyXTEpW0NIMl1bTkhdQyg9TylbQ0gyXWMyYyhbQ0gzXSluYyhbQ0gzXSlbbkhdYzI9Tw==

> <s_epik_cmdline>
J2VwaWtfcHl0aG9uJywgJy1waCcsICc3LjAnLCAnLXRuJywgJzgnLCAnLW1hJywgJzIwMCcsICctbWV0YWxfYmluZGluZycsICctaW1hZScsICc8aW5maWxlLm1hZT4nLCAnLW9tYWUnLCAnPG91dGZpbGUubWFlPic=

> <r_lp_tautomer_probability>
0.839158

> <r_epik_Ionization_Penalty>
6.54961

> <r_epik_Ionization_Penalty_Charging>
0.00968647

> <r_epik_Ionization_Penalty_Neutral>
6.53992

> <r_epik_State_Penalty>
4.43892

> <r_epik_Charging_Adjusted_Penalty>
4.44861

> <i_epik_Tot_Q>
0

> <i_epik_Tot_abs_Q>
2

> <r_epik_Metal_State_Penalty>
0.818645

> <b_epik_Metal_Only>
1

> <s_lp_Force_Field>
OPLS_2005

> <r_lp_Energy>
18.5529

> <b_lp_Chiralities_Consistent>
1

> <s_lp_Variant>
AV-unprocessed.smi:1041-6

> <Gold.Version>
5.8.1

> <Gold.Id.Protein>
6NUR|6NUR_protein|mol2

> <Gold.PLP.Fitness>
48.1920

> <Gold.PLP.PLP>
-35.0242

> <Gold.PLP.part.hbond>
-3.0000

> <Gold.PLP.part.metal>
0.0000

> <Gold.PLP.part.buried>
-1.9737

> <Gold.PLP.part.nonpolar>
-29.4078

> <Gold.PLP.part.repulsive>
0.2472

> <Gold.PLP.ligand.clash>
0.0000

> <Gold.PLP.ligand.torsion>
0.3764

> <Gold.PLP.Chemscore.Hbond>
4.5834

> <Gold.PLP.Chemscore.CHOScore>
0.0000

> <Gold.PLP.Chemscore.Metal>
0.0000

> <Gold.Chemscore.Hbonds>
donor molecule, donor type, donor heavy atom, donor atom, acceptor molecule, acceptor atom, score
      L1  H     5    52       P1  7948  1.79
      P1  H  7989  7998       L1    12  0.62
      P1  H  7997  8008       L1    20  1.89

> <Gold.PLP.Chemscore.Internal.Correction>
0.1704

> <Gold.Rescore>
     Score         DG    S(hbond)    S(metal)    S(lipo)     H(rot)  DE(clash)    DE(int)     intcor
     13.85     -14.96       1.57        0.00      87.56       2.35       0.10       1.01       ----

> <Gold.Chemscore.Fitness>
13.8505

> <Gold.Chemscore.DG>
-14.9571

> <Gold.Chemscore.ZeroCoef>
-5.4800

> <Gold.Chemscore.Hbond>
1.5728

> <Gold.Chemscore.Metal>
0.0000

> <Gold.Chemscore.Lipo>
87.5646

> <Gold.Chemscore.Internal_Hbond>
0.0000

> <Gold.Chemscore.DEClash>
0.0990

> <Gold.Chemscore.DEInternal>
1.0076

> <Gold.Chemscore.Rot>
2.3520

> <Gold.Chemscore.Internal.Correction>
   9.000000E+99

> <Gold.Chemscore.Hbonds>
donor molecule, donor type, donor heavy atom, donor atom, acceptor molecule, acceptor atom, score
      L1  H     5    52       P1  7948  0.86
      P1  H  7989  7998       L1    12  0.60
      P1  H  7997  8008       L1    20  0.33

> <Gold.Chemscore.Hbond.Weighted>
-5.2532

> <Gold.Chemscore.Metal.Weighted>
-0.0000

> <Gold.Chemscore.Lipo.Weighted>
-10.2451

> <Gold.Chemscore.Internal_Hbond.Weighted>
0.0000

> <Gold.Chemscore.DEClash.Weighted>
0.0990

> <Gold.Chemscore.DEInternal.Weighted>
1.0076

> <Gold.Chemscore.Rot.Weighted>
6.0211

> <Gold.Chemscore.Internal.Correction.Weighted>
   9.000000E+99

> <Gold.Protein.RotatedTorsions>
[ 6907 6896 6895 6894 ] final  132.42 input  -60.11 | X-H torsion
[ 7974 7965 7964 7962 ] final  -78.52 input  175.53 | X-H torsion
[ 8008 7997 7996 7995 ] final  -98.25 input   59.86 | X-H torsion
[ 10167 10162 10161 10158 ] final    6.89 input  -65.29 | X-H torsion
[ 10718 10713 10712 10709 ] final -161.32 input   66.30 | X-H torsion
[ 10763 10752 10751 10750 ] final -129.18 input  -60.55 | X-H torsion
[ 11005 11000 10999 10996 ] final  -11.82 input  -57.11 | X-H torsion

> <Gold.Protein.ActiveResidues>
 VAL166  LYS551  ARG553  GLY616  TRP617  ASP618  TYR619  PRO620  LYS621  CYS622 
 ASP623  PHE694  ASN695  SER759  ASP760  ASP761  ALA762  ILE779  LEU786  VAL792 
 PHE793  MET794  SER795  GLU796  ALA797  LYS798  CYS799  TRP800  GLU811  SER814 

> <Gold.Protein.RotatedAtoms>
  152.3326  133.5975  159.5819 H   0  0  0  0  0  0  0  0  0  0  0  0  # atno 6907 bound_to 6896
  150.7432  133.9845  159.3596 H   0  0  0  0  0  0  0  0  0  0  0  0  # atno 6908 bound_to 6896
  151.7718  135.0785  160.0412 H   0  0  0  0  0  0  0  0  0  0  0  0  # atno 6909 bound_to 6896
  145.5853  140.9440  143.1321 H   0  0  0  0  0  0  0  0  0  0  0  0  # atno 7974 bound_to 7965
  154.7987  140.0456  157.1256 H   0  0  0  0  0  0  0  0  0  0  0  0  # atno 8008 bound_to 7997
  154.9505  140.3064  155.5057 H   0  0  0  0  0  0  0  0  0  0  0  0  # atno 8009 bound_to 7997
  156.2959  140.2289  156.4582 H   0  0  0  0  0  0  0  0  0  0  0  0  # atno 8010 bound_to 7997
  140.6402  143.7791  150.7417 H   0  0  0  0  0  0  0  0  0  0  0  0  # atno 10167 bound_to 10162
  156.5945  130.8784  151.2898 H   0  0  0  0  0  0  0  0  0  0  0  0  # atno 10718 bound_to 10713
  154.8757  135.3904  154.3877 H   0  0  0  0  0  0  0  0  0  0  0  0  # atno 10763 bound_to 10752
  153.4617  135.7029  153.6051 H   0  0  0  0  0  0  0  0  0  0  0  0  # atno 10764 bound_to 10752
  153.4547  135.3826  155.2272 H   0  0  0  0  0  0  0  0  0  0  0  0  # atno 10765 bound_to 10752
  140.7592  133.8528  155.9110 H   0  0  0  0  0  0  0  0  0  0  0  0  # atno 11005 bound_to 11000
  144.7375  139.7543  143.7323 LP  0  0  0  0  0  0  0  0  0  0  0  0  # atno 17320 bound_to 7965
  146.1686  139.4827  142.9942 LP  0  0  0  0  0  0  0  0  0  0  0  0  # atno 17321 bound_to 7965
  140.1421  143.4432  152.2187 LP  0  0  0  0  0  0  0  0  0  0  0  0  # atno 17342 bound_to 10162
  139.5611  144.7406  151.4151 LP  0  0  0  0  0  0  0  0  0  0  0  0  # atno 17343 bound_to 10162
  157.7295  130.9672  150.1791 LP  0  0  0  0  0  0  0  0  0  0  0  0  # atno 17370 bound_to 10713
  156.2521  130.3701  149.8221 LP  0  0  0  0  0  0  0  0  0  0  0  0  # atno 17371 bound_to 10713
  140.9679  134.1570  157.4601 LP  0  0  0  0  0  0  0  0  0  0  0  0  # atno 17394 bound_to 11000
  139.8773  134.9968  156.5813 LP  0  0  0  0  0  0  0  0  0  0  0  0  # atno 17395 bound_to 11000

$$$$
