#       Name:                AV-unprocessed.smi:2047
#       Creating user name   scv26
#       Creation time:       Fri Mar 27 10:58:21 2020


#       File generated by GOLD software.
#

@<TRIPOS>MOLECULE
AV-unprocessed.smi:2047
    46    48     1
SMALL
NO_CHARGES


@<TRIPOS>ATOM
      1 ****        -0.1439   2.6711  -0.3893 O.2            1 S1                 0.0000
      2 ****        -0.4193   1.4755  -0.4853 C.2            1 S1                 0.0000
      3 ****         0.4664   0.4678  -0.4087 N.am           1 S1                 0.0000
      4 ****         1.8777   0.5421  -0.2231 C.ar           1 S1                 0.0000
      5 ****         2.6405   1.6590  -0.6521 C.ar           1 S1                 0.0000
      6 ****         4.0339   1.6760  -0.4486 C.ar           1 S1                 0.0000
      7 ****         4.6469   0.5731   0.1716 C.ar           1 S1                 0.0000
      8 ****         3.8969  -0.4815   0.5527 N.pl3          1 S1                 1.0000
      9 ****         2.5531  -0.5519   0.3845 C.ar           1 S1                 0.0000
     10 ****         1.8749  -1.7188   0.7946 N.3            1 S1                 0.0000
     11 ****         1.4441  -2.5694  -0.3121 C.3            1 S1                 0.0000
     12 ****         1.6291  -4.0155   0.1532 C.3            1 S1                 0.0000
     13 ****         2.7458  -3.9075   1.1839 C.3            1 S1                 0.0000
     14 ****         2.4566  -2.5590   1.8402 C.3            1 S1                 0.0000
     15 ****        -1.6661   1.0154  -0.6609 N.am           1 S1                 0.0000
     16 ****        -2.8571   1.8524  -0.7766 C.3            1 S1                 0.0000
     17 ****        -3.3409   2.3710   0.5934 C.3            1 S1                 0.0000
     18 ****        -4.7691   2.9092   0.4407 C.3            1 S1                 0.0000
     19 ****        -5.5441   1.9308  -0.9021 S.o2           1 S1                 0.0000
     20 ****        -6.4745   0.9487  -0.3251 O.2            1 S1                 0.0000
     21 ****        -5.9743   2.8452  -1.9706 O.2            1 S1                 0.0000
     22 ****        -4.0110   1.0701  -1.4187 C.3            1 S1                 0.0000
     23 ****         0.0771  -0.4635  -0.4056 H              1 S1                 0.0000
     24 ****         2.1834   2.5018  -1.1475 H              1 S1                 0.0000
     25 ****         4.6237   2.5222  -0.7697 H              1 S1                 0.0000
     26 ****         5.7073   0.4980   0.3645 H              1 S1                 0.0000
     27 ****         0.4064  -2.3704  -0.5806 H              1 S1                 0.0000
     28 ****         2.0594  -2.3814  -1.1939 H              1 S1                 0.0000
     29 ****         0.7168  -4.3697   0.6355 H              1 S1                 0.0000
     30 ****         1.8655  -4.6974  -0.6642 H              1 S1                 0.0000
     31 ****         2.7537  -4.7339   1.8954 H              1 S1                 0.0000
     32 ****         3.7146  -3.8794   0.6829 H              1 S1                 0.0000
     33 ****         3.3434  -2.1420   2.3176 H              1 S1                 0.0000
     34 ****         1.7060  -2.6806   2.6220 H              1 S1                 0.0000
     35 ****        -1.8040   0.0173  -0.7225 H              1 S1                 0.0000
     36 ****        -2.6392   2.7114  -1.4143 H              1 S1                 0.0000
     37 ****        -3.3545   1.5441   1.3051 H              1 S1                 0.0000
     38 ****        -2.6725   3.1297   1.0017 H              1 S1                 0.0000
     39 ****        -5.3553   2.8257   1.3559 H              1 S1                 0.0000
     40 ****        -4.7570   3.9543   0.1301 H              1 S1                 0.0000
     41 ****        -3.9499   1.0320  -2.5066 H              1 S1                 0.0000
     42 ****        -4.0611   0.0501  -1.0360 H              1 S1                 0.0000
     43 ****         4.3702  -1.2734   0.9883 H              1 S1                 0.0000
     44 ****         0.8034   2.9558  -0.2422 LP             1 S1                 0.0000
     45 ****        -0.8674   3.3580  -0.4584 LP             1 S1                 0.0000
     46 ****         1.0952  -1.2783   1.2396 LP             1 S1                 0.0000
@<TRIPOS>BOND
    1    1    2 2     
    2    2    3 am    
    3    2   15 am    
    4    3    4 1     
    5    3   23 1     
    6    4    9 ar    
    7    4    5 ar    
    8    5    6 ar    
    9    5   24 1     
   10    6    7 ar    
   11    6   25 1     
   12    7    8 ar    
   13    7   26 1     
   14    8    9 ar    
   15    8   43 1     
   16    9   10 1     
   17   10   14 1     
   18   10   11 1     
   19   11   12 1     
   20   11   27 1     
   21   11   28 1     
   22   12   13 1     
   23   12   29 1     
   24   12   30 1     
   25   13   14 1     
   26   13   31 1     
   27   13   32 1     
   28   14   33 1     
   29   14   34 1     
   30   15   16 1     
   31   15   35 1     
   32   16   22 1     
   33   16   17 1     
   34   16   36 1     
   35   17   18 1     
   36   17   37 1     
   37   17   38 1     
   38   18   19 1     
   39   18   39 1     
   40   18   40 1     
   41   19   20 2     
   42   19   21 2     
   43   19   22 1     
   44   22   41 1     
   45   22   42 1     
   46    1   44 1     
   47    1   45 1     
   48   10   46 1     
@<TRIPOS>SUBSTRUCTURE
      1 S1             1
@<TRIPOS>SET
LONE_PAIRS      STATIC     ATOMS    <user>   **** ""
5 44 45 46 20 21
DONOR_HYDROGENS      STATIC     ATOMS    <user>   **** ""
3 23 43 35
ATOM$BLUE        STATIC     ATOMS    COLORGROUP SYSTEM
5 44 45 46 20 21
ATOM$RED        STATIC     ATOMS    COLORGROUP SYSTEM
3 23 43 35
