#       Name:                AV-unprocessed.smi:1432
#       Creating user name   scv26
#       Creation time:       Fri Mar 27 05:49:16 2020


#       File generated by GOLD software.
#

@<TRIPOS>MOLECULE
AV-unprocessed.smi:1432
    51    52     1
SMALL
NO_CHARGES


@<TRIPOS>ATOM
      1 ****        -3.3232   1.7330  -0.7723 C.3            1 S1                 0.0000
      2 ****        -3.2308   0.9229   0.5393 C.3            1 S1                 0.0000
      3 ****        -4.5569   0.9288   1.3289 C.3            1 S1                 0.0000
      4 ****        -5.6254   0.0437   0.6707 C.3            1 S1                 0.0000
      5 ****        -5.0775  -1.3731   0.4608 C.3            1 S1                 0.0000
      6 ****        -3.7578  -1.3481  -0.3277 C.3            1 S1                 0.0000
      7 ****        -2.7511  -0.4777   0.3391 N.4            1 S1                 1.0000
      8 ****        -1.3968  -0.5646  -0.2646 C.3            1 S1                 0.0000
      9 ****        -0.6425  -1.8322   0.1806 C.3            1 S1                 0.0000
     10 ****         0.7009  -1.8831  -0.3848 N.am           1 S1                 0.0000
     11 ****         1.7462  -1.1656   0.0545 C.2            1 S1                 0.0000
     12 ****         1.6676  -0.3775   0.9981 O.2            1 S1                 0.0000
     13 ****         3.0669  -1.3735  -0.7010 C.3            1 S1                 0.0000
     14 ****         4.1640  -0.5219  -0.2114 N.am           1 S1                 0.0000
     15 ****         4.3461   0.7169  -0.8567 C.2            1 S1                 0.0000
     16 ****         5.2955   1.6002  -0.4940 C.2            1 S1                 0.0000
     17 ****         5.4868   2.9104  -1.2417 C.3            1 S1                 0.0000
     18 ****         4.6023   3.8098  -0.8130 F              1 S1                 0.0000
     19 ****         6.7103   3.4040  -1.0510 F              1 S1                 0.0000
     20 ****         5.3023   2.7412  -2.5514 F              1 S1                 0.0000
     21 ****         6.1662   1.2013   0.5944 C.2            1 S1                 0.0000
     22 ****         6.0087   0.0179   1.2195 C.2            1 S1                 0.0000
     23 ****         4.9537  -0.9210   0.8303 C.2            1 S1                 0.0000
     24 ****         4.7886  -1.9970   1.4053 O.2            1 S1                 0.0000
     25 ****        -3.6549   2.7518  -0.5709 H              1 S1                 0.0000
     26 ****        -4.0275   1.2985  -1.4809 H              1 S1                 0.0000
     27 ****        -2.3570   1.8084  -1.2709 H              1 S1                 0.0000
     28 ****        -2.4934   1.4237   1.1686 H              1 S1                 0.0000
     29 ****        -4.3718   0.5662   2.3410 H              1 S1                 0.0000
     30 ****        -4.9293   1.9480   1.4380 H              1 S1                 0.0000
     31 ****        -6.5200   0.0113   1.2934 H              1 S1                 0.0000
     32 ****        -5.9306   0.4699  -0.2854 H              1 S1                 0.0000
     33 ****        -4.9148  -1.8488   1.4289 H              1 S1                 0.0000
     34 ****        -5.8138  -1.9834  -0.0631 H              1 S1                 0.0000
     35 ****        -3.3797  -2.3667  -0.4056 H              1 S1                 0.0000
     36 ****        -3.9323  -1.0068  -1.3484 H              1 S1                 0.0000
     37 ****        -1.4686  -0.5192  -1.3524 H              1 S1                 0.0000
     38 ****        -0.8167   0.3066   0.0425 H              1 S1                 0.0000
     39 ****        -0.5877  -1.8820   1.2697 H              1 S1                 0.0000
     40 ****        -1.1666  -2.7301  -0.1448 H              1 S1                 0.0000
     41 ****         0.8484  -2.5107  -1.1625 H              1 S1                 0.0000
     42 ****         3.3429  -2.4281  -0.6436 H              1 S1                 0.0000
     43 ****         2.8921  -1.1842  -1.7613 H              1 S1                 0.0000
     44 ****         3.6565   0.9085  -1.6661 H              1 S1                 0.0000
     45 ****         6.9557   1.8629   0.9190 H              1 S1                 0.0000
     46 ****         6.6740  -0.2455   2.0286 H              1 S1                 0.0000
     47 ****        -2.6467  -0.8470   1.2734 H              1 S1                 0.0000
     48 ****         0.7964  -0.2507   1.4725 LP             1 S1                 0.0000
     49 ****         2.4749   0.1356   1.2897 LP             1 S1                 0.0000
     50 ****         4.0565  -2.6126   1.1136 LP             1 S1                 0.0000
     51 ****         5.3865  -2.2553   2.1641 LP             1 S1                 0.0000
@<TRIPOS>BOND
    1    1    2 1     
    2    1   25 1     
    3    1   26 1     
    4    1   27 1     
    5    2    7 1     
    6    2    3 1     
    7    2   28 1     
    8    3    4 1     
    9    3   29 1     
   10    3   30 1     
   11    4    5 1     
   12    4   31 1     
   13    4   32 1     
   14    5    6 1     
   15    5   33 1     
   16    5   34 1     
   17    6    7 1     
   18    6   35 1     
   19    6   36 1     
   20    7    8 1     
   21    7   47 1     
   22    8    9 1     
   23    8   37 1     
   24    8   38 1     
   25    9   10 1     
   26    9   39 1     
   27    9   40 1     
   28   10   11 am    
   29   10   41 1     
   30   11   12 2     
   31   11   13 1     
   32   13   14 1     
   33   13   42 1     
   34   13   43 1     
   35   14   23 am    
   36   14   15 1     
   37   15   16 2     
   38   15   44 1     
   39   16   17 1     
   40   16   21 1     
   41   17   18 1     
   42   17   19 1     
   43   17   20 1     
   44   21   22 2     
   45   21   45 1     
   46   22   23 1     
   47   22   46 1     
   48   23   24 2     
   49   12   48 1     
   50   12   49 1     
   51   24   50 1     
   52   24   51 1     
@<TRIPOS>SUBSTRUCTURE
      1 S1             1
@<TRIPOS>SET
LONE_PAIRS      STATIC     ATOMS    <user>   **** ""
4 48 49 50 51
DONOR_HYDROGENS      STATIC     ATOMS    <user>   **** ""
2 47 41
ATOM$BLUE        STATIC     ATOMS    COLORGROUP SYSTEM
4 48 49 50 51
ATOM$RED        STATIC     ATOMS    COLORGROUP SYSTEM
2 47 41
