AV-unprocessed.smi:2721|AV-procd|sdf|10500|dock9
  -GOLD-   2272014543D 1   1.00000     0.00000
 Structure written by MMmdl.
 29 30  0  0  0  0  0  0  0  0  2 V2000
  151.2637  138.4368  154.6281 C   0  0  0  0  0  0  0  0  0  0  0  0
  151.0771  139.6209  155.4391 N   0  0  0  0  0  0  0  0  0  0  0  0
  151.4190  139.8229  156.7587 C   0  0  0  0  0  0  0  0  0  0  0  0
  151.0440  141.0953  157.0900 C   0  0  0  0  0  0  0  0  0  0  0  0
  151.2111  141.8191  158.4005 C   0  0  1  0  0  0  0  0  0  0  0  0
  152.5963  141.9167  158.7273 O   0  0  0  0  0  0  0  0  0  0  0  0
  152.8530  142.5010  159.9998 C   0  0  0  0  0  0  0  0  0  0  0  0
  152.3431  143.9487  160.0158 C   0  0  0  0  0  0  0  0  0  0  0  0
  150.8531  143.9872  159.6642 C   0  0  0  0  0  0  0  0  0  0  0  0
  150.6052  143.2435  158.3430 C   0  0  2  0  0  0  0  0  0  0  0  0
  149.1613  143.2071  158.0415 N   0  3  0  0  0  0  0  0  0  0  0  0
  150.4746  141.5948  155.8837 C   0  0  0  0  0  0  0  0  0  0  0  0
  150.4968  140.7122  154.8994 N   0  0  0  0  0  0  0  0  0  0  0  0
  150.7187  141.2531  159.1937 H   0  0  0  0  0  0  0  0  0  0  0  0
  151.0889  143.7985  157.5376 H   0  0  0  0  0  0  0  0  0  0  0  0
  151.9193  137.7324  155.1406 H   0  0  0  0  0  0  0  0  0  0  0  0
  151.7140  138.7072  153.6723 H   0  0  0  0  0  0  0  0  0  0  0  0
  150.3001  137.9594  154.4481 H   0  0  0  0  0  0  0  0  0  0  0  0
  151.8973  139.0540  157.3478 H   0  0  0  0  0  0  0  0  0  0  0  0
  152.3821  141.9108  160.7872 H   0  0  0  0  0  0  0  0  0  0  0  0
  153.9270  142.4803  160.1859 H   0  0  0  0  0  0  0  0  0  0  0  0
  152.5128  144.3988  160.9944 H   0  0  0  0  0  0  0  0  0  0  0  0
  152.9076  144.5426  159.2955 H   0  0  0  0  0  0  0  0  0  0  0  0
  150.2797  143.5224  160.4679 H   0  0  0  0  0  0  0  0  0  0  0  0
  150.5129  145.0210  159.5929 H   0  0  0  0  0  0  0  0  0  0  0  0
  148.6533  143.7144  158.7521 H   0  0  0  0  0  0  0  0  0  0  0  0
  148.8466  142.2473  158.0239 H   0  0  0  0  0  0  0  0  0  0  0  0
  150.0523  142.5705  155.6948 H   0  0  0  0  0  0  0  0  0  0  0  0
  148.9937  143.6313  157.1404 H   0  0  0  0  0  0  0  0  0  0  0  0
  1  2  1  0  0  0  0
  1 16  1  0  0  0  0
  1 17  1  0  0  0  0
  1 18  1  0  0  0  0
  2 13  1  0  0  0  0
  2  3  1  0  0  0  0
  3  4  2  0  0  0  0
  3 19  1  0  0  0  0
  4  5  1  0  0  0  0
  4 12  1  0  0  0  0
  5 14  1  0  0  0  0
  5 10  1  0  0  0  0
  5  6  1  0  0  0  0
  6  7  1  0  0  0  0
  7  8  1  0  0  0  0
  7 20  1  0  0  0  0
  7 21  1  0  0  0  0
  8  9  1  0  0  0  0
  8 22  1  0  0  0  0
  8 23  1  0  0  0  0
  9 10  1  0  0  0  0
  9 24  1  0  0  0  0
  9 25  1  0  0  0  0
 10 15  1  0  0  0  0
 10 11  1  0  0  0  0
 11 26  1  0  0  0  0
 11 27  1  0  0  0  0
 11 29  1  0  0  0  0
 12 13  2  0  0  0  0
 12 28  1  0  0  0  0
M  CHG  1  11   1
M  END
> <s_m_source_file>
AV-unprocessed.smi

> <i_m_source_file_index>
2721

> <i_lp_mmshare_version>
43012

> <i_f3d_flags>
0

> <s_epik_input>
W0NIM11uMVtjSF1jKFtjSF1uMSlbQ0BIXTJPW0NIMl1bQ0gyXVtDSDJdW0NAQEhdMltOSDJd

> <s_epik_cmdline>
J2VwaWtfcHl0aG9uJywgJy1waCcsICc3LjAnLCAnLXRuJywgJzgnLCAnLW1hJywgJzIwMCcsICctbWV0YWxfYmluZGluZycsICctaW1hZScsICc8aW5maWxlLm1hZT4nLCAnLW9tYWUnLCAnPG91dGZpbGUubWFlPic=

> <r_lp_tautomer_probability>
1

> <r_epik_Ionization_Penalty>
0.0061467

> <r_epik_Ionization_Penalty_Charging>
0.00611941

> <r_epik_Ionization_Penalty_Neutral>
2.72888e-05

> <r_epik_State_Penalty>
0.00451057

> <r_epik_Charging_Adjusted_Penalty>
0.01063

> <i_epik_Tot_Q>
1

> <i_epik_Tot_abs_Q>
1

> <r_epik_Metal_State_Penalty>
-0

> <b_epik_Metal_Only>
0

> <s_lp_Force_Field>
OPLS_2005

> <r_lp_Energy>
11.0235

> <b_lp_Chiralities_Consistent>
1

> <s_lp_Variant>
AV-unprocessed.smi:2721-1

> <Gold.Version>
5.8.1

> <Gold.Id.Protein>
6NUR|6NUR_protein|mol2

> <Gold.PLP.Fitness>
40.4534

> <Gold.PLP.PLP>
-28.7426

> <Gold.PLP.part.hbond>
-2.6687

> <Gold.PLP.part.metal>
0.0000

> <Gold.PLP.part.buried>
-4.3156

> <Gold.PLP.part.nonpolar>
-23.2666

> <Gold.PLP.part.repulsive>
0.1514

> <Gold.PLP.ligand.clash>
0.1090

> <Gold.PLP.ligand.torsion>
0.0075

> <Gold.PLP.Chemscore.Hbond>
2.9440

> <Gold.PLP.Chemscore.CHOScore>
1.0000

> <Gold.PLP.Chemscore.Metal>
0.0000

> <Gold.Chemscore.Hbonds>
donor molecule, donor type, donor heavy atom, donor atom, acceptor molecule, acceptor atom, score
      L1  H    11    29       P1  8028  2.00
      P1  H  7989  7998       L1    13  0.75
      L1  C    12    28       P1  8028  1.00

> <Gold.PLP.Chemscore.Internal.Correction>
0.0029

> <Gold.Rescore>
     Score         DG    S(hbond)    S(metal)    S(lipo)     H(rot)  DE(clash)    DE(int)     intcor
     16.68     -17.73       1.78        0.00      75.86       1.00       0.03       1.03       ----

> <Gold.Chemscore.Fitness>
16.6778

> <Gold.Chemscore.DG>
-17.7348

> <Gold.Chemscore.ZeroCoef>
-5.4800

> <Gold.Chemscore.Hbond>
1.7780

> <Gold.Chemscore.Metal>
0.0000

> <Gold.Chemscore.Lipo>
75.8648

> <Gold.Chemscore.Internal_Hbond>
0.0000

> <Gold.Chemscore.DEClash>
0.0287

> <Gold.Chemscore.DEInternal>
1.0283

> <Gold.Chemscore.Rot>
1.0000

> <Gold.Chemscore.Internal.Correction>
   9.000000E+99

> <Gold.Chemscore.Hbonds>
donor molecule, donor type, donor heavy atom, donor atom, acceptor molecule, acceptor atom, score
      L1  H    11    29       P1  8028  0.40
      P1  H  7989  7998       L1    13  0.12

> <Gold.Chemscore.Hbond.Weighted>
-5.9386

> <Gold.Chemscore.Metal.Weighted>
-0.0000

> <Gold.Chemscore.Lipo.Weighted>
-8.8762

> <Gold.Chemscore.Internal_Hbond.Weighted>
0.0000

> <Gold.Chemscore.DEClash.Weighted>
0.0287

> <Gold.Chemscore.DEInternal.Weighted>
1.0283

> <Gold.Chemscore.Rot.Weighted>
2.5600

> <Gold.Chemscore.Internal.Correction.Weighted>
   9.000000E+99

> <Gold.Protein.RotatedTorsions>
[ 6907 6896 6895 6894 ] final  163.94 input  -60.11 | X-H torsion
[ 7974 7965 7964 7962 ] final   95.76 input  175.53 | X-H torsion
[ 8008 7997 7996 7995 ] final  136.21 input   59.86 | X-H torsion
[ 10167 10162 10161 10158 ] final  125.93 input  -65.29 | X-H torsion
[ 10718 10713 10712 10709 ] final   92.09 input   66.30 | X-H torsion
[ 10763 10752 10751 10750 ] final  -14.32 input  -60.55 | X-H torsion
[ 11005 11000 10999 10996 ] final    5.09 input  -57.11 | X-H torsion

> <Gold.Protein.ActiveResidues>
 VAL166  LYS551  ARG553  GLY616  TRP617  ASP618  TYR619  PRO620  LYS621  CYS622 
 ASP623  PHE694  ASN695  SER759  ASP760  ASP761  ALA762  ILE779  LEU786  VAL792 
 PHE793  MET794  SER795  GLU796  ALA797  LYS798  CYS799  TRP800  GLU811  SER814 

> <Gold.Protein.RotatedAtoms>
  151.9175  133.3577  159.3885 H   0  0  0  0  0  0  0  0  0  0  0  0  # atno 6907 bound_to 6896
  150.7044  134.4669  159.5416 H   0  0  0  0  0  0  0  0  0  0  0  0  # atno 6908 bound_to 6896
  152.2286  134.8344  160.0527 H   0  0  0  0  0  0  0  0  0  0  0  0  # atno 6909 bound_to 6896
  145.4479  139.2295  143.3056 H   0  0  0  0  0  0  0  0  0  0  0  0  # atno 7974 bound_to 7965
  156.3004  140.2451  156.3709 H   0  0  0  0  0  0  0  0  0  0  0  0  # atno 8008 bound_to 7997
  154.8790  140.0413  157.1790 H   0  0  0  0  0  0  0  0  0  0  0  0  # atno 8009 bound_to 7997
  154.8716  140.2936  155.5482 H   0  0  0  0  0  0  0  0  0  0  0  0  # atno 8010 bound_to 7997
  139.5658  144.6910  151.3914 H   0  0  0  0  0  0  0  0  0  0  0  0  # atno 10167 bound_to 10162
  157.6959  131.0431  150.3828 H   0  0  0  0  0  0  0  0  0  0  0  0  # atno 10718 bound_to 10713
  153.5265  135.7015  153.5705 H   0  0  0  0  0  0  0  0  0  0  0  0  # atno 10763 bound_to 10752
  153.3730  135.3939  155.1802 H   0  0  0  0  0  0  0  0  0  0  0  0  # atno 10764 bound_to 10752
  154.8689  135.3816  154.4759 H   0  0  0  0  0  0  0  0  0  0  0  0  # atno 10765 bound_to 10752
  140.5746  134.0070  155.8022 H   0  0  0  0  0  0  0  0  0  0  0  0  # atno 11005 bound_to 11000
  146.2520  140.5235  142.8889 LP  0  0  0  0  0  0  0  0  0  0  0  0  # atno 17320 bound_to 7965
  144.8080  140.6334  143.6434 LP  0  0  0  0  0  0  0  0  0  0  0  0  # atno 17321 bound_to 7965
  140.6941  143.7790  150.7300 LP  0  0  0  0  0  0  0  0  0  0  0  0  # atno 17342 bound_to 10162
  140.1281  143.4550  152.2271 LP  0  0  0  0  0  0  0  0  0  0  0  0  # atno 17343 bound_to 10162
  156.4240  130.3958  149.6805 LP  0  0  0  0  0  0  0  0  0  0  0  0  # atno 17370 bound_to 10713
  156.4046  130.7692  151.2701 LP  0  0  0  0  0  0  0  0  0  0  0  0  # atno 17371 bound_to 10713
  141.1035  133.9731  157.3038 LP  0  0  0  0  0  0  0  0  0  0  0  0  # atno 17394 bound_to 11000
  139.9345  135.0197  156.8512 LP  0  0  0  0  0  0  0  0  0  0  0  0  # atno 17395 bound_to 11000

$$$$
