AV-unprocessed.smi:1952|AV-procd|sdf|7890|dock10
  -GOLD-   2272010 43D 1   1.00000     0.00000
 Structure written by MMmdl.
 39 40  0  0  0  0  0  0  0  0  3 V2000
  153.6168  138.0009  157.6900 C   0  0  0  0  0  0  0  0  0  0  0  0
  152.7053  138.3616  156.5676 C   0  0  0  0  0  0  0  0  0  0  0  0
  151.8377  137.6340  155.8035 C   0  0  0  0  0  0  0  0  0  0  0  0
  151.2978  138.6027  154.9146 C   0  0  0  0  0  0  0  0  0  0  0  0
  150.3807  138.3748  153.9618 N   0  5  0  0  0  0  0  0  0  0  0  0
  149.2042  139.0395  153.9805 C   0  0  0  0  0  0  0  0  0  0  0  0
  148.8994  139.9616  154.7399 O   0  0  0  0  0  0  0  0  0  0  0  0
  148.3141  138.5834  153.0859 N   0  0  0  0  0  0  0  0  0  0  0  0
  146.9246  139.0189  152.9324 C   0  0  1  0  0  0  0  0  0  0  0  0
  146.8942  140.5288  152.6597 C   0  0  0  0  0  0  0  0  0  0  0  0
  146.2248  138.2260  151.8049 C   0  0  0  0  0  0  0  0  0  0  0  0
  146.2765  136.7583  152.0214 N   0  3  0  0  0  0  0  0  0  0  0  0
  145.8499  136.3416  153.3779 C   0  0  0  0  0  0  0  0  0  0  0  0
  146.0481  134.8265  153.5463 C   0  0  0  0  0  0  0  0  0  0  0  0
  145.3128  134.1377  152.5413 O   0  0  0  0  0  0  0  0  0  0  0  0
  145.7545  134.4746  151.2313 C   0  0  0  0  0  0  0  0  0  0  0  0
  145.5556  135.9806  150.9883 C   0  0  0  0  0  0  0  0  0  0  0  0
  151.7843  139.8138  155.1291 N   0  0  0  0  0  0  0  0  0  0  0  0
  152.6930  139.6662  156.1836 O   0  0  0  0  0  0  0  0  0  0  0  0
  153.4856  138.6829  158.5301 H   0  0  0  0  0  0  0  0  0  0  0  0
  154.6581  138.0502  157.3719 H   0  0  0  0  0  0  0  0  0  0  0  0
  153.4179  136.9888  158.0428 H   0  0  0  0  0  0  0  0  0  0  0  0
  151.6250  136.5775  155.8675 H   0  0  0  0  0  0  0  0  0  0  0  0
  148.6204  137.8343  152.4818 H   0  0  0  0  0  0  0  0  0  0  0  0
  146.3873  138.8563  153.8678 H   0  0  0  0  0  0  0  0  0  0  0  0
  145.8694  140.8896  152.5664 H   0  0  0  0  0  0  0  0  0  0  0  0
  147.4202  140.7778  151.7374 H   0  0  0  0  0  0  0  0  0  0  0  0
  147.3653  141.0836  153.4718 H   0  0  0  0  0  0  0  0  0  0  0  0
  145.1896  138.5489  151.6843 H   0  0  0  0  0  0  0  0  0  0  0  0
  146.7276  138.4626  150.8659 H   0  0  0  0  0  0  0  0  0  0  0  0
  146.4252  136.8715  154.1366 H   0  0  0  0  0  0  0  0  0  0  0  0
  144.8018  136.6025  153.5316 H   0  0  0  0  0  0  0  0  0  0  0  0
  147.1058  134.5633  153.4885 H   0  0  0  0  0  0  0  0  0  0  0  0
  145.6929  134.5077  154.5262 H   0  0  0  0  0  0  0  0  0  0  0  0
  146.8019  134.1954  151.1052 H   0  0  0  0  0  0  0  0  0  0  0  0
  145.1814  133.8976  150.5055 H   0  0  0  0  0  0  0  0  0  0  0  0
  144.4942  136.2321  151.0110 H   0  0  0  0  0  0  0  0  0  0  0  0
  145.9299  136.2423  149.9980 H   0  0  0  0  0  0  0  0  0  0  0  0
  147.2506  136.5024  151.9312 H   0  0  0  0  0  0  0  0  0  0  0  0
  1  2  1  0  0  0  0
  1 20  1  0  0  0  0
  1 21  1  0  0  0  0
  1 22  1  0  0  0  0
  2 19  1  0  0  0  0
  2  3  2  0  0  0  0
  3  4  1  0  0  0  0
  3 23  1  0  0  0  0
  4  5  1  0  0  0  0
  4 18  2  0  0  0  0
  5  6  1  0  0  0  0
  6  7  2  0  0  0  0
  6  8  1  0  0  0  0
  8  9  1  0  0  0  0
  8 24  1  0  0  0  0
  9 10  1  0  0  0  0
  9 11  1  0  0  0  0
  9 25  1  0  0  0  0
 10 26  1  0  0  0  0
 10 27  1  0  0  0  0
 10 28  1  0  0  0  0
 11 12  1  0  0  0  0
 11 29  1  0  0  0  0
 11 30  1  0  0  0  0
 12 17  1  0  0  0  0
 12 13  1  0  0  0  0
 12 39  1  0  0  0  0
 13 14  1  0  0  0  0
 13 31  1  0  0  0  0
 13 32  1  0  0  0  0
 14 15  1  0  0  0  0
 14 33  1  0  0  0  0
 14 34  1  0  0  0  0
 15 16  1  0  0  0  0
 16 17  1  0  0  0  0
 16 35  1  0  0  0  0
 16 36  1  0  0  0  0
 17 37  1  0  0  0  0
 17 38  1  0  0  0  0
 18 19  1  0  0  0  0
M  CHG  1   5  -1
M  CHG  1  12   1
M  END
> <s_m_source_file>
AV-unprocessed.smi

> <i_m_source_file_index>
1952

> <i_lp_mmshare_version>
43012

> <i_f3d_flags>
0

> <s_epik_input>
W0NIM11jMVtjSF1jKG5vMSlbTkhdQyg9TylbTkhdW0NASF0oW0NIM10pW0NIMl1OMltDSDJdW0NIMl1PW0NIMl1bQ0gyXTI=

> <s_epik_cmdline>
J2VwaWtfcHl0aG9uJywgJy1waCcsICc3LjAnLCAnLXRuJywgJzgnLCAnLW1hJywgJzIwMCcsICctbWV0YWxfYmluZGluZycsICctaW1hZScsICc8aW5maWxlLm1hZT4nLCAnLW9tYWUnLCAnPG91dGZpbGUubWFlPic=

> <r_epik_Ionization_Penalty>
6.62152

> <r_epik_Ionization_Penalty_Charging>
6.62142

> <r_epik_Ionization_Penalty_Neutral>
9.8734e-05

> <r_epik_State_Penalty>
6.82189

> <r_epik_Charging_Adjusted_Penalty>
13.4433

> <i_epik_Tot_Q>
0

> <i_epik_Tot_abs_Q>
2

> <r_epik_Metal_State_Penalty>
2.76365

> <b_epik_Metal_Only>
1

> <s_lp_Force_Field>
OPLS_2005

> <r_lp_Energy>
7.85101

> <b_lp_Chiralities_Consistent>
1

> <s_lp_Variant>
AV-unprocessed.smi:1952-8

> <Gold.Version>
5.8.1

> <Gold.Id.Protein>
6NUR|6NUR_protein|mol2

> <Gold.PLP.Fitness>
42.4253

> <Gold.PLP.PLP>
-28.5785

> <Gold.PLP.part.hbond>
-5.0000

> <Gold.PLP.part.metal>
0.0000

> <Gold.PLP.part.buried>
-1.8597

> <Gold.PLP.part.nonpolar>
-23.6029

> <Gold.PLP.part.repulsive>
0.5764

> <Gold.PLP.ligand.clash>
0.0000

> <Gold.PLP.ligand.torsion>
0.5930

> <Gold.PLP.Chemscore.Hbond>
5.0000

> <Gold.PLP.Chemscore.CHOScore>
0.0000

> <Gold.PLP.Chemscore.Metal>
0.0000

> <Gold.Chemscore.Hbonds>
donor molecule, donor type, donor heavy atom, donor atom, acceptor molecule, acceptor atom, score
      L1  H     8    24       P1  7948  1.00
      L1  H    12    39       P1  7948  2.00
      P1  H  7989  7998       L1    18  0.99
      P1  H  7997  8009       L1    19  1.00

> <Gold.PLP.Chemscore.Internal.Correction>
0.0328

> <Gold.Rescore>
     Score         DG    S(hbond)    S(metal)    S(lipo)     H(rot)  DE(clash)    DE(int)     intcor
     19.87     -20.79       3.78        0.00      57.49       1.58       0.09       0.82       ----

> <Gold.Chemscore.Fitness>
19.8737

> <Gold.Chemscore.DG>
-20.7865

> <Gold.Chemscore.ZeroCoef>
-5.4800

> <Gold.Chemscore.Hbond>
3.7797

> <Gold.Chemscore.Metal>
0.0000

> <Gold.Chemscore.Lipo>
57.4920

> <Gold.Chemscore.Internal_Hbond>
0.0000

> <Gold.Chemscore.DEClash>
0.0888

> <Gold.Chemscore.DEInternal>
0.8240

> <Gold.Chemscore.Rot>
1.5798

> <Gold.Chemscore.Internal.Correction>
   9.000000E+99

> <Gold.Chemscore.Hbonds>
donor molecule, donor type, donor heavy atom, donor atom, acceptor molecule, acceptor atom, score
      L1  H     8    24       P1  7948  1.00
      L1  H    12    39       P1  7948  1.00
      P1  H  7989  7998       L1    18  0.70
      P1  H  7997  8009       L1    19  0.50

> <Gold.Chemscore.Hbond.Weighted>
-12.6241

> <Gold.Chemscore.Metal.Weighted>
-0.0000

> <Gold.Chemscore.Lipo.Weighted>
-6.7266

> <Gold.Chemscore.Internal_Hbond.Weighted>
0.0000

> <Gold.Chemscore.DEClash.Weighted>
0.0888

> <Gold.Chemscore.DEInternal.Weighted>
0.8240

> <Gold.Chemscore.Rot.Weighted>
4.0442

> <Gold.Chemscore.Internal.Correction.Weighted>
   9.000000E+99

> <Gold.Protein.RotatedTorsions>
[ 6907 6896 6895 6894 ] final  -12.72 input  -60.11 | X-H torsion
[ 7974 7965 7964 7962 ] final  -66.20 input  175.53 | X-H torsion
[ 8008 7997 7996 7995 ] final -152.43 input   59.86 | X-H torsion
[ 10167 10162 10161 10158 ] final  141.65 input  -65.29 | X-H torsion
[ 10718 10713 10712 10709 ] final -118.47 input   66.30 | X-H torsion
[ 10763 10752 10751 10750 ] final  166.43 input  -60.55 | X-H torsion
[ 11005 11000 10999 10996 ] final  131.30 input  -57.11 | X-H torsion

> <Gold.Protein.ActiveResidues>
 VAL166  LYS551  ARG553  GLY616  TRP617  ASP618  TYR619  PRO620  LYS621  CYS622 
 ASP623  PHE694  ASN695  SER759  ASP760  ASP761  ALA762  ILE779  LEU786  VAL792 
 PHE793  MET794  SER795  GLU796  ALA797  LYS798  CYS799  TRP800  GLU811  SER814 

> <Gold.Protein.RotatedAtoms>
  151.3662  135.0913  159.9450 H   0  0  0  0  0  0  0  0  0  0  0  0  # atno 6907 bound_to 6896
  152.5148  133.9210  159.7544 H   0  0  0  0  0  0  0  0  0  0  0  0  # atno 6908 bound_to 6896
  150.9614  133.6387  159.2783 H   0  0  0  0  0  0  0  0  0  0  0  0  # atno 6909 bound_to 6896
  145.7447  140.8937  143.0511 H   0  0  0  0  0  0  0  0  0  0  0  0  # atno 7974 bound_to 7965
  155.6550  140.0716  157.2574 H   0  0  0  0  0  0  0  0  0  0  0  0  # atno 8008 bound_to 7997
  154.4154  140.1726  156.1766 H   0  0  0  0  0  0  0  0  0  0  0  0  # atno 8009 bound_to 7997
  155.9745  140.3359  155.6609 H   0  0  0  0  0  0  0  0  0  0  0  0  # atno 8010 bound_to 7997
  139.5015  144.6158  151.6167 H   0  0  0  0  0  0  0  0  0  0  0  0  # atno 10167 bound_to 10162
  156.1109  130.6248  150.9295 H   0  0  0  0  0  0  0  0  0  0  0  0  # atno 10718 bound_to 10713
  154.3389  135.2754  155.2433 H   0  0  0  0  0  0  0  0  0  0  0  0  # atno 10763 bound_to 10752
  154.4712  135.5882  153.6326 H   0  0  0  0  0  0  0  0  0  0  0  0  # atno 10764 bound_to 10752
  152.9859  135.6088  154.3588 H   0  0  0  0  0  0  0  0  0  0  0  0  # atno 10765 bound_to 10752
  139.9722  134.9574  156.9419 H   0  0  0  0  0  0  0  0  0  0  0  0  # atno 11005 bound_to 11000
  144.6863  139.9509  143.7478 LP  0  0  0  0  0  0  0  0  0  0  0  0  # atno 17320 bound_to 7965
  146.0414  139.3425  143.0695 LP  0  0  0  0  0  0  0  0  0  0  0  0  # atno 17321 bound_to 7965
  140.5845  143.9887  150.6288 LP  0  0  0  0  0  0  0  0  0  0  0  0  # atno 17342 bound_to 10162
  140.3048  143.3237  152.0937 LP  0  0  0  0  0  0  0  0  0  0  0  0  # atno 17343 bound_to 10162
  157.6290  131.0923  150.8479 LP  0  0  0  0  0  0  0  0  0  0  0  0  # atno 17370 bound_to 10713
  156.8590  130.5106  149.5305 LP  0  0  0  0  0  0  0  0  0  0  0  0  # atno 17371 bound_to 10713
  140.5269  134.0852  155.7306 LP  0  0  0  0  0  0  0  0  0  0  0  0  # atno 17394 bound_to 11000
  141.1401  133.9153  157.2345 LP  0  0  0  0  0  0  0  0  0  0  0  0  # atno 17395 bound_to 11000

$$$$
