AV-unprocessed.smi:246|AV-procd|sdf|1881|dock10
  -GOLD-   2262020533D 1   1.00000     0.00000
 Structure written by MMmdl.
 57 60  0  0  0  0  0  0  0  0  1 V2000
  145.2765  130.5283  151.5471 C   0  0  0  0  0  0  0  0  0  0  0  0
  145.5537  131.5474  150.4335 C   0  0  0  0  0  0  0  0  0  0  0  0
  144.9924  132.8177  150.7325 O   0  0  0  0  0  0  0  0  0  0  0  0
  145.2049  133.2512  152.0682 C   0  0  0  0  0  0  0  0  0  0  0  0
  144.5269  134.6109  152.2590 C   0  0  0  0  0  0  0  0  0  0  0  0
  145.1905  135.5742  151.4548 O   0  0  0  0  0  0  0  0  0  0  0  0
  145.3151  136.8445  152.0764 C   0  0  2  0  0  0  0  0  0  0  0  0
  146.0827  137.8150  151.1781 C   0  0  0  0  0  0  0  0  0  0  0  0
  146.6842  138.8308  152.1556 C   0  0  0  0  0  0  0  0  0  0  0  0
  146.7342  138.1526  153.4431 N   0  0  0  0  0  0  0  0  0  0  0  0
  147.6174  138.4978  154.4152 C   0  0  0  0  0  0  0  0  0  0  0  0
  147.9228  137.5793  155.3700 N   0  0  0  0  0  0  0  0  0  0  0  0
  148.7822  137.8757  156.3486 C   0  0  0  0  0  0  0  0  0  0  0  0
  149.4350  139.0177  156.5665 N   0  0  0  0  0  0  0  0  0  0  0  0
  149.1267  139.9510  155.6214 C   0  0  0  0  0  0  0  0  0  0  0  0
  148.2392  139.7776  154.5198 C   0  0  0  0  0  0  0  0  0  0  0  0
  148.1794  140.9552  153.7817 N   0  0  0  0  0  0  0  0  0  0  0  0
  148.9856  141.7703  154.4041 C   0  0  0  0  0  0  0  0  0  0  0  0
  149.5805  141.2557  155.5331 N   0  0  0  0  0  0  0  0  0  0  0  0
  150.5127  141.9410  156.4122 C   0  0  0  0  0  0  0  0  0  0  0  0
  149.9893  142.1195  157.8560 C   0  0  2  0  0  0  0  0  0  0  0  0
  148.9694  143.0940  157.7768 O   0  0  0  0  0  0  0  0  0  0  0  0
  151.0255  142.6354  158.8809 C   0  0  2  0  0  0  0  0  0  0  0  0
  151.6822  143.9816  158.5611 C   0  0  0  0  0  0  0  0  0  0  0  0
  153.0270  143.9151  159.2665 C   0  0  0  0  0  0  0  0  0  0  0  0
  153.2026  142.4298  159.5826 C   0  0  0  0  0  0  0  0  0  0  0  0
  152.1608  141.7814  158.8678 O   0  0  0  0  0  0  0  0  0  0  0  0
  146.1776  136.8118  153.3412 C   0  0  0  0  0  0  0  0  0  0  0  0
  144.3349  137.2709  152.2986 H   0  0  0  0  0  0  0  0  0  0  0  0
  145.6279  129.5378  151.2583 H   0  0  0  0  0  0  0  0  0  0  0  0
  144.2081  130.4551  151.7513 H   0  0  0  0  0  0  0  0  0  0  0  0
  145.7791  130.7944  152.4765 H   0  0  0  0  0  0  0  0  0  0  0  0
  146.6226  131.6282  150.2304 H   0  0  0  0  0  0  0  0  0  0  0  0
  145.0901  131.1942  149.5123 H   0  0  0  0  0  0  0  0  0  0  0  0
  144.8212  132.5343  152.7943 H   0  0  0  0  0  0  0  0  0  0  0  0
  146.2768  133.3537  152.2433 H   0  0  0  0  0  0  0  0  0  0  0  0
  143.4839  134.5452  151.9462 H   0  0  0  0  0  0  0  0  0  0  0  0
  144.5357  134.8924  153.3129 H   0  0  0  0  0  0  0  0  0  0  0  0
  146.8888  137.2843  150.6696 H   0  0  0  0  0  0  0  0  0  0  0  0
  145.4550  138.2779  150.4161 H   0  0  0  0  0  0  0  0  0  0  0  0
  147.6707  139.1550  151.8221 H   0  0  0  0  0  0  0  0  0  0  0  0
  146.0431  139.7085  152.2434 H   0  0  0  0  0  0  0  0  0  0  0  0
  148.9711  137.0854  157.0601 H   0  0  0  0  0  0  0  0  0  0  0  0
  149.1610  142.7792  154.0598 H   0  0  0  0  0  0  0  0  0  0  0  0
  151.4642  141.4077  156.4178 H   0  0  0  0  0  0  0  0  0  0  0  0
  150.7103  142.9162  155.9646 H   0  0  0  0  0  0  0  0  0  0  0  0
  149.5433  141.1892  158.2095 H   0  0  0  0  0  0  0  0  0  0  0  0
  148.9045  143.3825  156.8790 H   0  0  0  0  0  0  0  0  0  0  0  0
  150.5989  142.6646  159.8859 H   0  0  0  0  0  0  0  0  0  0  0  0
  151.8442  144.0782  157.4868 H   0  0  0  0  0  0  0  0  0  0  0  0
  151.0859  144.8308  158.8935 H   0  0  0  0  0  0  0  0  0  0  0  0
  153.8234  144.2897  158.6223 H   0  0  0  0  0  0  0  0  0  0  0  0
  153.0282  144.5056  160.1833 H   0  0  0  0  0  0  0  0  0  0  0  0
  154.1800  142.0494  159.2845 H   0  0  0  0  0  0  0  0  0  0  0  0
  153.0753  142.2459  160.6504 H   0  0  0  0  0  0  0  0  0  0  0  0
  145.5931  136.5477  154.2233 H   0  0  0  0  0  0  0  0  0  0  0  0
  146.9899  136.0914  153.2345 H   0  0  0  0  0  0  0  0  0  0  0  0
  1  2  1  0  0  0  0
  1 30  1  0  0  0  0
  1 31  1  0  0  0  0
  1 32  1  0  0  0  0
  2  3  1  0  0  0  0
  2 33  1  0  0  0  0
  2 34  1  0  0  0  0
  3  4  1  0  0  0  0
  4  5  1  0  0  0  0
  4 35  1  0  0  0  0
  4 36  1  0  0  0  0
  5  6  1  0  0  0  0
  5 37  1  0  0  0  0
  5 38  1  0  0  0  0
  6  7  1  0  0  0  0
  7 29  1  0  0  0  0
  7 28  1  0  0  0  0
  7  8  1  0  0  0  0
  8  9  1  0  0  0  0
  8 39  1  0  0  0  0
  8 40  1  0  0  0  0
  9 10  1  0  0  0  0
  9 41  1  0  0  0  0
  9 42  1  0  0  0  0
 10 11  1  0  0  0  0
 10 28  1  0  0  0  0
 11 16  1  0  0  0  0
 11 12  2  0  0  0  0
 12 13  1  0  0  0  0
 13 14  2  0  0  0  0
 13 43  1  0  0  0  0
 14 15  1  0  0  0  0
 15 19  1  0  0  0  0
 15 16  2  0  0  0  0
 16 17  1  0  0  0  0
 17 18  2  0  0  0  0
 18 19  1  0  0  0  0
 18 44  1  0  0  0  0
 19 20  1  0  0  0  0
 20 21  1  0  0  0  0
 20 45  1  0  0  0  0
 20 46  1  0  0  0  0
 21 22  1  0  0  0  0
 21 23  1  0  0  0  0
 21 47  1  0  0  0  0
 22 48  1  0  0  0  0
 23 27  1  0  0  0  0
 23 24  1  0  0  0  0
 23 49  1  0  0  0  0
 24 25  1  0  0  0  0
 24 50  1  0  0  0  0
 24 51  1  0  0  0  0
 25 26  1  0  0  0  0
 25 52  1  0  0  0  0
 25 53  1  0  0  0  0
 26 27  1  0  0  0  0
 26 54  1  0  0  0  0
 26 55  1  0  0  0  0
 28 56  1  0  0  0  0
 28 57  1  0  0  0  0
M  END
> <s_m_source_file>
AV-unprocessed.smi

> <i_m_source_file_index>
246

> <i_lp_mmshare_version>
43012

> <i_f3d_flags>
0

> <s_epik_input>
W0NIM11bQ0gyXU9bQ0gyXVtDSDJdT1tDQEhdMVtDSDJdW0NIMl1OKFtDSDJdMSljKG5bY0hdbjIpYyhjMjMpbltjSF1uM1tDSDJdW0NASF0oW09IXSlbQ0BASF00W0NIMl1bQ0gyXVtDSDJdTzQ=

> <s_epik_cmdline>
J2VwaWtfcHl0aG9uJywgJy1waCcsICc3LjAnLCAnLXRuJywgJzgnLCAnLW1hJywgJzIwMCcsICctbWV0YWxfYmluZGluZycsICctaW1hZScsICc8aW5maWxlLm1hZT4nLCAnLW9tYWUnLCAnPG91dGZpbGUubWFlPic=

> <r_lp_tautomer_probability>
1

> <r_epik_Ionization_Penalty>
0.0024631

> <r_epik_Ionization_Penalty_Charging>
0

> <r_epik_Ionization_Penalty_Neutral>
0.0024631

> <r_epik_State_Penalty>
0.00162428

> <r_epik_Charging_Adjusted_Penalty>
0.00162428

> <i_epik_Tot_Q>
0

> <i_epik_Tot_abs_Q>
0

> <r_epik_Metal_State_Penalty>
-0

> <b_epik_Metal_Only>
0

> <s_lp_Force_Field>
OPLS_2005

> <r_lp_Energy>
52.7106

> <b_lp_Chiralities_Consistent>
1

> <s_lp_Variant>
AV-unprocessed.smi:246-2

> <Gold.Version>
5.8.1

> <Gold.Id.Protein>
6NUR|6NUR_protein|mol2

> <Gold.PLP.Fitness>
47.8892

> <Gold.PLP.PLP>
-43.1452

> <Gold.PLP.part.hbond>
-1.5474

> <Gold.PLP.part.metal>
0.0000

> <Gold.PLP.part.buried>
0.8774

> <Gold.PLP.part.nonpolar>
-42.9699

> <Gold.PLP.part.repulsive>
0.9811

> <Gold.PLP.ligand.clash>
0.0000

> <Gold.PLP.ligand.torsion>
0.5481

> <Gold.PLP.Chemscore.Hbond>
0.9920

> <Gold.PLP.Chemscore.CHOScore>
0.8229

> <Gold.PLP.Chemscore.Metal>
0.0000

> <Gold.Chemscore.Hbonds>
donor molecule, donor type, donor heavy atom, donor atom, acceptor molecule, acceptor atom, score
      L1  H    22    48       P1  8028  0.98
      L1  C    18    44       P1  8028  0.82

> <Gold.PLP.Chemscore.Internal.Correction>
0.3954

> <Gold.Rescore>
     Score         DG    S(hbond)    S(metal)    S(lipo)     H(rot)  DE(clash)    DE(int)     intcor
     11.34     -14.12       0.75        0.00     120.37       3.10       1.59       1.19       ----

> <Gold.Chemscore.Fitness>
11.3428

> <Gold.Chemscore.DG>
-14.1197

> <Gold.Chemscore.ZeroCoef>
-5.4800

> <Gold.Chemscore.Hbond>
0.7482

> <Gold.Chemscore.Metal>
0.0000

> <Gold.Chemscore.Lipo>
120.3707

> <Gold.Chemscore.Internal_Hbond>
0.0000

> <Gold.Chemscore.DEClash>
1.5863

> <Gold.Chemscore.DEInternal>
1.1905

> <Gold.Chemscore.Rot>
3.1026

> <Gold.Chemscore.Internal.Correction>
   9.000000E+99

> <Gold.Chemscore.Hbonds>
donor molecule, donor type, donor heavy atom, donor atom, acceptor molecule, acceptor atom, score
      L1  H    22    48       P1  8028  0.69

> <Gold.Chemscore.Hbond.Weighted>
-2.4989

> <Gold.Chemscore.Metal.Weighted>
-0.0000

> <Gold.Chemscore.Lipo.Weighted>
-14.0834

> <Gold.Chemscore.Internal_Hbond.Weighted>
0.0000

> <Gold.Chemscore.DEClash.Weighted>
1.5863

> <Gold.Chemscore.DEInternal.Weighted>
1.1905

> <Gold.Chemscore.Rot.Weighted>
7.9426

> <Gold.Chemscore.Internal.Correction.Weighted>
   9.000000E+99

> <Gold.Protein.RotatedTorsions>
[ 6907 6896 6895 6894 ] final   -6.88 input  -60.11 | X-H torsion
[ 7974 7965 7964 7962 ] final -169.77 input  175.53 | X-H torsion
[ 8008 7997 7996 7995 ] final  162.85 input   59.86 | X-H torsion
[ 10167 10162 10161 10158 ] final -138.64 input  -65.29 | X-H torsion
[ 10718 10713 10712 10709 ] final  -13.88 input   66.30 | X-H torsion
[ 10763 10752 10751 10750 ] final  161.96 input  -60.55 | X-H torsion
[ 11005 11000 10999 10996 ] final  -28.36 input  -57.11 | X-H torsion

> <Gold.Protein.ActiveResidues>
 VAL166  LYS551  ARG553  GLY616  TRP617  ASP618  TYR619  PRO620  LYS621  CYS622 
 ASP623  PHE694  ASN695  SER759  ASP760  ASP761  ALA762  ILE779  LEU786  VAL792 
 PHE793  MET794  SER795  GLU796  ALA797  LYS798  CYS799  TRP800  GLU811  SER814 

> <Gold.Protein.RotatedAtoms>
  151.4585  135.1036  159.9717 H   0  0  0  0  0  0  0  0  0  0  0  0  # atno 6907 bound_to 6896
  152.4861  133.8374  159.7145 H   0  0  0  0  0  0  0  0  0  0  0  0  # atno 6908 bound_to 6896
  150.8973  133.7104  159.2915 H   0  0  0  0  0  0  0  0  0  0  0  0  # atno 6909 bound_to 6896
  144.7180  140.2172  143.6320 H   0  0  0  0  0  0  0  0  0  0  0  0  # atno 7974 bound_to 7965
  156.2000  140.1739  156.7918 H   0  0  0  0  0  0  0  0  0  0  0  0  # atno 8008 bound_to 7997
  154.5580  140.0705  156.8805 H   0  0  0  0  0  0  0  0  0  0  0  0  # atno 8009 bound_to 7997
  155.2902  140.3355  155.4255 H   0  0  0  0  0  0  0  0  0  0  0  0  # atno 8010 bound_to 7997
  139.8459  143.7262  152.2661 H   0  0  0  0  0  0  0  0  0  0  0  0  # atno 10167 bound_to 10162
  156.6239  130.4883  149.6154 H   0  0  0  0  0  0  0  0  0  0  0  0  # atno 10718 bound_to 10713
  154.2710  135.2766  155.2738 H   0  0  0  0  0  0  0  0  0  0  0  0  # atno 10763 bound_to 10752
  154.5301  135.5732  153.6755 H   0  0  0  0  0  0  0  0  0  0  0  0  # atno 10764 bound_to 10752
  152.9945  135.6225  154.2865 H   0  0  0  0  0  0  0  0  0  0  0  0  # atno 10765 bound_to 10752
  140.9201  133.7404  156.0790 H   0  0  0  0  0  0  0  0  0  0  0  0  # atno 11005 bound_to 11000
  145.8535  139.2187  143.1758 LP  0  0  0  0  0  0  0  0  0  0  0  0  # atno 17320 bound_to 7965
  146.0239  140.8322  142.9909 LP  0  0  0  0  0  0  0  0  0  0  0  0  # atno 17321 bound_to 7965
  139.7513  144.7533  151.0502 LP  0  0  0  0  0  0  0  0  0  0  0  0  # atno 17342 bound_to 10162
  140.7793  143.4856  150.9960 LP  0  0  0  0  0  0  0  0  0  0  0  0  # atno 17343 bound_to 10162
  156.2289  130.6782  151.1444 LP  0  0  0  0  0  0  0  0  0  0  0  0  # atno 17370 bound_to 10713
  157.7220  131.0675  150.6097 LP  0  0  0  0  0  0  0  0  0  0  0  0  # atno 17371 bound_to 10713
  140.7998  134.3521  157.5442 LP  0  0  0  0  0  0  0  0  0  0  0  0  # atno 17394 bound_to 11000
  139.8774  134.9191  156.3218 LP  0  0  0  0  0  0  0  0  0  0  0  0  # atno 17395 bound_to 11000

$$$$
