AV-unprocessed.smi:964|AV-procd|sdf|4279|dock2
  -GOLD-   22720 2183D 1   1.00000     0.00000
 Structure written by MMmdl.
 20 20  0  0  0  0  0  0  0  0  2 V2000
  151.3725  137.9401  154.3760 C   0  0  0  0  0  0  0  0  0  0  0  0
  150.2714  138.9222  154.1593 C   0  0  0  0  0  0  0  0  0  0  0  0
  149.1526  138.5956  153.4968 N   0  0  0  0  0  0  0  0  0  0  0  0
  148.4421  139.7328  153.5328 C   0  0  0  0  0  0  0  0  0  0  0  0
  147.0943  139.8519  152.9000 C   0  0  0  0  0  0  0  0  0  0  0  0
  146.6961  138.5887  152.1244 C   0  0  0  0  0  0  0  0  0  0  0  0
  145.2327  138.4490  152.0403 N   0  3  0  0  0  0  0  0  0  0  0  0
  149.0710  140.7244  154.1704 N   0  0  0  0  0  0  0  0  0  0  0  0
  150.2787  140.1889  154.5852 N   0  0  0  0  0  0  0  0  0  0  0  0
  148.9070  137.7092  153.0802 H   0  0  0  0  0  0  0  0  0  0  0  0
  152.1491  138.3711  155.0086 H   0  0  0  0  0  0  0  0  0  0  0  0
  151.8169  137.6587  153.4211 H   0  0  0  0  0  0  0  0  0  0  0  0
  150.9860  137.0444  154.8627 H   0  0  0  0  0  0  0  0  0  0  0  0
  147.1045  140.7141  152.2317 H   0  0  0  0  0  0  0  0  0  0  0  0
  146.3566  140.0669  153.6746 H   0  0  0  0  0  0  0  0  0  0  0  0
  147.1005  138.6219  151.1120 H   0  0  0  0  0  0  0  0  0  0  0  0
  147.1076  137.7015  152.6067 H   0  0  0  0  0  0  0  0  0  0  0  0
  144.7929  139.2481  152.4747 H   0  0  0  0  0  0  0  0  0  0  0  0
  144.9463  137.6077  152.5205 H   0  0  0  0  0  0  0  0  0  0  0  0
  144.9512  138.3958  151.0718 H   0  0  0  0  0  0  0  0  0  0  0  0
  1 11  1  0  0  0  0
  1 12  1  0  0  0  0
  1 13  1  0  0  0  0
  1  2  1  0  0  0  0
  2  3  1  0  0  0  0
  2  9  2  0  0  0  0
  3 10  1  0  0  0  0
  3  4  1  0  0  0  0
  4  8  2  0  0  0  0
  4  5  1  0  0  0  0
  5  6  1  0  0  0  0
  5 14  1  0  0  0  0
  5 15  1  0  0  0  0
  6  7  1  0  0  0  0
  6 16  1  0  0  0  0
  6 17  1  0  0  0  0
  7 18  1  0  0  0  0
  7 19  1  0  0  0  0
  7 20  1  0  0  0  0
  8  9  1  0  0  0  0
M  CHG  1   7   1
M  END
> <s_m_source_file>
AV-unprocessed.smi

> <i_m_source_file_index>
964

> <i_lp_mmshare_version>
43012

> <i_f3d_flags>
0

> <s_epik_input>
W0NIM11jMW5jKG5bbkhdMSlbQ0gyXVtDSDJdW05IMl0=

> <s_epik_cmdline>
J2VwaWtfcHl0aG9uJywgJy1waCcsICc3LjAnLCAnLXRuJywgJzgnLCAnLW1hJywgJzIwMCcsICctbWV0YWxfYmluZGluZycsICctaW1hZScsICc8aW5maWxlLm1hZT4nLCAnLW9tYWUnLCAnPG91dGZpbGUubWFlPic=

> <r_lp_tautomer_probability>
0.0517155

> <r_epik_Ionization_Penalty>
0.0139864

> <r_epik_Ionization_Penalty_Charging>
0.00465044

> <r_epik_Ionization_Penalty_Neutral>
0.00933595

> <r_epik_State_Penalty>
2.23303

> <r_epik_Charging_Adjusted_Penalty>
2.23768

> <i_epik_Tot_Q>
1

> <i_epik_Tot_abs_Q>
1

> <r_epik_Metal_State_Penalty>
2.43351

> <b_epik_Metal_Only>
0

> <s_lp_Force_Field>
OPLS_2005

> <r_lp_Energy>
2.69796

> <b_lp_Chiralities_Consistent>
1

> <s_lp_Variant>
AV-unprocessed.smi:964-3

> <Gold.Version>
5.8.1

> <Gold.Id.Protein>
6NUR|6NUR_protein|mol2

> <Gold.PLP.Fitness>
33.5400

> <Gold.PLP.PLP>
-18.8935

> <Gold.PLP.part.hbond>
-5.0000

> <Gold.PLP.part.metal>
0.0000

> <Gold.PLP.part.buried>
1.4997

> <Gold.PLP.part.nonpolar>
-15.8432

> <Gold.PLP.part.repulsive>
0.3366

> <Gold.PLP.ligand.clash>
0.0000

> <Gold.PLP.ligand.torsion>
0.1770

> <Gold.PLP.Chemscore.Hbond>
5.0000

> <Gold.PLP.Chemscore.CHOScore>
0.0000

> <Gold.PLP.Chemscore.Metal>
0.0000

> <Gold.Chemscore.Hbonds>
donor molecule, donor type, donor heavy atom, donor atom, acceptor molecule, acceptor atom, score
      L1  H     3    10       P1  7948  1.00
      L1  H     7    18       P1 10175  2.00
      L1  H     7    20       P1 10171  1.00
      P1  H  7989  7998       L1     9  1.00

> <Gold.PLP.Chemscore.Internal.Correction>
0.0005

> <Gold.Rescore>
     Score         DG    S(hbond)    S(metal)    S(lipo)     H(rot)  DE(clash)    DE(int)     intcor
     14.10     -15.64       3.33        0.00      24.85       1.51       1.42       0.12       ----

> <Gold.Chemscore.Fitness>
14.1013

> <Gold.Chemscore.DG>
-15.6417

> <Gold.Chemscore.ZeroCoef>
-5.4800

> <Gold.Chemscore.Hbond>
3.3279

> <Gold.Chemscore.Metal>
0.0000

> <Gold.Chemscore.Lipo>
24.8505

> <Gold.Chemscore.Internal_Hbond>
0.0000

> <Gold.Chemscore.DEClash>
1.4187

> <Gold.Chemscore.DEInternal>
0.1217

> <Gold.Chemscore.Rot>
1.5082

> <Gold.Chemscore.Internal.Correction>
   9.000000E+99

> <Gold.Chemscore.Hbonds>
donor molecule, donor type, donor heavy atom, donor atom, acceptor molecule, acceptor atom, score
      L1  H     3    10       P1  7948  0.99
      L1  H     7    18       P1 10175  0.94
      L1  H     7    20       P1 10171  0.97
      P1  H  7989  7998       L1     9  0.16

> <Gold.Chemscore.Hbond.Weighted>
-11.1153

> <Gold.Chemscore.Metal.Weighted>
-0.0000

> <Gold.Chemscore.Lipo.Weighted>
-2.9075

> <Gold.Chemscore.Internal_Hbond.Weighted>
0.0000

> <Gold.Chemscore.DEClash.Weighted>
1.4187

> <Gold.Chemscore.DEInternal.Weighted>
0.1217

> <Gold.Chemscore.Rot.Weighted>
3.8611

> <Gold.Chemscore.Internal.Correction.Weighted>
   9.000000E+99

> <Gold.Protein.RotatedTorsions>
[ 6907 6896 6895 6894 ] final -138.01 input  -60.11 | X-H torsion
[ 7974 7965 7964 7962 ] final   25.87 input  175.53 | X-H torsion
[ 8008 7997 7996 7995 ] final   60.22 input   59.86 | X-H torsion
[ 10167 10162 10161 10158 ] final   37.57 input  -65.29 | X-H torsion
[ 10718 10713 10712 10709 ] final  116.24 input   66.30 | X-H torsion
[ 10763 10752 10751 10750 ] final  -87.11 input  -60.55 | X-H torsion
[ 11005 11000 10999 10996 ] final  -38.08 input  -57.11 | X-H torsion

> <Gold.Protein.ActiveResidues>
 VAL166  LYS551  ARG553  GLY616  TRP617  ASP618  TYR619  PRO620  LYS621  CYS622 
 ASP623  PHE694  ASN695  SER759  ASP760  ASP761  ALA762  ILE779  LEU786  VAL792 
 PHE793  MET794  SER795  GLU796  ALA797  LYS798  CYS799  TRP800  GLU811  SER814 

> <Gold.Protein.RotatedAtoms>
  151.0297  133.5802  159.2661 H   0  0  0  0  0  0  0  0  0  0  0  0  # atno 6907 bound_to 6896
  151.2888  135.0735  159.9206 H   0  0  0  0  0  0  0  0  0  0  0  0  # atno 6908 bound_to 6896
  152.5342  133.9999  159.7944 H   0  0  0  0  0  0  0  0  0  0  0  0  # atno 6909 bound_to 6896
  146.1866  139.7406  142.8862 H   0  0  0  0  0  0  0  0  0  0  0  0  # atno 7974 bound_to 7965
  155.5789  140.3491  155.4535 H   0  0  0  0  0  0  0  0  0  0  0  0  # atno 8008 bound_to 7997
  156.0388  140.1291  157.0203 H   0  0  0  0  0  0  0  0  0  0  0  0  # atno 8009 bound_to 7997
  154.4383  140.1028  156.6193 H   0  0  0  0  0  0  0  0  0  0  0  0  # atno 8010 bound_to 7997
  140.4020  144.1711  150.6134 H   0  0  0  0  0  0  0  0  0  0  0  0  # atno 10167 bound_to 10162
  157.6172  131.1023  150.7445 H   0  0  0  0  0  0  0  0  0  0  0  0  # atno 10718 bound_to 10713
  154.6299  135.5425  153.7669 H   0  0  0  0  0  0  0  0  0  0  0  0  # atno 10763 bound_to 10752
  153.0279  135.6433  154.1316 H   0  0  0  0  0  0  0  0  0  0  0  0  # atno 10764 bound_to 10752
  154.1246  135.2918  155.3180 H   0  0  0  0  0  0  0  0  0  0  0  0  # atno 10765 bound_to 10752
  141.0001  133.6960  156.2006 H   0  0  0  0  0  0  0  0  0  0  0  0  # atno 11005 bound_to 11000
  145.3919  141.0373  143.3119 LP  0  0  0  0  0  0  0  0  0  0  0  0  # atno 17320 bound_to 7965
  144.8409  139.5473  143.6900 LP  0  0  0  0  0  0  0  0  0  0  0  0  # atno 17321 bound_to 7965
  140.4730  143.2406  151.9062 LP  0  0  0  0  0  0  0  0  0  0  0  0  # atno 17342 bound_to 10162
  139.4784  144.5350  151.8612 LP  0  0  0  0  0  0  0  0  0  0  0  0  # atno 17343 bound_to 10162
  156.7809  130.4859  149.5401 LP  0  0  0  0  0  0  0  0  0  0  0  0  # atno 17370 bound_to 10713
  156.1300  130.6171  151.0320 LP  0  0  0  0  0  0  0  0  0  0  0  0  # atno 17371 bound_to 10713
  140.6903  134.4673  157.5588 LP  0  0  0  0  0  0  0  0  0  0  0  0  # atno 17394 bound_to 11000
  139.9034  134.8504  156.1802 LP  0  0  0  0  0  0  0  0  0  0  0  0  # atno 17395 bound_to 11000

$$$$
