AV-unprocessed.smi:2239|AV-procd|sdf|9056|dock3
  -GOLD-   2272012263D 1   1.00000     0.00000
 Structure written by MMmdl.
 33 34  0  0  0  0  0  0  0  0  1 V2000
  153.6022  140.9285  159.9151 C   0  0  0  0  0  0  0  0  0  0  0  0
  152.8623  142.1576  159.4304 C   0  0  0  0  0  0  0  0  0  0  0  0
  152.9904  143.3917  160.0972 C   0  0  0  0  0  0  0  0  0  0  0  0
  152.2723  144.4925  159.5970 C   0  0  0  0  0  0  0  0  0  0  0  0
  151.4615  144.3155  158.4591 C   0  0  0  0  0  0  0  0  0  0  0  0
  151.3884  143.0430  157.8489 C   0  0  0  0  0  0  0  0  0  0  0  0
  150.5415  142.9673  156.7112 N   0  0  0  0  0  0  0  0  0  0  0  0
  150.1154  141.8676  156.0652 C   0  0  0  0  0  0  0  0  0  0  0  0
  150.4192  140.7092  156.3522 O   0  0  0  0  0  0  0  0  0  0  0  0
  149.3001  142.1864  155.0494 N   0  0  0  0  0  0  0  0  0  0  0  0
  148.6548  141.2257  154.1599 C   0  0  0  0  0  0  0  0  0  0  0  0
  147.1181  141.3005  154.2231 C   0  0  0  0  0  0  0  0  0  0  0  0
  146.5947  142.6882  154.5470 C   0  0  0  0  0  0  0  0  0  0  0  0
  145.1122  142.9755  154.6086 C   0  0  0  0  0  0  0  0  0  0  0  0
  145.9446  143.5341  153.4782 C   0  0  0  0  0  0  0  0  0  0  0  0
  152.0848  141.9875  158.3395 N   0  0  0  0  0  0  0  0  0  0  0  0
  154.3219  141.1822  160.6939 H   0  0  0  0  0  0  0  0  0  0  0  0
  154.1433  140.4595  159.0927 H   0  0  0  0  0  0  0  0  0  0  0  0
  152.8991  140.2020  160.3232 H   0  0  0  0  0  0  0  0  0  0  0  0
  153.6201  143.4947  160.9687 H   0  0  0  0  0  0  0  0  0  0  0  0
  152.3410  145.4572  160.0776 H   0  0  0  0  0  0  0  0  0  0  0  0
  150.9035  145.1512  158.0624 H   0  0  0  0  0  0  0  0  0  0  0  0
  150.2164  143.8528  156.3527 H   0  0  0  0  0  0  0  0  0  0  0  0
  149.1048  143.1626  154.8827 H   0  0  0  0  0  0  0  0  0  0  0  0
  148.9927  141.4242  153.1426 H   0  0  0  0  0  0  0  0  0  0  0  0
  148.9905  140.2161  154.4022 H   0  0  0  0  0  0  0  0  0  0  0  0
  146.7039  140.9975  153.2611 H   0  0  0  0  0  0  0  0  0  0  0  0
  146.7359  140.5898  154.9569 H   0  0  0  0  0  0  0  0  0  0  0  0
  147.2133  143.2295  155.2603 H   0  0  0  0  0  0  0  0  0  0  0  0
  144.4266  142.1639  154.3724 H   0  0  0  0  0  0  0  0  0  0  0  0
  144.7675  143.6702  155.3716 H   0  0  0  0  0  0  0  0  0  0  0  0
  146.1531  144.6021  153.4868 H   0  0  0  0  0  0  0  0  0  0  0  0
  145.8088  143.0936  152.4924 H   0  0  0  0  0  0  0  0  0  0  0  0
  1  2  1  0  0  0  0
  1 17  1  0  0  0  0
  1 18  1  0  0  0  0
  1 19  1  0  0  0  0
  2 16  1  0  0  0  0
  2  3  2  0  0  0  0
  3  4  1  0  0  0  0
  3 20  1  0  0  0  0
  4  5  2  0  0  0  0
  4 21  1  0  0  0  0
  5  6  1  0  0  0  0
  5 22  1  0  0  0  0
  6  7  1  0  0  0  0
  6 16  2  0  0  0  0
  7  8  1  0  0  0  0
  7 23  1  0  0  0  0
  8  9  2  0  0  0  0
  8 10  1  0  0  0  0
 10 11  1  0  0  0  0
 10 24  1  0  0  0  0
 11 12  1  0  0  0  0
 11 25  1  0  0  0  0
 11 26  1  0  0  0  0
 12 13  1  0  0  0  0
 12 27  1  0  0  0  0
 12 28  1  0  0  0  0
 13 15  1  0  0  0  0
 13 14  1  0  0  0  0
 13 29  1  0  0  0  0
 14 15  1  0  0  0  0
 14 30  1  0  0  0  0
 14 31  1  0  0  0  0
 15 32  1  0  0  0  0
 15 33  1  0  0  0  0
M  END
> <s_m_source_file>
AV-unprocessed.smi

> <i_m_source_file_index>
2239

> <i_lp_mmshare_version>
43012

> <i_f3d_flags>
0

> <s_epik_input>
W0NIM11jMVtjSF1bY0hdW2NIXWMobjEpW05IXUMoPU8pW05IXVtDSDJdW0NIMl1bQ0hdMltDSDJdW0NIMl0y

> <s_epik_cmdline>
J2VwaWtfcHl0aG9uJywgJy1waCcsICc3LjAnLCAnLXRuJywgJzgnLCAnLW1hJywgJzIwMCcsICctbWV0YWxfYmluZGluZycsICctaW1hZScsICc8aW5maWxlLm1hZT4nLCAnLW9tYWUnLCAnPG91dGZpbGUubWFlPic=

> <r_lp_tautomer_probability>
1

> <r_epik_Ionization_Penalty>
8.79162e-05

> <r_epik_Ionization_Penalty_Charging>
0

> <r_epik_Ionization_Penalty_Neutral>
8.79162e-05

> <r_epik_State_Penalty>
-0

> <r_epik_Charging_Adjusted_Penalty>
0

> <i_epik_Tot_Q>
0

> <i_epik_Tot_abs_Q>
0

> <r_epik_Metal_State_Penalty>
-0

> <b_epik_Metal_Only>
0

> <s_lp_Force_Field>
OPLS_2005

> <r_lp_Energy>
14.6393

> <b_lp_Chiralities_Consistent>
1

> <s_lp_Variant>
AV-unprocessed.smi:2239-1

> <Gold.Version>
5.8.1

> <Gold.Id.Protein>
6NUR|6NUR_protein|mol2

> <Gold.PLP.Fitness>
46.0663

> <Gold.PLP.PLP>
-40.7212

> <Gold.PLP.part.hbond>
-2.0000

> <Gold.PLP.part.metal>
0.0000

> <Gold.PLP.part.buried>
-5.1652

> <Gold.PLP.part.nonpolar>
-34.6687

> <Gold.PLP.part.repulsive>
0.2939

> <Gold.PLP.ligand.clash>
0.0000

> <Gold.PLP.ligand.torsion>
0.5465

> <Gold.PLP.Chemscore.Hbond>
1.9600

> <Gold.PLP.Chemscore.CHOScore>
0.0000

> <Gold.PLP.Chemscore.Metal>
0.0000

> <Gold.Chemscore.Hbonds>
donor molecule, donor type, donor heavy atom, donor atom, acceptor molecule, acceptor atom, score
      L1  H     7    23       P1  8028  0.94
      L1  H    10    24       P1  8028  0.91

> <Gold.PLP.Chemscore.Internal.Correction>
0.5580

> <Gold.Rescore>
     Score         DG    S(hbond)    S(metal)    S(lipo)     H(rot)  DE(clash)    DE(int)     intcor
     16.81     -18.64       1.93        0.00      87.46       1.37       0.06       1.77       ----

> <Gold.Chemscore.Fitness>
16.8111

> <Gold.Chemscore.DG>
-18.6442

> <Gold.Chemscore.ZeroCoef>
-5.4800

> <Gold.Chemscore.Hbond>
1.9262

> <Gold.Chemscore.Metal>
0.0000

> <Gold.Chemscore.Lipo>
87.4642

> <Gold.Chemscore.Internal_Hbond>
0.0000

> <Gold.Chemscore.DEClash>
0.0626

> <Gold.Chemscore.DEInternal>
1.7705

> <Gold.Chemscore.Rot>
1.3682

> <Gold.Chemscore.Internal.Correction>
   9.000000E+99

> <Gold.Chemscore.Hbonds>
donor molecule, donor type, donor heavy atom, donor atom, acceptor molecule, acceptor atom, score
      L1  H     7    23       P1  8028  0.91
      L1  H    10    24       P1  8028  0.90

> <Gold.Chemscore.Hbond.Weighted>
-6.4335

> <Gold.Chemscore.Metal.Weighted>
-0.0000

> <Gold.Chemscore.Lipo.Weighted>
-10.2333

> <Gold.Chemscore.Internal_Hbond.Weighted>
0.0000

> <Gold.Chemscore.DEClash.Weighted>
0.0626

> <Gold.Chemscore.DEInternal.Weighted>
1.7705

> <Gold.Chemscore.Rot.Weighted>
3.5027

> <Gold.Chemscore.Internal.Correction.Weighted>
   9.000000E+99

> <Gold.Protein.RotatedTorsions>
[ 6907 6896 6895 6894 ] final   25.28 input  -60.11 | X-H torsion
[ 7974 7965 7964 7962 ] final  175.70 input  175.53 | X-H torsion
[ 8008 7997 7996 7995 ] final  -50.49 input   59.86 | X-H torsion
[ 10167 10162 10161 10158 ] final  -76.91 input  -65.29 | X-H torsion
[ 10718 10713 10712 10709 ] final -128.02 input   66.30 | X-H torsion
[ 10763 10752 10751 10750 ] final  155.93 input  -60.55 | X-H torsion
[ 11005 11000 10999 10996 ] final  -38.35 input  -57.11 | X-H torsion

> <Gold.Protein.ActiveResidues>
 VAL166  LYS551  ARG553  GLY616  TRP617  ASP618  TYR619  PRO620  LYS621  CYS622 
 ASP623  PHE694  ASN695  SER759  ASP760  ASP761  ALA762  ILE779  LEU786  VAL792 
 PHE793  MET794  SER795  GLU796  ALA797  LYS798  CYS799  TRP800  GLU811  SER814 

> <Gold.Protein.RotatedAtoms>
  151.9702  135.0080  160.0552 H   0  0  0  0  0  0  0  0  0  0  0  0  # atno 6907 bound_to 6896
  152.1790  133.4689  159.4956 H   0  0  0  0  0  0  0  0  0  0  0  0  # atno 6908 bound_to 6896
  150.6914  134.1775  159.4279 H   0  0  0  0  0  0  0  0  0  0  0  0  # atno 6909 bound_to 6896
  144.7197  139.9985  143.6440 H   0  0  0  0  0  0  0  0  0  0  0  0  # atno 7974 bound_to 7965
  154.4063  140.1271  156.4674 H   0  0  0  0  0  0  0  0  0  0  0  0  # atno 8008 bound_to 7997
  155.7213  140.3492  155.4997 H   0  0  0  0  0  0  0  0  0  0  0  0  # atno 8009 bound_to 7997
  155.9212  140.1053  157.1196 H   0  0  0  0  0  0  0  0  0  0  0  0  # atno 8010 bound_to 7997
  140.4816  143.2401  151.8049 H   0  0  0  0  0  0  0  0  0  0  0  0  # atno 10167 bound_to 10162
  156.1912  130.6796  151.0426 H   0  0  0  0  0  0  0  0  0  0  0  0  # atno 10718 bound_to 10713
  154.1762  135.2802  155.3066 H   0  0  0  0  0  0  0  0  0  0  0  0  # atno 10763 bound_to 10752
  154.6037  135.5521  153.7404 H   0  0  0  0  0  0  0  0  0  0  0  0  # atno 10764 bound_to 10752
  153.0150  135.6398  154.1902 H   0  0  0  0  0  0  0  0  0  0  0  0  # atno 10765 bound_to 10752
  141.0021  133.6950  156.2042 H   0  0  0  0  0  0  0  0  0  0  0  0  # atno 11005 bound_to 11000
  146.0354  139.3373  143.0730 LP  0  0  0  0  0  0  0  0  0  0  0  0  # atno 17320 bound_to 7965
  145.8401  140.9585  143.0804 LP  0  0  0  0  0  0  0  0  0  0  0  0  # atno 17321 bound_to 7965
  139.4834  144.4765  151.9360 LP  0  0  0  0  0  0  0  0  0  0  0  0  # atno 17342 bound_to 10162
  140.3851  144.2687  150.5905 LP  0  0  0  0  0  0  0  0  0  0  0  0  # atno 17343 bound_to 10162
  157.6930  131.0804  150.7053 LP  0  0  0  0  0  0  0  0  0  0  0  0  # atno 17370 bound_to 10713
  156.7109  130.4651  149.5547 LP  0  0  0  0  0  0  0  0  0  0  0  0  # atno 17371 bound_to 10713
  140.6872  134.4704  157.5589 LP  0  0  0  0  0  0  0  0  0  0  0  0  # atno 17394 bound_to 11000
  139.9044  134.8482  156.1765 LP  0  0  0  0  0  0  0  0  0  0  0  0  # atno 17395 bound_to 11000

$$$$
