#       Name:                AV-unprocessed.smi:37
#       Creating user name   scv26
#       Creation time:       Thu Mar 26 16:13:27 2020


#       File generated by GOLD software.
#

@<TRIPOS>MOLECULE
AV-unprocessed.smi:37
    54    55     1
SMALL
NO_CHARGES


@<TRIPOS>ATOM
      1 ****        -3.2951   3.2964  -2.7635 C.3            1 S1                 0.0000
      2 ****        -3.1541   3.9178  -1.3674 C.3            1 S1                 0.0000
      3 ****        -2.8745   2.8671  -0.2952 C.2            1 S1                 0.0000
      4 ****        -3.6782   2.6454   0.6109 O.2            1 S1                 0.0000
      5 ****        -1.6921   2.2550  -0.4659 O.3            1 S1                 0.0000
      6 ****        -1.2992   1.2288   0.4296 C.3            1 S1                 0.0000
      7 ****         0.0175   0.6057  -0.0624 C.3            1 S1                 0.0000
      8 ****        -0.2763  -0.1250  -1.2590 O.3            1 S1                 0.0000
      9 ****         0.1858  -1.4405  -1.1792 C.3            1 S1                 0.0000
     10 ****         1.5610  -1.5575  -1.8153 N.am           1 S1                 0.0000
     11 ****         2.2863  -0.4545  -2.2550 C.2            1 S1                 0.0000
     12 ****         3.5055  -0.5563  -2.8358 C.2            1 S1                 0.0000
     13 ****         4.1455   0.5566  -3.2330 F              1 S1                 0.0000
     14 ****         4.1273  -1.8604  -3.0424 C.2            1 S1                 0.0000
     15 ****         5.2289  -2.0528  -3.5530 O.2            1 S1                 0.0000
     16 ****         3.3552  -2.9410  -2.6087 N.am           1 S1                 0.0000
     17 ****         2.0964  -2.8506  -2.0130 C.2            1 S1                 0.0000
     18 ****         1.4984  -3.8740  -1.6832 O.2            1 S1                 0.0000
     19 ****         0.2440  -1.7639   0.3143 C.3            1 S1                 0.0000
     20 ****        -1.5726  -2.3115   0.9340 Br             1 S1                 0.0000
     21 ****         0.6472  -0.4180   0.8997 C.3            1 S1                 0.0000
     22 ****         0.2453  -0.2598   2.2554 O.3            1 S1                 0.0000
     23 ****         0.9874  -0.7765   3.2511 C.2            1 S1                 0.0000
     24 ****         2.0491  -1.3857   3.1205 O.2            1 S1                 0.0000
     25 ****         0.3689  -0.5377   4.6261 C.3            1 S1                 0.0000
     26 ****        -0.9731  -1.2647   4.7877 C.3            1 S1                 0.0000
     27 ****         3.7392  -3.8652  -2.7422 H              1 S1                 0.0000
     28 ****        -3.5569   4.0579  -3.4981 H              1 S1                 0.0000
     29 ****        -4.0775   2.5368  -2.7828 H              1 S1                 0.0000
     30 ****        -2.3645   2.8306  -3.0896 H              1 S1                 0.0000
     31 ****        -2.3475   4.6512  -1.3636 H              1 S1                 0.0000
     32 ****        -4.0685   4.4512  -1.1066 H              1 S1                 0.0000
     33 ****        -1.1659   1.6680   1.4189 H              1 S1                 0.0000
     34 ****        -2.0796   0.4713   0.5072 H              1 S1                 0.0000
     35 ****         0.7374   1.3989  -0.2666 H              1 S1                 0.0000
     36 ****        -0.4528  -2.1077  -1.7613 H              1 S1                 0.0000
     37 ****         1.8849   0.5408  -2.1476 H              1 S1                 0.0000
     38 ****         0.9386  -2.5689   0.5532 H              1 S1                 0.0000
     39 ****         1.7305  -0.3148   0.8160 H              1 S1                 0.0000
     40 ****         1.0681  -0.8754   5.3914 H              1 S1                 0.0000
     41 ****         0.2337   0.5344   4.7709 H              1 S1                 0.0000
     42 ****        -1.3755  -1.1100   5.7887 H              1 S1                 0.0000
     43 ****        -0.8627  -2.3393   4.6379 H              1 S1                 0.0000
     44 ****        -1.7142  -0.9003   4.0754 H              1 S1                 0.0000
     45 ****        -4.5355   3.1583   0.6555 LP             1 S1                 0.0000
     46 ****        -3.4737   1.9524   1.3023 LP             1 S1                 0.0000
     47 ****         0.1647   0.3283  -2.0336 LP             1 S1                 0.0000
     48 ****        -1.2665  -0.1359  -1.3987 LP             1 S1                 0.0000
     49 ****         5.7770  -1.2774  -3.8665 LP             1 S1                 0.0000
     50 ****         5.5769  -2.9848  -3.6548 LP             1 S1                 0.0000
     51 ****         0.5962  -3.8105  -1.2566 LP             1 S1                 0.0000
     52 ****         1.9145  -4.7694  -1.8417 LP             1 S1                 0.0000
     53 ****         2.4320  -1.5332   2.2086 LP             1 S1                 0.0000
     54 ****         2.5286  -1.7332   3.9264 LP             1 S1                 0.0000
@<TRIPOS>BOND
    1    1    2 1     
    2    1   28 1     
    3    1   29 1     
    4    1   30 1     
    5    2    3 1     
    6    2   31 1     
    7    2   32 1     
    8    3    4 2     
    9    3    5 1     
   10    5    6 1     
   11    6    7 1     
   12    6   33 1     
   13    6   34 1     
   14    7   21 1     
   15    7    8 1     
   16    7   35 1     
   17    8    9 1     
   18    9   10 1     
   19    9   19 1     
   20    9   36 1     
   21   10   17 1     
   22   10   11 1     
   23   11   12 2     
   24   11   37 1     
   25   12   13 1     
   26   12   14 1     
   27   14   15 2     
   28   14   16 1     
   29   16   27 1     
   30   16   17 1     
   31   17   18 2     
   32   19   20 1     
   33   19   21 1     
   34   19   38 1     
   35   21   22 1     
   36   21   39 1     
   37   22   23 1     
   38   23   24 2     
   39   23   25 1     
   40   25   26 1     
   41   25   40 1     
   42   25   41 1     
   43   26   42 1     
   44   26   43 1     
   45   26   44 1     
   46    4   45 1     
   47    4   46 1     
   48    8   47 1     
   49    8   48 1     
   50   15   49 1     
   51   15   50 1     
   52   18   51 1     
   53   18   52 1     
   54   24   53 1     
   55   24   54 1     
@<TRIPOS>SUBSTRUCTURE
      1 S1             1
@<TRIPOS>SET
LONE_PAIRS      STATIC     ATOMS    <user>   **** ""
10 45 46 47 48 49 50 51 52 53 54
DONOR_HYDROGENS      STATIC     ATOMS    <user>   **** ""
1 27
ATOM$BLUE        STATIC     ATOMS    COLORGROUP SYSTEM
10 45 46 47 48 49 50 51 52 53 54
ATOM$RED        STATIC     ATOMS    COLORGROUP SYSTEM
1 27
