AV-unprocessed.smi:21|AV-procd|sdf|141|dock10
  -GOLD-   2262015343D 1   1.00000     0.00000
 Structure written by MMmdl.
 62 65  0  0  0  0  0  0  0  0  2 V2000
  145.9203  131.7723  149.0948 C   0  0  0  0  0  0  0  0  0  0  0  0
  144.6793  132.2892  149.5475 O   0  0  0  0  0  0  0  0  0  0  0  0
  144.6394  132.5255  150.9469 C   0  0  1  0  0  0  0  0  0  0  0  0
  145.4547  133.7409  151.3766 C   0  0  0  0  0  0  0  0  0  0  0  0
  144.8222  134.1433  152.7163 C   0  0  1  0  0  0  0  0  0  0  0  0
  145.0494  135.6278  153.0951 C   0  0  0  0  0  0  0  0  0  0  0  0
  145.8961  135.7790  154.2827 N   0  0  0  0  0  0  0  0  0  0  0  0
  146.4401  134.5679  154.8856 C   0  0  0  0  0  0  0  0  0  0  0  0
  146.3466  137.0063  154.6797 C   0  0  0  0  0  0  0  0  0  0  0  0
  145.7224  138.1117  154.1909 N   0  0  0  0  0  0  0  0  0  0  0  0
  146.1150  139.3380  154.5418 C   0  0  0  0  0  0  0  0  0  0  0  0
  147.1002  139.6909  155.3654 N   0  0  0  0  0  0  0  0  0  0  0  0
  147.7376  138.5976  155.8703 C   0  0  0  0  0  0  0  0  0  0  0  0
  147.4349  137.2335  155.5810 C   0  0  0  0  0  0  0  0  0  0  0  0
  148.3216  136.4145  156.2726 N   0  0  0  0  0  0  0  0  0  0  0  0
  149.0894  137.2378  156.9299 C   0  0  0  0  0  0  0  0  0  0  0  0
  148.7980  138.5712  156.7614 N   0  0  0  0  0  0  0  0  0  0  0  0
  149.4859  139.7010  157.3726 C   0  0  0  0  0  0  0  0  0  0  0  0
  150.5187  140.4027  156.4476 C   0  0  1  0  0  0  0  0  0  0  0  0
  149.8786  140.8938  155.1277 C   0  0  0  0  0  0  0  0  0  0  0  0
  150.3147  140.1105  154.0365 O   0  0  0  0  0  0  0  0  0  0  0  0
  151.2795  141.5467  157.1693 C   0  0  2  0  0  0  0  0  0  0  0  0
  152.0780  141.1212  158.3907 C   0  0  0  0  0  0  0  0  0  0  0  0
  152.2832  142.4395  159.1313 C   0  0  0  0  0  0  0  0  0  0  0  0
  151.1682  143.2568  158.7920 O   0  0  0  0  0  0  0  0  0  0  0  0
  150.3740  142.6060  157.8072 C   0  0  0  0  0  0  0  0  0  0  0  0
  143.3986  133.6991  152.6375 N   0  3  1  0  0  0  0  0  0  0  0  0
  142.3436  134.7214  152.8340 C   0  0  0  0  0  0  0  0  0  0  0  0
  143.2326  132.9252  151.3858 C   0  0  0  0  0  0  0  0  0  0  0  0
  144.9535  131.6400  151.5031 H   0  0  0  0  0  0  0  0  0  0  0  0
  145.2678  133.5200  153.4930 H   0  0  0  0  0  0  0  0  0  0  0  0
  145.8656  131.5805  148.0233 H   0  0  0  0  0  0  0  0  0  0  0  0
  146.1610  130.8312  149.5911 H   0  0  0  0  0  0  0  0  0  0  0  0
  146.7349  132.4767  149.2649 H   0  0  0  0  0  0  0  0  0  0  0  0
  146.5214  133.5313  151.4619 H   0  0  0  0  0  0  0  0  0  0  0  0
  145.3262  134.5399  150.6450 H   0  0  0  0  0  0  0  0  0  0  0  0
  145.4354  136.1888  152.2447 H   0  0  0  0  0  0  0  0  0  0  0  0
  144.0924  136.0926  153.3332 H   0  0  0  0  0  0  0  0  0  0  0  0
  147.4892  134.4419  154.6169 H   0  0  0  0  0  0  0  0  0  0  0  0
  145.9018  133.6841  154.5428 H   0  0  0  0  0  0  0  0  0  0  0  0
  146.3527  134.6024  155.9718 H   0  0  0  0  0  0  0  0  0  0  0  0
  145.5591  140.1527  154.1015 H   0  0  0  0  0  0  0  0  0  0  0  0
  149.8915  136.8870  157.5615 H   0  0  0  0  0  0  0  0  0  0  0  0
  148.7334  140.4132  157.7118 H   0  0  0  0  0  0  0  0  0  0  0  0
  149.9768  139.3490  158.2805 H   0  0  0  0  0  0  0  0  0  0  0  0
  151.2616  139.6502  156.1785 H   0  0  0  0  0  0  0  0  0  0  0  0
  148.7900  140.8768  155.1812 H   0  0  0  0  0  0  0  0  0  0  0  0
  150.1658  141.9217  154.9105 H   0  0  0  0  0  0  0  0  0  0  0  0
  149.7163  140.2379  153.3161 H   0  0  0  0  0  0  0  0  0  0  0  0
  151.9641  142.0349  156.4747 H   0  0  0  0  0  0  0  0  0  0  0  0
  151.4949  140.4347  159.0066 H   0  0  0  0  0  0  0  0  0  0  0  0
  153.0237  140.6383  158.1434 H   0  0  0  0  0  0  0  0  0  0  0  0
  152.3611  142.3004  160.2096 H   0  0  0  0  0  0  0  0  0  0  0  0
  153.1919  142.9345  158.7869 H   0  0  0  0  0  0  0  0  0  0  0  0
  149.9822  143.3247  157.0888 H   0  0  0  0  0  0  0  0  0  0  0  0
  149.5251  142.1370  158.3070 H   0  0  0  0  0  0  0  0  0  0  0  0
  142.4030  135.5079  152.0807 H   0  0  0  0  0  0  0  0  0  0  0  0
  142.4116  135.1740  153.8233 H   0  0  0  0  0  0  0  0  0  0  0  0
  141.3585  134.2598  152.7582 H   0  0  0  0  0  0  0  0  0  0  0  0
  142.7846  133.5625  150.6209 H   0  0  0  0  0  0  0  0  0  0  0  0
  142.5771  132.0653  151.5272 H   0  0  0  0  0  0  0  0  0  0  0  0
  143.2867  133.0366  153.3920 H   0  0  0  0  0  0  0  0  0  0  0  0
  1  2  1  0  0  0  0
  1 32  1  0  0  0  0
  1 33  1  0  0  0  0
  1 34  1  0  0  0  0
  2  3  1  0  0  0  0
  3 30  1  0  0  0  0
  3 29  1  0  0  0  0
  3  4  1  0  0  0  0
  4  5  1  0  0  0  0
  4 35  1  0  0  0  0
  4 36  1  0  0  0  0
  5 31  1  0  0  0  0
  5  6  1  0  0  0  0
  5 27  1  0  0  0  0
  6  7  1  0  0  0  0
  6 37  1  0  0  0  0
  6 38  1  0  0  0  0
  7  8  1  0  0  0  0
  7  9  1  0  0  0  0
  8 39  1  0  0  0  0
  8 40  1  0  0  0  0
  8 41  1  0  0  0  0
  9 14  1  0  0  0  0
  9 10  2  0  0  0  0
 10 11  1  0  0  0  0
 11 12  2  0  0  0  0
 11 42  1  0  0  0  0
 12 13  1  0  0  0  0
 13 17  1  0  0  0  0
 13 14  2  0  0  0  0
 14 15  1  0  0  0  0
 15 16  2  0  0  0  0
 16 17  1  0  0  0  0
 16 43  1  0  0  0  0
 17 18  1  0  0  0  0
 18 19  1  0  0  0  0
 18 44  1  0  0  0  0
 18 45  1  0  0  0  0
 19 20  1  0  0  0  0
 19 22  1  0  0  0  0
 19 46  1  0  0  0  0
 20 21  1  0  0  0  0
 20 47  1  0  0  0  0
 20 48  1  0  0  0  0
 21 49  1  0  0  0  0
 22 26  1  0  0  0  0
 22 23  1  0  0  0  0
 22 50  1  0  0  0  0
 23 24  1  0  0  0  0
 23 51  1  0  0  0  0
 23 52  1  0  0  0  0
 24 25  1  0  0  0  0
 24 53  1  0  0  0  0
 24 54  1  0  0  0  0
 25 26  1  0  0  0  0
 26 55  1  0  0  0  0
 26 56  1  0  0  0  0
 27 28  1  0  0  0  0
 27 29  1  0  0  0  0
 27 62  1  0  0  0  0
 28 57  1  0  0  0  0
 28 58  1  0  0  0  0
 28 59  1  0  0  0  0
 29 60  1  0  0  0  0
 29 61  1  0  0  0  0
M  CHG  1  27   1
M  END
> <s_m_source_file>
AV-unprocessed.smi

> <i_m_source_file_index>
21

> <i_lp_mmshare_version>
43012

> <i_f3d_flags>
0

> <s_epik_input>
W0NIM11PW0NASF0xW0NIMl1bQ0BIXShOKFtDSDNdKVtDSDJdMSlbQ0gyXU4oW0NIM10pYyhuW2NIXW4yKWMoYzIzKW5bY0hdbjNbQ0gyXVtDQEhdKFtDSDJdW09IXSlbQ0BASF00W0NIMl1bQ0gyXU9bQ0gyXTQ=

> <s_epik_cmdline>
J2VwaWtfcHl0aG9uJywgJy1waCcsICc3LjAnLCAnLXRuJywgJzgnLCAnLW1hJywgJzIwMCcsICctbWV0YWxfYmluZGluZycsICctaW1hZScsICc8aW5maWxlLm1hZT4nLCAnLW9tYWUnLCAnPG91dGZpbGUubWFlPic=

> <r_lp_tautomer_probability>
1

> <r_epik_Ionization_Penalty>
0.0157465

> <r_epik_Ionization_Penalty_Charging>
0.015354

> <r_epik_Ionization_Penalty_Neutral>
0.000392529

> <r_epik_State_Penalty>
0.0120612

> <r_epik_Charging_Adjusted_Penalty>
0.0274152

> <i_epik_Tot_Q>
1

> <i_epik_Tot_abs_Q>
1

> <r_epik_Metal_State_Penalty>
0.0121253

> <b_epik_Metal_Only>
0

> <s_lp_Force_Field>
OPLS_2005

> <r_lp_Energy>
60.5885

> <b_lp_Chiralities_Consistent>
1

> <s_lp_Variant>
AV-unprocessed.smi:21-21

> <Gold.Version>
5.8.1

> <Gold.Id.Protein>
6NUR|6NUR_protein|mol2

> <Gold.PLP.Fitness>
44.5273

> <Gold.PLP.PLP>
-34.8164

> <Gold.PLP.part.hbond>
-2.9535

> <Gold.PLP.part.metal>
0.0000

> <Gold.PLP.part.buried>
-7.0021

> <Gold.PLP.part.nonpolar>
-26.0527

> <Gold.PLP.part.repulsive>
0.4006

> <Gold.PLP.ligand.clash>
0.3867

> <Gold.PLP.ligand.torsion>
1.9556

> <Gold.PLP.Chemscore.Hbond>
3.5304

> <Gold.PLP.Chemscore.CHOScore>
1.0000

> <Gold.PLP.Chemscore.Metal>
0.0000

> <Gold.Chemscore.Hbonds>
donor molecule, donor type, donor heavy atom, donor atom, acceptor molecule, acceptor atom, score
      L1  H    21    49       P1  7957  0.54
      L1  H    27    62       P1 10957  2.00
      P1  H  7989  7998       L1    21  0.99
      L1  C    11    42       P1 10175  1.00

> <Gold.PLP.Chemscore.Internal.Correction>
0.4176

> <Gold.Rescore>
     Score         DG    S(hbond)    S(metal)    S(lipo)     H(rot)  DE(clash)    DE(int)     intcor
     11.80     -15.80       2.14        0.00      94.36       3.08       0.17       3.83       ----

> <Gold.Chemscore.Fitness>
11.7975

> <Gold.Chemscore.DG>
-15.8017

> <Gold.Chemscore.ZeroCoef>
-5.4800

> <Gold.Chemscore.Hbond>
2.1425

> <Gold.Chemscore.Metal>
0.0000

> <Gold.Chemscore.Lipo>
94.3582

> <Gold.Chemscore.Internal_Hbond>
0.0000

> <Gold.Chemscore.DEClash>
0.1740

> <Gold.Chemscore.DEInternal>
3.8302

> <Gold.Chemscore.Rot>
3.0758

> <Gold.Chemscore.Internal.Correction>
   9.000000E+99

> <Gold.Chemscore.Hbonds>
donor molecule, donor type, donor heavy atom, donor atom, acceptor molecule, acceptor atom, score
      L1  H    21    49       P1  7957  0.54
      L1  H    27    62       P1 10957  0.84
      P1  H  7989  7998       L1    21  0.12

> <Gold.Chemscore.Hbond.Weighted>
-7.1559

> <Gold.Chemscore.Metal.Weighted>
-0.0000

> <Gold.Chemscore.Lipo.Weighted>
-11.0399

> <Gold.Chemscore.Internal_Hbond.Weighted>
0.0000

> <Gold.Chemscore.DEClash.Weighted>
0.1740

> <Gold.Chemscore.DEInternal.Weighted>
3.8302

> <Gold.Chemscore.Rot.Weighted>
7.8741

> <Gold.Chemscore.Internal.Correction.Weighted>
   9.000000E+99

> <Gold.Protein.RotatedTorsions>
[ 6907 6896 6895 6894 ] final  100.39 input  -60.11 | X-H torsion
[ 7974 7965 7964 7962 ] final  116.63 input  175.53 | X-H torsion
[ 8008 7997 7996 7995 ] final  172.29 input   59.86 | X-H torsion
[ 10167 10162 10161 10158 ] final  -35.03 input  -65.29 | X-H torsion
[ 10718 10713 10712 10709 ] final -163.17 input   66.30 | X-H torsion
[ 10763 10752 10751 10750 ] final   96.87 input  -60.55 | X-H torsion
[ 11005 11000 10999 10996 ] final  178.02 input  -57.11 | X-H torsion

> <Gold.Protein.ActiveResidues>
 VAL166  LYS551  ARG553  GLY616  TRP617  ASP618  TYR619  PRO620  LYS621  CYS622 
 ASP623  PHE694  ASN695  SER759  ASP760  ASP761  ALA762  ILE779  LEU786  VAL792 
 PHE793  MET794  SER795  GLU796  ALA797  LYS798  CYS799  TRP800  GLU811  SER814 

> <Gold.Protein.RotatedAtoms>
  152.5373  134.0283  159.8012 H   0  0  0  0  0  0  0  0  0  0  0  0  # atno 6907 bound_to 6896
  151.0458  133.5659  159.2654 H   0  0  0  0  0  0  0  0  0  0  0  0  # atno 6908 bound_to 6896
  151.2611  135.0662  159.9152 H   0  0  0  0  0  0  0  0  0  0  0  0  # atno 6909 bound_to 6896
  145.1773  139.3069  143.4436 H   0  0  0  0  0  0  0  0  0  0  0  0  # atno 7974 bound_to 7965
  156.1189  140.1490  156.9233 H   0  0  0  0  0  0  0  0  0  0  0  0  # atno 8008 bound_to 7997
  154.4821  140.0876  156.7443 H   0  0  0  0  0  0  0  0  0  0  0  0  # atno 8009 bound_to 7997
  155.4464  140.3433  155.4298 H   0  0  0  0  0  0  0  0  0  0  0  0  # atno 8010 bound_to 7997
  140.7173  143.3506  151.2164 H   0  0  0  0  0  0  0  0  0  0  0  0  # atno 10167 bound_to 10162
  156.6209  130.8890  151.2957 H   0  0  0  0  0  0  0  0  0  0  0  0  # atno 10718 bound_to 10713
  153.2701  135.4203  155.0979 H   0  0  0  0  0  0  0  0  0  0  0  0  # atno 10763 bound_to 10752
  154.8453  135.3470  154.6256 H   0  0  0  0  0  0  0  0  0  0  0  0  # atno 10764 bound_to 10752
  153.6676  135.7045  153.5215 H   0  0  0  0  0  0  0  0  0  0  0  0  # atno 10765 bound_to 10752
  140.3905  134.6866  157.4505 H   0  0  0  0  0  0  0  0  0  0  0  0  # atno 11005 bound_to 11000
  146.3459  140.1939  142.8589 LP  0  0  0  0  0  0  0  0  0  0  0  0  # atno 17320 bound_to 7965
  145.0172  140.8764  143.5188 LP  0  0  0  0  0  0  0  0  0  0  0  0  # atno 17321 bound_to 7965
  139.7036  143.9493  152.2916 LP  0  0  0  0  0  0  0  0  0  0  0  0  # atno 17342 bound_to 10162
  139.9194  144.6809  150.8477 LP  0  0  0  0  0  0  0  0  0  0  0  0  # atno 17343 bound_to 10162
  157.7228  130.9581  150.1508 LP  0  0  0  0  0  0  0  0  0  0  0  0  # atno 17370 bound_to 10713
  156.2313  130.3682  149.8442 LP  0  0  0  0  0  0  0  0  0  0  0  0  # atno 17371 bound_to 10713
  140.0410  134.6267  155.8981 LP  0  0  0  0  0  0  0  0  0  0  0  0  # atno 17394 bound_to 11000
  141.1892  133.6565  156.5358 LP  0  0  0  0  0  0  0  0  0  0  0  0  # atno 17395 bound_to 11000

$$$$
