AV-unprocessed.smi:574|AV-procd|sdf|2976|dock8
  -GOLD-   2262023483D 1   1.00000     0.00000
 Structure written by MMmdl.
 39 40  0  0  0  0  0  0  0  0  2 V2000
  149.9347  141.0960  155.6900 C   0  0  0  0  0  0  0  0  0  0  0  0
  150.7103  139.9225  155.1010 C   0  0  0  0  0  0  0  0  0  0  0  0
  150.2297  139.2608  154.1814 O   0  0  0  0  0  0  0  0  0  0  0  0
  151.9144  139.6812  155.6371 N   0  0  0  0  0  0  0  0  0  0  0  0
  152.8426  138.6489  155.1860 C   0  0  0  0  0  0  0  0  0  0  0  0
  153.2838  137.7458  156.3527 C   0  0  0  0  0  0  0  0  0  0  0  0
  153.7888  138.5690  157.4491 N   0  5  0  0  0  0  0  0  0  0  0  0
  154.8906  138.2719  158.1962 C   0  0  0  0  0  0  0  0  0  0  0  0
  155.7057  137.3541  158.0532 O   0  0  0  0  0  0  0  0  0  0  0  0
  155.0674  139.2269  159.3548 C   0  0  0  0  0  0  0  0  0  0  0  0
  154.1814  140.2495  159.4617 N   0  0  0  0  0  0  0  0  0  0  0  0
  154.2907  141.1038  160.4828 C   0  0  0  0  0  0  0  0  0  0  0  0
  153.3597  142.1485  160.5501 N   0  0  0  0  0  0  0  0  0  0  0  0
  152.7745  142.5890  161.8180 C   0  0  0  0  0  0  0  0  0  0  0  0
  152.4669  144.0955  161.7819 C   0  0  0  0  0  0  0  0  0  0  0  0
  151.6328  144.3905  160.6681 O   0  0  0  0  0  0  0  0  0  0  0  0
  152.2713  144.0708  159.4378 C   0  0  0  0  0  0  0  0  0  0  0  0
  152.5758  142.5646  159.3835 C   0  0  0  0  0  0  0  0  0  0  0  0
  155.2216  141.0314  161.4410 N   0  0  0  0  0  0  0  0  0  0  0  0
  156.1182  140.0260  161.3635 C   0  0  0  0  0  0  0  0  0  0  0  0
  156.0936  139.0748  160.3249 C   0  0  0  0  0  0  0  0  0  0  0  0
  157.2995  137.8340  160.2770 Cl  0  0  0  0  0  0  0  0  0  0  0  0
  150.4047  142.0386  155.4086 H   0  0  0  0  0  0  0  0  0  0  0  0
  149.9109  141.0327  156.7784 H   0  0  0  0  0  0  0  0  0  0  0  0
  148.9068  141.1035  155.3260 H   0  0  0  0  0  0  0  0  0  0  0  0
  152.2427  140.2824  156.3797 H   0  0  0  0  0  0  0  0  0  0  0  0
  152.3633  138.0433  154.4156 H   0  0  0  0  0  0  0  0  0  0  0  0
  153.7119  139.1207  154.7248 H   0  0  0  0  0  0  0  0  0  0  0  0
  152.4370  137.1270  156.6538 H   0  0  0  0  0  0  0  0  0  0  0  0
  154.0444  137.0517  155.9945 H   0  0  0  0  0  0  0  0  0  0  0  0
  151.8578  142.0243  161.9913 H   0  0  0  0  0  0  0  0  0  0  0  0
  153.4305  142.3924  162.6656 H   0  0  0  0  0  0  0  0  0  0  0  0
  151.9547  144.3948  162.6964 H   0  0  0  0  0  0  0  0  0  0  0  0
  153.3873  144.6791  161.7275 H   0  0  0  0  0  0  0  0  0  0  0  0
  151.6137  144.3485  158.6140 H   0  0  0  0  0  0  0  0  0  0  0  0
  153.1855  144.6559  159.3254 H   0  0  0  0  0  0  0  0  0  0  0  0
  153.0914  142.3577  158.4458 H   0  0  0  0  0  0  0  0  0  0  0  0
  151.6468  141.9938  159.3657 H   0  0  0  0  0  0  0  0  0  0  0  0
  156.8690  139.9842  162.1387 H   0  0  0  0  0  0  0  0  0  0  0  0
  1  2  1  0  0  0  0
  1 23  1  0  0  0  0
  1 24  1  0  0  0  0
  1 25  1  0  0  0  0
  2  3  2  0  0  0  0
  2  4  1  0  0  0  0
  4  5  1  0  0  0  0
  4 26  1  0  0  0  0
  5  6  1  0  0  0  0
  5 27  1  0  0  0  0
  5 28  1  0  0  0  0
  6  7  1  0  0  0  0
  6 29  1  0  0  0  0
  6 30  1  0  0  0  0
  7  8  1  0  0  0  0
  8  9  2  0  0  0  0
  8 10  1  0  0  0  0
 10 21  1  0  0  0  0
 10 11  2  0  0  0  0
 11 12  1  0  0  0  0
 12 13  1  0  0  0  0
 12 19  2  0  0  0  0
 13 18  1  0  0  0  0
 13 14  1  0  0  0  0
 14 15  1  0  0  0  0
 14 31  1  0  0  0  0
 14 32  1  0  0  0  0
 15 16  1  0  0  0  0
 15 33  1  0  0  0  0
 15 34  1  0  0  0  0
 16 17  1  0  0  0  0
 17 18  1  0  0  0  0
 17 35  1  0  0  0  0
 17 36  1  0  0  0  0
 18 37  1  0  0  0  0
 18 38  1  0  0  0  0
 19 20  1  0  0  0  0
 20 21  2  0  0  0  0
 20 39  1  0  0  0  0
 21 22  1  0  0  0  0
M  CHG  1   7  -1
M  END
> <s_m_source_file>
AV-unprocessed.smi

> <i_m_source_file_index>
574

> <i_lp_mmshare_version>
43012

> <i_f3d_flags>
0

> <s_epik_input>
W0NIM11DKD1PKVtOSF1bQ0gyXVtDSDJdW05IXUMoPU8pYzFuYyhuW2NIXWMxQ2wpTjJbQ0gyXVtDSDJdT1tDSDJdW0NIMl0y

> <s_epik_cmdline>
J2VwaWtfcHl0aG9uJywgJy1waCcsICc3LjAnLCAnLXRuJywgJzgnLCAnLW1hJywgJzIwMCcsICctbWV0YWxfYmluZGluZycsICctaW1hZScsICc8aW5maWxlLm1hZT4nLCAnLW9tYWUnLCAnPG91dGZpbGUubWFlPic=

> <r_lp_tautomer_probability>
1

> <r_epik_Ionization_Penalty>
5.61005

> <r_epik_Ionization_Penalty_Charging>
5.61003

> <r_epik_Ionization_Penalty_Neutral>
1.98059e-05

> <r_epik_State_Penalty>
5.60999

> <r_epik_Charging_Adjusted_Penalty>
11.22

> <i_epik_Tot_Q>
-1

> <i_epik_Tot_abs_Q>
1

> <r_epik_Metal_State_Penalty>
1.60231

> <b_epik_Metal_Only>
1

> <s_lp_Force_Field>
OPLS_2005

> <r_lp_Energy>
13.7471

> <b_lp_Chiralities_Consistent>
1

> <s_lp_Variant>
AV-unprocessed.smi:574-2

> <Gold.Version>
5.8.1

> <Gold.Id.Protein>
6NUR|6NUR_protein|mol2

> <Gold.PLP.Fitness>
44.8876

> <Gold.PLP.PLP>
-40.0104

> <Gold.PLP.part.hbond>
-3.0000

> <Gold.PLP.part.metal>
0.0000

> <Gold.PLP.part.buried>
-3.0144

> <Gold.PLP.part.nonpolar>
-33.0434

> <Gold.PLP.part.repulsive>
0.9080

> <Gold.PLP.ligand.clash>
0.0000

> <Gold.PLP.ligand.torsion>
0.5672

> <Gold.PLP.Chemscore.Hbond>
1.9520

> <Gold.PLP.Chemscore.CHOScore>
0.0000

> <Gold.PLP.Chemscore.Metal>
0.0000

> <Gold.Chemscore.Hbonds>
donor molecule, donor type, donor heavy atom, donor atom, acceptor molecule, acceptor atom, score
      P1  H  7997  8008       L1     7  1.30

> <Gold.PLP.Chemscore.Internal.Correction>
0.1555

> <Gold.Rescore>
     Score         DG    S(hbond)    S(metal)    S(lipo)     H(rot)  DE(clash)    DE(int)     intcor
      9.07     -11.39       0.05        0.00      85.67       1.67       0.45       1.87       ----

> <Gold.Chemscore.Fitness>
9.0680

> <Gold.Chemscore.DG>
-11.3921

> <Gold.Chemscore.ZeroCoef>
-5.4800

> <Gold.Chemscore.Hbond>
0.0498

> <Gold.Chemscore.Metal>
0.0000

> <Gold.Chemscore.Lipo>
85.6730

> <Gold.Chemscore.Internal_Hbond>
0.0000

> <Gold.Chemscore.DEClash>
0.4507

> <Gold.Chemscore.DEInternal>
1.8734

> <Gold.Chemscore.Rot>
1.6710

> <Gold.Chemscore.Internal.Correction>
   9.000000E+99

> <Gold.Chemscore.Hbonds>
donor molecule, donor type, donor heavy atom, donor atom, acceptor molecule, acceptor atom, score
      P1  H  7997  8008       L1     7  0.05

> <Gold.Chemscore.Hbond.Weighted>
-0.1663

> <Gold.Chemscore.Metal.Weighted>
-0.0000

> <Gold.Chemscore.Lipo.Weighted>
-10.0237

> <Gold.Chemscore.Internal_Hbond.Weighted>
0.0000

> <Gold.Chemscore.DEClash.Weighted>
0.4507

> <Gold.Chemscore.DEInternal.Weighted>
1.8734

> <Gold.Chemscore.Rot.Weighted>
4.2779

> <Gold.Chemscore.Internal.Correction.Weighted>
   9.000000E+99

> <Gold.Protein.RotatedTorsions>
[ 6907 6896 6895 6894 ] final    3.79 input  -60.11 | X-H torsion
[ 7974 7965 7964 7962 ] final  -43.75 input  175.53 | X-H torsion
[ 8008 7997 7996 7995 ] final  -66.72 input   59.86 | X-H torsion
[ 10167 10162 10161 10158 ] final  127.95 input  -65.29 | X-H torsion
[ 10718 10713 10712 10709 ] final  -44.40 input   66.30 | X-H torsion
[ 10763 10752 10751 10750 ] final  -17.39 input  -60.55 | X-H torsion
[ 11005 11000 10999 10996 ] final  -53.56 input  -57.11 | X-H torsion

> <Gold.Protein.ActiveResidues>
 VAL166  LYS551  ARG553  GLY616  TRP617  ASP618  TYR619  PRO620  LYS621  CYS622 
 ASP623  PHE694  ASN695  SER759  ASP760  ASP761  ALA762  ILE779  LEU786  VAL792 
 PHE793  MET794  SER795  GLU796  ALA797  LYS798  CYS799  TRP800  GLU811  SER814 

> <Gold.Protein.RotatedAtoms>
  151.6307  135.1023  160.0120 H   0  0  0  0  0  0  0  0  0  0  0  0  # atno 6907 bound_to 6896
  152.4108  133.6955  159.6404 H   0  0  0  0  0  0  0  0  0  0  0  0  # atno 6908 bound_to 6896
  150.7998  133.8545  159.3255 H   0  0  0  0  0  0  0  0  0  0  0  0  # atno 6909 bound_to 6896
  145.9988  140.7098  142.9280 H   0  0  0  0  0  0  0  0  0  0  0  0  # atno 7974 bound_to 7965
  154.4753  140.0907  156.7245 H   0  0  0  0  0  0  0  0  0  0  0  0  # atno 8008 bound_to 7997
  155.4614  140.3461  155.4295 H   0  0  0  0  0  0  0  0  0  0  0  0  # atno 8009 bound_to 7997
  156.1105  140.1446  156.9333 H   0  0  0  0  0  0  0  0  0  0  0  0  # atno 8010 bound_to 7997
  139.5552  144.6843  151.4205 H   0  0  0  0  0  0  0  0  0  0  0  0  # atno 10167 bound_to 10162
  156.2390  130.4178  149.8783 H   0  0  0  0  0  0  0  0  0  0  0  0  # atno 10718 bound_to 10713
  153.5732  135.7007  153.5495 H   0  0  0  0  0  0  0  0  0  0  0  0  # atno 10763 bound_to 10752
  153.3326  135.4043  155.1507 H   0  0  0  0  0  0  0  0  0  0  0  0  # atno 10764 bound_to 10752
  154.8630  135.3722  154.5256 H   0  0  0  0  0  0  0  0  0  0  0  0  # atno 10765 bound_to 10752
  141.0982  133.6621  156.4190 H   0  0  0  0  0  0  0  0  0  0  0  0  # atno 11005 bound_to 11000
  144.6912  140.3197  143.7234 LP  0  0  0  0  0  0  0  0  0  0  0  0  # atno 17320 bound_to 7965
  145.7519  139.1796  143.2317 LP  0  0  0  0  0  0  0  0  0  0  0  0  # atno 17321 bound_to 7965
  140.6823  143.8054  150.7138 LP  0  0  0  0  0  0  0  0  0  0  0  0  # atno 17342 bound_to 10162
  140.1511  143.4357  152.2130 LP  0  0  0  0  0  0  0  0  0  0  0  0  # atno 17343 bound_to 10162
  156.6371  130.8689  151.3507 LP  0  0  0  0  0  0  0  0  0  0  0  0  # atno 17370 bound_to 10713
  157.7167  130.9506  150.1282 LP  0  0  0  0  0  0  0  0  0  0  0  0  # atno 17371 bound_to 10713
  140.5088  134.6415  157.5276 LP  0  0  0  0  0  0  0  0  0  0  0  0  # atno 17394 bound_to 11000
  139.9825  134.7115  155.9834 LP  0  0  0  0  0  0  0  0  0  0  0  0  # atno 17395 bound_to 11000

$$$$
