#       Name:                AV-unprocessed.smi:54
#       Creating user name   scv26
#       Creation time:       Thu Mar 26 16:41:56 2020


#       File generated by GOLD software.
#

@<TRIPOS>MOLECULE
AV-unprocessed.smi:54
    58    60     1
SMALL
NO_CHARGES


@<TRIPOS>ATOM
      1 ****        -0.8176   5.4477  -1.1094 C.3            1 S1                 0.0000
      2 ****        -1.0560   4.8510   0.2868 C.3            1 S1                 0.0000
      3 ****        -0.1184   5.4801   1.3304 C.3            1 S1                 0.0000
      4 ****        -0.8901   3.3274   0.2549 C.2            1 S1                 0.0000
      5 ****         0.1955   2.7939   0.0234 O.2            1 S1                 0.0000
      6 ****        -2.0997   2.5649   0.5084 N.am           1 S1                 0.0000
      7 ****        -2.2343   1.2184   0.5314 C.2            1 S1                 0.0000
      8 ****        -1.2058   0.3839   0.4765 N.2            1 S1                 0.0000
      9 ****        -1.5463  -0.9394   0.5147 C.2            1 S1                 0.0000
     10 ****        -2.8199  -1.4606   0.6055 C.2            1 S1                 0.0000
     11 ****        -2.7690  -2.8505   0.6140 N.2            1 S1                 0.0000
     12 ****        -1.4961  -3.1215   0.5289 C.2            1 S1                 0.0000
     13 ****        -0.6855  -2.0128   0.4663 N.pl3          1 S1                 0.0000
     14 ****         0.8018  -1.9310   0.3593 C.3            1 S1                 0.0000
     15 ****         1.3493  -3.1527   0.7267 O.3            1 S1                 0.0000
     16 ****         2.6425  -3.2757   0.1426 C.3            1 S1                 0.0000
     17 ****         2.8415  -4.7410  -0.2734 C.3            1 S1                 0.0000
     18 ****         4.1763  -4.9584  -0.6792 O.3            1 S1                 0.0000
     19 ****         2.6771  -2.2788  -1.0373 C.3            1 S1                 0.0000
     20 ****         3.6300  -1.2689  -0.7667 O.3            1 S1                 0.0000
     21 ****         1.2789  -1.6731  -1.0716 C.3            1 S1                 0.0000
     22 ****         0.4728  -2.3122  -2.0459 O.3            1 S1                 0.0000
     23 ****        -3.9428  -0.5705   0.6738 C.2            1 S1                 0.0000
     24 ****        -5.1357  -0.8536   0.7605 O.2            1 S1                 0.0000
     25 ****        -3.5533   0.7748   0.6310 N.am           1 S1                 0.0000
     26 ****         1.1078  -1.1547   1.0626 H              1 S1                 0.0000
     27 ****         3.3744  -3.0069   0.9068 H              1 S1                 0.0000
     28 ****         2.9419  -2.7514  -1.9845 H              1 S1                 0.0000
     29 ****         1.2786  -0.6011  -1.2755 H              1 S1                 0.0000
     30 ****        -1.4843   5.0028  -1.8493 H              1 S1                 0.0000
     31 ****         0.2077   5.2866  -1.4455 H              1 S1                 0.0000
     32 ****        -1.0005   6.5225  -1.1100 H              1 S1                 0.0000
     33 ****        -2.0827   5.0751   0.5798 H              1 S1                 0.0000
     34 ****        -0.2828   5.0526   2.3203 H              1 S1                 0.0000
     35 ****        -0.2863   6.5547   1.4066 H              1 S1                 0.0000
     36 ****         0.9306   5.3282   1.0721 H              1 S1                 0.0000
     37 ****        -2.9378   3.1057   0.6611 H              1 S1                 0.0000
     38 ****        -1.1188  -4.1334   0.5067 H              1 S1                 0.0000
     39 ****         2.6287  -5.4025   0.5668 H              1 S1                 0.0000
     40 ****         2.1604  -5.0138  -1.0800 H              1 S1                 0.0000
     41 ****         4.2744  -5.8683  -0.9149 H              1 S1                 0.0000
     42 ****         4.4857  -1.6683  -0.7257 H              1 S1                 0.0000
     43 ****         0.4027  -3.2271  -1.8212 H              1 S1                 0.0000
     44 ****        -4.2936   1.4594   0.6728 H              1 S1                 0.0000
     45 ****         1.0026   3.3578  -0.1511 LP             1 S1                 0.0000
     46 ****         0.2698   1.7967   0.0099 LP             1 S1                 0.0000
     47 ****        -0.2582   0.6969   0.4124 LP             1 S1                 0.0000
     48 ****        -3.5325  -3.4938   0.6720 LP             1 S1                 0.0000
     49 ****         0.7626  -3.8944   0.4015 LP             1 S1                 0.0000
     50 ****         1.4253  -3.2001   1.7227 LP             1 S1                 0.0000
     51 ****         4.7976  -4.7359   0.0721 LP             1 S1                 0.0000
     52 ****         4.3871  -4.3812  -1.4681 LP             1 S1                 0.0000
     53 ****         3.4193  -0.8317   0.1076 LP             1 S1                 0.0000
     54 ****         3.6118  -0.5839  -1.4950 LP             1 S1                 0.0000
     55 ****         0.8940  -2.2173  -2.9479 LP             1 S1                 0.0000
     56 ****        -0.4367  -1.8966  -2.0573 LP             1 S1                 0.0000
     57 ****        -5.4213  -1.8115   0.7915 LP             1 S1                 0.0000
     58 ****        -5.8207  -0.1261   0.8000 LP             1 S1                 0.0000
@<TRIPOS>BOND
    1    1    2 1     
    2    1   30 1     
    3    1   31 1     
    4    1   32 1     
    5    2    3 1     
    6    2    4 1     
    7    2   33 1     
    8    3   34 1     
    9    3   35 1     
   10    3   36 1     
   11    4    5 2     
   12    4    6 am    
   13    6   37 1     
   14    6    7 1     
   15    7   25 1     
   16    7    8 2     
   17    8    9 1     
   18    9   13 1     
   19    9   10 2     
   20   10   11 1     
   21   10   23 1     
   22   11   12 2     
   23   12   13 1     
   24   12   38 1     
   25   13   14 1     
   26   14   26 1     
   27   14   21 1     
   28   14   15 1     
   29   15   16 1     
   30   16   27 1     
   31   16   17 1     
   32   16   19 1     
   33   17   18 1     
   34   17   39 1     
   35   17   40 1     
   36   18   41 1     
   37   19   28 1     
   38   19   20 1     
   39   19   21 1     
   40   20   42 1     
   41   21   29 1     
   42   21   22 1     
   43   22   43 1     
   44   23   24 2     
   45   23   25 am    
   46   25   44 1     
   47    5   45 1     
   48    5   46 1     
   49    8   47 1     
   50   11   48 1     
   51   15   49 1     
   52   15   50 1     
   53   18   51 1     
   54   18   52 1     
   55   20   53 1     
   56   20   54 1     
   57   22   55 1     
   58   22   56 1     
   59   24   57 1     
   60   24   58 1     
@<TRIPOS>SUBSTRUCTURE
      1 S1             1
@<TRIPOS>SET
LONE_PAIRS      STATIC     ATOMS    <user>   **** ""
14 45 46 47 48 49 50 51 52 53 54 55 56 57 58
DONOR_HYDROGENS      STATIC     ATOMS    <user>   **** ""
5 37 41 42 43 44
ATOM$BLUE        STATIC     ATOMS    COLORGROUP SYSTEM
14 45 46 47 48 49 50 51 52 53 54 55 56 57 58
ATOM$RED        STATIC     ATOMS    COLORGROUP SYSTEM
5 37 41 42 43 44
