#       Name:                AV-unprocessed.smi:332
#       Creating user name   scv26
#       Creation time:       Thu Mar 26 22:26:46 2020


#       File generated by GOLD software.
#

@<TRIPOS>MOLECULE
AV-unprocessed.smi:332
    46    48     1
SMALL
NO_CHARGES


@<TRIPOS>ATOM
      1 ****        -2.1760   1.3020   1.8126 C.3            1 S1                 0.0000
      2 ****        -1.3094   1.0583   0.5653 C.3            1 S1                 0.0000
      3 ****         0.0992   1.0160   0.9429 N.am           1 S1                 0.0000
      4 ****         0.9147   2.0748   1.0818 C.2            1 S1                 0.0000
      5 ****         0.5304   3.2355   0.9440 O.2            1 S1                 0.0000
      6 ****         2.3946   1.8101   1.4093 C.3            1 S1                 0.0000
      7 ****         2.7665   0.3848   1.4688 N.am           1 S1                 0.0000
      8 ****         3.2019  -0.2087   0.2671 C.2            1 S1                 0.0000
      9 ****         3.5483  -1.5036   0.1990 C.2            1 S1                 0.0000
     10 ****         3.4687  -2.2952   1.4035 C.2            1 S1                 0.0000
     11 ****         3.0492  -1.7387   2.5574 C.2            1 S1                 0.0000
     12 ****         2.6617  -0.3254   2.6345 C.2            1 S1                 0.0000
     13 ****         2.2592   0.1854   3.6797 O.2            1 S1                 0.0000
     14 ****        -1.6858  -0.2588  -0.1533 C.3            1 S1                 0.0000
     15 ****        -3.0681  -0.2492  -0.8436 C.3            1 S1                 0.0000
     16 ****        -2.7519  -0.7690  -2.2587 C.3            1 S1                 0.0000
     17 ****        -2.0281   0.3358  -3.0503 C.3            1 S1                 0.0000
     18 ****        -0.6313   0.3552  -2.4033 C.3            1 S1                 0.0000
     19 ****        -0.7503  -0.7175  -1.3014 C.3            1 S1                 0.0000
     20 ****        -1.6227  -1.7586  -1.9950 C.3            1 S1                 0.0000
     21 ****        -3.2343   1.3522   1.5561 H              1 S1                 0.0000
     22 ****        -1.9150   2.2434   2.2968 H              1 S1                 0.0000
     23 ****        -2.0493   0.5053   2.5462 H              1 S1                 0.0000
     24 ****        -1.4670   1.8908  -0.1222 H              1 S1                 0.0000
     25 ****         0.4989   0.0988   1.0779 H              1 S1                 0.0000
     26 ****         3.0020   2.3163   0.6575 H              1 S1                 0.0000
     27 ****         2.6359   2.3128   2.3474 H              1 S1                 0.0000
     28 ****         3.2252   0.4506  -0.5888 H              1 S1                 0.0000
     29 ****         3.8743  -1.9424  -0.7326 H              1 S1                 0.0000
     30 ****         3.7467  -3.3385   1.3794 H              1 S1                 0.0000
     31 ****         2.9956  -2.3471   3.4483 H              1 S1                 0.0000
     32 ****        -1.6865  -1.0546   0.5942 H              1 S1                 0.0000
     33 ****        -3.7575  -0.9168  -0.3257 H              1 S1                 0.0000
     34 ****        -3.5259   0.7402  -0.8717 H              1 S1                 0.0000
     35 ****        -3.6177  -1.1819  -2.7769 H              1 S1                 0.0000
     36 ****        -1.9570   0.0761  -4.1073 H              1 S1                 0.0000
     37 ****        -2.5349   1.2988  -2.9752 H              1 S1                 0.0000
     38 ****         0.1264   0.0663  -3.1327 H              1 S1                 0.0000
     39 ****        -0.3541   1.3378  -2.0232 H              1 S1                 0.0000
     40 ****         0.2130  -1.0956  -0.9569 H              1 S1                 0.0000
     41 ****        -1.9142  -2.5858  -1.3452 H              1 S1                 0.0000
     42 ****        -1.1773  -2.1606  -2.9067 H              1 S1                 0.0000
     43 ****        -0.4258   3.4222   0.7189 LP             1 S1                 0.0000
     44 ****         1.1744   3.9922   1.0572 LP             1 S1                 0.0000
     45 ****         1.9958   1.1500   3.6958 LP             1 S1                 0.0000
     46 ****         2.1957  -0.3642   4.5127 LP             1 S1                 0.0000
@<TRIPOS>BOND
    1    1    2 1     
    2    1   21 1     
    3    1   22 1     
    4    1   23 1     
    5    2    3 1     
    6    2   14 1     
    7    2   24 1     
    8    3    4 am    
    9    3   25 1     
   10    4    5 2     
   11    4    6 1     
   12    6    7 1     
   13    6   26 1     
   14    6   27 1     
   15    7   12 am    
   16    7    8 1     
   17    8    9 2     
   18    8   28 1     
   19    9   10 1     
   20    9   29 1     
   21   10   11 2     
   22   10   30 1     
   23   11   12 1     
   24   11   31 1     
   25   12   13 2     
   26   14   19 1     
   27   14   15 1     
   28   14   32 1     
   29   15   16 1     
   30   15   33 1     
   31   15   34 1     
   32   16   20 1     
   33   16   17 1     
   34   16   35 1     
   35   17   18 1     
   36   17   36 1     
   37   17   37 1     
   38   18   19 1     
   39   18   38 1     
   40   18   39 1     
   41   19   20 1     
   42   19   40 1     
   43   20   41 1     
   44   20   42 1     
   45    5   43 1     
   46    5   44 1     
   47   13   45 1     
   48   13   46 1     
@<TRIPOS>SUBSTRUCTURE
      1 S1             1
@<TRIPOS>SET
LONE_PAIRS      STATIC     ATOMS    <user>   **** ""
4 43 44 45 46
DONOR_HYDROGENS      STATIC     ATOMS    <user>   **** ""
1 25
ATOM$BLUE        STATIC     ATOMS    COLORGROUP SYSTEM
4 43 44 45 46
ATOM$RED        STATIC     ATOMS    COLORGROUP SYSTEM
1 25
