AV-unprocessed.smi:2213|AV-procd|sdf|8957|dock9
  -GOLD-   2272012173D 1   1.00000     0.00000
 Structure written by MMmdl.
 38 39  0  0  0  0  0  0  0  0  1 V2000
  143.4608  140.7327  156.6447 C   0  0  0  0  0  0  0  0  0  0  0  0
  144.8750  140.6855  156.0940 C   0  0  0  0  0  0  0  0  0  0  0  0
  145.4182  141.9175  155.7178 N   0  0  0  0  0  0  0  0  0  0  0  0
  146.6173  141.9738  155.2375 C   0  0  0  0  0  0  0  0  0  0  0  0
  147.4049  140.8213  155.0831 N   0  0  0  0  0  0  0  0  0  0  0  0
  148.7524  141.0224  154.5253 C   0  0  0  0  0  0  0  0  0  0  0  0
  149.8576  140.4922  155.4664 C   0  0  1  0  0  0  0  0  0  0  0  0
  150.9391  139.9781  154.7158 O   0  0  0  0  0  0  0  0  0  0  0  0
  150.4155  141.5713  156.4093 C   0  0  0  0  0  0  0  0  0  0  0  0
  151.3994  140.9995  157.2626 O   0  0  0  0  0  0  0  0  0  0  0  0
  151.9047  141.7645  158.2926 C   0  0  0  0  0  0  0  0  0  0  0  0
  151.5446  143.1167  158.5241 C   0  0  0  0  0  0  0  0  0  0  0  0
  152.1062  143.8320  159.5998 C   0  0  0  0  0  0  0  0  0  0  0  0
  151.6582  145.4763  159.8686 Cl  0  0  0  0  0  0  0  0  0  0  0  0
  153.0317  143.2076  160.4562 C   0  0  0  0  0  0  0  0  0  0  0  0
  153.3952  141.8668  160.2355 C   0  0  0  0  0  0  0  0  0  0  0  0
  152.8352  141.1498  159.1601 C   0  0  0  0  0  0  0  0  0  0  0  0
  153.2998  139.5050  158.9094 Cl  0  0  0  0  0  0  0  0  0  0  0  0
  146.9478  139.5788  155.4131 C   0  0  0  0  0  0  0  0  0  0  0  0
  147.6404  138.5717  155.2534 O   0  0  0  0  0  0  0  0  0  0  0  0
  145.5834  139.5308  155.9629 C   0  0  0  0  0  0  0  0  0  0  0  0
  145.0434  138.1607  156.3538 C   0  0  0  0  0  0  0  0  0  0  0  0
  143.4340  140.3487  157.6648 H   0  0  0  0  0  0  0  0  0  0  0  0
  142.7915  140.1325  156.0278 H   0  0  0  0  0  0  0  0  0  0  0  0
  143.0743  141.7526  156.6611 H   0  0  0  0  0  0  0  0  0  0  0  0
  147.0849  142.9083  154.9224 H   0  0  0  0  0  0  0  0  0  0  0  0
  148.8547  140.5851  153.5296 H   0  0  0  0  0  0  0  0  0  0  0  0
  148.9005  142.0917  154.3626 H   0  0  0  0  0  0  0  0  0  0  0  0
  149.4729  139.6786  156.0827 H   0  0  0  0  0  0  0  0  0  0  0  0
  150.6960  139.1263  154.3865 H   0  0  0  0  0  0  0  0  0  0  0  0
  150.8789  142.3541  155.8066 H   0  0  0  0  0  0  0  0  0  0  0  0
  149.6101  142.0295  156.9863 H   0  0  0  0  0  0  0  0  0  0  0  0
  150.8376  143.6284  157.8891 H   0  0  0  0  0  0  0  0  0  0  0  0
  153.4629  143.7549  161.2816 H   0  0  0  0  0  0  0  0  0  0  0  0
  154.1059  141.3879  160.8929 H   0  0  0  0  0  0  0  0  0  0  0  0
  145.0118  137.5066  155.4820 H   0  0  0  0  0  0  0  0  0  0  0  0
  144.0393  138.1981  156.7730 H   0  0  0  0  0  0  0  0  0  0  0  0
  145.6916  137.6994  157.0998 H   0  0  0  0  0  0  0  0  0  0  0  0
  1  2  1  0  0  0  0
  1 23  1  0  0  0  0
  1 24  1  0  0  0  0
  1 25  1  0  0  0  0
  2 21  2  0  0  0  0
  2  3  1  0  0  0  0
  3  4  2  0  0  0  0
  4  5  1  0  0  0  0
  4 26  1  0  0  0  0
  5  6  1  0  0  0  0
  5 19  1  0  0  0  0
  6  7  1  0  0  0  0
  6 27  1  0  0  0  0
  6 28  1  0  0  0  0
  7  8  1  0  0  0  0
  7  9  1  0  0  0  0
  7 29  1  0  0  0  0
  8 30  1  0  0  0  0
  9 10  1  0  0  0  0
  9 31  1  0  0  0  0
  9 32  1  0  0  0  0
 10 11  1  0  0  0  0
 11 17  1  0  0  0  0
 11 12  2  0  0  0  0
 12 13  1  0  0  0  0
 12 33  1  0  0  0  0
 13 14  1  0  0  0  0
 13 15  2  0  0  0  0
 15 16  1  0  0  0  0
 15 34  1  0  0  0  0
 16 17  2  0  0  0  0
 16 35  1  0  0  0  0
 17 18  1  0  0  0  0
 19 20  2  0  0  0  0
 19 21  1  0  0  0  0
 21 22  1  0  0  0  0
 22 36  1  0  0  0  0
 22 37  1  0  0  0  0
 22 38  1  0  0  0  0
M  END
> <s_m_source_file>
AV-unprocessed.smi

> <i_m_source_file_index>
2213

> <i_lp_mmshare_version>
43012

> <i_f3d_flags>
0

> <s_epik_input>
W0NIM11jMW5bY0hdbihjKD1PKWMxW0NIM10pW0NIMl1bQ0BIXShbT0hdKVtDSDJdT2MyW2NIXWMoQ2wpW2NIXVtjSF1jMkNs

> <s_epik_cmdline>
J2VwaWtfcHl0aG9uJywgJy1waCcsICc3LjAnLCAnLXRuJywgJzgnLCAnLW1hJywgJzIwMCcsICctbWV0YWxfYmluZGluZycsICctaW1hZScsICc8aW5maWxlLm1hZT4nLCAnLW9tYWUnLCAnPG91dGZpbGUubWFlPic=

> <r_lp_tautomer_probability>
1

> <r_epik_Ionization_Penalty>
3.50205e-05

> <r_epik_Ionization_Penalty_Charging>
7.87908e-08

> <r_epik_Ionization_Penalty_Neutral>
3.49418e-05

> <r_epik_State_Penalty>
-0

> <r_epik_Charging_Adjusted_Penalty>
7.87908e-08

> <i_epik_Tot_Q>
0

> <i_epik_Tot_abs_Q>
0

> <r_epik_Metal_State_Penalty>
-0

> <b_epik_Metal_Only>
0

> <s_lp_Force_Field>
OPLS_2005

> <r_lp_Energy>
23.8454

> <b_lp_Chiralities_Consistent>
1

> <s_lp_Variant>
AV-unprocessed.smi:2213-2

> <Gold.Version>
5.8.1

> <Gold.Id.Protein>
6NUR|6NUR_protein|mol2

> <Gold.PLP.Fitness>
46.6004

> <Gold.PLP.PLP>
-41.5907

> <Gold.PLP.part.hbond>
-1.0000

> <Gold.PLP.part.metal>
0.0000

> <Gold.PLP.part.buried>
-3.5906

> <Gold.PLP.part.nonpolar>
-37.9166

> <Gold.PLP.part.repulsive>
0.2778

> <Gold.PLP.ligand.clash>
0.0000

> <Gold.PLP.ligand.torsion>
0.4729

> <Gold.PLP.Chemscore.Hbond>
1.0000

> <Gold.PLP.Chemscore.CHOScore>
0.9730

> <Gold.PLP.Chemscore.Metal>
0.0000

> <Gold.Chemscore.Hbonds>
donor molecule, donor type, donor heavy atom, donor atom, acceptor molecule, acceptor atom, score
      P1  H  7989  7998       L1     8  1.00
      L1  C     4    26       P1  8028  0.73

> <Gold.PLP.Chemscore.Internal.Correction>
0.0364

> <Gold.Rescore>
     Score         DG    S(hbond)    S(metal)    S(lipo)     H(rot)  DE(clash)    DE(int)     intcor
     14.50     -15.18       0.91        0.00     108.99       2.38       0.05       0.63       ----

> <Gold.Chemscore.Fitness>
14.4993

> <Gold.Chemscore.DG>
-15.1785

> <Gold.Chemscore.ZeroCoef>
-5.4800

> <Gold.Chemscore.Hbond>
0.9120

> <Gold.Chemscore.Metal>
0.0000

> <Gold.Chemscore.Lipo>
108.9904

> <Gold.Chemscore.Internal_Hbond>
0.0000

> <Gold.Chemscore.DEClash>
0.0533

> <Gold.Chemscore.DEInternal>
0.6259

> <Gold.Chemscore.Rot>
2.3826

> <Gold.Chemscore.Internal.Correction>
   9.000000E+99

> <Gold.Chemscore.Hbonds>
donor molecule, donor type, donor heavy atom, donor atom, acceptor molecule, acceptor atom, score
      P1  H  7989  7998       L1     8  0.73

> <Gold.Chemscore.Hbond.Weighted>
-3.0462

> <Gold.Chemscore.Metal.Weighted>
-0.0000

> <Gold.Chemscore.Lipo.Weighted>
-12.7519

> <Gold.Chemscore.Internal_Hbond.Weighted>
0.0000

> <Gold.Chemscore.DEClash.Weighted>
0.0533

> <Gold.Chemscore.DEInternal.Weighted>
0.6259

> <Gold.Chemscore.Rot.Weighted>
6.0996

> <Gold.Chemscore.Internal.Correction.Weighted>
   9.000000E+99

> <Gold.Protein.RotatedTorsions>
[ 6907 6896 6895 6894 ] final  139.22 input  -60.11 | X-H torsion
[ 7974 7965 7964 7962 ] final  -97.33 input  175.53 | X-H torsion
[ 8008 7997 7996 7995 ] final   -4.11 input   59.86 | X-H torsion
[ 10167 10162 10161 10158 ] final   15.62 input  -65.29 | X-H torsion
[ 10718 10713 10712 10709 ] final  179.68 input   66.30 | X-H torsion
[ 10763 10752 10751 10750 ] final  -39.35 input  -60.55 | X-H torsion
[ 11005 11000 10999 10996 ] final  -63.17 input  -57.11 | X-H torsion

> <Gold.Protein.ActiveResidues>
 VAL166  LYS551  ARG553  GLY616  TRP617  ASP618  TYR619  PRO620  LYS621  CYS622 
 ASP623  PHE694  ASN695  SER759  ASP760  ASP761  ALA762  ILE779  LEU786  VAL792 
 PHE793  MET794  SER795  GLU796  ALA797  LYS798  CYS799  TRP800  GLU811  SER814 

> <Gold.Protein.RotatedAtoms>
  152.2575  133.5268  159.5361 H   0  0  0  0  0  0  0  0  0  0  0  0  # atno 6907 bound_to 6896
  150.7114  134.0875  159.3929 H   0  0  0  0  0  0  0  0  0  0  0  0  # atno 6908 bound_to 6896
  151.8794  135.0459  160.0538 H   0  0  0  0  0  0  0  0  0  0  0  0  # atno 6909 bound_to 6896
  145.3352  140.9449  143.2639 H   0  0  0  0  0  0  0  0  0  0  0  0  # atno 7974 bound_to 7965
  154.6178  140.2492  155.7587 H   0  0  0  0  0  0  0  0  0  0  0  0  # atno 8008 bound_to 7997
  156.2409  140.2933  156.0390 H   0  0  0  0  0  0  0  0  0  0  0  0  # atno 8009 bound_to 7997
  155.1946  140.0392  157.2897 H   0  0  0  0  0  0  0  0  0  0  0  0  # atno 8010 bound_to 7997
  140.5854  143.8899  150.6826 H   0  0  0  0  0  0  0  0  0  0  0  0  # atno 10167 bound_to 10162
  156.8722  130.9788  151.3072 H   0  0  0  0  0  0  0  0  0  0  0  0  # atno 10718 bound_to 10713
  153.9279  135.6775  153.4746 H   0  0  0  0  0  0  0  0  0  0  0  0  # atno 10763 bound_to 10752
  153.0995  135.4835  154.8837 H   0  0  0  0  0  0  0  0  0  0  0  0  # atno 10764 bound_to 10752
  154.7444  135.3168  154.8629 H   0  0  0  0  0  0  0  0  0  0  0  0  # atno 10765 bound_to 10752
  141.1384  133.6648  156.5639 H   0  0  0  0  0  0  0  0  0  0  0  0  # atno 11005 bound_to 11000
  144.8833  139.4874  143.6712 LP  0  0  0  0  0  0  0  0  0  0  0  0  # atno 17320 bound_to 7965
  146.3030  139.7487  142.9077 LP  0  0  0  0  0  0  0  0  0  0  0  0  # atno 17321 bound_to 7965
  140.2409  143.3664  152.1487 LP  0  0  0  0  0  0  0  0  0  0  0  0  # atno 17342 bound_to 10162
  139.5194  144.7020  151.5467 LP  0  0  0  0  0  0  0  0  0  0  0  0  # atno 17343 bound_to 10162
  157.6189  130.8639  149.9075 LP  0  0  0  0  0  0  0  0  0  0  0  0  # atno 17370 bound_to 10713
  156.0720  130.3684  150.0755 LP  0  0  0  0  0  0  0  0  0  0  0  0  # atno 17371 bound_to 10713
  140.3966  134.7393  157.4754 LP  0  0  0  0  0  0  0  0  0  0  0  0  # atno 17394 bound_to 11000
  140.0526  134.6108  155.8843 LP  0  0  0  0  0  0  0  0  0  0  0  0  # atno 17395 bound_to 11000

$$$$
