#       Name:                AV-unprocessed.smi:2106
#       Creating user name   scv26
#       Creation time:       Fri Mar 27 11:33:11 2020


#       File generated by GOLD software.
#

@<TRIPOS>MOLECULE
AV-unprocessed.smi:2106
    53    54     1
SMALL
NO_CHARGES


@<TRIPOS>ATOM
      1 ****        -4.7000  -1.9870   4.4447 C.3            1 S1                 0.0000
      2 ****        -4.5723  -0.9262   3.3917 C.2            1 S1                 0.0000
      3 ****        -4.8801   0.4589   3.4957 C.2            1 S1                 0.0000
      4 ****        -4.5825   0.9649   2.2620 C.2            1 S1                 0.0000
      5 ****        -4.6917   2.3610   1.7435 C.3            1 S1                 0.0000
      6 ****        -4.1252  -0.0921   1.4945 N.pl3          1 S1                 0.0000
      7 ****        -3.6666  -0.0940   0.1143 C.3            1 S1                 0.0000
      8 ****        -2.1691   0.2060   0.0327 C.2            1 S1                 0.0000
      9 ****        -1.7796   1.3637  -0.1191 O.2            1 S1                 0.0000
     10 ****        -1.3399  -0.8442   0.1386 N.am           1 S1                 0.0000
     11 ****         0.1163  -0.7661   0.1307 C.3            1 S1                 0.0000
     12 ****         0.6684  -0.4991  -1.2838 C.3            1 S1                 0.0000
     13 ****         2.1522  -0.4824  -1.3274 N.4            1 S1                 1.0000
     14 ****         2.6727  -0.6498  -2.7054 C.3            1 S1                 0.0000
     15 ****         4.2127  -0.6846  -2.7061 C.3            1 S1                 0.0000
     16 ****         4.7889  -0.7727  -4.1236 C.3            1 S1                 0.0000
     17 ****         4.7036   0.5075  -2.1037 O.3            1 S1                 0.0000
     18 ****         4.2916   0.6457  -0.7487 C.3            1 S1                 0.0000
     19 ****         4.9488   1.9066  -0.1763 C.3            1 S1                 0.0000
     20 ****         2.7538   0.7172  -0.6937 C.3            1 S1                 0.0000
     21 ****        -4.1208  -1.2502   2.1911 N.2            1 S1                 0.0000
     22 ****        -5.1222  -1.5800   5.3638 H              1 S1                 0.0000
     23 ****        -3.7285  -2.4170   4.6885 H              1 S1                 0.0000
     24 ****        -5.3503  -2.7962   4.1113 H              1 S1                 0.0000
     25 ****        -5.2615   1.0004   4.3487 H              1 S1                 0.0000
     26 ****        -5.0510   3.0366   2.5198 H              1 S1                 0.0000
     27 ****        -5.3885   2.4120   0.9067 H              1 S1                 0.0000
     28 ****        -3.7235   2.7277   1.4032 H              1 S1                 0.0000
     29 ****        -3.8849  -1.0626  -0.3391 H              1 S1                 0.0000
     30 ****        -4.2270   0.6508  -0.4516 H              1 S1                 0.0000
     31 ****        -1.7501  -1.7585   0.2667 H              1 S1                 0.0000
     32 ****         0.4276   0.0057   0.8350 H              1 S1                 0.0000
     33 ****         0.5072  -1.7105   0.5104 H              1 S1                 0.0000
     34 ****         0.3033  -1.2871  -1.9444 H              1 S1                 0.0000
     35 ****         0.2856   0.4407  -1.6844 H              1 S1                 0.0000
     36 ****         2.2851  -1.5741  -3.1356 H              1 S1                 0.0000
     37 ****         2.3140   0.1699  -3.3305 H              1 S1                 0.0000
     38 ****         4.5621  -1.5466  -2.1349 H              1 S1                 0.0000
     39 ****         4.4472  -1.6747  -4.6317 H              1 S1                 0.0000
     40 ****         5.8786  -0.7979  -4.0999 H              1 S1                 0.0000
     41 ****         4.4891   0.0852  -4.7264 H              1 S1                 0.0000
     42 ****         4.6407  -0.2165  -0.1774 H              1 S1                 0.0000
     43 ****         4.6718   2.0546   0.8677 H              1 S1                 0.0000
     44 ****         4.6485   2.7960  -0.7312 H              1 S1                 0.0000
     45 ****         6.0357   1.8355  -0.2241 H              1 S1                 0.0000
     46 ****         2.4004   1.6143  -1.2049 H              1 S1                 0.0000
     47 ****         2.4392   0.7976   0.3461 H              1 S1                 0.0000
     48 ****         2.4684  -1.2861  -0.8036 H              1 S1                 0.0000
     49 ****        -2.4424   2.1091  -0.1892 LP             1 S1                 0.0000
     50 ****        -0.8002   1.5588  -0.1723 LP             1 S1                 0.0000
     51 ****         4.3646   1.2918  -2.6231 LP             1 S1                 0.0000
     52 ****         5.7031   0.4939  -2.1348 LP             1 S1                 0.0000
     53 ****        -3.8382  -2.1540   1.8695 LP             1 S1                 0.0000
@<TRIPOS>BOND
    1    1    2 1     
    2    1   22 1     
    3    1   23 1     
    4    1   24 1     
    5    2   21 2     
    6    2    3 1     
    7    3    4 2     
    8    3   25 1     
    9    4    5 1     
   10    4    6 1     
   11    5   26 1     
   12    5   27 1     
   13    5   28 1     
   14    6    7 1     
   15    6   21 1     
   16    7    8 1     
   17    7   29 1     
   18    7   30 1     
   19    8    9 2     
   20    8   10 am    
   21   10   11 1     
   22   10   31 1     
   23   11   12 1     
   24   11   32 1     
   25   11   33 1     
   26   12   13 1     
   27   12   34 1     
   28   12   35 1     
   29   13   20 1     
   30   13   14 1     
   31   13   48 1     
   32   14   15 1     
   33   14   36 1     
   34   14   37 1     
   35   15   16 1     
   36   15   17 1     
   37   15   38 1     
   38   16   39 1     
   39   16   40 1     
   40   16   41 1     
   41   17   18 1     
   42   18   19 1     
   43   18   20 1     
   44   18   42 1     
   45   19   43 1     
   46   19   44 1     
   47   19   45 1     
   48   20   46 1     
   49   20   47 1     
   50    9   49 1     
   51    9   50 1     
   52   17   51 1     
   53   17   52 1     
   54   21   53 1     
@<TRIPOS>SUBSTRUCTURE
      1 S1             1
@<TRIPOS>SET
LONE_PAIRS      STATIC     ATOMS    <user>   **** ""
5 49 50 51 52 53
DONOR_HYDROGENS      STATIC     ATOMS    <user>   **** ""
2 31 48
ATOM$BLUE        STATIC     ATOMS    COLORGROUP SYSTEM
5 49 50 51 52 53
ATOM$RED        STATIC     ATOMS    COLORGROUP SYSTEM
2 31 48
