AV-unprocessed.smi:74|AV-procd|sdf|764|dock1
  -GOLD-   2262017103D 1   1.00000     0.00000
 Structure written by MMmdl.
 58 62  0  0  0  0  0  0  0  0  1 V2000
  151.4906  145.9650  160.2408 O   0  0  0  0  0  0  0  0  0  0  0  0
  150.9570  144.6672  160.0736 C   0  0  0  0  0  0  0  0  0  0  0  0
  151.8395  143.8181  159.1440 C   0  0  0  0  0  0  0  0  0  0  0  0
  151.7211  144.3558  157.7031 C   0  0  0  0  0  0  0  0  0  0  0  0
  150.6693  143.7245  157.0012 O   0  0  0  0  0  0  0  0  0  0  0  0
  153.2831  143.5715  159.6383 C   0  0  0  0  0  0  0  0  0  0  0  0
  153.1879  142.1195  159.1649 C   0  0  0  0  0  0  0  0  0  0  0  0
  153.8824  141.0716  159.8530 N   0  0  0  0  0  0  0  0  0  0  0  0
  154.3693  141.1092  161.1399 C   0  0  0  0  0  0  0  0  0  0  0  0
  154.9214  140.0031  161.5583 N   0  0  0  0  0  0  0  0  0  0  0  0
  154.7787  139.1253  160.4898 C   0  0  0  0  0  0  0  0  0  0  0  0
  155.1312  137.7632  160.2705 C   0  0  0  0  0  0  0  0  0  0  0  0
  155.7765  137.0117  161.1993 N   0  0  0  0  0  0  0  0  0  0  0  0
  156.7801  136.0958  160.6663 C   0  0  0  0  0  0  0  0  0  0  0  0
  157.6548  135.5478  161.8060 C   0  0  0  0  0  0  0  0  0  0  0  0
  156.8322  134.9386  162.7960 O   0  0  0  0  0  0  0  0  0  0  0  0
  155.9083  135.8584  163.3722 C   0  0  2  0  0  0  0  0  0  0  0  0
  155.1412  135.1508  164.4978 C   0  0  0  0  0  0  0  0  0  0  0  0
  154.9312  133.7907  164.1540 O   0  0  0  0  0  0  0  0  0  0  0  0
  154.5059  133.0047  165.2525 C   0  0  0  0  0  0  0  0  0  0  0  0
  154.2349  131.5962  164.7689 C   0  0  0  0  0  0  0  0  0  0  0  0
  152.8322  131.1604  164.4095 C   0  0  0  0  0  0  0  0  0  0  0  0
  153.4941  130.6156  165.6493 C   0  0  0  0  0  0  0  0  0  0  0  0
  154.9834  136.4270  162.2781 C   0  0  0  0  0  0  0  0  0  0  0  0
  154.7856  137.2151  159.0742 N   0  0  0  0  0  0  0  0  0  0  0  0
  154.1501  137.9449  158.1533 C   0  0  0  0  0  0  0  0  0  0  0  0
  153.7685  139.2214  158.2187 N   0  0  0  0  0  0  0  0  0  0  0  0
  154.1076  139.7778  159.4167 C   0  0  0  0  0  0  0  0  0  0  0  0
  151.6719  142.2894  159.2921 C   0  0  0  0  0  0  0  0  0  0  0  0
  150.8672  146.4858  160.7235 H   0  0  0  0  0  0  0  0  0  0  0  0
  150.8400  144.2026  161.0528 H   0  0  0  0  0  0  0  0  0  0  0  0
  149.9516  144.7719  159.6645 H   0  0  0  0  0  0  0  0  0  0  0  0
  151.5265  145.4285  157.6970 H   0  0  0  0  0  0  0  0  0  0  0  0
  152.6479  144.2154  157.1465 H   0  0  0  0  0  0  0  0  0  0  0  0
  149.9385  144.3218  156.9539 H   0  0  0  0  0  0  0  0  0  0  0  0
  154.0532  144.1577  159.1357 H   0  0  0  0  0  0  0  0  0  0  0  0
  153.3836  143.6483  160.7227 H   0  0  0  0  0  0  0  0  0  0  0  0
  153.4814  142.0359  158.1171 H   0  0  0  0  0  0  0  0  0  0  0  0
  154.3065  141.9891  161.7635 H   0  0  0  0  0  0  0  0  0  0  0  0
  156.2739  135.2739  160.1583 H   0  0  0  0  0  0  0  0  0  0  0  0
  157.4148  136.5810  159.9261 H   0  0  0  0  0  0  0  0  0  0  0  0
  158.3527  134.8050  161.4198 H   0  0  0  0  0  0  0  0  0  0  0  0
  158.2522  136.3440  162.2530 H   0  0  0  0  0  0  0  0  0  0  0  0
  156.4767  136.6762  163.8193 H   0  0  0  0  0  0  0  0  0  0  0  0
  155.6956  135.2258  165.4344 H   0  0  0  0  0  0  0  0  0  0  0  0
  154.1784  135.6415  164.6489 H   0  0  0  0  0  0  0  0  0  0  0  0
  155.2811  132.9743  166.0192 H   0  0  0  0  0  0  0  0  0  0  0  0
  153.6032  133.4231  165.7010 H   0  0  0  0  0  0  0  0  0  0  0  0
  155.0398  131.1747  164.1696 H   0  0  0  0  0  0  0  0  0  0  0  0
  152.0272  131.8803  164.5445 H   0  0  0  0  0  0  0  0  0  0  0  0
  152.7180  130.4872  163.5622 H   0  0  0  0  0  0  0  0  0  0  0  0
  153.8208  129.5778  165.6299 H   0  0  0  0  0  0  0  0  0  0  0  0
  153.1290  130.9715  166.6108 H   0  0  0  0  0  0  0  0  0  0  0  0
  154.3249  137.1815  162.7107 H   0  0  0  0  0  0  0  0  0  0  0  0
  154.3511  135.6378  161.8686 H   0  0  0  0  0  0  0  0  0  0  0  0
  153.9141  137.4324  157.2324 H   0  0  0  0  0  0  0  0  0  0  0  0
  151.2992  141.9976  160.2761 H   0  0  0  0  0  0  0  0  0  0  0  0
  151.0957  141.8120  158.4988 H   0  0  0  0  0  0  0  0  0  0  0  0
  1  2  1  0  0  0  0
  1 30  1  0  0  0  0
  2  3  1  0  0  0  0
  2 31  1  0  0  0  0
  2 32  1  0  0  0  0
  3 29  1  0  0  0  0
  3  4  1  0  0  0  0
  3  6  1  0  0  0  0
  4  5  1  0  0  0  0
  4 33  1  0  0  0  0
  4 34  1  0  0  0  0
  5 35  1  0  0  0  0
  6  7  1  0  0  0  0
  6 36  1  0  0  0  0
  6 37  1  0  0  0  0
  7  8  1  0  0  0  0
  7 29  1  0  0  0  0
  7 38  1  0  0  0  0
  8 28  1  0  0  0  0
  8  9  1  0  0  0  0
  9 10  2  0  0  0  0
  9 39  1  0  0  0  0
 10 11  1  0  0  0  0
 11 28  2  0  0  0  0
 11 12  1  0  0  0  0
 12 13  1  0  0  0  0
 12 25  2  0  0  0  0
 13 24  1  0  0  0  0
 13 14  1  0  0  0  0
 14 15  1  0  0  0  0
 14 40  1  0  0  0  0
 14 41  1  0  0  0  0
 15 16  1  0  0  0  0
 15 42  1  0  0  0  0
 15 43  1  0  0  0  0
 16 17  1  0  0  0  0
 17 18  1  0  0  0  0
 17 24  1  0  0  0  0
 17 44  1  0  0  0  0
 18 19  1  0  0  0  0
 18 45  1  0  0  0  0
 18 46  1  0  0  0  0
 19 20  1  0  0  0  0
 20 21  1  0  0  0  0
 20 47  1  0  0  0  0
 20 48  1  0  0  0  0
 21 23  1  0  0  0  0
 21 22  1  0  0  0  0
 21 49  1  0  0  0  0
 22 23  1  0  0  0  0
 22 50  1  0  0  0  0
 22 51  1  0  0  0  0
 23 52  1  0  0  0  0
 23 53  1  0  0  0  0
 24 54  1  0  0  0  0
 24 55  1  0  0  0  0
 25 26  1  0  0  0  0
 26 27  2  0  0  0  0
 26 56  1  0  0  0  0
 27 28  1  0  0  0  0
 29 57  1  0  0  0  0
 29 58  1  0  0  0  0
M  END
> <s_m_source_file>
AV-unprocessed.smi

> <i_m_source_file_index>
74

> <i_lp_mmshare_version>
43012

> <i_f3d_flags>
0

> <s_epik_input>
W09IXVtDSDJdQzEoW0NIMl1bT0hdKVtDSDJdW0NIXShbQ0gyXTEpbihbY0hdbjIpYyhjMjMpbltjSF1uYzNONFtDSDJdW0NIMl1PW0NASF0oW0NIMl00KVtDSDJdT1tDSDJdW0NIXTVbQ0gyXVtDSDJdNQ==

> <s_epik_cmdline>
J2VwaWtfcHl0aG9uJywgJy1waCcsICc3LjAnLCAnLXRuJywgJzgnLCAnLW1hJywgJzIwMCcsICctbWV0YWxfYmluZGluZycsICctaW1hZScsICc8aW5maWxlLm1hZT4nLCAnLW9tYWUnLCAnPG91dGZpbGUubWFlPic=

> <r_lp_tautomer_probability>
1

> <r_epik_Ionization_Penalty>
5.89322e-05

> <r_epik_Ionization_Penalty_Charging>
0

> <r_epik_Ionization_Penalty_Neutral>
5.89322e-05

> <r_epik_State_Penalty>
-0

> <r_epik_Charging_Adjusted_Penalty>
0

> <i_epik_Tot_Q>
0

> <i_epik_Tot_abs_Q>
0

> <r_epik_Metal_State_Penalty>
-0

> <b_epik_Metal_Only>
0

> <s_lp_Force_Field>
OPLS_2005

> <r_lp_Energy>
49.4071

> <b_lp_Chiralities_Consistent>
1

> <s_lp_Variant>
AV-unprocessed.smi:74-2

> <Gold.Version>
5.8.1

> <Gold.Id.Protein>
6NUR|6NUR_protein|mol2

> <Gold.PLP.Fitness>
55.1956

> <Gold.PLP.PLP>
-52.4512

> <Gold.PLP.part.hbond>
-4.0601

> <Gold.PLP.part.metal>
0.0000

> <Gold.PLP.part.buried>
-5.8886

> <Gold.PLP.part.nonpolar>
-42.8326

> <Gold.PLP.part.repulsive>
0.0538

> <Gold.PLP.ligand.clash>
0.0000

> <Gold.PLP.ligand.torsion>
2.5222

> <Gold.PLP.Chemscore.Hbond>
1.9600

> <Gold.PLP.Chemscore.CHOScore>
0.0000

> <Gold.PLP.Chemscore.Metal>
0.0000

> <Gold.Chemscore.Hbonds>
donor molecule, donor type, donor heavy atom, donor atom, acceptor molecule, acceptor atom, score
      L1  H     5    35       P1  8028  0.66
      P1  H  7997  8009       L1    27  1.00

> <Gold.PLP.Chemscore.Internal.Correction>
1.9089

> <Gold.Rescore>
     Score         DG    S(hbond)    S(metal)    S(lipo)     H(rot)  DE(clash)    DE(int)     intcor
     13.75     -15.96       1.74        0.00     126.53       3.97       0.06       2.14       ----

> <Gold.Chemscore.Fitness>
13.7537

> <Gold.Chemscore.DG>
-15.9558

> <Gold.Chemscore.ZeroCoef>
-5.4800

> <Gold.Chemscore.Hbond>
1.7439

> <Gold.Chemscore.Metal>
0.0000

> <Gold.Chemscore.Lipo>
126.5312

> <Gold.Chemscore.Internal_Hbond>
0.0000

> <Gold.Chemscore.DEClash>
0.0577

> <Gold.Chemscore.DEInternal>
2.1444

> <Gold.Chemscore.Rot>
3.9660

> <Gold.Chemscore.Internal.Correction>
   9.000000E+99

> <Gold.Chemscore.Hbonds>
donor molecule, donor type, donor heavy atom, donor atom, acceptor molecule, acceptor atom, score
      L1  H     5    35       P1  8028  0.49
      P1  H  7997  8009       L1    27  0.13

> <Gold.Chemscore.Hbond.Weighted>
-5.8245

> <Gold.Chemscore.Metal.Weighted>
-0.0000

> <Gold.Chemscore.Lipo.Weighted>
-14.8042

> <Gold.Chemscore.Internal_Hbond.Weighted>
0.0000

> <Gold.Chemscore.DEClash.Weighted>
0.0577

> <Gold.Chemscore.DEInternal.Weighted>
2.1444

> <Gold.Chemscore.Rot.Weighted>
10.1529

> <Gold.Chemscore.Internal.Correction.Weighted>
   9.000000E+99

> <Gold.Protein.RotatedTorsions>
[ 6907 6896 6895 6894 ] final  104.78 input  -60.11 | X-H torsion
[ 7974 7965 7964 7962 ] final  105.52 input  175.53 | X-H torsion
[ 8008 7997 7996 7995 ] final  138.24 input   59.86 | X-H torsion
[ 10167 10162 10161 10158 ] final  -99.35 input  -65.29 | X-H torsion
[ 10718 10713 10712 10709 ] final -173.12 input   66.30 | X-H torsion
[ 10763 10752 10751 10750 ] final -160.86 input  -60.55 | X-H torsion
[ 11005 11000 10999 10996 ] final -175.15 input  -57.11 | X-H torsion

> <Gold.Protein.ActiveResidues>
 VAL166  LYS551  ARG553  GLY616  TRP617  ASP618  TYR619  PRO620  LYS621  CYS622 
 ASP623  PHE694  ASN695  SER759  ASP760  ASP761  ALA762  ILE779  LEU786  VAL792 
 PHE793  MET794  SER795  GLU796  ALA797  LYS798  CYS799  TRP800  GLU811  SER814 

> <Gold.Protein.RotatedAtoms>
  152.5253  133.9626  159.7723 H   0  0  0  0  0  0  0  0  0  0  0  0  # atno 6907 bound_to 6896
  150.9914  133.6138  159.2715 H   0  0  0  0  0  0  0  0  0  0  0  0  # atno 6908 bound_to 6896
  151.3280  135.0841  159.9382 H   0  0  0  0  0  0  0  0  0  0  0  0  # atno 6909 bound_to 6896
  145.3186  139.2519  143.3724 H   0  0  0  0  0  0  0  0  0  0  0  0  # atno 7974 bound_to 7965
  156.2998  140.2399  156.4041 H   0  0  0  0  0  0  0  0  0  0  0  0  # atno 8008 bound_to 7997
  154.8500  140.0424  157.1618 H   0  0  0  0  0  0  0  0  0  0  0  0  # atno 8009 bound_to 7997
  154.9009  140.2976  155.5322 H   0  0  0  0  0  0  0  0  0  0  0  0  # atno 8010 bound_to 7997
  140.2634  143.3392  152.0604 H   0  0  0  0  0  0  0  0  0  0  0  0  # atno 10167 bound_to 10162
  156.7656  130.9430  151.3119 H   0  0  0  0  0  0  0  0  0  0  0  0  # atno 10718 bound_to 10713
  154.7354  135.3056  154.8820 H   0  0  0  0  0  0  0  0  0  0  0  0  # atno 10763 bound_to 10752
  153.9651  135.6748  153.4750 H   0  0  0  0  0  0  0  0  0  0  0  0  # atno 10764 bound_to 10752
  153.0957  135.4937  154.8697 H   0  0  0  0  0  0  0  0  0  0  0  0  # atno 10765 bound_to 10752
  140.4665  134.6206  157.4864 H   0  0  0  0  0  0  0  0  0  0  0  0  # atno 11005 bound_to 11000
  146.3091  140.3738  142.8677 LP  0  0  0  0  0  0  0  0  0  0  0  0  # atno 17320 bound_to 7965
  144.8958  140.7581  143.5898 LP  0  0  0  0  0  0  0  0  0  0  0  0  # atno 17321 bound_to 7965
  139.5010  144.6704  151.6257 LP  0  0  0  0  0  0  0  0  0  0  0  0  # atno 17342 bound_to 10162
  140.5947  143.9716  150.6347 LP  0  0  0  0  0  0  0  0  0  0  0  0  # atno 17343 bound_to 10162
  157.6714  130.9055  150.0050 LP  0  0  0  0  0  0  0  0  0  0  0  0  # atno 17370 bound_to 10713
  156.1311  130.3643  149.9731 LP  0  0  0  0  0  0  0  0  0  0  0  0  # atno 17371 bound_to 10713
  139.9912  134.6982  155.9686 LP  0  0  0  0  0  0  0  0  0  0  0  0  # atno 17394 bound_to 11000
  141.1597  133.6540  156.4278 LP  0  0  0  0  0  0  0  0  0  0  0  0  # atno 17395 bound_to 11000

$$$$
