AV-unprocessed.smi:2894|AV-procd|sdf|11126|dock5
  -GOLD-   2272016 03D 1   1.00000     0.00000
 Structure written by MMmdl.
 35 36  0  0  0  0  0  0  0  0  1 V2000
  154.3185  141.1149  160.5385 C   0  0  0  0  0  0  0  0  0  0  0  0
  153.2385  141.6361  159.6371 C   0  0  0  0  0  0  0  0  0  0  0  0
  152.2591  140.8902  158.9190 C   0  0  0  0  0  0  0  0  0  0  0  0
  151.5499  141.8668  158.2745 C   0  0  0  0  0  0  0  0  0  0  0  0
  150.4839  141.7407  157.4402 N   0  0  0  0  0  0  0  0  0  0  0  0
  150.4644  141.3450  156.1554 C   0  0  0  0  0  0  0  0  0  0  0  0
  151.4497  141.0181  155.4932 O   0  0  0  0  0  0  0  0  0  0  0  0
  149.2154  141.3516  155.6678 N   0  0  0  0  0  0  0  0  0  0  0  0
  148.8301  140.9524  154.3156 C   0  0  2  0  0  0  0  0  0  0  0  0
  147.3459  141.2678  154.0491 C   0  0  0  0  0  0  0  0  0  0  0  0
  146.9063  140.6662  152.7113 C   0  0  0  0  0  0  0  0  0  0  0  0
  147.1377  139.1462  152.7041 C   0  0  0  0  0  0  0  0  0  0  0  0
  148.4510  138.7595  153.2217 N   0  0  0  0  0  0  0  0  0  0  0  0
  149.2412  139.4987  154.0202 C   0  0  0  0  0  0  0  0  0  0  0  0
  150.2899  139.0470  154.4776 O   0  0  0  0  0  0  0  0  0  0  0  0
  152.0845  143.0935  158.6004 N   0  0  0  0  0  0  0  0  0  0  0  0
  151.6783  144.4182  158.1729 C   0  0  0  0  0  0  0  0  0  0  0  0
  153.1291  142.9458  159.4435 N   0  0  0  0  0  0  0  0  0  0  0  0
  154.2296  140.0373  160.6771 H   0  0  0  0  0  0  0  0  0  0  0  0
  154.2688  141.5806  161.5230 H   0  0  0  0  0  0  0  0  0  0  0  0
  155.3062  141.3156  160.1229 H   0  0  0  0  0  0  0  0  0  0  0  0
  152.1184  139.8202  158.8964 H   0  0  0  0  0  0  0  0  0  0  0  0
  149.5910  141.9817  157.8445 H   0  0  0  0  0  0  0  0  0  0  0  0
  148.4656  141.6289  156.2846 H   0  0  0  0  0  0  0  0  0  0  0  0
  149.4187  141.5441  153.6118 H   0  0  0  0  0  0  0  0  0  0  0  0
  146.7266  140.8632  154.8510 H   0  0  0  0  0  0  0  0  0  0  0  0
  147.1823  142.3462  154.0429 H   0  0  0  0  0  0  0  0  0  0  0  0
  145.8561  140.8880  152.5195 H   0  0  0  0  0  0  0  0  0  0  0  0
  147.4744  141.1279  151.9024 H   0  0  0  0  0  0  0  0  0  0  0  0
  146.3820  138.6579  153.3204 H   0  0  0  0  0  0  0  0  0  0  0  0
  147.0204  138.7515  151.6946 H   0  0  0  0  0  0  0  0  0  0  0  0
  148.7584  137.8215  153.0079 H   0  0  0  0  0  0  0  0  0  0  0  0
  151.6226  144.4515  157.0845 H   0  0  0  0  0  0  0  0  0  0  0  0
  152.3950  145.1678  158.5113 H   0  0  0  0  0  0  0  0  0  0  0  0
  150.6977  144.6515  158.5885 H   0  0  0  0  0  0  0  0  0  0  0  0
  1  2  1  0  0  0  0
  1 19  1  0  0  0  0
  1 20  1  0  0  0  0
  1 21  1  0  0  0  0
  2 18  2  0  0  0  0
  2  3  1  0  0  0  0
  3  4  2  0  0  0  0
  3 22  1  0  0  0  0
  4  5  1  0  0  0  0
  4 16  1  0  0  0  0
  5  6  1  0  0  0  0
  5 23  1  0  0  0  0
  6  7  2  0  0  0  0
  6  8  1  0  0  0  0
  8  9  1  0  0  0  0
  8 24  1  0  0  0  0
  9 14  1  0  0  0  0
  9 10  1  0  0  0  0
  9 25  1  0  0  0  0
 10 11  1  0  0  0  0
 10 26  1  0  0  0  0
 10 27  1  0  0  0  0
 11 12  1  0  0  0  0
 11 28  1  0  0  0  0
 11 29  1  0  0  0  0
 12 13  1  0  0  0  0
 12 30  1  0  0  0  0
 12 31  1  0  0  0  0
 13 14  1  0  0  0  0
 13 32  1  0  0  0  0
 14 15  2  0  0  0  0
 16 17  1  0  0  0  0
 16 18  1  0  0  0  0
 17 33  1  0  0  0  0
 17 34  1  0  0  0  0
 17 35  1  0  0  0  0
M  END
> <s_m_source_file>
AV-unprocessed.smi

> <i_m_source_file_index>
2894

> <i_lp_mmshare_version>
43012

> <i_f3d_flags>
0

> <s_epik_input>
W0NIM11jMVtjSF1jKG4objEpW0NIM10pW05IXUMoPU8pW05IXVtDQEBIXTJbQ0gyXVtDSDJdW0NIMl1bTkhdQzI9Tw==

> <s_epik_cmdline>
J2VwaWtfcHl0aG9uJywgJy1waCcsICc3LjAnLCAnLXRuJywgJzgnLCAnLW1hJywgJzIwMCcsICctbWV0YWxfYmluZGluZycsICctaW1hZScsICc8aW5maWxlLm1hZT4nLCAnLW9tYWUnLCAnPG91dGZpbGUubWFlPic=

> <r_lp_tautomer_probability>
1

> <r_epik_Ionization_Penalty>
8.17286e-05

> <r_epik_Ionization_Penalty_Charging>
0

> <r_epik_Ionization_Penalty_Neutral>
8.17286e-05

> <r_epik_State_Penalty>
-0

> <r_epik_Charging_Adjusted_Penalty>
0

> <i_epik_Tot_Q>
0

> <i_epik_Tot_abs_Q>
0

> <r_epik_Metal_State_Penalty>
-0

> <b_epik_Metal_Only>
0

> <s_lp_Force_Field>
OPLS_2005

> <r_lp_Energy>
10.3718

> <b_lp_Chiralities_Consistent>
1

> <s_lp_Variant>
AV-unprocessed.smi:2894-1

> <Gold.Version>
5.8.1

> <Gold.Id.Protein>
6NUR|6NUR_protein|mol2

> <Gold.PLP.Fitness>
40.7545

> <Gold.PLP.PLP>
-37.6116

> <Gold.PLP.part.hbond>
-3.0000

> <Gold.PLP.part.metal>
0.0000

> <Gold.PLP.part.buried>
-1.4758

> <Gold.PLP.part.nonpolar>
-32.5490

> <Gold.PLP.part.repulsive>
0.3441

> <Gold.PLP.ligand.clash>
0.0000

> <Gold.PLP.ligand.torsion>
0.7349

> <Gold.PLP.Chemscore.Hbond>
1.5236

> <Gold.PLP.Chemscore.CHOScore>
0.0000

> <Gold.PLP.Chemscore.Metal>
0.0000

> <Gold.Chemscore.Hbonds>
donor molecule, donor type, donor heavy atom, donor atom, acceptor molecule, acceptor atom, score
      L1  H    13    32       P1  7948  1.00
      P1  H  7989  7998       L1     7  0.59

> <Gold.PLP.Chemscore.Internal.Correction>
0.0418

> <Gold.Rescore>
     Score         DG    S(hbond)    S(metal)    S(lipo)     H(rot)  DE(clash)    DE(int)     intcor
     12.42     -16.12       1.45        0.00      71.39       1.00       0.15       3.56       ----

> <Gold.Chemscore.Fitness>
12.4230

> <Gold.Chemscore.DG>
-16.1245

> <Gold.Chemscore.ZeroCoef>
-5.4800

> <Gold.Chemscore.Hbond>
1.4528

> <Gold.Chemscore.Metal>
0.0000

> <Gold.Chemscore.Lipo>
71.3853

> <Gold.Chemscore.Internal_Hbond>
0.0000

> <Gold.Chemscore.DEClash>
0.1452

> <Gold.Chemscore.DEInternal>
3.5564

> <Gold.Chemscore.Rot>
1.0000

> <Gold.Chemscore.Internal.Correction>
   9.000000E+99

> <Gold.Chemscore.Hbonds>
donor molecule, donor type, donor heavy atom, donor atom, acceptor molecule, acceptor atom, score
      L1  H    13    32       P1  7948  0.97
      P1  H  7989  7998       L1     7  0.56

> <Gold.Chemscore.Hbond.Weighted>
-4.8524

> <Gold.Chemscore.Metal.Weighted>
-0.0000

> <Gold.Chemscore.Lipo.Weighted>
-8.3521

> <Gold.Chemscore.Internal_Hbond.Weighted>
0.0000

> <Gold.Chemscore.DEClash.Weighted>
0.1452

> <Gold.Chemscore.DEInternal.Weighted>
3.5564

> <Gold.Chemscore.Rot.Weighted>
2.5600

> <Gold.Chemscore.Internal.Correction.Weighted>
   9.000000E+99

> <Gold.Protein.RotatedTorsions>
[ 6907 6896 6895 6894 ] final -111.11 input  -60.11 | X-H torsion
[ 7974 7965 7964 7962 ] final   58.25 input  175.53 | X-H torsion
[ 8008 7997 7996 7995 ] final  121.72 input   59.86 | X-H torsion
[ 10167 10162 10161 10158 ] final -173.94 input  -65.29 | X-H torsion
[ 10718 10713 10712 10709 ] final  -48.94 input   66.30 | X-H torsion
[ 10763 10752 10751 10750 ] final    1.80 input  -60.55 | X-H torsion
[ 11005 11000 10999 10996 ] final   31.12 input  -57.11 | X-H torsion

> <Gold.Protein.ActiveResidues>
 VAL166  LYS551  ARG553  GLY616  TRP617  ASP618  TYR619  PRO620  LYS621  CYS622 
 ASP623  PHE694  ASN695  SER759  ASP760  ASP761  ALA762  ILE779  LEU786  VAL792 
 PHE793  MET794  SER795  GLU796  ALA797  LYS798  CYS799  TRP800  GLU811  SER814 

> <Gold.Protein.RotatedAtoms>
  150.7669  133.9283  159.3418 H   0  0  0  0  0  0  0  0  0  0  0  0  # atno 6907 bound_to 6896
  151.7178  135.0898  160.0288 H   0  0  0  0  0  0  0  0  0  0  0  0  # atno 6908 bound_to 6896
  152.3669  133.6330  159.6093 H   0  0  0  0  0  0  0  0  0  0  0  0  # atno 6909 bound_to 6896
  145.9202  139.3723  143.0483 H   0  0  0  0  0  0  0  0  0  0  0  0  # atno 7974 bound_to 7965
  156.2698  140.2802  156.1353 H   0  0  0  0  0  0  0  0  0  0  0  0  # atno 8008 bound_to 7997
  155.1010  140.0389  157.2714 H   0  0  0  0  0  0  0  0  0  0  0  0  # atno 8009 bound_to 7997
  154.6815  140.2609  155.6909 H   0  0  0  0  0  0  0  0  0  0  0  0  # atno 8010 bound_to 7997
  139.5661  144.1752  152.1314 H   0  0  0  0  0  0  0  0  0  0  0  0  # atno 10167 bound_to 10162
  156.1940  130.4154  149.9331 H   0  0  0  0  0  0  0  0  0  0  0  0  # atno 10718 bound_to 10713
  153.3035  135.6957  153.7181 H   0  0  0  0  0  0  0  0  0  0  0  0  # atno 10763 bound_to 10752
  153.6087  135.3448  155.2971 H   0  0  0  0  0  0  0  0  0  0  0  0  # atno 10764 bound_to 10752
  154.8557  135.4358  154.2152 H   0  0  0  0  0  0  0  0  0  0  0  0  # atno 10765 bound_to 10752
  140.2872  134.2906  155.7785 H   0  0  0  0  0  0  0  0  0  0  0  0  # atno 11005 bound_to 11000
  145.8559  140.9502  143.0725 LP  0  0  0  0  0  0  0  0  0  0  0  0  # atno 17320 bound_to 7965
  144.6752  140.0468  143.7479 LP  0  0  0  0  0  0  0  0  0  0  0  0  # atno 17321 bound_to 7965
  140.1276  144.5318  150.6823 LP  0  0  0  0  0  0  0  0  0  0  0  0  # atno 17342 bound_to 10162
  140.6944  143.2395  151.5041 LP  0  0  0  0  0  0  0  0  0  0  0  0  # atno 17343 bound_to 10162
  156.7062  130.8952  151.3605 LP  0  0  0  0  0  0  0  0  0  0  0  0  # atno 17370 bound_to 10713
  157.6946  130.9269  150.0610 LP  0  0  0  0  0  0  0  0  0  0  0  0  # atno 17371 bound_to 10713
  141.2152  133.7562  156.9570 LP  0  0  0  0  0  0  0  0  0  0  0  0  # atno 17394 bound_to 11000
  140.1229  134.9405  157.2228 LP  0  0  0  0  0  0  0  0  0  0  0  0  # atno 17395 bound_to 11000

$$$$
