AV-unprocessed.smi:149|AV-procd|sdf|1234|dock10
  -GOLD-   2262018443D 1   1.00000     0.00000
 Structure written by MMmdl.
 60 64  0  0  0  0  0  0  0  0  2 V2000
  148.9107  131.9826  154.7967 C   0  0  0  0  0  0  0  0  0  0  0  0
  149.2297  133.4388  154.4055 C   0  0  2  0  0  0  0  0  0  0  0  0
  150.2513  134.0369  155.3916 C   0  0  0  0  0  0  0  0  0  0  0  0
  149.7762  135.3645  155.7404 N   0  0  0  0  0  0  0  0  0  0  0  0
  150.6270  136.3066  156.2278 C   0  0  0  0  0  0  0  0  0  0  0  0
  151.9041  135.9403  156.5169 N   0  0  0  0  0  0  0  0  0  0  0  0
  152.7755  136.8317  156.9959 C   0  0  0  0  0  0  0  0  0  0  0  0
  152.5848  138.1251  157.2540 N   0  0  0  0  0  0  0  0  0  0  0  0
  151.3109  138.5102  156.9578 C   0  0  0  0  0  0  0  0  0  0  0  0
  150.2773  137.6735  156.4433 C   0  0  0  0  0  0  0  0  0  0  0  0
  149.1215  138.4242  156.2572 N   0  0  0  0  0  0  0  0  0  0  0  0
  149.4486  139.6257  156.6452 C   0  0  0  0  0  0  0  0  0  0  0  0
  150.7451  139.7695  157.0837 N   0  0  0  0  0  0  0  0  0  0  0  0
  151.3537  140.9801  157.5617 C   0  0  0  0  0  0  0  0  0  0  0  0
  151.0025  141.5629  158.9333 C   0  0  0  0  0  0  0  0  0  0  0  0
  151.2017  142.9887  158.3660 C   0  0  0  0  0  0  0  0  0  0  0  0
  150.1850  144.0660  158.7936 C   0  0  0  0  0  0  0  0  0  0  0  0
  148.8483  143.6832  158.5366 O   0  0  0  0  0  0  0  0  0  0  0  0
  152.6081  143.5857  158.5614 C   0  0  0  0  0  0  0  0  0  0  0  0
  152.9147  143.7643  159.9296 O   0  0  0  0  0  0  0  0  0  0  0  0
  150.9808  142.3453  156.9766 C   0  0  0  0  0  0  0  0  0  0  0  0
  148.6789  135.7314  154.8662 C   0  0  0  0  0  0  0  0  0  0  0  0
  148.0232  134.4095  154.4460 C   0  0  1  0  0  0  0  0  0  0  0  0
  147.2738  134.5792  153.1607 N   0  3  0  0  0  0  0  0  0  0  0  0
  147.0818  133.3569  152.3401 C   0  0  0  0  0  0  0  0  0  0  0  0
  145.9985  132.4466  152.9478 C   0  0  0  0  0  0  0  0  0  0  0  0
  144.7774  133.1711  153.0380 O   0  0  0  0  0  0  0  0  0  0  0  0
  144.8885  134.3183  153.8726 C   0  0  0  0  0  0  0  0  0  0  0  0
  145.9657  135.2705  153.3143 C   0  0  0  0  0  0  0  0  0  0  0  0
  148.4643  131.9318  155.7904 H   0  0  0  0  0  0  0  0  0  0  0  0
  149.8208  131.3824  154.8163 H   0  0  0  0  0  0  0  0  0  0  0  0
  148.2246  131.4949  154.1087 H   0  0  0  0  0  0  0  0  0  0  0  0
  149.6765  133.4637  153.4105 H   0  0  0  0  0  0  0  0  0  0  0  0
  150.3162  133.4419  156.3034 H   0  0  0  0  0  0  0  0  0  0  0  0
  151.2449  134.0742  154.9431 H   0  0  0  0  0  0  0  0  0  0  0  0
  153.7672  136.4560  157.2009 H   0  0  0  0  0  0  0  0  0  0  0  0
  148.7451  140.4456  156.6201 H   0  0  0  0  0  0  0  0  0  0  0  0
  152.4329  140.8313  157.4920 H   0  0  0  0  0  0  0  0  0  0  0  0
  149.9749  141.3533  159.2323 H   0  0  0  0  0  0  0  0  0  0  0  0
  151.6956  141.2817  159.7267 H   0  0  0  0  0  0  0  0  0  0  0  0
  150.2639  144.2798  159.8597 H   0  0  0  0  0  0  0  0  0  0  0  0
  150.3708  145.0043  158.2701 H   0  0  0  0  0  0  0  0  0  0  0  0
  148.3462  144.4580  158.3363 H   0  0  0  0  0  0  0  0  0  0  0  0
  153.3743  142.9403  158.1313 H   0  0  0  0  0  0  0  0  0  0  0  0
  152.6998  144.5465  158.0538 H   0  0  0  0  0  0  0  0  0  0  0  0
  152.9412  144.6910  160.1134 H   0  0  0  0  0  0  0  0  0  0  0  0
  151.6589  142.6971  156.1986 H   0  0  0  0  0  0  0  0  0  0  0  0
  149.9480  142.3880  156.6299 H   0  0  0  0  0  0  0  0  0  0  0  0
  147.9737  136.3842  155.3818 H   0  0  0  0  0  0  0  0  0  0  0  0
  149.0747  136.2643  153.9999 H   0  0  0  0  0  0  0  0  0  0  0  0
  147.3476  134.0877  155.2392 H   0  0  0  0  0  0  0  0  0  0  0  0
  146.7575  133.6670  151.3458 H   0  0  0  0  0  0  0  0  0  0  0  0
  148.0172  132.8274  152.1751 H   0  0  0  0  0  0  0  0  0  0  0  0
  145.8426  131.5746  152.3127 H   0  0  0  0  0  0  0  0  0  0  0  0
  146.2904  132.0753  153.9309 H   0  0  0  0  0  0  0  0  0  0  0  0
  143.9232  134.8241  153.9004 H   0  0  0  0  0  0  0  0  0  0  0  0
  145.1125  134.0171  154.8965 H   0  0  0  0  0  0  0  0  0  0  0  0
  146.0509  136.1604  153.9366 H   0  0  0  0  0  0  0  0  0  0  0  0
  145.6511  135.6261  152.3321 H   0  0  0  0  0  0  0  0  0  0  0  0
  147.8534  135.1915  152.6044 H   0  0  0  0  0  0  0  0  0  0  0  0
  1  2  1  0  0  0  0
  1 30  1  0  0  0  0
  1 31  1  0  0  0  0
  1 32  1  0  0  0  0
  2 23  1  0  0  0  0
  2  3  1  0  0  0  0
  2 33  1  0  0  0  0
  3  4  1  0  0  0  0
  3 34  1  0  0  0  0
  3 35  1  0  0  0  0
  4  5  1  0  0  0  0
  4 22  1  0  0  0  0
  5 10  1  0  0  0  0
  5  6  2  0  0  0  0
  6  7  1  0  0  0  0
  7  8  2  0  0  0  0
  7 36  1  0  0  0  0
  8  9  1  0  0  0  0
  9 13  1  0  0  0  0
  9 10  2  0  0  0  0
 10 11  1  0  0  0  0
 11 12  2  0  0  0  0
 12 13  1  0  0  0  0
 12 37  1  0  0  0  0
 13 14  1  0  0  0  0
 14 21  1  0  0  0  0
 14 15  1  0  0  0  0
 14 38  1  0  0  0  0
 15 16  1  0  0  0  0
 15 39  1  0  0  0  0
 15 40  1  0  0  0  0
 16 17  1  0  0  0  0
 16 19  1  0  0  0  0
 16 21  1  0  0  0  0
 17 18  1  0  0  0  0
 17 41  1  0  0  0  0
 17 42  1  0  0  0  0
 18 43  1  0  0  0  0
 19 20  1  0  0  0  0
 19 44  1  0  0  0  0
 19 45  1  0  0  0  0
 20 46  1  0  0  0  0
 21 47  1  0  0  0  0
 21 48  1  0  0  0  0
 22 23  1  0  0  0  0
 22 49  1  0  0  0  0
 22 50  1  0  0  0  0
 23 24  1  0  0  0  0
 23 51  1  0  0  0  0
 24 29  1  0  0  0  0
 24 25  1  0  0  0  0
 24 60  1  0  0  0  0
 25 26  1  0  0  0  0
 25 52  1  0  0  0  0
 25 53  1  0  0  0  0
 26 27  1  0  0  0  0
 26 54  1  0  0  0  0
 26 55  1  0  0  0  0
 27 28  1  0  0  0  0
 28 29  1  0  0  0  0
 28 56  1  0  0  0  0
 28 57  1  0  0  0  0
 29 58  1  0  0  0  0
 29 59  1  0  0  0  0
M  CHG  1  24   1
M  END
> <s_m_source_file>
AV-unprocessed.smi

> <i_m_source_file_index>
149

> <i_lp_mmshare_version>
43012

> <i_f3d_flags>
0

> <s_epik_input>
W0NIMl0xW0NIMl1PW0NIMl1bQ0gyXU4xW0NAQEhdMltDSDJdTihbQ0gyXVtDQEhdMltDSDNdKWMobltjSF1uMyljKGMzNCluW2NIXW40W0NIXShbQ0gyXTUpW0NIMl1DNShbQ0gyXVtPSF0pW0NIMl1bT0hd

> <s_epik_cmdline>
J2VwaWtfcHl0aG9uJywgJy1waCcsICc3LjAnLCAnLXRuJywgJzgnLCAnLW1hJywgJzIwMCcsICctbWV0YWxfYmluZGluZycsICctaW1hZScsICc8aW5maWxlLm1hZT4nLCAnLW9tYWUnLCAnPG91dGZpbGUubWFlPic=

> <r_lp_tautomer_probability>
1

> <r_epik_Ionization_Penalty>
0.404847

> <r_epik_Ionization_Penalty_Charging>
0.404623

> <r_epik_Ionization_Penalty_Neutral>
0.000224096

> <r_epik_State_Penalty>
0.238803

> <r_epik_Charging_Adjusted_Penalty>
0.643425

> <i_epik_Tot_Q>
1

> <i_epik_Tot_abs_Q>
1

> <r_epik_Metal_State_Penalty>
0.239083

> <b_epik_Metal_Only>
0

> <s_lp_Force_Field>
OPLS_2005

> <r_lp_Energy>
72.409

> <b_lp_Chiralities_Consistent>
1

> <s_lp_Variant>
AV-unprocessed.smi:149-1

> <Gold.Version>
5.8.1

> <Gold.Id.Protein>
6NUR|6NUR_protein|mol2

> <Gold.PLP.Fitness>
46.5300

> <Gold.PLP.PLP>
-36.2286

> <Gold.PLP.part.hbond>
-4.0000

> <Gold.PLP.part.metal>
0.0000

> <Gold.PLP.part.buried>
-3.5617

> <Gold.PLP.part.nonpolar>
-29.2338

> <Gold.PLP.part.repulsive>
0.1355

> <Gold.PLP.ligand.clash>
0.0000

> <Gold.PLP.ligand.torsion>
1.2108

> <Gold.PLP.Chemscore.Hbond>
4.0000

> <Gold.PLP.Chemscore.CHOScore>
0.0000

> <Gold.PLP.Chemscore.Metal>
0.0000

> <Gold.Chemscore.Hbonds>
donor molecule, donor type, donor heavy atom, donor atom, acceptor molecule, acceptor atom, score
      L1  H    18    43       P1  8029  1.00
      L1  H    24    60       P1  7948  2.00
      P1  H 10752 10765       L1     6  0.45

> <Gold.PLP.Chemscore.Internal.Correction>
0.7231

> <Gold.Rescore>
     Score         DG    S(hbond)    S(metal)    S(lipo)     H(rot)  DE(clash)    DE(int)     intcor
     13.38     -15.65       2.15        0.00      93.10       3.09       0.08       2.19       ----

> <Gold.Chemscore.Fitness>
13.3780

> <Gold.Chemscore.DG>
-15.6490

> <Gold.Chemscore.ZeroCoef>
-5.4800

> <Gold.Chemscore.Hbond>
2.1527

> <Gold.Chemscore.Metal>
0.0000

> <Gold.Chemscore.Lipo>
93.0977

> <Gold.Chemscore.Internal_Hbond>
0.0000

> <Gold.Chemscore.DEClash>
0.0778

> <Gold.Chemscore.DEInternal>
2.1933

> <Gold.Chemscore.Rot>
3.0912

> <Gold.Chemscore.Internal.Correction>
   9.000000E+99

> <Gold.Chemscore.Hbonds>
donor molecule, donor type, donor heavy atom, donor atom, acceptor molecule, acceptor atom, score
      L1  H    18    43       P1  8029  0.63
      L1  H    24    60       P1  7948  0.99
      P1  H 10752 10765       L1     6  0.02

> <Gold.Chemscore.Hbond.Weighted>
-7.1901

> <Gold.Chemscore.Metal.Weighted>
-0.0000

> <Gold.Chemscore.Lipo.Weighted>
-10.8924

> <Gold.Chemscore.Internal_Hbond.Weighted>
0.0000

> <Gold.Chemscore.DEClash.Weighted>
0.0778

> <Gold.Chemscore.DEInternal.Weighted>
2.1933

> <Gold.Chemscore.Rot.Weighted>
7.9135

> <Gold.Chemscore.Internal.Correction.Weighted>
   9.000000E+99

> <Gold.Protein.RotatedTorsions>
[ 6907 6896 6895 6894 ] final -119.64 input  -60.11 | X-H torsion
[ 7974 7965 7964 7962 ] final   81.97 input  175.53 | X-H torsion
[ 8008 7997 7996 7995 ] final -110.62 input   59.86 | X-H torsion
[ 10167 10162 10161 10158 ] final -145.63 input  -65.29 | X-H torsion
[ 10718 10713 10712 10709 ] final  -46.32 input   66.30 | X-H torsion
[ 10763 10752 10751 10750 ] final -142.72 input  -60.55 | X-H torsion
[ 11005 11000 10999 10996 ] final   32.15 input  -57.11 | X-H torsion

> <Gold.Protein.ActiveResidues>
 VAL166  LYS551  ARG553  GLY616  TRP617  ASP618  TYR619  PRO620  LYS621  CYS622 
 ASP623  PHE694  ASN695  SER759  ASP760  ASP761  ALA762  ILE779  LEU786  VAL792 
 PHE793  MET794  SER795  GLU796  ALA797  LYS798  CYS799  TRP800  GLU811  SER814 

> <Gold.Protein.RotatedAtoms>
  150.8323  133.8070  159.3093 H   0  0  0  0  0  0  0  0  0  0  0  0  # atno 6907 bound_to 6896
  151.5796  135.1057  160.0024 H   0  0  0  0  0  0  0  0  0  0  0  0  # atno 6908 bound_to 6896
  152.4401  133.7390  159.6687 H   0  0  0  0  0  0  0  0  0  0  0  0  # atno 6909 bound_to 6896
  145.6312  139.2405  143.2084 H   0  0  0  0  0  0  0  0  0  0  0  0  # atno 7974 bound_to 7965
  154.9772  140.0397  157.2261 H   0  0  0  0  0  0  0  0  0  0  0  0  # atno 8008 bound_to 7997
  154.7747  140.2808  155.6088 H   0  0  0  0  0  0  0  0  0  0  0  0  # atno 8009 bound_to 7997
  156.2926  140.2603  156.2557 H   0  0  0  0  0  0  0  0  0  0  0  0  # atno 8010 bound_to 7997
  139.7787  143.8132  152.2635 H   0  0  0  0  0  0  0  0  0  0  0  0  # atno 10167 bound_to 10162
  156.2194  130.4165  149.9012 H   0  0  0  0  0  0  0  0  0  0  0  0  # atno 10718 bound_to 10713
  154.8498  135.3488  154.6073 H   0  0  0  0  0  0  0  0  0  0  0  0  # atno 10763 bound_to 10752
  153.6682  135.6986  153.5160 H   0  0  0  0  0  0  0  0  0  0  0  0  # atno 10764 bound_to 10752
  153.2763  135.4277  155.0993 H   0  0  0  0  0  0  0  0  0  0  0  0  # atno 10765 bound_to 10752
  140.2765  134.3022  155.7813 H   0  0  0  0  0  0  0  0  0  0  0  0  # atno 11005 bound_to 11000
  146.1355  140.7128  142.9391 LP  0  0  0  0  0  0  0  0  0  0  0  0  # atno 17320 bound_to 7965
  144.7193  140.4319  143.7020 LP  0  0  0  0  0  0  0  0  0  0  0  0  # atno 17321 bound_to 7965
  139.8188  144.7305  150.9600 LP  0  0  0  0  0  0  0  0  0  0  0  0  # atno 17342 bound_to 10162
  140.7817  143.4179  151.0888 LP  0  0  0  0  0  0  0  0  0  0  0  0  # atno 17343 bound_to 10162
  156.6663  130.8802  151.3555 LP  0  0  0  0  0  0  0  0  0  0  0  0  # atno 17370 bound_to 10713
  157.7080  130.9407  150.0994 LP  0  0  0  0  0  0  0  0  0  0  0  0  # atno 17371 bound_to 10713
  141.2169  133.7498  156.9414 LP  0  0  0  0  0  0  0  0  0  0  0  0  # atno 17394 bound_to 11000
  140.1324  134.9347  157.2355 LP  0  0  0  0  0  0  0  0  0  0  0  0  # atno 17395 bound_to 11000

$$$$
