AV-unprocessed.smi:2822|AV-procd|sdf|10878|dock8
  -GOLD-   2272015323D 1   1.00000     0.00000
 Structure written by MMmdl.
 40 42  0  0  0  0  0  0  0  0  2 V2000
  154.0192  139.8166  160.5341 Cl  0  0  0  0  0  0  0  0  0  0  0  0
  153.0605  141.2538  160.4632 C   0  0  0  0  0  0  0  0  0  0  0  0
  153.1653  142.2032  161.5007 C   0  0  0  0  0  0  0  0  0  0  0  0
  152.4244  143.3309  161.4623 N   0  3  0  0  0  0  0  0  0  0  0  0
  151.5672  143.6058  160.4568 C   0  0  0  0  0  0  0  0  0  0  0  0
  151.4190  142.6958  159.3907 C   0  0  0  0  0  0  0  0  0  0  0  0
  152.1726  141.4953  159.3858 C   0  0  0  0  0  0  0  0  0  0  0  0
  152.0691  140.5494  158.3548 N   0  0  0  0  0  0  0  0  0  0  0  0
  150.8715  140.4619  157.5333 C   0  0  0  0  0  0  0  0  0  0  0  0
  151.1238  140.9992  156.1121 C   0  0  2  0  0  0  0  0  0  0  0  0
  149.9019  141.7293  155.5232 C   0  0  0  0  0  0  0  0  0  0  0  0
  148.8175  140.8206  155.1709 N   0  0  0  0  0  0  0  0  0  0  0  0
  147.6874  141.5509  154.5969 C   0  0  0  0  0  0  0  0  0  0  0  0
  146.5121  140.6297  154.2352 C   0  0  0  0  0  0  0  0  0  0  0  0
  146.9765  139.5271  153.2737 C   0  0  0  0  0  0  0  0  0  0  0  0
  148.1923  138.7953  153.8616 C   0  0  0  0  0  0  0  0  0  0  0  0
  149.3050  139.7925  154.2469 C   0  0  2  0  0  0  0  0  0  0  0  0
  150.5155  139.0448  154.8402 C   0  0  0  0  0  0  0  0  0  0  0  0
  151.5367  139.9658  155.2158 O   0  0  0  0  0  0  0  0  0  0  0  0
  153.8165  142.0945  162.3556 H   0  0  0  0  0  0  0  0  0  0  0  0
  151.0292  144.5395  160.5335 H   0  0  0  0  0  0  0  0  0  0  0  0
  150.7310  142.9344  158.5933 H   0  0  0  0  0  0  0  0  0  0  0  0
  152.7281  139.7839  158.3201 H   0  0  0  0  0  0  0  0  0  0  0  0
  150.5138  139.4328  157.5012 H   0  0  0  0  0  0  0  0  0  0  0  0
  150.0877  141.0540  158.0071 H   0  0  0  0  0  0  0  0  0  0  0  0
  151.9425  141.7176  156.1687 H   0  0  0  0  0  0  0  0  0  0  0  0
  149.5450  142.4768  156.2326 H   0  0  0  0  0  0  0  0  0  0  0  0
  150.2176  142.2774  154.6340 H   0  0  0  0  0  0  0  0  0  0  0  0
  147.3416  142.3048  155.3053 H   0  0  0  0  0  0  0  0  0  0  0  0
  148.0101  142.0913  153.7056 H   0  0  0  0  0  0  0  0  0  0  0  0
  146.1044  140.1814  155.1421 H   0  0  0  0  0  0  0  0  0  0  0  0
  145.7062  141.2081  153.7826 H   0  0  0  0  0  0  0  0  0  0  0  0
  146.1657  138.8241  153.0816 H   0  0  0  0  0  0  0  0  0  0  0  0
  147.2445  139.9675  152.3126 H   0  0  0  0  0  0  0  0  0  0  0  0
  147.8832  138.2288  154.7412 H   0  0  0  0  0  0  0  0  0  0  0  0
  148.5687  138.0683  153.1410 H   0  0  0  0  0  0  0  0  0  0  0  0
  149.6411  140.2837  153.3319 H   0  0  0  0  0  0  0  0  0  0  0  0
  150.2203  138.4398  155.6977 H   0  0  0  0  0  0  0  0  0  0  0  0
  150.9300  138.3557  154.1041 H   0  0  0  0  0  0  0  0  0  0  0  0
  152.5170  144.0030  162.2246 H   0  0  0  0  0  0  0  0  0  0  0  0
  1  2  1  0  0  0  0
  2  7  1  0  0  0  0
  2  3  2  0  0  0  0
  3  4  1  0  0  0  0
  3 20  1  0  0  0  0
  4  5  2  0  0  0  0
  4 40  1  0  0  0  0
  5  6  1  0  0  0  0
  5 21  1  0  0  0  0
  6  7  2  0  0  0  0
  6 22  1  0  0  0  0
  7  8  1  0  0  0  0
  8  9  1  0  0  0  0
  8 23  1  0  0  0  0
  9 10  1  0  0  0  0
  9 24  1  0  0  0  0
  9 25  1  0  0  0  0
 10 19  1  0  0  0  0
 10 11  1  0  0  0  0
 10 26  1  0  0  0  0
 11 12  1  0  0  0  0
 11 27  1  0  0  0  0
 11 28  1  0  0  0  0
 12 17  1  0  0  0  0
 12 13  1  0  0  0  0
 13 14  1  0  0  0  0
 13 29  1  0  0  0  0
 13 30  1  0  0  0  0
 14 15  1  0  0  0  0
 14 31  1  0  0  0  0
 14 32  1  0  0  0  0
 15 16  1  0  0  0  0
 15 33  1  0  0  0  0
 15 34  1  0  0  0  0
 16 17  1  0  0  0  0
 16 35  1  0  0  0  0
 16 36  1  0  0  0  0
 17 18  1  0  0  0  0
 17 37  1  0  0  0  0
 18 19  1  0  0  0  0
 18 38  1  0  0  0  0
 18 39  1  0  0  0  0
M  CHG  1   4   1
M  END
> <s_m_source_file>
AV-unprocessed.smi

> <i_m_source_file_index>
2822

> <i_lp_mmshare_version>
43012

> <i_f3d_flags>
0

> <s_epik_input>
Q2xjMVtjSF1uW2NIXVtjSF1jMVtOSF1bQ0gyXVtDQEhdKFtDSDJdMilPW0NIMl1bQ0BASF0oTjIzKVtDSDJdW0NIMl1bQ0gyXVtDSDJdMw==

> <s_epik_cmdline>
J2VwaWtfcHl0aG9uJywgJy1waCcsICc3LjAnLCAnLXRuJywgJzgnLCAnLW1hJywgJzIwMCcsICctbWV0YWxfYmluZGluZycsICctaW1hZScsICc8aW5maWxlLm1hZT4nLCAnLW9tYWUnLCAnPG91dGZpbGUubWFlPic=

> <r_epik_Ionization_Penalty>
1.37653

> <r_epik_Ionization_Penalty_Charging>
0.152973

> <r_epik_Ionization_Penalty_Neutral>
1.22356

> <r_epik_State_Penalty>
1.42693

> <r_epik_Charging_Adjusted_Penalty>
1.5799

> <i_epik_Tot_Q>
1

> <i_epik_Tot_abs_Q>
1

> <r_epik_Metal_State_Penalty>
4.59822

> <b_epik_Metal_Only>
0

> <s_lp_Force_Field>
OPLS_2005

> <r_lp_Energy>
45.685

> <b_lp_Chiralities_Consistent>
1

> <s_lp_Variant>
AV-unprocessed.smi:2822-19

> <Gold.Version>
5.8.1

> <Gold.Id.Protein>
6NUR|6NUR_protein|mol2

> <Gold.PLP.Fitness>
39.2720

> <Gold.PLP.PLP>
-37.6897

> <Gold.PLP.part.hbond>
-1.0000

> <Gold.PLP.part.metal>
0.0000

> <Gold.PLP.part.buried>
-4.6668

> <Gold.PLP.part.nonpolar>
-33.3261

> <Gold.PLP.part.repulsive>
0.2759

> <Gold.PLP.ligand.clash>
0.0000

> <Gold.PLP.ligand.torsion>
0.6361

> <Gold.PLP.Chemscore.Hbond>
0.9500

> <Gold.PLP.Chemscore.CHOScore>
0.0000

> <Gold.PLP.Chemscore.Metal>
0.0000

> <Gold.Chemscore.Hbonds>
donor molecule, donor type, donor heavy atom, donor atom, acceptor molecule, acceptor atom, score
      P1  H  7989  7998       L1    19  0.85

> <Gold.PLP.Chemscore.Internal.Correction>
0.0045

> <Gold.Rescore>
     Score         DG    S(hbond)    S(metal)    S(lipo)     H(rot)  DE(clash)    DE(int)     intcor
     15.45     -16.26       0.04        0.00     116.81       1.18       0.24       0.57       ----

> <Gold.Chemscore.Fitness>
15.4501

> <Gold.Chemscore.DG>
-16.2631

> <Gold.Chemscore.ZeroCoef>
-5.4800

> <Gold.Chemscore.Hbond>
0.0402

> <Gold.Chemscore.Metal>
0.0000

> <Gold.Chemscore.Lipo>
116.8086

> <Gold.Chemscore.Internal_Hbond>
0.0000

> <Gold.Chemscore.DEClash>
0.2386

> <Gold.Chemscore.DEInternal>
0.5744

> <Gold.Chemscore.Rot>
1.1788

> <Gold.Chemscore.Internal.Correction>
   9.000000E+99

> <Gold.Chemscore.Hbonds>
donor molecule, donor type, donor heavy atom, donor atom, acceptor molecule, acceptor atom, score
      P1  H  7989  7998       L1    19  0.06

> <Gold.Chemscore.Hbond.Weighted>
-0.1342

> <Gold.Chemscore.Metal.Weighted>
-0.0000

> <Gold.Chemscore.Lipo.Weighted>
-13.6666

> <Gold.Chemscore.Internal_Hbond.Weighted>
0.0000

> <Gold.Chemscore.DEClash.Weighted>
0.2386

> <Gold.Chemscore.DEInternal.Weighted>
0.5744

> <Gold.Chemscore.Rot.Weighted>
3.0177

> <Gold.Chemscore.Internal.Correction.Weighted>
   9.000000E+99

> <Gold.Protein.RotatedTorsions>
[ 6907 6896 6895 6894 ] final   40.24 input  -60.11 | X-H torsion
[ 7974 7965 7964 7962 ] final -125.32 input  175.53 | X-H torsion
[ 8008 7997 7996 7995 ] final -134.09 input   59.86 | X-H torsion
[ 10167 10162 10161 10158 ] final  -53.18 input  -65.29 | X-H torsion
[ 10718 10713 10712 10709 ] final  153.02 input   66.30 | X-H torsion
[ 10763 10752 10751 10750 ] final   67.60 input  -60.55 | X-H torsion
[ 11005 11000 10999 10996 ] final   48.97 input  -57.11 | X-H torsion

> <Gold.Protein.ActiveResidues>
 VAL166  LYS551  ARG553  GLY616  TRP617  ASP618  TYR619  PRO620  LYS621  CYS622 
 ASP623  PHE694  ASN695  SER759  ASP760  ASP761  ALA762  ILE779  LEU786  VAL792 
 PHE793  MET794  SER795  GLU796  ALA797  LYS798  CYS799  TRP800  GLU811  SER814 

> <Gold.Protein.RotatedAtoms>
  152.1800  134.8762  160.0526 H   0  0  0  0  0  0  0  0  0  0  0  0  # atno 6907 bound_to 6896
  151.9690  133.3715  159.4072 H   0  0  0  0  0  0  0  0  0  0  0  0  # atno 6908 bound_to 6896
  150.6916  134.4083  159.5194 H   0  0  0  0  0  0  0  0  0  0  0  0  # atno 6909 bound_to 6896
  144.9989  140.7802  143.4508 H   0  0  0  0  0  0  0  0  0  0  0  0  # atno 7974 bound_to 7965
  155.3563  140.0480  157.3046 H   0  0  0  0  0  0  0  0  0  0  0  0  # atno 8008 bound_to 7997
  154.5201  140.2222  155.8956 H   0  0  0  0  0  0  0  0  0  0  0  0  # atno 8009 bound_to 7997
  156.1680  140.3102  155.8929 H   0  0  0  0  0  0  0  0  0  0  0  0  # atno 8010 bound_to 7997
  140.6498  143.2559  151.4755 H   0  0  0  0  0  0  0  0  0  0  0  0  # atno 10167 bound_to 10162
  157.2502  131.0777  151.1735 H   0  0  0  0  0  0  0  0  0  0  0  0  # atno 10718 bound_to 10713
  153.0194  135.5278  154.7005 H   0  0  0  0  0  0  0  0  0  0  0  0  # atno 10763 bound_to 10752
  154.6115  135.2879  155.0429 H   0  0  0  0  0  0  0  0  0  0  0  0  # atno 10764 bound_to 10752
  154.1449  135.6572  153.5003 H   0  0  0  0  0  0  0  0  0  0  0  0  # atno 10765 bound_to 10752
  140.1144  134.4912  155.8650 H   0  0  0  0  0  0  0  0  0  0  0  0  # atno 11005 bound_to 11000
  145.2181  139.2172  143.5107 LP  0  0  0  0  0  0  0  0  0  0  0  0  # atno 17320 bound_to 7965
  146.3447  140.2033  142.8589 LP  0  0  0  0  0  0  0  0  0  0  0  0  # atno 17321 bound_to 7965
  139.5712  144.1924  152.1839 LP  0  0  0  0  0  0  0  0  0  0  0  0  # atno 17342 bound_to 10162
  140.1221  144.5364  150.6856 LP  0  0  0  0  0  0  0  0  0  0  0  0  # atno 17343 bound_to 10162
  157.3286  130.6973  149.6311 LP  0  0  0  0  0  0  0  0  0  0  0  0  # atno 17370 bound_to 10713
  155.9666  130.4314  150.4918 LP  0  0  0  0  0  0  0  0  0  0  0  0  # atno 17371 bound_to 10713
  141.2138  133.6738  156.6767 LP  0  0  0  0  0  0  0  0  0  0  0  0  # atno 17394 bound_to 11000
  140.3048  134.8134  157.4128 LP  0  0  0  0  0  0  0  0  0  0  0  0  # atno 17395 bound_to 11000

$$$$
