AV-unprocessed.smi:1012|AV-procd|sdf|4424|dock8
  -GOLD-   22720 2373D 1   1.00000     0.00000
 Structure written by MMmdl.
 44 46  0  0  0  0  0  0  0  0  2 V2000
  147.7353  132.8644  152.7550 C   0  0  0  0  0  0  0  0  0  0  0  0
  148.3235  133.8810  153.5534 O   0  0  0  0  0  0  0  0  0  0  0  0
  149.1873  133.5089  154.5640 C   0  0  0  0  0  0  0  0  0  0  0  0
  149.5572  132.1615  154.8124 C   0  0  0  0  0  0  0  0  0  0  0  0
  150.4434  131.8398  155.8576 C   0  0  0  0  0  0  0  0  0  0  0  0
  150.9743  132.8562  156.6700 C   0  0  0  0  0  0  0  0  0  0  0  0
  150.6163  134.1953  156.4348 C   0  0  0  0  0  0  0  0  0  0  0  0
  149.7263  134.5266  155.3913 C   0  0  0  0  0  0  0  0  0  0  0  0
  149.3832  135.9918  155.1757 C   0  0  0  0  0  0  0  0  0  0  0  0
  150.5532  136.7822  155.0440 O   0  0  0  0  0  0  0  0  0  0  0  0
  150.2712  138.1680  154.9420 C   0  0  0  0  0  0  0  0  0  0  0  0
  151.5945  138.9451  154.9073 C   0  0  2  0  0  0  0  0  0  0  0  0
  152.6250  138.0697  154.4943 O   0  0  0  0  0  0  0  0  0  0  0  0
  151.9538  139.5599  156.2747 C   0  0  0  0  0  0  0  0  0  0  0  0
  151.4711  140.9394  156.4192 N   0  0  0  0  0  0  0  0  0  0  0  0
  150.7080  141.6942  155.5830 C   0  0  0  0  0  0  0  0  0  0  0  0
  150.5265  142.9071  156.1757 N   0  3  0  0  0  0  0  0  0  0  0  0
  151.1843  142.9271  157.4080 C   0  0  0  0  0  0  0  0  0  0  0  0
  151.2892  143.9255  158.3708 C   0  0  0  0  0  0  0  0  0  0  0  0
  152.0385  143.6181  159.5259 C   0  0  0  0  0  0  0  0  0  0  0  0
  152.1717  144.5543  160.4950 F   0  0  0  0  0  0  0  0  0  0  0  0
  152.6499  142.3568  159.6903 C   0  0  0  0  0  0  0  0  0  0  0  0
  153.3601  142.1031  160.8150 F   0  0  0  0  0  0  0  0  0  0  0  0
  152.5368  141.3522  158.7067 C   0  0  0  0  0  0  0  0  0  0  0  0
  151.7941  141.6657  157.5695 C   0  0  0  0  0  0  0  0  0  0  0  0
  147.0826  133.3243  152.0132 H   0  0  0  0  0  0  0  0  0  0  0  0
  147.1253  132.1878  153.3550 H   0  0  0  0  0  0  0  0  0  0  0  0
  148.4918  132.2912  152.2174 H   0  0  0  0  0  0  0  0  0  0  0  0
  149.1743  131.3501  154.2126 H   0  0  0  0  0  0  0  0  0  0  0  0
  150.7167  130.8101  156.0348 H   0  0  0  0  0  0  0  0  0  0  0  0
  151.6560  132.6098  157.4708 H   0  0  0  0  0  0  0  0  0  0  0  0
  151.0284  134.9738  157.0603 H   0  0  0  0  0  0  0  0  0  0  0  0
  148.7854  136.0676  154.2660 H   0  0  0  0  0  0  0  0  0  0  0  0
  148.7697  136.3817  155.9879 H   0  0  0  0  0  0  0  0  0  0  0  0
  149.6813  138.3750  154.0475 H   0  0  0  0  0  0  0  0  0  0  0  0
  149.6795  138.4782  155.8051 H   0  0  0  0  0  0  0  0  0  0  0  0
  151.5184  139.7330  154.1573 H   0  0  0  0  0  0  0  0  0  0  0  0
  152.4807  137.2264  154.8957 H   0  0  0  0  0  0  0  0  0  0  0  0
  151.5442  138.9661  157.0930 H   0  0  0  0  0  0  0  0  0  0  0  0
  153.0357  139.5730  156.4142 H   0  0  0  0  0  0  0  0  0  0  0  0
  150.3134  141.3852  154.6256 H   0  0  0  0  0  0  0  0  0  0  0  0
  150.8220  144.8916  158.2495 H   0  0  0  0  0  0  0  0  0  0  0  0
  153.0060  140.3888  158.8420 H   0  0  0  0  0  0  0  0  0  0  0  0
  149.9898  143.6620  155.7677 H   0  0  0  0  0  0  0  0  0  0  0  0
  1  2  1  0  0  0  0
  1 26  1  0  0  0  0
  1 27  1  0  0  0  0
  1 28  1  0  0  0  0
  2  3  1  0  0  0  0
  3  8  1  0  0  0  0
  3  4  2  0  0  0  0
  4  5  1  0  0  0  0
  4 29  1  0  0  0  0
  5  6  2  0  0  0  0
  5 30  1  0  0  0  0
  6  7  1  0  0  0  0
  6 31  1  0  0  0  0
  7  8  2  0  0  0  0
  7 32  1  0  0  0  0
  8  9  1  0  0  0  0
  9 10  1  0  0  0  0
  9 33  1  0  0  0  0
  9 34  1  0  0  0  0
 10 11  1  0  0  0  0
 11 12  1  0  0  0  0
 11 35  1  0  0  0  0
 11 36  1  0  0  0  0
 12 13  1  0  0  0  0
 12 14  1  0  0  0  0
 12 37  1  0  0  0  0
 13 38  1  0  0  0  0
 14 15  1  0  0  0  0
 14 39  1  0  0  0  0
 14 40  1  0  0  0  0
 15 25  1  0  0  0  0
 15 16  1  0  0  0  0
 16 17  2  0  0  0  0
 16 41  1  0  0  0  0
 17 18  1  0  0  0  0
 17 44  1  0  0  0  0
 18 25  2  0  0  0  0
 18 19  1  0  0  0  0
 19 20  2  0  0  0  0
 19 42  1  0  0  0  0
 20 21  1  0  0  0  0
 20 22  1  0  0  0  0
 22 23  1  0  0  0  0
 22 24  2  0  0  0  0
 24 25  1  0  0  0  0
 24 43  1  0  0  0  0
M  CHG  1  17   1
M  END
> <s_m_source_file>
AV-unprocessed.smi

> <i_m_source_file_index>
1012

> <i_lp_mmshare_version>
43012

> <i_f3d_flags>
0

> <s_epik_input>
W0NIM11PYzFbY0hdW2NIXVtjSF1bY0hdYzFbQ0gyXU9bQ0gyXVtDQEhdKFtPSF0pW0NIMl1uKFtjSF1uMiljKGMyMylbY0hdYyhGKWMoRilbY0hdMw==

> <s_epik_cmdline>
J2VwaWtfcHl0aG9uJywgJy1waCcsICc3LjAnLCAnLXRuJywgJzgnLCAnLW1hJywgJzIwMCcsICctbWV0YWxfYmluZGluZycsICctaW1hZScsICc8aW5maWxlLm1hZT4nLCAnLW9tYWUnLCAnPG91dGZpbGUubWFlPic=

> <r_lp_tautomer_probability>
1

> <r_epik_Ionization_Penalty>
2.14697

> <r_epik_Ionization_Penalty_Charging>
2.14697

> <r_epik_Ionization_Penalty_Neutral>
1.07667e-06

> <r_epik_State_Penalty>
2.28651

> <r_epik_Charging_Adjusted_Penalty>
4.43348

> <i_epik_Tot_Q>
1

> <i_epik_Tot_abs_Q>
1

> <r_epik_Metal_State_Penalty>
6.36664

> <b_epik_Metal_Only>
0

> <s_lp_Force_Field>
OPLS_2005

> <r_lp_Energy>
22.239

> <b_lp_Chiralities_Consistent>
1

> <s_lp_Variant>
AV-unprocessed.smi:1012-3

> <Gold.Version>
5.8.1

> <Gold.Id.Protein>
6NUR|6NUR_protein|mol2

> <Gold.PLP.Fitness>
58.7584

> <Gold.PLP.PLP>
-54.8643

> <Gold.PLP.part.hbond>
-1.6059

> <Gold.PLP.part.metal>
0.0000

> <Gold.PLP.part.buried>
-8.2781

> <Gold.PLP.part.nonpolar>
-45.0835

> <Gold.PLP.part.repulsive>
0.3886

> <Gold.PLP.ligand.clash>
0.0000

> <Gold.PLP.ligand.torsion>
1.0733

> <Gold.PLP.Chemscore.Hbond>
2.0000

> <Gold.PLP.Chemscore.CHOScore>
0.0000

> <Gold.PLP.Chemscore.Metal>
0.0000

> <Gold.Chemscore.Hbonds>
donor molecule, donor type, donor heavy atom, donor atom, acceptor molecule, acceptor atom, score
      L1  H    17    44       P1  8028  1.98

> <Gold.PLP.Chemscore.Internal.Correction>
0.0408

> <Gold.Rescore>
     Score         DG    S(hbond)    S(metal)    S(lipo)     H(rot)  DE(clash)    DE(int)     intcor
     13.58     -14.98       1.00        0.00     118.97       3.03       0.10       1.31       ----

> <Gold.Chemscore.Fitness>
13.5772

> <Gold.Chemscore.DG>
-14.9839

> <Gold.Chemscore.ZeroCoef>
-5.4800

> <Gold.Chemscore.Hbond>
0.9988

> <Gold.Chemscore.Metal>
0.0000

> <Gold.Chemscore.Lipo>
118.9653

> <Gold.Chemscore.Internal_Hbond>
0.0000

> <Gold.Chemscore.DEClash>
0.0955

> <Gold.Chemscore.DEInternal>
1.3112

> <Gold.Chemscore.Rot>
3.0278

> <Gold.Chemscore.Internal.Correction>
   9.000000E+99

> <Gold.Chemscore.Hbonds>
donor molecule, donor type, donor heavy atom, donor atom, acceptor molecule, acceptor atom, score
      L1  H    17    44       P1  8028  0.92

> <Gold.Chemscore.Hbond.Weighted>
-3.3361

> <Gold.Chemscore.Metal.Weighted>
-0.0000

> <Gold.Chemscore.Lipo.Weighted>
-13.9189

> <Gold.Chemscore.Internal_Hbond.Weighted>
0.0000

> <Gold.Chemscore.DEClash.Weighted>
0.0955

> <Gold.Chemscore.DEInternal.Weighted>
1.3112

> <Gold.Chemscore.Rot.Weighted>
7.7512

> <Gold.Chemscore.Internal.Correction.Weighted>
   9.000000E+99

> <Gold.Protein.RotatedTorsions>
[ 6907 6896 6895 6894 ] final   47.53 input  -60.11 | X-H torsion
[ 7974 7965 7964 7962 ] final   -5.60 input  175.53 | X-H torsion
[ 8008 7997 7996 7995 ] final -148.26 input   59.86 | X-H torsion
[ 10167 10162 10161 10158 ] final   16.75 input  -65.29 | X-H torsion
[ 10718 10713 10712 10709 ] final  107.13 input   66.30 | X-H torsion
[ 10763 10752 10751 10750 ] final -116.44 input  -60.55 | X-H torsion
[ 11005 11000 10999 10996 ] final  -59.21 input  -57.11 | X-H torsion

> <Gold.Protein.ActiveResidues>
 VAL166  LYS551  ARG553  GLY616  TRP617  ASP618  TYR619  PRO620  LYS621  CYS622 
 ASP623  PHE694  ASN695  SER759  ASP760  ASP761  ALA762  ILE779  LEU786  VAL792 
 PHE793  MET794  SER795  GLU796  ALA797  LYS798  CYS799  TRP800  GLU811  SER814 

> <Gold.Protein.RotatedAtoms>
  152.2691  134.7952  160.0417 H   0  0  0  0  0  0  0  0  0  0  0  0  # atno 6907 bound_to 6896
  151.8570  133.3445  159.3700 H   0  0  0  0  0  0  0  0  0  0  0  0  # atno 6908 bound_to 6896
  150.7145  134.5171  159.5679 H   0  0  0  0  0  0  0  0  0  0  0  0  # atno 6909 bound_to 6896
  146.2349  140.2045  142.8334 H   0  0  0  0  0  0  0  0  0  0  0  0  # atno 7974 bound_to 7965
  155.5887  140.0650  157.2764 H   0  0  0  0  0  0  0  0  0  0  0  0  # atno 8008 bound_to 7997
  154.4311  140.1839  156.1099 H   0  0  0  0  0  0  0  0  0  0  0  0  # atno 8009 bound_to 7997
  156.0249  140.3313  155.7081 H   0  0  0  0  0  0  0  0  0  0  0  0  # atno 8010 bound_to 7997
  140.5775  143.9045  150.6762 H   0  0  0  0  0  0  0  0  0  0  0  0  # atno 10167 bound_to 10162
  157.6640  131.0866  150.6111 H   0  0  0  0  0  0  0  0  0  0  0  0  # atno 10718 bound_to 10713
  154.8519  135.4345  154.1821 H   0  0  0  0  0  0  0  0  0  0  0  0  # atno 10763 bound_to 10752
  153.2909  135.6961  153.7300 H   0  0  0  0  0  0  0  0  0  0  0  0  # atno 10764 bound_to 10752
  153.6467  135.3458  155.3062 H   0  0  0  0  0  0  0  0  0  0  0  0  # atno 10765 bound_to 10752
  141.1239  133.6615  156.5038 H   0  0  0  0  0  0  0  0  0  0  0  0  # atno 11005 bound_to 11000
  144.9755  140.8410  143.5429 LP  0  0  0  0  0  0  0  0  0  0  0  0  # atno 17320 bound_to 7965
  145.2032  139.2241  143.5182 LP  0  0  0  0  0  0  0  0  0  0  0  0  # atno 17321 bound_to 7965
  140.2536  143.3575  152.1384 LP  0  0  0  0  0  0  0  0  0  0  0  0  # atno 17342 bound_to 10162
  139.5151  144.6957  151.5636 LP  0  0  0  0  0  0  0  0  0  0  0  0  # atno 17343 bound_to 10162
  156.6412  130.4459  149.5751 LP  0  0  0  0  0  0  0  0  0  0  0  0  # atno 17370 bound_to 10713
  156.2207  130.6735  151.1366 LP  0  0  0  0  0  0  0  0  0  0  0  0  # atno 17371 bound_to 10713
  140.4425  134.7003  157.4999 LP  0  0  0  0  0  0  0  0  0  0  0  0  # atno 17394 bound_to 11000
  140.0220  134.6533  155.9226 LP  0  0  0  0  0  0  0  0  0  0  0  0  # atno 17395 bound_to 11000

$$$$
