AV-unprocessed.smi:287|AV-procd|sdf|2205|dock8
  -GOLD-   2262022 33D 1   1.00000     0.00000
 Structure written by MMmdl.
 55 58  0  0  0  0  0  0  0  0  1 V2000
  152.0502  145.3083  158.8322 C   0  0  0  0  0  0  0  0  0  0  0  0
  151.8517  143.8968  158.3979 C   0  0  0  0  0  0  0  0  0  0  0  0
  151.2411  143.3163  157.3252 C   0  0  0  0  0  0  0  0  0  0  0  0
  151.3729  141.9032  157.4724 C   0  0  0  0  0  0  0  0  0  0  0  0
  150.8281  140.8543  156.5117 C   0  0  1  0  0  0  0  0  0  0  0  0
  151.9745  139.9650  156.0018 C   0  0  0  0  0  0  0  0  0  0  0  0
  149.9133  139.9665  157.1246 O   0  0  0  0  0  0  0  0  0  0  0  0
  150.0757  141.4912  155.3208 C   0  0  0  0  0  0  0  0  0  0  0  0
  148.7965  142.0758  155.7102 N   0  0  0  0  0  0  0  0  0  0  0  0
  147.6509  141.3862  155.5306 C   0  0  0  0  0  0  0  0  0  0  0  0
  146.4529  141.9097  155.8991 N   0  0  0  0  0  0  0  0  0  0  0  0
  145.3335  141.2031  155.7162 C   0  0  0  0  0  0  0  0  0  0  0  0
  145.1936  139.9822  155.1953 N   0  0  0  0  0  0  0  0  0  0  0  0
  146.3940  139.4519  154.8210 C   0  0  0  0  0  0  0  0  0  0  0  0
  147.6591  140.0895  154.9556 C   0  0  0  0  0  0  0  0  0  0  0  0
  148.6612  139.2562  154.4771 N   0  0  0  0  0  0  0  0  0  0  0  0
  148.0213  138.1881  154.0844 C   0  0  0  0  0  0  0  0  0  0  0  0
  146.6549  138.2172  154.2573 N   0  0  0  0  0  0  0  0  0  0  0  0
  145.6780  137.1340  153.9073 C   0  0  2  0  0  0  0  0  0  0  0  0
  146.3668  135.9435  153.6562 O   0  0  0  0  0  0  0  0  0  0  0  0
  146.1200  135.4913  152.3243 C   0  0  1  0  0  0  0  0  0  0  0  0
  146.1525  133.9559  152.2815 C   0  0  0  0  0  0  0  0  0  0  0  0
  145.9716  133.5026  150.9573 O   0  0  0  0  0  0  0  0  0  0  0  0
  144.7434  136.0827  152.0162 C   0  0  2  0  0  0  0  0  0  0  0  0
  144.4499  136.1402  150.6334 O   0  0  0  0  0  0  0  0  0  0  0  0
  144.8304  137.4576  152.6621 C   0  0  2  0  0  0  0  0  0  0  0  0
  145.4206  138.4256  151.8067 O   0  0  0  0  0  0  0  0  0  0  0  0
  152.0762  141.7366  158.6415 C   0  0  0  0  0  0  0  0  0  0  0  0
  152.5675  140.5466  159.3980 C   0  0  0  0  0  0  0  0  0  0  0  0
  152.3686  142.9403  159.2091 O   0  0  0  0  0  0  0  0  0  0  0  0
  145.0745  137.0060  154.8068 H   0  0  0  0  0  0  0  0  0  0  0  0
  146.8593  135.9196  151.6453 H   0  0  0  0  0  0  0  0  0  0  0  0
  143.9726  135.4961  152.5188 H   0  0  0  0  0  0  0  0  0  0  0  0
  143.8510  137.8242  152.9713 H   0  0  0  0  0  0  0  0  0  0  0  0
  151.5904  146.0009  158.1269 H   0  0  0  0  0  0  0  0  0  0  0  0
  153.1117  145.5472  158.8974 H   0  0  0  0  0  0  0  0  0  0  0  0
  151.6033  145.4777  159.8118 H   0  0  0  0  0  0  0  0  0  0  0  0
  150.7452  143.8456  156.5249 H   0  0  0  0  0  0  0  0  0  0  0  0
  152.7266  140.5520  155.4734 H   0  0  0  0  0  0  0  0  0  0  0  0
  151.6126  139.2018  155.3116 H   0  0  0  0  0  0  0  0  0  0  0  0
  152.4768  139.4549  156.8249 H   0  0  0  0  0  0  0  0  0  0  0  0
  149.3639  140.4617  157.7127 H   0  0  0  0  0  0  0  0  0  0  0  0
  150.6885  142.2994  154.9182 H   0  0  0  0  0  0  0  0  0  0  0  0
  149.9377  140.7720  154.5119 H   0  0  0  0  0  0  0  0  0  0  0  0
  148.8245  143.0415  156.0056 H   0  0  0  0  0  0  0  0  0  0  0  0
  144.4195  141.6827  156.0338 H   0  0  0  0  0  0  0  0  0  0  0  0
  148.5348  137.3387  153.6577 H   0  0  0  0  0  0  0  0  0  0  0  0
  147.0841  133.5667  152.6934 H   0  0  0  0  0  0  0  0  0  0  0  0
  145.3378  133.5466  152.8798 H   0  0  0  0  0  0  0  0  0  0  0  0
  145.0686  133.2470  150.8470 H   0  0  0  0  0  0  0  0  0  0  0  0
  143.9714  136.9385  150.4667 H   0  0  0  0  0  0  0  0  0  0  0  0
  144.8316  139.1612  151.7362 H   0  0  0  0  0  0  0  0  0  0  0  0
  153.2075  139.9269  158.7700 H   0  0  0  0  0  0  0  0  0  0  0  0
  151.7325  139.9353  159.7408 H   0  0  0  0  0  0  0  0  0  0  0  0
  153.1453  140.8456  160.2731 H   0  0  0  0  0  0  0  0  0  0  0  0
  1  2  1  0  0  0  0
  1 35  1  0  0  0  0
  1 36  1  0  0  0  0
  1 37  1  0  0  0  0
  2 30  1  0  0  0  0
  2  3  2  0  0  0  0
  3  4  1  0  0  0  0
  3 38  1  0  0  0  0
  4  5  1  0  0  0  0
  4 28  2  0  0  0  0
  5  6  1  0  0  0  0
  5  7  1  0  0  0  0
  5  8  1  0  0  0  0
  6 39  1  0  0  0  0
  6 40  1  0  0  0  0
  6 41  1  0  0  0  0
  7 42  1  0  0  0  0
  8  9  1  0  0  0  0
  8 43  1  0  0  0  0
  8 44  1  0  0  0  0
  9 10  1  0  0  0  0
  9 45  1  0  0  0  0
 10 15  1  0  0  0  0
 10 11  2  0  0  0  0
 11 12  1  0  0  0  0
 12 13  2  0  0  0  0
 12 46  1  0  0  0  0
 13 14  1  0  0  0  0
 14 18  1  0  0  0  0
 14 15  2  0  0  0  0
 15 16  1  0  0  0  0
 16 17  2  0  0  0  0
 17 18  1  0  0  0  0
 17 47  1  0  0  0  0
 18 19  1  0  0  0  0
 19 31  1  0  0  0  0
 19 26  1  0  0  0  0
 19 20  1  0  0  0  0
 20 21  1  0  0  0  0
 21 32  1  0  0  0  0
 21 22  1  0  0  0  0
 21 24  1  0  0  0  0
 22 23  1  0  0  0  0
 22 48  1  0  0  0  0
 22 49  1  0  0  0  0
 23 50  1  0  0  0  0
 24 33  1  0  0  0  0
 24 25  1  0  0  0  0
 24 26  1  0  0  0  0
 25 51  1  0  0  0  0
 26 34  1  0  0  0  0
 26 27  1  0  0  0  0
 27 52  1  0  0  0  0
 28 29  1  0  0  0  0
 28 30  1  0  0  0  0
 29 53  1  0  0  0  0
 29 54  1  0  0  0  0
 29 55  1  0  0  0  0
M  END
> <s_m_source_file>
AV-unprocessed.smi

> <i_m_source_file_index>
287

> <i_lp_mmshare_version>
43012

> <i_f3d_flags>
0

> <s_epik_input>
W0NIM11jMVtjSF1jKGMobzEpW0NIM10pW0NAQF0oW0NIM10pKFtPSF0pW0NIMl1bTkhdYyhuW2NIXW4yKWMoYzIzKW5bY0hdbjNbQ0BASF00T1tDQEhdKFtDSDJdW09IXSlbQ0BASF0oW09IXSlbQ0BIXTRbT0hd

> <s_epik_cmdline>
J2VwaWtfcHl0aG9uJywgJy1waCcsICc3LjAnLCAnLXRuJywgJzgnLCAnLW1hJywgJzIwMCcsICctbWV0YWxfYmluZGluZycsICctaW1hZScsICc8aW5maWxlLm1hZT4nLCAnLW9tYWUnLCAnPG91dGZpbGUubWFlPic=

> <r_lp_tautomer_probability>
1

> <r_epik_Ionization_Penalty>
0.000992612

> <r_epik_Ionization_Penalty_Charging>
0

> <r_epik_Ionization_Penalty_Neutral>
0.000992612

> <r_epik_State_Penalty>
-0

> <r_epik_Charging_Adjusted_Penalty>
0

> <i_epik_Tot_Q>
0

> <i_epik_Tot_abs_Q>
0

> <r_epik_Metal_State_Penalty>
-0

> <b_epik_Metal_Only>
0

> <s_epik_Chemistry_Notes>
This compound contains an acetal/aminal-like group ( X-CH(R)-Y where X, Y are N, S, or O) that may be acid/base labile, releasing an aldehyde.

> <s_lp_Force_Field>
OPLS_2005

> <r_lp_Energy>
50.5208

> <b_lp_Chiralities_Consistent>
1

> <s_lp_Variant>
AV-unprocessed.smi:287-29

> <Gold.Version>
5.8.1

> <Gold.Id.Protein>
6NUR|6NUR_protein|mol2

> <Gold.PLP.Fitness>
49.9800

> <Gold.PLP.PLP>
-39.1082

> <Gold.PLP.part.hbond>
-4.0000

> <Gold.PLP.part.metal>
0.0000

> <Gold.PLP.part.buried>
-4.0317

> <Gold.PLP.part.nonpolar>
-31.5622

> <Gold.PLP.part.repulsive>
0.5763

> <Gold.PLP.ligand.clash>
0.0000

> <Gold.PLP.ligand.torsion>
0.5906

> <Gold.PLP.Chemscore.Hbond>
3.0000

> <Gold.PLP.Chemscore.CHOScore>
1.0000

> <Gold.PLP.Chemscore.Metal>
0.0000

> <Gold.Chemscore.Hbonds>
donor molecule, donor type, donor heavy atom, donor atom, acceptor molecule, acceptor atom, score
      L1  H     9    45       P1  8028  1.00
      L1  H    25    51       P1 10171  1.00
      L1  H    27    52       P1 10175  1.00
      L1  C    17    47       P1  7948  1.00

> <Gold.PLP.Chemscore.Internal.Correction>
0.0530

> <Gold.Rescore>
     Score         DG    S(hbond)    S(metal)    S(lipo)     H(rot)  DE(clash)    DE(int)     intcor
     11.65     -13.70       2.93        0.00     101.82       5.27       0.08       1.97       ----

> <Gold.Chemscore.Fitness>
11.6484

> <Gold.Chemscore.DG>
-13.7031

> <Gold.Chemscore.ZeroCoef>
-5.4800

> <Gold.Chemscore.Hbond>
2.9325

> <Gold.Chemscore.Metal>
0.0000

> <Gold.Chemscore.Lipo>
101.8158

> <Gold.Chemscore.Internal_Hbond>
0.0000

> <Gold.Chemscore.DEClash>
0.0826

> <Gold.Chemscore.DEInternal>
1.9721

> <Gold.Chemscore.Rot>
5.2672

> <Gold.Chemscore.Internal.Correction>
   9.000000E+99

> <Gold.Chemscore.Hbonds>
donor molecule, donor type, donor heavy atom, donor atom, acceptor molecule, acceptor atom, score
      L1  H     9    45       P1  8028  0.95
      L1  H    25    51       P1 10171  0.96
      L1  H    27    52       P1 10175  0.94

> <Gold.Chemscore.Hbond.Weighted>
-9.7946

> <Gold.Chemscore.Metal.Weighted>
-0.0000

> <Gold.Chemscore.Lipo.Weighted>
-11.9124

> <Gold.Chemscore.Internal_Hbond.Weighted>
0.0000

> <Gold.Chemscore.DEClash.Weighted>
0.0826

> <Gold.Chemscore.DEInternal.Weighted>
1.9721

> <Gold.Chemscore.Rot.Weighted>
13.4839

> <Gold.Chemscore.Internal.Correction.Weighted>
   9.000000E+99

> <Gold.Protein.RotatedTorsions>
[ 6907 6896 6895 6894 ] final  -47.02 input  -60.11 | X-H torsion
[ 7974 7965 7964 7962 ] final  102.42 input  175.53 | X-H torsion
[ 8008 7997 7996 7995 ] final   -5.57 input   59.86 | X-H torsion
[ 10167 10162 10161 10158 ] final  -31.04 input  -65.29 | X-H torsion
[ 10718 10713 10712 10709 ] final  137.77 input   66.30 | X-H torsion
[ 10763 10752 10751 10750 ] final -110.94 input  -60.55 | X-H torsion
[ 11005 11000 10999 10996 ] final  131.02 input  -57.11 | X-H torsion

> <Gold.Protein.ActiveResidues>
 VAL166  LYS551  ARG553  GLY616  TRP617  ASP618  TYR619  PRO620  LYS621  CYS622 
 ASP623  PHE694  ASN695  SER759  ASP760  ASP761  ALA762  ILE779  LEU786  VAL792 
 PHE793  MET794  SER795  GLU796  ALA797  LYS798  CYS799  TRP800  GLU811  SER814 

> <Gold.Protein.RotatedAtoms>
  150.9051  134.8466  159.7386 H   0  0  0  0  0  0  0  0  0  0  0  0  # atno 6907 bound_to 6896
  152.4914  134.4443  159.9563 H   0  0  0  0  0  0  0  0  0  0  0  0  # atno 6908 bound_to 6896
  151.4491  133.3583  159.2828 H   0  0  0  0  0  0  0  0  0  0  0  0  # atno 6909 bound_to 6896
  145.3594  139.2421  143.3515 H   0  0  0  0  0  0  0  0  0  0  0  0  # atno 7974 bound_to 7965
  154.6026  140.2455  155.7773 H   0  0  0  0  0  0  0  0  0  0  0  0  # atno 8008 bound_to 7997
  156.2320  140.2963  156.0166 H   0  0  0  0  0  0  0  0  0  0  0  0  # atno 8009 bound_to 7997
  155.2185  140.0399  157.2935 H   0  0  0  0  0  0  0  0  0  0  0  0  # atno 8010 bound_to 7997
  140.7241  143.3802  151.1615 H   0  0  0  0  0  0  0  0  0  0  0  0  # atno 10167 bound_to 10162
  157.4325  131.1050  151.0234 H   0  0  0  0  0  0  0  0  0  0  0  0  # atno 10718 bound_to 10713
  154.8274  135.4545  154.0963 H   0  0  0  0  0  0  0  0  0  0  0  0  # atno 10763 bound_to 10752
  153.2265  135.6900  153.7946 H   0  0  0  0  0  0  0  0  0  0  0  0  # atno 10764 bound_to 10752
  153.7344  135.3322  155.3268 H   0  0  0  0  0  0  0  0  0  0  0  0  # atno 10765 bound_to 10752
  139.9706  134.9578  156.9378 H   0  0  0  0  0  0  0  0  0  0  0  0  # atno 11005 bound_to 11000
  146.2934  140.4225  142.8731 LP  0  0  0  0  0  0  0  0  0  0  0  0  # atno 17320 bound_to 7965
  144.8658  140.7203  143.6078 LP  0  0  0  0  0  0  0  0  0  0  0  0  # atno 17321 bound_to 7965
  139.7389  143.8955  152.3044 LP  0  0  0  0  0  0  0  0  0  0  0  0  # atno 17342 bound_to 10162
  139.8769  144.7038  150.8922 LP  0  0  0  0  0  0  0  0  0  0  0  0  # atno 17343 bound_to 10162
  157.1125  130.6027  149.5485 LP  0  0  0  0  0  0  0  0  0  0  0  0  # atno 17370 bound_to 10713
  155.9918  130.4974  150.7316 LP  0  0  0  0  0  0  0  0  0  0  0  0  # atno 17371 bound_to 10713
  140.5302  134.0821  155.7314 LP  0  0  0  0  0  0  0  0  0  0  0  0  # atno 17394 bound_to 11000
  141.1385  133.9179  157.2379 LP  0  0  0  0  0  0  0  0  0  0  0  0  # atno 17395 bound_to 11000

$$$$
