#       Name:                AV-unprocessed.smi:2847
#       Creating user name   scv26
#       Creation time:       Fri Mar 27 15:40:45 2020


#       File generated by GOLD software.
#

@<TRIPOS>MOLECULE
AV-unprocessed.smi:2847
    51    52     1
SMALL
NO_CHARGES


@<TRIPOS>ATOM
      1 ****        -5.8074   1.9754  -0.6523 C.3            1 S1                 0.0000
      2 ****        -4.4703   2.6822  -0.3277 C.3            1 S1                 0.0000
      3 ****        -4.3207   3.8138  -1.3721 C.3            1 S1                 0.0000
      4 ****        -4.5386   3.2902   1.0851 C.3            1 S1                 0.0000
      5 ****        -3.2909   1.6971  -0.4057 C.ar           1 S1                 0.0000
      6 ****        -3.5173   0.4418   0.0033 N.ar           1 S1                 0.0000
      7 ****        -2.4625  -0.3977   0.0625 C.ar           1 S1                 0.0000
      8 ****        -1.1547   0.0237  -0.2487 C.ar           1 S1                 0.0000
      9 ****        -0.0939  -0.9182  -0.1797 N.am           1 S1                 0.0000
     10 ****         1.2276  -0.6848  -0.1174 C.2            1 S1                 0.0000
     11 ****         1.7471   0.4297  -0.0755 O.2            1 S1                 0.0000
     12 ****         1.9150  -1.8386  -0.0897 N.am           1 S1                 0.0000
     13 ****         3.3691  -2.0385  -0.0178 C.3            1 S1                 0.0000
     14 ****         3.5892  -3.5715  -0.0306 C.3            1 S1                 0.0000
     15 ****         4.0531  -1.4221  -1.2686 C.3            1 S1                 0.0000
     16 ****         3.5570  -1.9561  -2.4812 O.3            1 S1                 0.0000
     17 ****         3.9796  -1.3788   1.2312 C.3            1 S1                 0.0000
     18 ****         5.2658  -1.8328   1.8835 C.3            1 S1                 0.0000
     19 ****         3.9458  -1.9817   2.6163 C.3            1 S1                 0.0000
     20 ****        -1.0215   1.3777  -0.6387 C.ar           1 S1                 0.0000
     21 ****        -2.0861   2.2060  -0.6954 N.ar           1 S1                 0.0000
     22 ****        -6.6409   2.6785  -0.6439 H              1 S1                 0.0000
     23 ****        -6.0458   1.1981   0.0747 H              1 S1                 0.0000
     24 ****        -5.7817   1.5096  -1.6382 H              1 S1                 0.0000
     25 ****        -4.2403   3.4128  -2.3833 H              1 S1                 0.0000
     26 ****        -3.4375   4.4265  -1.1882 H              1 S1                 0.0000
     27 ****        -5.1786   4.4868  -1.3544 H              1 S1                 0.0000
     28 ****        -5.3648   3.9960   1.1754 H              1 S1                 0.0000
     29 ****        -3.6204   3.8246   1.3311 H              1 S1                 0.0000
     30 ****        -4.6815   2.5178   1.8417 H              1 S1                 0.0000
     31 ****        -2.6657  -1.4127   0.3714 H              1 S1                 0.0000
     32 ****        -0.3768  -1.8862  -0.1324 H              1 S1                 0.0000
     33 ****         1.3691  -2.6865  -0.1329 H              1 S1                 0.0000
     34 ****         4.6456  -3.8351  -0.0723 H              1 S1                 0.0000
     35 ****         3.1203  -4.0332  -0.9003 H              1 S1                 0.0000
     36 ****         3.1550  -4.0586   0.8417 H              1 S1                 0.0000
     37 ****         3.9337  -0.3390  -1.2951 H              1 S1                 0.0000
     38 ****         5.1272  -1.6068  -1.2351 H              1 S1                 0.0000
     39 ****         4.0014  -1.5320  -3.1993 H              1 S1                 0.0000
     40 ****         3.8678  -0.2965   1.2170 H              1 S1                 0.0000
     41 ****         5.7470  -2.7440   1.5379 H              1 S1                 0.0000
     42 ****         5.9468  -1.0592   2.2323 H              1 S1                 0.0000
     43 ****         3.7559  -1.3056   3.4475 H              1 S1                 0.0000
     44 ****         3.5572  -2.9882   2.7477 H              1 S1                 0.0000
     45 ****        -0.0773   1.8155  -0.9219 H              1 S1                 0.0000
     46 ****        -4.4358   0.1375   0.2559 LP             1 S1                 0.0000
     47 ****         1.1741   1.2492  -0.0869 LP             1 S1                 0.0000
     48 ****         2.7423   0.5161  -0.0301 LP             1 S1                 0.0000
     49 ****         2.5734  -1.7879  -2.5466 LP             1 S1                 0.0000
     50 ****         3.7295  -2.9406  -2.5119 LP             1 S1                 0.0000
     51 ****        -1.9788   3.1682  -0.9456 LP             1 S1                 0.0000
@<TRIPOS>BOND
    1    1    2 1     
    2    1   22 1     
    3    1   23 1     
    4    1   24 1     
    5    2    3 1     
    6    2    4 1     
    7    2    5 1     
    8    3   25 1     
    9    3   26 1     
   10    3   27 1     
   11    4   28 1     
   12    4   29 1     
   13    4   30 1     
   14    5   21 ar    
   15    5    6 ar    
   16    6    7 ar    
   17    7    8 ar    
   18    7   31 1     
   19    8    9 1     
   20    8   20 ar    
   21    9   10 am    
   22    9   32 1     
   23   10   11 2     
   24   10   12 am    
   25   12   13 1     
   26   12   33 1     
   27   13   14 1     
   28   13   15 1     
   29   13   17 1     
   30   14   34 1     
   31   14   35 1     
   32   14   36 1     
   33   15   16 1     
   34   15   37 1     
   35   15   38 1     
   36   16   39 1     
   37   17   19 1     
   38   17   18 1     
   39   17   40 1     
   40   18   19 1     
   41   18   41 1     
   42   18   42 1     
   43   19   43 1     
   44   19   44 1     
   45   20   21 ar    
   46   20   45 1     
   47    6   46 1     
   48   11   47 1     
   49   11   48 1     
   50   16   49 1     
   51   16   50 1     
   52   21   51 1     
@<TRIPOS>SUBSTRUCTURE
      1 S1             1
@<TRIPOS>SET
LONE_PAIRS      STATIC     ATOMS    <user>   **** ""
6 46 47 48 49 50 51
DONOR_HYDROGENS      STATIC     ATOMS    <user>   **** ""
3 32 33 39
ATOM$BLUE        STATIC     ATOMS    COLORGROUP SYSTEM
6 46 47 48 49 50 51
ATOM$RED        STATIC     ATOMS    COLORGROUP SYSTEM
3 32 33 39
