AV-unprocessed.smi:1268|AV-procd|sdf|5323|dock1
  -GOLD-   22720 4443D 1   1.00000     0.00000
 Structure written by MMmdl.
 40 41  0  0  0  0  0  0  0  0  2 V2000
  147.7890  137.8582  154.4798 O   0  0  0  0  0  0  0  0  0  0  0  0
  148.2537  138.4742  153.5205 C   0  0  0  0  0  0  0  0  0  0  0  0
  147.5713  138.6981  152.3884 N   0  0  0  0  0  0  0  0  0  0  0  0
  146.2159  138.2290  152.1193 C   0  0  0  0  0  0  0  0  0  0  0  0
  146.2035  136.8945  151.3438 C   0  0  2  0  0  0  0  0  0  0  0  0
  146.0626  137.1796  149.9656 O   0  0  0  0  0  0  0  0  0  0  0  0
  144.9995  136.0177  151.7472 C   0  0  0  0  0  0  0  0  0  0  0  0
  144.9395  134.7386  150.9928 N   0  3  0  0  0  0  0  0  0  0  0  0
  143.7716  133.9085  151.3883 C   0  0  0  0  0  0  0  0  0  0  0  0
  143.6484  132.6579  150.5017 C   0  0  0  0  0  0  0  0  0  0  0  0
  144.9396  131.8307  150.5361 C   0  0  0  0  0  0  0  0  0  0  0  0
  146.1334  132.7131  150.1504 C   0  0  0  0  0  0  0  0  0  0  0  0
  146.2075  133.9619  151.0453 C   0  0  0  0  0  0  0  0  0  0  0  0
  149.4874  139.0050  153.4599 N   0  0  0  0  0  0  0  0  0  0  0  0
  150.5057  138.9722  154.4487 C   0  0  0  0  0  0  0  0  0  0  0  0
  151.0995  140.0583  154.9569 N   0  0  0  0  0  0  0  0  0  0  0  0
  152.0623  139.7297  155.9146 C   0  0  0  0  0  0  0  0  0  0  0  0
  152.1914  138.3791  156.1223 C   0  0  0  0  0  0  0  0  0  0  0  0
  151.1019  137.4605  155.1179 S   0  0  0  0  0  0  0  0  0  0  0  0
  148.0301  139.2125  151.6507 H   0  0  0  0  0  0  0  0  0  0  0  0
  145.7552  138.0855  153.0971 H   0  0  0  0  0  0  0  0  0  0  0  0
  145.6207  138.9950  151.6180 H   0  0  0  0  0  0  0  0  0  0  0  0
  147.1399  136.3630  151.5126 H   0  0  0  0  0  0  0  0  0  0  0  0
  145.4099  137.8573  149.8639 H   0  0  0  0  0  0  0  0  0  0  0  0
  145.0224  135.8001  152.8162 H   0  0  0  0  0  0  0  0  0  0  0  0
  144.0859  136.5897  151.5760 H   0  0  0  0  0  0  0  0  0  0  0  0
  143.8672  133.6199  152.4363 H   0  0  0  0  0  0  0  0  0  0  0  0
  142.8562  134.4955  151.3025 H   0  0  0  0  0  0  0  0  0  0  0  0
  142.8069  132.0482  150.8314 H   0  0  0  0  0  0  0  0  0  0  0  0
  143.4308  132.9561  149.4751 H   0  0  0  0  0  0  0  0  0  0  0  0
  145.0903  131.4216  151.5360 H   0  0  0  0  0  0  0  0  0  0  0  0
  144.8624  130.9805  149.8580 H   0  0  0  0  0  0  0  0  0  0  0  0
  147.0588  132.1419  150.2292 H   0  0  0  0  0  0  0  0  0  0  0  0
  146.0441  133.0152  149.1058 H   0  0  0  0  0  0  0  0  0  0  0  0
  147.0451  134.5770  150.7193 H   0  0  0  0  0  0  0  0  0  0  0  0
  146.4141  133.6700  152.0763 H   0  0  0  0  0  0  0  0  0  0  0  0
  149.7322  139.4786  152.6030 H   0  0  0  0  0  0  0  0  0  0  0  0
  152.6108  140.5229  156.4011 H   0  0  0  0  0  0  0  0  0  0  0  0
  152.8584  137.8712  156.8028 H   0  0  0  0  0  0  0  0  0  0  0  0
  144.7874  134.9932  150.0268 H   0  0  0  0  0  0  0  0  0  0  0  0
  1  2  2  0  0  0  0
  2  3  1  0  0  0  0
  2 14  1  0  0  0  0
  3  4  1  0  0  0  0
  3 20  1  0  0  0  0
  4  5  1  0  0  0  0
  4 21  1  0  0  0  0
  4 22  1  0  0  0  0
  5  6  1  0  0  0  0
  5  7  1  0  0  0  0
  5 23  1  0  0  0  0
  6 24  1  0  0  0  0
  7  8  1  0  0  0  0
  7 25  1  0  0  0  0
  7 26  1  0  0  0  0
  8 13  1  0  0  0  0
  8  9  1  0  0  0  0
  8 40  1  0  0  0  0
  9 10  1  0  0  0  0
  9 27  1  0  0  0  0
  9 28  1  0  0  0  0
 10 11  1  0  0  0  0
 10 29  1  0  0  0  0
 10 30  1  0  0  0  0
 11 12  1  0  0  0  0
 11 31  1  0  0  0  0
 11 32  1  0  0  0  0
 12 13  1  0  0  0  0
 12 33  1  0  0  0  0
 12 34  1  0  0  0  0
 13 35  1  0  0  0  0
 13 36  1  0  0  0  0
 14 15  1  0  0  0  0
 14 37  1  0  0  0  0
 15 19  1  0  0  0  0
 15 16  2  0  0  0  0
 16 17  1  0  0  0  0
 17 18  2  0  0  0  0
 17 38  1  0  0  0  0
 18 19  1  0  0  0  0
 18 39  1  0  0  0  0
M  CHG  1   8   1
M  END
> <s_m_source_file>
AV-unprocessed.smi

> <i_m_source_file_index>
1268

> <i_lp_mmshare_version>
43012

> <i_f3d_flags>
0

> <s_epik_input>
czFbY0hdW2NIXW5jMVtOSF1DKD1PKVtOSF1bQ0gyXVtDQEhdKFtPSF0pW0NIMl1OMltDSDJdW0NIMl1bQ0gyXVtDSDJdW0NIMl0y

> <s_epik_cmdline>
J2VwaWtfcHl0aG9uJywgJy1waCcsICc3LjAnLCAnLXRuJywgJzgnLCAnLW1hJywgJzIwMCcsICctbWV0YWxfYmluZGluZycsICctaW1hZScsICc8aW5maWxlLm1hZT4nLCAnLW9tYWUnLCAnPG91dGZpbGUubWFlPic=

> <r_lp_tautomer_probability>
0.999

> <r_epik_Ionization_Penalty>
0.00539631

> <r_epik_Ionization_Penalty_Charging>
0.00525788

> <r_epik_Ionization_Penalty_Neutral>
0.000138432

> <r_epik_State_Penalty>
0.0038355

> <r_epik_Charging_Adjusted_Penalty>
0.00909338

> <i_epik_Tot_Q>
1

> <i_epik_Tot_abs_Q>
1

> <r_epik_Metal_State_Penalty>
0.0500806

> <b_epik_Metal_Only>
0

> <s_lp_Force_Field>
OPLS_2005

> <r_lp_Energy>
16.7111

> <b_lp_Chiralities_Consistent>
1

> <s_lp_Variant>
AV-unprocessed.smi:1268-1

> <Gold.Version>
5.8.1

> <Gold.Id.Protein>
6NUR|6NUR_protein|mol2

> <Gold.PLP.Fitness>
47.3729

> <Gold.PLP.PLP>
-37.3198

> <Gold.PLP.part.hbond>
-6.3232

> <Gold.PLP.part.metal>
0.0000

> <Gold.PLP.part.buried>
-1.2420

> <Gold.PLP.part.nonpolar>
-31.3782

> <Gold.PLP.part.repulsive>
0.3811

> <Gold.PLP.ligand.clash>
0.0000

> <Gold.PLP.ligand.torsion>
1.1669

> <Gold.PLP.Chemscore.Hbond>
4.1198

> <Gold.PLP.Chemscore.CHOScore>
0.0000

> <Gold.PLP.Chemscore.Metal>
0.0000

> <Gold.Chemscore.Hbonds>
donor molecule, donor type, donor heavy atom, donor atom, acceptor molecule, acceptor atom, score
      L1  H     3    20       P1  7957  0.91
      L1  H     6    24       P1 10171  1.00
      L1  H    14    37       P1  7957  1.00
      P1  H  7954  7966       L1     6  0.19
      P1  H  7989  7998       L1    16  1.00

> <Gold.PLP.Chemscore.Internal.Correction>
0.0274

> <Gold.Rescore>
     Score         DG    S(hbond)    S(metal)    S(lipo)     H(rot)  DE(clash)    DE(int)     intcor
     18.68     -20.87       3.82        0.00      78.10       2.54       1.29       0.89       ----

> <Gold.Chemscore.Fitness>
18.6830

> <Gold.Chemscore.DG>
-20.8661

> <Gold.Chemscore.ZeroCoef>
-5.4800

> <Gold.Chemscore.Hbond>
3.8163

> <Gold.Chemscore.Metal>
0.0000

> <Gold.Chemscore.Lipo>
78.1008

> <Gold.Chemscore.Internal_Hbond>
0.0000

> <Gold.Chemscore.DEClash>
1.2917

> <Gold.Chemscore.DEInternal>
0.8915

> <Gold.Chemscore.Rot>
2.5383

> <Gold.Chemscore.Internal.Correction>
   9.000000E+99

> <Gold.Chemscore.Hbonds>
donor molecule, donor type, donor heavy atom, donor atom, acceptor molecule, acceptor atom, score
      L1  H     3    20       P1  7957  0.87
      L1  H     6    24       P1 10171  0.99
      L1  H    14    37       P1  7957  0.94
      P1  H  7954  7966       L1     6  0.01
      P1  H  7989  7998       L1    16  0.33

> <Gold.Chemscore.Hbond.Weighted>
-12.7464

> <Gold.Chemscore.Metal.Weighted>
-0.0000

> <Gold.Chemscore.Lipo.Weighted>
-9.1378

> <Gold.Chemscore.Internal_Hbond.Weighted>
0.0000

> <Gold.Chemscore.DEClash.Weighted>
1.2917

> <Gold.Chemscore.DEInternal.Weighted>
0.8915

> <Gold.Chemscore.Rot.Weighted>
6.4981

> <Gold.Chemscore.Internal.Correction.Weighted>
   9.000000E+99

> <Gold.Protein.RotatedTorsions>
[ 6907 6896 6895 6894 ] final -165.79 input  -60.11 | X-H torsion
[ 7974 7965 7964 7962 ] final   70.18 input  175.53 | X-H torsion
[ 8008 7997 7996 7995 ] final  -99.33 input   59.86 | X-H torsion
[ 10167 10162 10161 10158 ] final -168.91 input  -65.29 | X-H torsion
[ 10718 10713 10712 10709 ] final   98.56 input   66.30 | X-H torsion
[ 10763 10752 10751 10750 ] final   70.03 input  -60.55 | X-H torsion
[ 11005 11000 10999 10996 ] final -161.90 input  -57.11 | X-H torsion

> <Gold.Protein.ActiveResidues>
 VAL166  LYS551  ARG553  GLY616  TRP617  ASP618  TYR619  PRO620  LYS621  CYS622 
 ASP623  PHE694  ASN695  SER759  ASP760  ASP761  ALA762  ILE779  LEU786  VAL792 
 PHE793  MET794  SER795  GLU796  ALA797  LYS798  CYS799  TRP800  GLU811  SER814 

> <Gold.Protein.RotatedAtoms>
  151.4332  133.3664  159.2771 H   0  0  0  0  0  0  0  0  0  0  0  0  # atno 6907 bound_to 6896
  150.9210  134.8629  159.7499 H   0  0  0  0  0  0  0  0  0  0  0  0  # atno 6908 bound_to 6896
  152.4981  134.4270  159.9551 H   0  0  0  0  0  0  0  0  0  0  0  0  # atno 6909 bound_to 6896
  145.7813  139.2889  143.1264 H   0  0  0  0  0  0  0  0  0  0  0  0  # atno 7974 bound_to 7965
  154.8133  140.0448  157.1358 H   0  0  0  0  0  0  0  0  0  0  0  0  # atno 8008 bound_to 7997
  154.9343  140.3044  155.5132 H   0  0  0  0  0  0  0  0  0  0  0  0  # atno 8009 bound_to 7997
  156.2974  140.2317  156.4406 H   0  0  0  0  0  0  0  0  0  0  0  0  # atno 8010 bound_to 7997
  139.5956  144.1120  152.1685 H   0  0  0  0  0  0  0  0  0  0  0  0  # atno 10167 bound_to 10162
  157.6893  131.0643  150.4815 H   0  0  0  0  0  0  0  0  0  0  0  0  # atno 10718 bound_to 10713
  153.0319  135.5188  154.7380 H   0  0  0  0  0  0  0  0  0  0  0  0  # atno 10763 bound_to 10752
  154.6388  135.2909  155.0131 H   0  0  0  0  0  0  0  0  0  0  0  0  # atno 10764 bound_to 10752
  154.1057  135.6629  153.4928 H   0  0  0  0  0  0  0  0  0  0  0  0  # atno 10765 bound_to 10752
  140.6153  134.4807  157.5219 H   0  0  0  0  0  0  0  0  0  0  0  0  # atno 11005 bound_to 11000
  146.0071  140.8468  142.9989 LP  0  0  0  0  0  0  0  0  0  0  0  0  # atno 17320 bound_to 7965
  144.6796  140.2436  143.7340 LP  0  0  0  0  0  0  0  0  0  0  0  0  # atno 17321 bound_to 7965
  140.0704  144.5783  150.7196 LP  0  0  0  0  0  0  0  0  0  0  0  0  # atno 17342 bound_to 10162
  140.7209  143.2587  151.4283 LP  0  0  0  0  0  0  0  0  0  0  0  0  # atno 17343 bound_to 10162
  156.5146  130.4147  149.6282 LP  0  0  0  0  0  0  0  0  0  0  0  0  # atno 17370 bound_to 10713
  156.3209  130.7280  151.2191 LP  0  0  0  0  0  0  0  0  0  0  0  0  # atno 17371 bound_to 10713
  139.9175  134.8216  156.1317 LP  0  0  0  0  0  0  0  0  0  0  0  0  # atno 17394 bound_to 11000
  141.0780  133.6767  156.2276 LP  0  0  0  0  0  0  0  0  0  0  0  0  # atno 17395 bound_to 11000

$$$$
