AV-unprocessed.smi:828|AV-procd|sdf|3858|dock1
  -GOLD-   22720 1313D 1   1.00000     0.00000
 Structure written by MMmdl.
 35 36  0  0  0  0  0  0  0  0  2 V2000
  144.7451  130.7992  151.1499 C   0  0  0  0  0  0  0  0  0  0  0  0
  144.9533  132.2602  151.3584 C   0  0  0  0  0  0  0  0  0  0  0  0
  143.9567  133.0947  151.6788 N   0  0  0  0  0  0  0  0  0  0  0  0
  144.3916  134.4055  151.8161 N   0  0  0  0  0  0  0  0  0  0  0  0
  145.7081  134.5211  151.5936 C   0  0  0  0  0  0  0  0  0  0  0  0
  146.4143  135.7513  151.6627 N   0  0  0  0  0  0  0  0  0  0  0  0
  145.9373  136.9673  151.9818 C   0  0  0  0  0  0  0  0  0  0  0  0
  144.7743  137.2169  152.3004 O   0  0  0  0  0  0  0  0  0  0  0  0
  146.8956  137.9024  151.9107 N   0  0  0  0  0  0  0  0  0  0  0  0
  146.6953  139.3192  152.1983 C   0  0  0  0  0  0  0  0  0  0  0  0
  147.1756  139.7070  153.6125 C   0  0  2  0  0  0  0  0  0  0  0  0
  146.5985  141.0460  154.1156 C   0  0  0  0  0  0  0  0  0  0  0  0
  147.7737  142.0181  154.0936 C   0  0  0  0  0  0  0  0  0  0  0  0
  148.9710  141.1108  154.3452 C   0  0  0  0  0  0  0  0  0  0  0  0
  148.6516  139.8596  153.6314 N   0  3  1  0  0  0  0  0  0  0  0  0
  149.3864  138.6770  154.1294 C   0  0  0  0  0  0  0  0  0  0  0  0
  146.5303  133.0229  151.1928 S   0  0  0  0  0  0  0  0  0  0  0  0
  143.9036  130.4449  151.7461 H   0  0  0  0  0  0  0  0  0  0  0  0
  145.6369  130.2458  151.4446 H   0  0  0  0  0  0  0  0  0  0  0  0
  144.5392  130.5993  150.0983 H   0  0  0  0  0  0  0  0  0  0  0  0
  147.3961  135.6984  151.4353 H   0  0  0  0  0  0  0  0  0  0  0  0
  147.8262  137.6150  151.6444 H   0  0  0  0  0  0  0  0  0  0  0  0
  147.2110  139.9163  151.4444 H   0  0  0  0  0  0  0  0  0  0  0  0
  145.6329  139.5406  152.0908 H   0  0  0  0  0  0  0  0  0  0  0  0
  146.8878  138.9269  154.3194 H   0  0  0  0  0  0  0  0  0  0  0  0
  145.7561  141.4105  153.5269 H   0  0  0  0  0  0  0  0  0  0  0  0
  146.2472  140.9261  155.1412 H   0  0  0  0  0  0  0  0  0  0  0  0
  147.8566  142.4780  153.1080 H   0  0  0  0  0  0  0  0  0  0  0  0
  147.6814  142.8149  154.8324 H   0  0  0  0  0  0  0  0  0  0  0  0
  149.9089  141.5446  153.9977 H   0  0  0  0  0  0  0  0  0  0  0  0
  149.0631  140.9149  155.4148 H   0  0  0  0  0  0  0  0  0  0  0  0
  149.1330  138.4640  155.1688 H   0  0  0  0  0  0  0  0  0  0  0  0
  150.4623  138.8424  154.0656 H   0  0  0  0  0  0  0  0  0  0  0  0
  149.1443  137.7981  153.5312 H   0  0  0  0  0  0  0  0  0  0  0  0
  148.9293  140.0059  152.6713 H   0  0  0  0  0  0  0  0  0  0  0  0
  1  2  1  0  0  0  0
  1 18  1  0  0  0  0
  1 19  1  0  0  0  0
  1 20  1  0  0  0  0
  2 17  1  0  0  0  0
  2  3  2  0  0  0  0
  3  4  1  0  0  0  0
  4  5  2  0  0  0  0
  5  6  1  0  0  0  0
  5 17  1  0  0  0  0
  6  7  1  0  0  0  0
  6 21  1  0  0  0  0
  7  8  2  0  0  0  0
  7  9  1  0  0  0  0
  9 10  1  0  0  0  0
  9 22  1  0  0  0  0
 10 11  1  0  0  0  0
 10 23  1  0  0  0  0
 10 24  1  0  0  0  0
 11 15  1  0  0  0  0
 11 12  1  0  0  0  0
 11 25  1  0  0  0  0
 12 13  1  0  0  0  0
 12 26  1  0  0  0  0
 12 27  1  0  0  0  0
 13 14  1  0  0  0  0
 13 28  1  0  0  0  0
 13 29  1  0  0  0  0
 14 15  1  0  0  0  0
 14 30  1  0  0  0  0
 14 31  1  0  0  0  0
 15 16  1  0  0  0  0
 15 35  1  0  0  0  0
 16 32  1  0  0  0  0
 16 33  1  0  0  0  0
 16 34  1  0  0  0  0
M  CHG  1  15   1
M  END
> <s_m_source_file>
AV-unprocessed.smi

> <i_m_source_file_index>
828

> <i_lp_mmshare_version>
43012

> <i_f3d_flags>
0

> <s_epik_input>
W0NIM11jMW5uYyhzMSlbTkhdQyg9TylbTkhdW0NIMl1bQ0BASF0yW0NIMl1bQ0gyXVtDSDJdTjJbQ0gzXQ==

> <s_epik_cmdline>
J2VwaWtfcHl0aG9uJywgJy1waCcsICc3LjAnLCAnLXRuJywgJzgnLCAnLW1hJywgJzIwMCcsICctbWV0YWxfYmluZGluZycsICctaW1hZScsICc8aW5maWxlLm1hZT4nLCAnLW9tYWUnLCAnPG91dGZpbGUubWFlPic=

> <r_lp_tautomer_probability>
1

> <r_epik_Ionization_Penalty>
0.00466477

> <r_epik_Ionization_Penalty_Charging>
0.00372199

> <r_epik_Ionization_Penalty_Neutral>
0.000942783

> <r_epik_State_Penalty>
-0

> <r_epik_Charging_Adjusted_Penalty>
0.00372199

> <i_epik_Tot_Q>
1

> <i_epik_Tot_abs_Q>
1

> <r_epik_Metal_State_Penalty>
0.28212

> <b_epik_Metal_Only>
0

> <s_lp_Force_Field>
OPLS_2005

> <r_lp_Energy>
24.623

> <b_lp_Chiralities_Consistent>
1

> <s_lp_Variant>
AV-unprocessed.smi:828-1

> <Gold.Version>
5.8.1

> <Gold.Id.Protein>
6NUR|6NUR_protein|mol2

> <Gold.PLP.Fitness>
37.5008

> <Gold.PLP.PLP>
-29.8227

> <Gold.PLP.part.hbond>
-3.0000

> <Gold.PLP.part.metal>
0.0000

> <Gold.PLP.part.buried>
-4.0064

> <Gold.PLP.part.nonpolar>
-25.3623

> <Gold.PLP.part.repulsive>
1.8361

> <Gold.PLP.ligand.clash>
0.0000

> <Gold.PLP.ligand.torsion>
0.3017

> <Gold.PLP.Chemscore.Hbond>
2.7600

> <Gold.PLP.Chemscore.CHOScore>
0.0000

> <Gold.PLP.Chemscore.Metal>
0.0000

> <Gold.Chemscore.Hbonds>
donor molecule, donor type, donor heavy atom, donor atom, acceptor molecule, acceptor atom, score
      L1  H     6    21       P1  7948  0.94
      L1  H     9    22       P1  7948  0.83
      L1  H    15    35       P1  7957  1.00

> <Gold.PLP.Chemscore.Internal.Correction>
0.0016

> <Gold.Rescore>
     Score         DG    S(hbond)    S(metal)    S(lipo)     H(rot)  DE(clash)    DE(int)     intcor
     17.73     -19.32       2.76        0.00      68.67       1.33       0.07       1.53       ----

> <Gold.Chemscore.Fitness>
17.7257

> <Gold.Chemscore.DG>
-19.3230

> <Gold.Chemscore.ZeroCoef>
-5.4800

> <Gold.Chemscore.Hbond>
2.7580

> <Gold.Chemscore.Metal>
0.0000

> <Gold.Chemscore.Lipo>
68.6701

> <Gold.Chemscore.Internal_Hbond>
0.0000

> <Gold.Chemscore.DEClash>
0.0678

> <Gold.Chemscore.DEInternal>
1.5295

> <Gold.Chemscore.Rot>
1.3294

> <Gold.Chemscore.Internal.Correction>
   9.000000E+99

> <Gold.Chemscore.Hbonds>
donor molecule, donor type, donor heavy atom, donor atom, acceptor molecule, acceptor atom, score
      L1  H     6    21       P1  7948  0.89
      L1  H     9    22       P1  7948  0.81
      L1  H    15    35       P1  7957  1.00

> <Gold.Chemscore.Hbond.Weighted>
-9.2118

> <Gold.Chemscore.Metal.Weighted>
-0.0000

> <Gold.Chemscore.Lipo.Weighted>
-8.0344

> <Gold.Chemscore.Internal_Hbond.Weighted>
0.0000

> <Gold.Chemscore.DEClash.Weighted>
0.0678

> <Gold.Chemscore.DEInternal.Weighted>
1.5295

> <Gold.Chemscore.Rot.Weighted>
3.4033

> <Gold.Chemscore.Internal.Correction.Weighted>
   9.000000E+99

> <Gold.Protein.RotatedTorsions>
[ 6907 6896 6895 6894 ] final  -82.42 input  -60.11 | X-H torsion
[ 7974 7965 7964 7962 ] final  153.87 input  175.53 | X-H torsion
[ 8008 7997 7996 7995 ] final  126.52 input   59.86 | X-H torsion
[ 10167 10162 10161 10158 ] final  159.05 input  -65.29 | X-H torsion
[ 10718 10713 10712 10709 ] final  -85.73 input   66.30 | X-H torsion
[ 10763 10752 10751 10750 ] final  -34.05 input  -60.55 | X-H torsion
[ 11005 11000 10999 10996 ] final  173.20 input  -57.11 | X-H torsion

> <Gold.Protein.ActiveResidues>
 VAL166  LYS551  ARG553  GLY616  TRP617  ASP618  TYR619  PRO620  LYS621  CYS622 
 ASP623  PHE694  ASN695  SER759  ASP760  ASP761  ALA762  ILE779  LEU786  VAL792 
 PHE793  MET794  SER795  GLU796  ALA797  LYS798  CYS799  TRP800  GLU811  SER814 

> <Gold.Protein.RotatedAtoms>
  150.6898  134.3668  159.4974 H   0  0  0  0  0  0  0  0  0  0  0  0  # atno 6907 bound_to 6896
  152.1489  134.9001  160.0558 H   0  0  0  0  0  0  0  0  0  0  0  0  # atno 6908 bound_to 6896
  152.0106  133.3825  159.4255 H   0  0  0  0  0  0  0  0  0  0  0  0  # atno 6909 bound_to 6896
  144.8126  139.6858  143.6135 H   0  0  0  0  0  0  0  0  0  0  0  0  # atno 7974 bound_to 7965
  156.2866  140.2691  156.2124 H   0  0  0  0  0  0  0  0  0  0  0  0  # atno 8008 bound_to 7997
  155.0251  140.0386  157.2470 H   0  0  0  0  0  0  0  0  0  0  0  0  # atno 8009 bound_to 7997
  154.7402  140.2723  155.6384 H   0  0  0  0  0  0  0  0  0  0  0  0  # atno 8010 bound_to 7997
  139.4830  144.4766  151.8502 H   0  0  0  0  0  0  0  0  0  0  0  0  # atno 10167 bound_to 10162
  155.9994  130.4741  150.4607 H   0  0  0  0  0  0  0  0  0  0  0  0  # atno 10718 bound_to 10713
  153.8403  135.6858  153.4803 H   0  0  0  0  0  0  0  0  0  0  0  0  # atno 10763 bound_to 10752
  153.1457  135.4638  154.9561 H   0  0  0  0  0  0  0  0  0  0  0  0  # atno 10764 bound_to 10752
  154.7848  135.3281  154.7858 H   0  0  0  0  0  0  0  0  0  0  0  0  # atno 10765 bound_to 10752
  140.3379  134.7302  157.4181 H   0  0  0  0  0  0  0  0  0  0  0  0  # atno 11005 bound_to 11000
  146.2426  139.6032  142.9481 LP  0  0  0  0  0  0  0  0  0  0  0  0  # atno 17320 bound_to 7965
  145.5289  141.0428  143.2394 LP  0  0  0  0  0  0  0  0  0  0  0  0  # atno 17321 bound_to 7965
  140.4239  144.2206  150.5887 LP  0  0  0  0  0  0  0  0  0  0  0  0  # atno 17342 bound_to 10162
  140.4846  143.2367  151.8906 LP  0  0  0  0  0  0  0  0  0  0  0  0  # atno 17343 bound_to 10162
  157.2631  131.0571  151.2307 LP  0  0  0  0  0  0  0  0  0  0  0  0  # atno 17370 bound_to 10713
  157.3415  130.7036  149.6384 LP  0  0  0  0  0  0  0  0  0  0  0  0  # atno 17371 bound_to 10713
  140.0806  134.5737  155.8545 LP  0  0  0  0  0  0  0  0  0  0  0  0  # atno 17394 bound_to 11000
  141.2046  133.6641  156.6132 LP  0  0  0  0  0  0  0  0  0  0  0  0  # atno 17395 bound_to 11000

$$$$
