#       Name:                AV-unprocessed.smi:413
#       Creating user name   scv26
#       Creation time:       Thu Mar 26 22:46:25 2020


#       File generated by GOLD software.
#

@<TRIPOS>MOLECULE
AV-unprocessed.smi:413
    46    48     1
SMALL
NO_CHARGES


@<TRIPOS>ATOM
      1 ****        -2.2028   4.8607   1.1740 C.3            1 S1                 0.0000
      2 ****        -1.7598   3.6100   0.5701 N.am           1 S1                 0.0000
      3 ****        -1.2834   2.5179   1.2129 C.2            1 S1                 0.0000
      4 ****        -1.1408   2.3981   2.4296 O.2            1 S1                 0.0000
      5 ****        -0.9855   1.5811   0.2818 N.am           1 S1                 0.0000
      6 ****        -0.4225   0.2560   0.5309 C.3            1 S1                 0.0000
      7 ****         1.1081   0.2429   0.3435 C.3            1 S1                 0.0000
      8 ****         1.7523   0.7634   1.4884 O.3            1 S1                 0.0000
      9 ****         1.6713  -1.1642   0.0846 C.3            1 S1                 0.0000
     10 ****         1.1146  -2.0857   1.0146 O.3            1 S1                 0.0000
     11 ****         1.4745  -3.4123   0.9178 C.ar           1 S1                 0.0000
     12 ****         0.8970  -4.3002   1.8490 C.ar           1 S1                 0.0000
     13 ****         1.2056  -5.6738   1.8228 C.ar           1 S1                 0.0000
     14 ****         2.1003  -6.1751   0.8597 C.ar           1 S1                 0.0000
     15 ****         2.3982  -7.4955   0.8323 F              1 S1                 0.0000
     16 ****         2.6847  -5.3007  -0.0752 C.ar           1 S1                 0.0000
     17 ****         2.3761  -3.9265  -0.0487 C.ar           1 S1                 0.0000
     18 ****        -1.2657   2.0943  -0.9927 C.ar           1 S1                 0.0000
     19 ****        -1.1195   1.5294  -2.2717 C.ar           1 S1                 0.0000
     20 ****        -1.4968   2.3273  -3.3774 C.ar           1 S1                 0.0000
     21 ****        -1.9988   3.6415  -3.1884 C.ar           1 S1                 0.0000
     22 ****        -2.1342   4.1860  -1.8896 C.ar           1 S1                 0.0000
     23 ****        -1.7530   3.3710  -0.8099 C.ar           1 S1                 0.0000
     24 ****        -2.2558   4.7937   2.2614 H              1 S1                 0.0000
     25 ****        -3.1943   5.1277   0.8072 H              1 S1                 0.0000
     26 ****        -1.5148   5.6663   0.9171 H              1 S1                 0.0000
     27 ****        -0.6989  -0.1062   1.5227 H              1 S1                 0.0000
     28 ****        -0.8846  -0.4357  -0.1744 H              1 S1                 0.0000
     29 ****         1.3853   0.8743  -0.5018 H              1 S1                 0.0000
     30 ****         1.5368   0.2153   2.2279 H              1 S1                 0.0000
     31 ****         1.3948  -1.4686  -0.9262 H              1 S1                 0.0000
     32 ****         2.7613  -1.1561   0.1416 H              1 S1                 0.0000
     33 ****         0.2088  -3.9234   2.5915 H              1 S1                 0.0000
     34 ****         0.7549  -6.3421   2.5415 H              1 S1                 0.0000
     35 ****         3.3716  -5.6842  -0.8151 H              1 S1                 0.0000
     36 ****         2.8449  -3.2879  -0.7816 H              1 S1                 0.0000
     37 ****        -0.7343   0.5298  -2.4088 H              1 S1                 0.0000
     38 ****        -1.4006   1.9317  -4.3777 H              1 S1                 0.0000
     39 ****        -2.2800   4.2341  -4.0466 H              1 S1                 0.0000
     40 ****        -2.5134   5.1857  -1.7373 H              1 S1                 0.0000
     41 ****        -1.3868   3.1522   3.0385 LP             1 S1                 0.0000
     42 ****        -0.7790   1.5466   2.8092 LP             1 S1                 0.0000
     43 ****         1.4376   1.6974   1.6575 LP             1 S1                 0.0000
     44 ****         2.7422   0.7656   1.3470 LP             1 S1                 0.0000
     45 ****         0.1204  -2.0411   0.9160 LP             1 S1                 0.0000
     46 ****         1.3731  -1.7752   1.9293 LP             1 S1                 0.0000
@<TRIPOS>BOND
    1    1    2 1     
    2    1   24 1     
    3    1   25 1     
    4    1   26 1     
    5    2   23 1     
    6    2    3 am    
    7    3    4 2     
    8    3    5 am    
    9    5    6 1     
   10    5   18 1     
   11    6    7 1     
   12    6   27 1     
   13    6   28 1     
   14    7    8 1     
   15    7    9 1     
   16    7   29 1     
   17    8   30 1     
   18    9   10 1     
   19    9   31 1     
   20    9   32 1     
   21   10   11 1     
   22   11   17 ar    
   23   11   12 ar    
   24   12   13 ar    
   25   12   33 1     
   26   13   14 ar    
   27   13   34 1     
   28   14   15 1     
   29   14   16 ar    
   30   16   17 ar    
   31   16   35 1     
   32   17   36 1     
   33   18   23 ar    
   34   18   19 ar    
   35   19   20 ar    
   36   19   37 1     
   37   20   21 ar    
   38   20   38 1     
   39   21   22 ar    
   40   21   39 1     
   41   22   23 ar    
   42   22   40 1     
   43    4   41 1     
   44    4   42 1     
   45    8   43 1     
   46    8   44 1     
   47   10   45 1     
   48   10   46 1     
@<TRIPOS>SUBSTRUCTURE
      1 S1             1
@<TRIPOS>SET
LONE_PAIRS      STATIC     ATOMS    <user>   **** ""
6 41 42 43 44 45 46
DONOR_HYDROGENS      STATIC     ATOMS    <user>   **** ""
1 30
ATOM$BLUE        STATIC     ATOMS    COLORGROUP SYSTEM
6 41 42 43 44 45 46
ATOM$RED        STATIC     ATOMS    COLORGROUP SYSTEM
1 30
