AV-unprocessed.smi:196|AV-procd|sdf|1540|dock6
  -GOLD-   2262019393D 1   1.00000     0.00000
 Structure written by MMmdl.
 47 50  0  0  0  0  0  0  0  0  1 V2000
  149.1154  141.5840  154.9196 C   0  0  0  0  0  0  0  0  0  0  0  0
  149.8630  140.3508  155.4501 C   0  0  2  0  0  0  0  0  0  0  0  0
  151.0544  140.2103  154.6799 O   0  0  0  0  0  0  0  0  0  0  0  0
  151.3787  138.8351  154.5782 C   0  0  0  0  0  0  0  0  0  0  0  0
  150.0142  138.1897  154.3922 C   0  0  0  0  0  0  0  0  0  0  0  0
  149.1256  138.9855  155.3439 C   0  0  1  0  0  0  0  0  0  0  0  0
  149.1888  138.3646  156.6176 O   0  0  0  0  0  0  0  0  0  0  0  0
  147.6365  139.0356  154.9098 C   0  0  0  0  0  0  0  0  0  0  0  0
  147.0962  137.7339  154.5460 N   0  0  0  0  0  0  0  0  0  0  0  0
  147.0308  136.6151  155.3471 C   0  0  0  0  0  0  0  0  0  0  0  0
  146.5038  135.5585  154.7901 N   0  0  0  0  0  0  0  0  0  0  0  0
  146.1766  135.9848  153.5100 C   0  0  0  0  0  0  0  0  0  0  0  0
  145.5883  135.3548  152.3833 C   0  0  0  0  0  0  0  0  0  0  0  0
  145.1968  134.0605  152.4174 N   0  0  0  0  0  0  0  0  0  0  0  0
  143.8400  133.8218  151.9346 C   0  0  0  0  0  0  0  0  0  0  0  0
  143.9277  132.6271  150.9837 C   0  0  1  0  0  0  0  0  0  0  0  0
  144.0998  133.0653  149.7354 F   0  0  0  0  0  0  0  0  0  0  0  0
  145.1866  131.9040  151.4491 C   0  0  0  0  0  0  0  0  0  0  0  0
  146.1140  133.0518  151.8726 C   0  0  2  0  0  0  0  0  0  0  0  0
  147.1944  132.5760  152.8620 C   0  0  0  0  0  0  0  0  0  0  0  0
  148.1702  131.7763  152.4181 N   0  0  0  0  0  0  0  0  0  0  0  0
  147.1404  132.9305  154.0375 O   0  0  0  0  0  0  0  0  0  0  0  0
  145.4043  136.0980  151.2612 N   0  0  0  0  0  0  0  0  0  0  0  0
  145.7834  137.3795  151.2415 C   0  0  0  0  0  0  0  0  0  0  0  0
  146.3511  138.0977  152.2134 N   0  0  0  0  0  0  0  0  0  0  0  0
  146.5335  137.3513  153.3407 C   0  0  0  0  0  0  0  0  0  0  0  0
  143.0358  132.0003  150.9931 H   0  0  0  0  0  0  0  0  0  0  0  0
  146.6175  133.4340  150.9831 H   0  0  0  0  0  0  0  0  0  0  0  0
  148.1950  141.7632  155.4756 H   0  0  0  0  0  0  0  0  0  0  0  0
  148.8635  141.4760  153.8643 H   0  0  0  0  0  0  0  0  0  0  0  0
  149.7330  142.4771  155.0167 H   0  0  0  0  0  0  0  0  0  0  0  0
  150.1574  140.5458  156.4832 H   0  0  0  0  0  0  0  0  0  0  0  0
  152.0557  138.6413  153.7462 H   0  0  0  0  0  0  0  0  0  0  0  0
  151.8538  138.4968  155.5003 H   0  0  0  0  0  0  0  0  0  0  0  0
  149.6943  138.3462  153.3615 H   0  0  0  0  0  0  0  0  0  0  0  0
  150.0154  137.1152  154.5809 H   0  0  0  0  0  0  0  0  0  0  0  0
  148.3071  138.2042  156.9170 H   0  0  0  0  0  0  0  0  0  0  0  0
  147.0198  139.4463  155.7102 H   0  0  0  0  0  0  0  0  0  0  0  0
  147.5095  139.6969  154.0524 H   0  0  0  0  0  0  0  0  0  0  0  0
  147.3954  136.6060  156.3639 H   0  0  0  0  0  0  0  0  0  0  0  0
  143.2218  133.5702  152.7968 H   0  0  0  0  0  0  0  0  0  0  0  0
  143.3864  134.6897  151.4514 H   0  0  0  0  0  0  0  0  0  0  0  0
  144.9453  131.2659  152.3013 H   0  0  0  0  0  0  0  0  0  0  0  0
  145.6209  131.2734  150.6722 H   0  0  0  0  0  0  0  0  0  0  0  0
  148.8864  131.4563  153.0544 H   0  0  0  0  0  0  0  0  0  0  0  0
  148.1876  131.4960  151.4483 H   0  0  0  0  0  0  0  0  0  0  0  0
  145.6062  137.9047  150.3147 H   0  0  0  0  0  0  0  0  0  0  0  0
  1  2  1  0  0  0  0
  1 29  1  0  0  0  0
  1 30  1  0  0  0  0
  1 31  1  0  0  0  0
  2  6  1  0  0  0  0
  2  3  1  0  0  0  0
  2 32  1  0  0  0  0
  3  4  1  0  0  0  0
  4  5  1  0  0  0  0
  4 33  1  0  0  0  0
  4 34  1  0  0  0  0
  5  6  1  0  0  0  0
  5 35  1  0  0  0  0
  5 36  1  0  0  0  0
  6  7  1  0  0  0  0
  6  8  1  0  0  0  0
  7 37  1  0  0  0  0
  8  9  1  0  0  0  0
  8 38  1  0  0  0  0
  8 39  1  0  0  0  0
  9 26  1  0  0  0  0
  9 10  1  0  0  0  0
 10 11  2  0  0  0  0
 10 40  1  0  0  0  0
 11 12  1  0  0  0  0
 12 26  2  0  0  0  0
 12 13  1  0  0  0  0
 13 14  1  0  0  0  0
 13 23  2  0  0  0  0
 14 19  1  0  0  0  0
 14 15  1  0  0  0  0
 15 16  1  0  0  0  0
 15 41  1  0  0  0  0
 15 42  1  0  0  0  0
 16 27  1  0  0  0  0
 16 17  1  0  0  0  0
 16 18  1  0  0  0  0
 18 19  1  0  0  0  0
 18 43  1  0  0  0  0
 18 44  1  0  0  0  0
 19 28  1  0  0  0  0
 19 20  1  0  0  0  0
 20 21  1  0  0  0  0
 20 22  2  0  0  0  0
 21 45  1  0  0  0  0
 21 46  1  0  0  0  0
 23 24  1  0  0  0  0
 24 25  2  0  0  0  0
 24 47  1  0  0  0  0
 25 26  1  0  0  0  0
M  END
> <s_m_source_file>
AV-unprocessed.smi

> <i_m_source_file_index>
196

> <i_lp_mmshare_version>
43012

> <i_f3d_flags>
0

> <s_epik_input>
W0NIMl0xW0NIMl1PW0NAQEhdKFtDSDNdKVtDQEBdMShbT0hdKVtDSDJdbihbY0hdbjIpYyhjMjMpbltjSF1uYzNONFtDSDJdW0NASF0oRilbQ0gyXVtDQEhdNEMoPU8pW05IMl0=

> <s_epik_cmdline>
J2VwaWtfcHl0aG9uJywgJy1waCcsICc3LjAnLCAnLXRuJywgJzgnLCAnLW1hJywgJzIwMCcsICctbWV0YWxfYmluZGluZycsICctaW1hZScsICc8aW5maWxlLm1hZT4nLCAnLW9tYWUnLCAnPG91dGZpbGUubWFlPic=

> <r_lp_tautomer_probability>
1

> <r_epik_Ionization_Penalty>
0.000857933

> <r_epik_Ionization_Penalty_Charging>
0

> <r_epik_Ionization_Penalty_Neutral>
0.000857933

> <r_epik_State_Penalty>
0.000462053

> <r_epik_Charging_Adjusted_Penalty>
0.000462053

> <i_epik_Tot_Q>
0

> <i_epik_Tot_abs_Q>
0

> <r_epik_Metal_State_Penalty>
-0

> <b_epik_Metal_Only>
0

> <s_lp_Force_Field>
OPLS_2005

> <r_lp_Energy>
46.05

> <b_lp_Chiralities_Consistent>
1

> <s_lp_Variant>
AV-unprocessed.smi:196-13

> <Gold.Version>
5.8.1

> <Gold.Id.Protein>
6NUR|6NUR_protein|mol2

> <Gold.PLP.Fitness>
39.4821

> <Gold.PLP.PLP>
-32.5471

> <Gold.PLP.part.hbond>
-1.9530

> <Gold.PLP.part.metal>
0.0000

> <Gold.PLP.part.buried>
-2.9410

> <Gold.PLP.part.nonpolar>
-30.0238

> <Gold.PLP.part.repulsive>
1.0692

> <Gold.PLP.ligand.clash>
0.0000

> <Gold.PLP.ligand.torsion>
0.7123

> <Gold.PLP.Chemscore.Hbond>
1.9913

> <Gold.PLP.Chemscore.CHOScore>
0.7405

> <Gold.PLP.Chemscore.Metal>
0.0000

> <Gold.Chemscore.Hbonds>
donor molecule, donor type, donor heavy atom, donor atom, acceptor molecule, acceptor atom, score
      L1  H    21    46       P1 10747  0.94
      P1  H  7989  7998       L1     3  0.84
      L1  C    24    47       P1 10171  0.63

> <Gold.PLP.Chemscore.Internal.Correction>
0.1643

> <Gold.Rescore>
     Score         DG    S(hbond)    S(metal)    S(lipo)     H(rot)  DE(clash)    DE(int)     intcor
      7.40     -11.12       1.92        0.00      59.85       3.04       1.34       2.38       ----

> <Gold.Chemscore.Fitness>
7.3994

> <Gold.Chemscore.DG>
-11.1195

> <Gold.Chemscore.ZeroCoef>
-5.4800

> <Gold.Chemscore.Hbond>
1.9229

> <Gold.Chemscore.Metal>
0.0000

> <Gold.Chemscore.Lipo>
59.8515

> <Gold.Chemscore.Internal_Hbond>
0.0000

> <Gold.Chemscore.DEClash>
1.3443

> <Gold.Chemscore.DEInternal>
2.3758

> <Gold.Chemscore.Rot>
3.0413

> <Gold.Chemscore.Internal.Correction>
   9.000000E+99

> <Gold.Chemscore.Hbonds>
donor molecule, donor type, donor heavy atom, donor atom, acceptor molecule, acceptor atom, score
      L1  H    21    46       P1 10747  0.87
      P1  H  7989  7998       L1     3  0.51

> <Gold.Chemscore.Hbond.Weighted>
-6.4226

> <Gold.Chemscore.Metal.Weighted>
-0.0000

> <Gold.Chemscore.Lipo.Weighted>
-7.0026

> <Gold.Chemscore.Internal_Hbond.Weighted>
0.0000

> <Gold.Chemscore.DEClash.Weighted>
1.3443

> <Gold.Chemscore.DEInternal.Weighted>
2.3758

> <Gold.Chemscore.Rot.Weighted>
7.7856

> <Gold.Chemscore.Internal.Correction.Weighted>
   9.000000E+99

> <Gold.Protein.RotatedTorsions>
[ 6907 6896 6895 6894 ] final  -84.73 input  -60.11 | X-H torsion
[ 7974 7965 7964 7962 ] final  160.62 input  175.53 | X-H torsion
[ 8008 7997 7996 7995 ] final -155.89 input   59.86 | X-H torsion
[ 10167 10162 10161 10158 ] final   22.20 input  -65.29 | X-H torsion
[ 10718 10713 10712 10709 ] final  -95.41 input   66.30 | X-H torsion
[ 10763 10752 10751 10750 ] final  -47.96 input  -60.55 | X-H torsion
[ 11005 11000 10999 10996 ] final   79.58 input  -57.11 | X-H torsion

> <Gold.Protein.ActiveResidues>
 VAL166  LYS551  ARG553  GLY616  TRP617  ASP618  TYR619  PRO620  LYS621  CYS622 
 ASP623  PHE694  ASN695  SER759  ASP760  ASP761  ALA762  ILE779  LEU786  VAL792 
 PHE793  MET794  SER795  GLU796  ALA797  LYS798  CYS799  TRP800  GLU811  SER814 

> <Gold.Protein.RotatedAtoms>
  150.6874  134.3314  159.4828 H   0  0  0  0  0  0  0  0  0  0  0  0  # atno 6907 bound_to 6896
  152.1178  134.9225  160.0573 H   0  0  0  0  0  0  0  0  0  0  0  0  # atno 6908 bound_to 6896
  152.0443  133.3956  159.4387 H   0  0  0  0  0  0  0  0  0  0  0  0  # atno 6909 bound_to 6896
  144.7727  139.7783  143.6290 H   0  0  0  0  0  0  0  0  0  0  0  0  # atno 7974 bound_to 7965
  155.7088  140.0776  157.2380 H   0  0  0  0  0  0  0  0  0  0  0  0  # atno 8008 bound_to 7997
  154.4061  140.1634  156.2326 H   0  0  0  0  0  0  0  0  0  0  0  0  # atno 8009 bound_to 7997
  155.9302  140.3392  155.6245 H   0  0  0  0  0  0  0  0  0  0  0  0  # atno 8010 bound_to 7997
  140.5367  143.9748  150.6496 H   0  0  0  0  0  0  0  0  0  0  0  0  # atno 10167 bound_to 10162
  156.0043  130.5108  150.6072 H   0  0  0  0  0  0  0  0  0  0  0  0  # atno 10718 bound_to 10713
  154.0700  135.6606  153.4823 H   0  0  0  0  0  0  0  0  0  0  0  0  # atno 10763 bound_to 10752
  153.0394  135.5155  154.7576 H   0  0  0  0  0  0  0  0  0  0  0  0  # atno 10764 bound_to 10752
  154.6639  135.3019  154.9798 H   0  0  0  0  0  0  0  0  0  0  0  0  # atno 10765 bound_to 10752
  139.9167  134.7854  156.1797 H   0  0  0  0  0  0  0  0  0  0  0  0  # atno 11005 bound_to 11000
  146.1885  139.5113  142.9820 LP  0  0  0  0  0  0  0  0  0  0  0  0  # atno 17320 bound_to 7965
  145.6276  141.0310  143.1881 LP  0  0  0  0  0  0  0  0  0  0  0  0  # atno 17321 bound_to 7965
  140.3137  143.3181  152.0853 LP  0  0  0  0  0  0  0  0  0  0  0  0  # atno 17342 bound_to 10162
  139.4973  144.6619  151.6444 LP  0  0  0  0  0  0  0  0  0  0  0  0  # atno 17343 bound_to 10162
  157.3910  131.0795  151.1393 LP  0  0  0  0  0  0  0  0  0  0  0  0  # atno 17370 bound_to 10713
  157.2085  130.6427  149.5765 LP  0  0  0  0  0  0  0  0  0  0  0  0  # atno 17371 bound_to 10713
  141.0649  133.6824  156.2026 LP  0  0  0  0  0  0  0  0  0  0  0  0  # atno 17394 bound_to 11000
  140.6600  134.4977  157.5583 LP  0  0  0  0  0  0  0  0  0  0  0  0  # atno 17395 bound_to 11000

$$$$
