#       Name:                AV-unprocessed.smi:220
#       Creating user name   scv26
#       Creation time:       Thu Mar 26 20:11:54 2020


#       File generated by GOLD software.
#

@<TRIPOS>MOLECULE
AV-unprocessed.smi:220
    60    64     1
SMALL
NO_CHARGES


@<TRIPOS>ATOM
      1 ****        -1.4850  -1.8972   1.7059 N.am           1 S1                 0.0000
      2 ****        -1.9195  -0.6735   1.3959 C.2            1 S1                 0.0000
      3 ****        -1.9330   0.2391   2.2207 O.2            1 S1                 0.0000
      4 ****        -2.4241  -0.4614  -0.0491 C.3            1 S1                 0.0000
      5 ****        -3.9675  -0.4029  -0.2228 C.3            1 S1                 0.0000
      6 ****        -4.9055  -1.0574   0.8211 C.3            1 S1                 0.0000
      7 ****        -5.9783  -0.0023   1.1089 C.3            1 S1                 0.0000
      8 ****        -5.2537   1.3318   0.9322 C.3            1 S1                 0.0000
      9 ****        -4.3386   1.0841  -0.2703 C.3            1 S1                 0.0000
     10 ****        -3.0125   1.8489  -0.2995 C.3            1 S1                 0.0000
     11 ****        -1.9992   0.8367  -0.5798 N.pl3          1 S1                 0.0000
     12 ****        -0.6891   1.1796  -0.7406 C.ar           1 S1                 0.0000
     13 ****        -0.3490   2.4936  -0.6520 N.ar           1 S1                 0.0000
     14 ****         0.9201   2.8832  -0.7941 C.ar           1 S1                 0.0000
     15 ****         1.9981   2.1367  -1.0314 N.ar           1 S1                 0.0000
     16 ****         1.6720   0.8173  -1.1336 C.ar           1 S1                 0.0000
     17 ****         0.3673   0.2561  -1.0079 C.ar           1 S1                 0.0000
     18 ****         0.4398  -1.1206  -1.1927 N.2            1 S1                 0.0000
     19 ****         1.7045  -1.3583  -1.4021 C.2            1 S1                 0.0000
     20 ****         2.5197  -0.2514  -1.3727 N.pl3          1 S1                 0.0000
     21 ****         3.9611  -0.2244  -1.5709 C.3            1 S1                 0.0000
     22 ****         4.7656  -0.6862  -0.3390 C.3            1 S1                 0.0000
     23 ****         4.4393   0.1973   0.8778 C.3            1 S1                 0.0000
     24 ****         4.8186   1.5400   0.6548 O.3            1 S1                 0.0000
     25 ****         4.7452  -2.1942  -0.0500 C.3            1 S1                 0.0000
     26 ****         6.1850  -2.2586   0.0213 O.3            1 S1                 0.0000
     27 ****         6.2606  -0.9445  -0.5712 C.3            1 S1                 0.0000
     28 ****        -1.1411  -2.0851   2.6363 H              1 S1                 0.0000
     29 ****        -1.4975  -2.6282   1.0095 H              1 S1                 0.0000
     30 ****        -2.0558  -1.2690  -0.6803 H              1 S1                 0.0000
     31 ****        -4.2060  -0.8255  -1.2004 H              1 S1                 0.0000
     32 ****        -5.3422  -1.9846   0.4489 H              1 S1                 0.0000
     33 ****        -4.4078  -1.3016   1.7573 H              1 S1                 0.0000
     34 ****        -6.7820  -0.0832   0.3756 H              1 S1                 0.0000
     35 ****        -6.4197  -0.1124   2.0999 H              1 S1                 0.0000
     36 ****        -5.9373   2.1662   0.7747 H              1 S1                 0.0000
     37 ****        -4.6658   1.5432   1.8266 H              1 S1                 0.0000
     38 ****        -4.8948   1.2723  -1.1901 H              1 S1                 0.0000
     39 ****        -3.0289   2.6185  -1.0725 H              1 S1                 0.0000
     40 ****        -2.8035   2.3338   0.6552 H              1 S1                 0.0000
     41 ****         1.0966   3.9448  -0.7041 H              1 S1                 0.0000
     42 ****         2.0765  -2.3556  -1.5840 H              1 S1                 0.0000
     43 ****         4.1859  -0.8566  -2.4309 H              1 S1                 0.0000
     44 ****         4.2534   0.7832  -1.8684 H              1 S1                 0.0000
     45 ****         3.3794   0.1625   1.1299 H              1 S1                 0.0000
     46 ****         4.9710  -0.1554   1.7621 H              1 S1                 0.0000
     47 ****         4.5892   2.0482   1.4179 H              1 S1                 0.0000
     48 ****         4.2647  -2.4606   0.8922 H              1 S1                 0.0000
     49 ****         4.3598  -2.8026  -0.8693 H              1 S1                 0.0000
     50 ****         6.5442  -0.9914  -1.6237 H              1 S1                 0.0000
     51 ****         6.9210  -0.2736  -0.0206 H              1 S1                 0.0000
     52 ****        -1.6126   0.0747   3.1536 LP             1 S1                 0.0000
     53 ****        -2.2645   1.1454   1.9583 LP             1 S1                 0.0000
     54 ****        -1.0585   3.1765  -0.4782 LP             1 S1                 0.0000
     55 ****         2.9261   2.4978  -1.1227 LP             1 S1                 0.0000
     56 ****        -0.3109  -1.7809  -1.1700 LP             1 S1                 0.0000
     57 ****         4.3374   1.8977  -0.1455 LP             1 S1                 0.0000
     58 ****         5.8053   1.5903   0.5005 LP             1 S1                 0.0000
     59 ****         6.5911  -2.9833  -0.5354 LP             1 S1                 0.0000
     60 ****         6.5475  -2.3103   0.9518 LP             1 S1                 0.0000
@<TRIPOS>BOND
    1    1    2 am    
    2    1   28 1     
    3    1   29 1     
    4    2    3 2     
    5    2    4 1     
    6    4   11 1     
    7    4    5 1     
    8    4   30 1     
    9    5    9 1     
   10    5    6 1     
   11    5   31 1     
   12    6    7 1     
   13    6   32 1     
   14    6   33 1     
   15    7    8 1     
   16    7   34 1     
   17    7   35 1     
   18    8    9 1     
   19    8   36 1     
   20    8   37 1     
   21    9   10 1     
   22    9   38 1     
   23   10   11 1     
   24   10   39 1     
   25   10   40 1     
   26   11   12 1     
   27   12   17 ar    
   28   12   13 ar    
   29   13   14 ar    
   30   14   15 ar    
   31   14   41 1     
   32   15   16 ar    
   33   16   20 1     
   34   16   17 ar    
   35   17   18 1     
   36   18   19 2     
   37   19   20 1     
   38   19   42 1     
   39   20   21 1     
   40   21   22 1     
   41   21   43 1     
   42   21   44 1     
   43   22   27 1     
   44   22   23 1     
   45   22   25 1     
   46   23   24 1     
   47   23   45 1     
   48   23   46 1     
   49   24   47 1     
   50   25   26 1     
   51   25   48 1     
   52   25   49 1     
   53   26   27 1     
   54   27   50 1     
   55   27   51 1     
   56    3   52 1     
   57    3   53 1     
   58   13   54 1     
   59   15   55 1     
   60   18   56 1     
   61   24   57 1     
   62   24   58 1     
   63   26   59 1     
   64   26   60 1     
@<TRIPOS>SUBSTRUCTURE
      1 S1             1
@<TRIPOS>SET
LONE_PAIRS      STATIC     ATOMS    <user>   **** ""
9 52 53 54 55 56 57 58 59 60
DONOR_HYDROGENS      STATIC     ATOMS    <user>   **** ""
3 28 29 47
ATOM$BLUE        STATIC     ATOMS    COLORGROUP SYSTEM
9 52 53 54 55 56 57 58 59 60
ATOM$RED        STATIC     ATOMS    COLORGROUP SYSTEM
3 28 29 47
