#       Name:                AV-unprocessed.smi:1567
#       Creating user name   scv26
#       Creation time:       Fri Mar 27 06:51:06 2020


#       File generated by GOLD software.
#

@<TRIPOS>MOLECULE
AV-unprocessed.smi:1567
    47    49     1
SMALL
NO_CHARGES


@<TRIPOS>ATOM
      1 ****        -5.0185   3.7541   0.1192 O.3            1 S1                 0.0000
      2 ****        -4.2842   2.5983  -0.2218 C.3            1 S1                 0.0000
      3 ****        -2.8112   2.7895   0.1626 C.3            1 S1                 0.0000
      4 ****        -1.9512   1.5621  -0.1830 C.3            1 S1                 0.0000
      5 ****        -0.5030   1.7332   0.1640 C.2            1 S1                 0.0000
      6 ****         0.0728   2.8118   0.7713 N.pl3          1 S1                 1.0000
      7 ****         1.4429   2.5963   0.9246 C.ar           1 S1                 0.0000
      8 ****         2.4366   3.3978   1.4783 C.ar           1 S1                 0.0000
      9 ****         3.7463   2.8740   1.4757 C.ar           1 S1                 0.0000
     10 ****         4.0271   1.6007   0.9386 C.ar           1 S1                 0.0000
     11 ****         3.0110   0.7967   0.3815 C.ar           1 S1                 0.0000
     12 ****         1.7195   1.3233   0.3871 C.ar           1 S1                 0.0000
     13 ****         0.4921   0.8281  -0.0659 N.pl3          1 S1                 0.0000
     14 ****         0.4457  -0.5056  -0.6844 C.3            1 S1                 0.0000
     15 ****         0.4464  -1.6487   0.3502 C.3            1 S1                 0.0000
     16 ****        -0.6548  -1.4996   1.2271 O.3            1 S1                 0.0000
     17 ****         0.4762  -3.0078  -0.3360 C.ar           1 S1                 0.0000
     18 ****        -0.7237  -3.6498  -0.7180 C.ar           1 S1                 0.0000
     19 ****        -0.6876  -4.9020  -1.3617 C.ar           1 S1                 0.0000
     20 ****        -1.8416  -5.5110  -1.7227 F              1 S1                 0.0000
     21 ****         0.5481  -5.5194  -1.6324 C.ar           1 S1                 0.0000
     22 ****         1.7474  -4.8819  -1.2628 C.ar           1 S1                 0.0000
     23 ****         1.7137  -3.6296  -0.6189 C.ar           1 S1                 0.0000
     24 ****         2.8777  -3.0246  -0.2795 F              1 S1                 0.0000
     25 ****        -5.9216   3.6216  -0.1267 H              1 S1                 0.0000
     26 ****        -4.7104   1.7394   0.2974 H              1 S1                 0.0000
     27 ****        -4.3837   2.4173  -1.2926 H              1 S1                 0.0000
     28 ****        -2.4185   3.6676  -0.3523 H              1 S1                 0.0000
     29 ****        -2.7420   2.9954   1.2319 H              1 S1                 0.0000
     30 ****        -2.3311   0.6844   0.3408 H              1 S1                 0.0000
     31 ****        -2.0276   1.3486  -1.2495 H              1 S1                 0.0000
     32 ****         2.2237   4.3732   1.8905 H              1 S1                 0.0000
     33 ****         4.5516   3.4603   1.8940 H              1 S1                 0.0000
     34 ****         5.0428   1.2324   0.9547 H              1 S1                 0.0000
     35 ****         3.2359  -0.1779  -0.0261 H              1 S1                 0.0000
     36 ****        -0.4491  -0.5574  -1.3057 H              1 S1                 0.0000
     37 ****         1.2942  -0.5949  -1.3640 H              1 S1                 0.0000
     38 ****         1.3370  -1.5651   0.9734 H              1 S1                 0.0000
     39 ****        -0.5834  -2.1481   1.9110 H              1 S1                 0.0000
     40 ****        -1.6789  -3.1843  -0.5233 H              1 S1                 0.0000
     41 ****         0.5763  -6.4793  -2.1267 H              1 S1                 0.0000
     42 ****         2.6956  -5.3530  -1.4761 H              1 S1                 0.0000
     43 ****        -0.4398   3.6357   1.0583 H              1 S1                 0.0000
     44 ****        -4.6488   4.5443  -0.3696 LP             1 S1                 0.0000
     45 ****        -4.9576   3.9132   1.1045 LP             1 S1                 0.0000
     46 ****        -1.5080  -1.6335   0.7229 LP             1 S1                 0.0000
     47 ****        -0.6449  -0.5837   1.6283 LP             1 S1                 0.0000
@<TRIPOS>BOND
    1    1    2 1     
    2    1   25 1     
    3    2    3 1     
    4    2   26 1     
    5    2   27 1     
    6    3    4 1     
    7    3   28 1     
    8    3   29 1     
    9    4    5 1     
   10    4   30 1     
   11    4   31 1     
   12    5   13 1     
   13    5    6 2     
   14    6    7 1     
   15    6   43 1     
   16    7   12 ar    
   17    7    8 ar    
   18    8    9 ar    
   19    8   32 1     
   20    9   10 ar    
   21    9   33 1     
   22   10   11 ar    
   23   10   34 1     
   24   11   12 ar    
   25   11   35 1     
   26   12   13 1     
   27   13   14 1     
   28   14   15 1     
   29   14   36 1     
   30   14   37 1     
   31   15   16 1     
   32   15   17 1     
   33   15   38 1     
   34   16   39 1     
   35   17   23 ar    
   36   17   18 ar    
   37   18   19 ar    
   38   18   40 1     
   39   19   20 1     
   40   19   21 ar    
   41   21   22 ar    
   42   21   41 1     
   43   22   23 ar    
   44   22   42 1     
   45   23   24 1     
   46    1   44 1     
   47    1   45 1     
   48   16   46 1     
   49   16   47 1     
@<TRIPOS>SUBSTRUCTURE
      1 S1             1
@<TRIPOS>SET
LONE_PAIRS      STATIC     ATOMS    <user>   **** ""
4 44 45 46 47
DONOR_HYDROGENS      STATIC     ATOMS    <user>   **** ""
3 25 43 39
ATOM$BLUE        STATIC     ATOMS    COLORGROUP SYSTEM
4 44 45 46 47
ATOM$RED        STATIC     ATOMS    COLORGROUP SYSTEM
3 25 43 39
