AV-unprocessed.smi:2367|AV-procd|sdf|9424|dock10
  -GOLD-   2272013 63D 1   1.00000     0.00000
 Structure written by MMmdl.
 34 35  0  0  0  0  0  0  0  0  1 V2000
  152.2677  143.7536  161.3714 C   0  0  0  0  0  0  0  0  0  0  0  0
  152.8044  143.6787  160.0569 O   0  0  0  0  0  0  0  0  0  0  0  0
  151.8663  143.8139  158.9888 C   0  0  0  0  0  0  0  0  0  0  0  0
  150.8429  142.6688  158.9769 C   0  0  0  0  0  0  0  0  0  0  0  0
  150.0294  142.7092  157.7656 N   0  0  0  0  0  0  0  0  0  0  0  0
  149.6014  141.6414  157.0781 C   0  0  0  0  0  0  0  0  0  0  0  0
  149.8671  140.4779  157.3806 O   0  0  0  0  0  0  0  0  0  0  0  0
  148.8305  142.0049  156.0401 N   0  0  0  0  0  0  0  0  0  0  0  0
  148.1926  141.1381  155.1164 C   0  0  0  0  0  0  0  0  0  0  0  0
  148.7439  139.8572  154.9073 C   0  0  0  0  0  0  0  0  0  0  0  0
  148.1038  138.9850  154.0043 C   0  0  0  0  0  0  0  0  0  0  0  0
  146.9752  139.3055  153.3365 N   0  0  0  0  0  0  0  0  0  0  0  0
  146.4351  140.5230  153.5590 C   0  0  0  0  0  0  0  0  0  0  0  0
  146.9931  141.4707  154.4407 C   0  0  0  0  0  0  0  0  0  0  0  0
  146.3645  142.6535  154.6442 F   0  0  0  0  0  0  0  0  0  0  0  0
  151.3279  145.2573  159.0086 C   0  0  0  0  0  0  0  0  0  0  0  0
  151.5452  145.3189  157.4955 C   0  0  0  0  0  0  0  0  0  0  0  0
  152.5681  144.1951  157.6694 C   0  0  0  0  0  0  0  0  0  0  0  0
  153.0557  143.5341  162.0914 H   0  0  0  0  0  0  0  0  0  0  0  0
  151.4673  143.0304  161.5283 H   0  0  0  0  0  0  0  0  0  0  0  0
  151.8889  144.7491  161.5998 H   0  0  0  0  0  0  0  0  0  0  0  0
  151.3561  141.7069  158.9897 H   0  0  0  0  0  0  0  0  0  0  0  0
  150.2324  142.6784  159.8804 H   0  0  0  0  0  0  0  0  0  0  0  0
  149.7503  143.6236  157.4419 H   0  0  0  0  0  0  0  0  0  0  0  0
  148.5817  142.9810  155.9784 H   0  0  0  0  0  0  0  0  0  0  0  0
  149.6454  139.5497  155.4171 H   0  0  0  0  0  0  0  0  0  0  0  0
  148.5090  138.0019  153.8149 H   0  0  0  0  0  0  0  0  0  0  0  0
  145.5216  140.7446  153.0272 H   0  0  0  0  0  0  0  0  0  0  0  0
  150.2871  145.3583  159.3175 H   0  0  0  0  0  0  0  0  0  0  0  0
  151.9734  145.9507  159.5508 H   0  0  0  0  0  0  0  0  0  0  0  0
  150.6668  145.0102  156.9268 H   0  0  0  0  0  0  0  0  0  0  0  0
  151.9569  146.2600  157.1300 H   0  0  0  0  0  0  0  0  0  0  0  0
  153.5808  144.5767  157.8110 H   0  0  0  0  0  0  0  0  0  0  0  0
  152.5339  143.4285  156.8947 H   0  0  0  0  0  0  0  0  0  0  0  0
  1  2  1  0  0  0  0
  1 19  1  0  0  0  0
  1 20  1  0  0  0  0
  1 21  1  0  0  0  0
  2  3  1  0  0  0  0
  3 18  1  0  0  0  0
  3  4  1  0  0  0  0
  3 16  1  0  0  0  0
  4  5  1  0  0  0  0
  4 22  1  0  0  0  0
  4 23  1  0  0  0  0
  5  6  1  0  0  0  0
  5 24  1  0  0  0  0
  6  7  2  0  0  0  0
  6  8  1  0  0  0  0
  8  9  1  0  0  0  0
  8 25  1  0  0  0  0
  9 14  1  0  0  0  0
  9 10  2  0  0  0  0
 10 11  1  0  0  0  0
 10 26  1  0  0  0  0
 11 12  2  0  0  0  0
 11 27  1  0  0  0  0
 12 13  1  0  0  0  0
 13 14  2  0  0  0  0
 13 28  1  0  0  0  0
 14 15  1  0  0  0  0
 16 17  1  0  0  0  0
 16 29  1  0  0  0  0
 16 30  1  0  0  0  0
 17 18  1  0  0  0  0
 17 31  1  0  0  0  0
 17 32  1  0  0  0  0
 18 33  1  0  0  0  0
 18 34  1  0  0  0  0
M  END
> <s_m_source_file>
AV-unprocessed.smi

> <i_m_source_file_index>
2367

> <i_lp_mmshare_version>
43012

> <i_f3d_flags>
0

> <s_epik_input>
W0NIMl0xW0NIMl1bQ0gyXUMxKE9bQ0gzXSlbQ0gyXVtOSF1DKD1PKVtOSF1jMltjSF1bY0hdbltjSF1jMkY=

> <s_epik_cmdline>
J2VwaWtfcHl0aG9uJywgJy1waCcsICc3LjAnLCAnLXRuJywgJzgnLCAnLW1hJywgJzIwMCcsICctbWV0YWxfYmluZGluZycsICctaW1hZScsICc8aW5maWxlLm1hZT4nLCAnLW9tYWUnLCAnPG91dGZpbGUubWFlPic=

> <r_epik_Ionization_Penalty>
0.00342397

> <r_epik_Ionization_Penalty_Charging>
0

> <r_epik_Ionization_Penalty_Neutral>
0.00342397

> <r_epik_State_Penalty>
0.00239946

> <r_epik_Charging_Adjusted_Penalty>
0.00239946

> <i_epik_Tot_Q>
0

> <i_epik_Tot_abs_Q>
0

> <r_epik_Metal_State_Penalty>
-0

> <b_epik_Metal_Only>
0

> <s_lp_Force_Field>
OPLS_2005

> <r_lp_Energy>
23.3759

> <b_lp_Chiralities_Consistent>
1

> <s_lp_Variant>
AV-unprocessed.smi:2367-1

> <Gold.Version>
5.8.1

> <Gold.Id.Protein>
6NUR|6NUR_protein|mol2

> <Gold.PLP.Fitness>
44.3854

> <Gold.PLP.PLP>
-34.0202

> <Gold.PLP.part.hbond>
-2.0000

> <Gold.PLP.part.metal>
0.0000

> <Gold.PLP.part.buried>
-5.2229

> <Gold.PLP.part.nonpolar>
-29.0151

> <Gold.PLP.part.repulsive>
1.6237

> <Gold.PLP.ligand.clash>
0.0000

> <Gold.PLP.ligand.torsion>
0.5401

> <Gold.PLP.Chemscore.Hbond>
1.6786

> <Gold.PLP.Chemscore.CHOScore>
1.9940

> <Gold.PLP.Chemscore.Metal>
0.0000

> <Gold.Chemscore.Hbonds>
donor molecule, donor type, donor heavy atom, donor atom, acceptor molecule, acceptor atom, score
      L1  H     5    24       P1  8028  0.40
      L1  H     8    25       P1  8028  1.00
      L1  C    11    27       P1  7948  0.68
      L1  C    13    28       P1 10175  0.75

> <Gold.PLP.Chemscore.Internal.Correction>
0.4274

> <Gold.Rescore>
     Score         DG    S(hbond)    S(metal)    S(lipo)     H(rot)  DE(clash)    DE(int)     intcor
     14.70     -19.65       1.77        0.00     103.66       1.51       1.98       2.98       ----

> <Gold.Chemscore.Fitness>
14.7022

> <Gold.Chemscore.DG>
-19.6535

> <Gold.Chemscore.ZeroCoef>
-5.4800

> <Gold.Chemscore.Hbond>
1.7669

> <Gold.Chemscore.Metal>
0.0000

> <Gold.Chemscore.Lipo>
103.6601

> <Gold.Chemscore.Internal_Hbond>
0.0000

> <Gold.Chemscore.DEClash>
1.9761

> <Gold.Chemscore.DEInternal>
2.9752

> <Gold.Chemscore.Rot>
1.5064

> <Gold.Chemscore.Internal.Correction>
   9.000000E+99

> <Gold.Chemscore.Hbonds>
donor molecule, donor type, donor heavy atom, donor atom, acceptor molecule, acceptor atom, score
      L1  H     5    24       P1  8028  0.31
      L1  H     8    25       P1  8028  0.97

> <Gold.Chemscore.Hbond.Weighted>
-5.9016

> <Gold.Chemscore.Metal.Weighted>
-0.0000

> <Gold.Chemscore.Lipo.Weighted>
-12.1282

> <Gold.Chemscore.Internal_Hbond.Weighted>
0.0000

> <Gold.Chemscore.DEClash.Weighted>
1.9761

> <Gold.Chemscore.DEInternal.Weighted>
2.9752

> <Gold.Chemscore.Rot.Weighted>
3.8563

> <Gold.Chemscore.Internal.Correction.Weighted>
   9.000000E+99

> <Gold.Protein.RotatedTorsions>
[ 6907 6896 6895 6894 ] final  120.16 input  -60.11 | X-H torsion
[ 7974 7965 7964 7962 ] final -118.07 input  175.53 | X-H torsion
[ 8008 7997 7996 7995 ] final    0.20 input   59.86 | X-H torsion
[ 10167 10162 10161 10158 ] final -118.20 input  -65.29 | X-H torsion
[ 10718 10713 10712 10709 ] final  -65.07 input   66.30 | X-H torsion
[ 10763 10752 10751 10750 ] final -125.09 input  -60.55 | X-H torsion
[ 11005 11000 10999 10996 ] final -126.48 input  -57.11 | X-H torsion

> <Gold.Protein.ActiveResidues>
 VAL166  LYS551  ARG553  GLY616  TRP617  ASP618  TYR619  PRO620  LYS621  CYS622 
 ASP623  PHE694  ASN695  SER759  ASP760  ASP761  ALA762  ILE779  LEU786  VAL792 
 PHE793  MET794  SER795  GLU796  ALA797  LYS798  CYS799  TRP800  GLU811  SER814 

> <Gold.Protein.RotatedAtoms>
  152.4419  133.7463  159.6668 H   0  0  0  0  0  0  0  0  0  0  0  0  # atno 6907 bound_to 6896
  150.8311  133.8079  159.3104 H   0  0  0  0  0  0  0  0  0  0  0  0  # atno 6908 bound_to 6896
  151.5733  135.1064  160.0052 H   0  0  0  0  0  0  0  0  0  0  0  0  # atno 6909 bound_to 6896
  145.0780  140.8406  143.4056 H   0  0  0  0  0  0  0  0  0  0  0  0  # atno 7974 bound_to 7965
  154.6653  140.2600  155.7064 H   0  0  0  0  0  0  0  0  0  0  0  0  # atno 8008 bound_to 7997
  156.2636  140.2840  156.1063 H   0  0  0  0  0  0  0  0  0  0  0  0  # atno 8009 bound_to 7997
  155.1247  140.0377  157.2749 H   0  0  0  0  0  0  0  0  0  0  0  0  # atno 8010 bound_to 7997
  140.0601  143.4976  152.2036 H   0  0  0  0  0  0  0  0  0  0  0  0  # atno 10167 bound_to 10162
  156.0691  130.4242  150.1512 H   0  0  0  0  0  0  0  0  0  0  0  0  # atno 10718 bound_to 10713
  154.8731  135.4041  154.3211 H   0  0  0  0  0  0  0  0  0  0  0  0  # atno 10763 bound_to 10752
  153.4039  135.7019  153.6412 H   0  0  0  0  0  0  0  0  0  0  0  0  # atno 10764 bound_to 10752
  153.5143  135.3701  155.2572 H   0  0  0  0  0  0  0  0  0  0  0  0  # atno 10765 bound_to 10752
  140.9678  134.0848  157.3902 H   0  0  0  0  0  0  0  0  0  0  0  0  # atno 11005 bound_to 11000
  145.1213  139.2692  143.5587 LP  0  0  0  0  0  0  0  0  0  0  0  0  # atno 17320 bound_to 7965
  146.3530  140.0837  142.8616 LP  0  0  0  0  0  0  0  0  0  0  0  0  # atno 17321 bound_to 7965
  139.5899  144.7546  151.3427 LP  0  0  0  0  0  0  0  0  0  0  0  0  # atno 17342 bound_to 10162
  140.7176  143.7224  150.7685 LP  0  0  0  0  0  0  0  0  0  0  0  0  # atno 17343 bound_to 10162
  156.9566  130.9791  151.3487 LP  0  0  0  0  0  0  0  0  0  0  0  0  # atno 17370 bound_to 10713
  157.5751  130.8337  149.8444 LP  0  0  0  0  0  0  0  0  0  0  0  0  # atno 17371 bound_to 10713
  139.8901  135.0109  156.6716 LP  0  0  0  0  0  0  0  0  0  0  0  0  # atno 17394 bound_to 11000
  140.7374  133.9007  155.8253 LP  0  0  0  0  0  0  0  0  0  0  0  0  # atno 17395 bound_to 11000

$$$$
