AV-unprocessed.smi:986|AV-procd|sdf|4320|dock1
  -GOLD-   22720 2223D 1   1.00000     0.00000
 Structure written by MMmdl.
 31 31  0  0  0  0  0  0  0  0  1 V2000
  152.2786  144.9167  158.5246 C   0  0  0  0  0  0  0  0  0  0  0  0
  151.8883  143.8249  159.5336 C   0  0  0  0  0  0  0  0  0  0  0  0
  152.5442  144.0612  160.9004 C   0  0  0  0  0  0  0  0  0  0  0  0
  152.2750  142.5086  159.0386 N   0  0  0  0  0  0  0  0  0  0  0  0
  151.7756  141.8935  157.9516 C   0  0  0  0  0  0  0  0  0  0  0  0
  150.9066  142.3972  157.2408 O   0  0  0  0  0  0  0  0  0  0  0  0
  152.3178  140.4992  157.5935 C   0  0  0  0  0  0  0  0  0  0  0  0
  151.5416  139.7971  156.5718 N   0  0  0  0  0  0  0  0  0  0  0  0
  151.9505  139.5532  155.3160 C   0  0  0  0  0  0  0  0  0  0  0  0
  153.0139  139.9663  154.8555 O   0  0  0  0  0  0  0  0  0  0  0  0
  151.0308  138.6831  154.4599 C   0  0  0  0  0  0  0  0  0  0  0  0
  149.7424  139.3279  154.2769 N   0  0  0  0  0  0  0  0  0  0  0  0
  148.5604  138.8213  153.9200 C   0  0  0  0  0  0  0  0  0  0  0  0
  147.5948  139.7251  153.8309 N   0  0  0  0  0  0  0  0  0  0  0  0
  148.2987  140.8452  154.1726 C   0  0  0  0  0  0  0  0  0  0  0  0
  149.5906  140.6627  154.4460 N   0  0  0  0  0  0  0  0  0  0  0  0
  151.9945  145.9044  158.8882 H   0  0  0  0  0  0  0  0  0  0  0  0
  151.7824  144.7673  157.5652 H   0  0  0  0  0  0  0  0  0  0  0  0
  153.3543  144.9248  158.3454 H   0  0  0  0  0  0  0  0  0  0  0  0
  150.8058  143.8459  159.6722 H   0  0  0  0  0  0  0  0  0  0  0  0
  152.2463  145.0236  161.3171 H   0  0  0  0  0  0  0  0  0  0  0  0
  153.6321  144.0547  160.8242 H   0  0  0  0  0  0  0  0  0  0  0  0
  152.2560  143.2896  161.6151 H   0  0  0  0  0  0  0  0  0  0  0  0
  152.9917  142.0247  159.5598 H   0  0  0  0  0  0  0  0  0  0  0  0
  153.3377  140.6115  157.2248 H   0  0  0  0  0  0  0  0  0  0  0  0
  152.3828  139.8975  158.5015 H   0  0  0  0  0  0  0  0  0  0  0  0
  150.6489  139.4242  156.8601 H   0  0  0  0  0  0  0  0  0  0  0  0
  151.4816  138.5067  153.4824 H   0  0  0  0  0  0  0  0  0  0  0  0
  150.8852  137.7095  154.9306 H   0  0  0  0  0  0  0  0  0  0  0  0
  148.4051  137.7724  153.7136 H   0  0  0  0  0  0  0  0  0  0  0  0
  147.8463  141.8249  154.2178 H   0  0  0  0  0  0  0  0  0  0  0  0
  1  2  1  0  0  0  0
  1 17  1  0  0  0  0
  1 18  1  0  0  0  0
  1 19  1  0  0  0  0
  2  3  1  0  0  0  0
  2  4  1  0  0  0  0
  2 20  1  0  0  0  0
  3 21  1  0  0  0  0
  3 22  1  0  0  0  0
  3 23  1  0  0  0  0
  4  5  1  0  0  0  0
  4 24  1  0  0  0  0
  5  6  2  0  0  0  0
  5  7  1  0  0  0  0
  7  8  1  0  0  0  0
  7 25  1  0  0  0  0
  7 26  1  0  0  0  0
  8  9  1  0  0  0  0
  8 27  1  0  0  0  0
  9 10  2  0  0  0  0
  9 11  1  0  0  0  0
 11 12  1  0  0  0  0
 11 28  1  0  0  0  0
 11 29  1  0  0  0  0
 12 16  1  0  0  0  0
 12 13  1  0  0  0  0
 13 14  2  0  0  0  0
 13 30  1  0  0  0  0
 14 15  1  0  0  0  0
 15 16  2  0  0  0  0
 15 31  1  0  0  0  0
M  END
> <s_m_source_file>
AV-unprocessed.smi

> <i_m_source_file_index>
986

> <i_lp_mmshare_version>
43012

> <i_f3d_flags>
0

> <s_epik_input>
W0NIM11bQ0hdKFtDSDNdKVtOSF1DKD1PKVtDSDJdW05IXUMoPU8pW0NIMl1uMVtjSF1uW2NIXW4x

> <s_epik_cmdline>
J2VwaWtfcHl0aG9uJywgJy1waCcsICc3LjAnLCAnLXRuJywgJzgnLCAnLW1hJywgJzIwMCcsICctbWV0YWxfYmluZGluZycsICctaW1hZScsICc8aW5maWxlLm1hZT4nLCAnLW9tYWUnLCAnPG91dGZpbGUubWFlPic=

> <r_lp_tautomer_probability>
1

> <r_epik_Ionization_Penalty>
7.25916e-06

> <r_epik_Ionization_Penalty_Charging>
0

> <r_epik_Ionization_Penalty_Neutral>
7.25916e-06

> <r_epik_State_Penalty>
-0

> <r_epik_Charging_Adjusted_Penalty>
0

> <i_epik_Tot_Q>
0

> <i_epik_Tot_abs_Q>
0

> <r_epik_Metal_State_Penalty>
-0

> <b_epik_Metal_Only>
0

> <s_lp_Force_Field>
OPLS_2005

> <r_lp_Energy>
0.116245

> <b_lp_Chiralities_Consistent>
1

> <s_lp_Variant>
AV-unprocessed.smi:986-1

> <Gold.Version>
5.8.1

> <Gold.Id.Protein>
6NUR|6NUR_protein|mol2

> <Gold.PLP.Fitness>
38.9597

> <Gold.PLP.PLP>
-32.1920

> <Gold.PLP.part.hbond>
-2.0227

> <Gold.PLP.part.metal>
0.0000

> <Gold.PLP.part.buried>
-3.0393

> <Gold.PLP.part.nonpolar>
-27.6311

> <Gold.PLP.part.repulsive>
1.5006

> <Gold.PLP.ligand.clash>
0.0000

> <Gold.PLP.ligand.torsion>
0.4994

> <Gold.PLP.Chemscore.Hbond>
1.5710

> <Gold.PLP.Chemscore.CHOScore>
0.9922

> <Gold.PLP.Chemscore.Metal>
0.0000

> <Gold.Chemscore.Hbonds>
donor molecule, donor type, donor heavy atom, donor atom, acceptor molecule, acceptor atom, score
      P1  H  7989  7998       L1    16  0.12
      P1  H  7997  8009       L1    10  1.00
      L1  C    13    30       P1  7948  1.00

> <Gold.PLP.Chemscore.Internal.Correction>
0.0769

> <Gold.Rescore>
     Score         DG    S(hbond)    S(metal)    S(lipo)     H(rot)  DE(clash)    DE(int)     intcor
      5.55      -7.32       1.00        0.00      53.51       3.03       0.01       1.75       ----

> <Gold.Chemscore.Fitness>
5.5534

> <Gold.Chemscore.DG>
-7.3163

> <Gold.Chemscore.ZeroCoef>
-5.4800

> <Gold.Chemscore.Hbond>
1.0000

> <Gold.Chemscore.Metal>
0.0000

> <Gold.Chemscore.Lipo>
53.5080

> <Gold.Chemscore.Internal_Hbond>
0.0000

> <Gold.Chemscore.DEClash>
0.0149

> <Gold.Chemscore.DEInternal>
1.7480

> <Gold.Chemscore.Rot>
3.0329

> <Gold.Chemscore.Internal.Correction>
   9.000000E+99

> <Gold.Chemscore.Hbonds>
donor molecule, donor type, donor heavy atom, donor atom, acceptor molecule, acceptor atom, score
      P1  H  7997  8009       L1    10  1.00

> <Gold.Chemscore.Hbond.Weighted>
-3.3402

> <Gold.Chemscore.Metal.Weighted>
-0.0000

> <Gold.Chemscore.Lipo.Weighted>
-6.2604

> <Gold.Chemscore.Internal_Hbond.Weighted>
0.0000

> <Gold.Chemscore.DEClash.Weighted>
0.0149

> <Gold.Chemscore.DEInternal.Weighted>
1.7480

> <Gold.Chemscore.Rot.Weighted>
7.7643

> <Gold.Chemscore.Internal.Correction.Weighted>
   9.000000E+99

> <Gold.Protein.RotatedTorsions>
[ 6907 6896 6895 6894 ] final   71.14 input  -60.11 | X-H torsion
[ 7974 7965 7964 7962 ] final   71.14 input  175.53 | X-H torsion
[ 8008 7997 7996 7995 ] final -122.60 input   59.86 | X-H torsion
[ 10167 10162 10161 10158 ] final  141.09 input  -65.29 | X-H torsion
[ 10718 10713 10712 10709 ] final  -68.12 input   66.30 | X-H torsion
[ 10763 10752 10751 10750 ] final  156.04 input  -60.55 | X-H torsion
[ 11005 11000 10999 10996 ] final -118.99 input  -57.11 | X-H torsion

> <Gold.Protein.ActiveResidues>
 VAL166  LYS551  ARG553  GLY616  TRP617  ASP618  TYR619  PRO620  LYS621  CYS622 
 ASP623  PHE694  ASN695  SER759  ASP760  ASP761  ALA762  ILE779  LEU786  VAL792 
 PHE793  MET794  SER795  GLU796  ALA797  LYS798  CYS799  TRP800  GLU811  SER814 

> <Gold.Protein.RotatedAtoms>
  152.4792  134.4764  159.9651 H   0  0  0  0  0  0  0  0  0  0  0  0  # atno 6907 bound_to 6896
  151.4773  133.3548  159.2840 H   0  0  0  0  0  0  0  0  0  0  0  0  # atno 6908 bound_to 6896
  150.8852  134.8275  159.7315 H   0  0  0  0  0  0  0  0  0  0  0  0  # atno 6909 bound_to 6896
  145.7695  139.2836  143.1329 H   0  0  0  0  0  0  0  0  0  0  0  0  # atno 7974 bound_to 7965
  155.1669  140.0407  157.2854 H   0  0  0  0  0  0  0  0  0  0  0  0  # atno 8008 bound_to 7997
  154.6297  140.2521  155.7422 H   0  0  0  0  0  0  0  0  0  0  0  0  # atno 8009 bound_to 7997
  156.2478  140.2878  156.0643 H   0  0  0  0  0  0  0  0  0  0  0  0  # atno 8010 bound_to 7997
  139.5030  144.6193  151.6089 H   0  0  0  0  0  0  0  0  0  0  0  0  # atno 10167 bound_to 10162
  156.0521  130.4289  150.1955 H   0  0  0  0  0  0  0  0  0  0  0  0  # atno 10718 bound_to 10713
  154.1780  135.2801  155.3061 H   0  0  0  0  0  0  0  0  0  0  0  0  # atno 10763 bound_to 10752
  154.6024  135.5525  153.7392 H   0  0  0  0  0  0  0  0  0  0  0  0  # atno 10764 bound_to 10752
  153.0146  135.6395  154.1919 H   0  0  0  0  0  0  0  0  0  0  0  0  # atno 10765 bound_to 10752
  141.0247  134.0072  157.3232 H   0  0  0  0  0  0  0  0  0  0  0  0  # atno 11005 bound_to 11000
  146.0184  140.8371  142.9935 LP  0  0  0  0  0  0  0  0  0  0  0  0  # atno 17320 bound_to 7965
  144.6815  140.2593  143.7321 LP  0  0  0  0  0  0  0  0  0  0  0  0  # atno 17321 bound_to 7965
  140.5890  143.9812  150.6313 LP  0  0  0  0  0  0  0  0  0  0  0  0  # atno 17342 bound_to 10162
  140.2987  143.3275  152.0993 LP  0  0  0  0  0  0  0  0  0  0  0  0  # atno 17343 bound_to 10162
  157.0036  130.9930  151.3384 LP  0  0  0  0  0  0  0  0  0  0  0  0  # atno 17370 bound_to 10713
  157.5458  130.8149  149.8084 LP  0  0  0  0  0  0  0  0  0  0  0  0  # atno 17371 bound_to 10713
  139.9168  135.0197  156.7912 LP  0  0  0  0  0  0  0  0  0  0  0  0  # atno 17394 bound_to 11000
  140.6512  133.9729  155.7756 LP  0  0  0  0  0  0  0  0  0  0  0  0  # atno 17395 bound_to 11000

$$$$
