#       Name:                AV-unprocessed.smi:1705
#       Creating user name   scv26
#       Creation time:       Fri Mar 27 08:09:11 2020


#       File generated by GOLD software.
#

@<TRIPOS>MOLECULE
AV-unprocessed.smi:1705
    45    46     1
SMALL
NO_CHARGES


@<TRIPOS>ATOM
      1 ****        -2.5784  -0.4326   0.3762 C.3            1 S1                 0.0000
      2 ****        -1.4115  -1.0159   1.1881 C.3            1 S1                 0.0000
      3 ****        -0.3045  -0.0713   1.2060 N.pl3          1 S1                 0.0000
      4 ****         1.0154  -0.3323   0.8511 C.2            1 S1                 0.0000
      5 ****         1.9793   0.6297   0.9065 C.2            1 S1                 0.0000
      6 ****         1.7436   1.9616   1.3677 C.1            1 S1                 0.0000
      7 ****         1.5840   3.0475   1.7373 N.1            1 S1                 0.0000
      8 ****         3.3639   0.3617   0.5233 C.2            1 S1                 0.0000
      9 ****         4.2615   1.2071   0.5549 O.2            1 S1                 0.0000
     10 ****         3.6155  -0.9582   0.0982 N.am           1 S1                 0.0000
     11 ****         4.9761  -1.2555  -0.3044 C.3            1 S1                 0.0000
     12 ****         2.6370  -1.9714   0.0278 C.2            1 S1                 0.0000
     13 ****         2.9065  -3.1076  -0.3735 O.2            1 S1                 0.0000
     14 ****         1.3228  -1.6306   0.4328 N.am           1 S1                 0.0000
     15 ****         0.3619  -2.7108   0.3299 C.3            1 S1                 0.0000
     16 ****        -1.8187  -1.3556   2.6337 C.3            1 S1                 0.0000
     17 ****        -2.9370  -2.3891   2.7613 C.3            1 S1                 0.0000
     18 ****        -2.7268  -2.9590   4.1538 C.3            1 S1                 0.0000
     19 ****        -1.2694  -2.6171   4.4771 C.3            1 S1                 0.0000
     20 ****        -0.7506  -2.0120   3.3004 O.3            1 S1                 0.0000
     21 ****        -3.3910  -1.1518   0.2745 H              1 S1                 0.0000
     22 ****        -2.2629  -0.1564  -0.6296 H              1 S1                 0.0000
     23 ****        -2.9817   0.4621   0.8516 H              1 S1                 0.0000
     24 ****        -1.0849  -1.9397   0.7115 H              1 S1                 0.0000
     25 ****        -0.3997   0.6015   1.9532 H              1 S1                 0.0000
     26 ****         5.1077  -2.3144  -0.5226 H              1 S1                 0.0000
     27 ****         5.6317  -0.9780   0.5231 H              1 S1                 0.0000
     28 ****         5.1838  -0.6588  -1.1942 H              1 S1                 0.0000
     29 ****         0.2439  -2.9374  -0.7311 H              1 S1                 0.0000
     30 ****        -0.5938  -2.4188   0.7585 H              1 S1                 0.0000
     31 ****         0.7539  -3.5635   0.8875 H              1 S1                 0.0000
     32 ****        -2.0816  -0.4506   3.1851 H              1 S1                 0.0000
     33 ****        -3.9300  -1.9596   2.6264 H              1 S1                 0.0000
     34 ****        -2.8055  -3.1779   2.0193 H              1 S1                 0.0000
     35 ****        -3.3946  -2.4852   4.8742 H              1 S1                 0.0000
     36 ****        -2.9136  -4.0331   4.1776 H              1 S1                 0.0000
     37 ****        -1.2151  -1.9072   5.3034 H              1 S1                 0.0000
     38 ****        -0.6850  -3.4971   4.7457 H              1 S1                 0.0000
     39 ****         1.4462   3.9852   2.0564 LP             1 S1                 0.0000
     40 ****         4.0601   2.1392   0.8560 LP             1 S1                 0.0000
     41 ****         5.1906   0.9605   0.2794 LP             1 S1                 0.0000
     42 ****         3.8389  -3.3289  -0.6592 LP             1 S1                 0.0000
     43 ****         2.1923  -3.8064  -0.4128 LP             1 S1                 0.0000
     44 ****        -0.0440  -1.3477   3.5442 LP             1 S1                 0.0000
     45 ****        -0.3581  -2.7122   2.7040 LP             1 S1                 0.0000
@<TRIPOS>BOND
    1    1    2 1     
    2    1   21 1     
    3    1   22 1     
    4    1   23 1     
    5    2    3 1     
    6    2   16 1     
    7    2   24 1     
    8    3    4 1     
    9    3   25 1     
   10    4   14 1     
   11    4    5 2     
   12    5    6 1     
   13    5    8 1     
   14    6    7 3     
   15    8    9 2     
   16    8   10 am    
   17   10   11 1     
   18   10   12 am    
   19   11   26 1     
   20   11   27 1     
   21   11   28 1     
   22   12   13 2     
   23   12   14 am    
   24   14   15 1     
   25   15   29 1     
   26   15   30 1     
   27   15   31 1     
   28   16   20 1     
   29   16   17 1     
   30   16   32 1     
   31   17   18 1     
   32   17   33 1     
   33   17   34 1     
   34   18   19 1     
   35   18   35 1     
   36   18   36 1     
   37   19   20 1     
   38   19   37 1     
   39   19   38 1     
   40    7   39 1     
   41    9   40 1     
   42    9   41 1     
   43   13   42 1     
   44   13   43 1     
   45   20   44 1     
   46   20   45 1     
@<TRIPOS>SUBSTRUCTURE
      1 S1             1
@<TRIPOS>SET
LONE_PAIRS      STATIC     ATOMS    <user>   **** ""
7 39 40 41 42 43 44 45
DONOR_HYDROGENS      STATIC     ATOMS    <user>   **** ""
1 25
ATOM$BLUE        STATIC     ATOMS    COLORGROUP SYSTEM
7 39 40 41 42 43 44 45
ATOM$RED        STATIC     ATOMS    COLORGROUP SYSTEM
1 25
