AV-unprocessed.smi:3316|AV-procd|sdf|12754|dock1
  -GOLD-   2272019 93D 1   1.00000     0.00000
 Structure written by MMmdl.
 41 43  0  0  0  0  0  0  0  0  2 V2000
  148.0840  140.2729  154.0320 C   0  0  0  0  0  0  0  0  0  0  0  0
  149.3118  140.6896  154.8571 C   0  0  1  0  0  0  0  0  0  0  0  0
  148.9017  141.3112  156.2062 C   0  0  0  0  0  0  0  0  0  0  0  0
  149.8626  142.3460  156.6396 N   0  3  0  0  0  0  0  0  0  0  0  0
  149.8642  142.5992  158.0930 C   0  0  0  0  0  0  0  0  0  0  0  0
  150.5579  143.9350  158.4192 C   0  0  2  0  0  0  0  0  0  0  0  0
  151.8151  144.2411  157.5460 C   0  0  0  0  0  0  0  0  0  0  0  0
  152.9083  144.5294  158.6004 C   0  0  2  0  0  0  0  0  0  0  0  0
  153.2111  143.2288  159.3122 C   0  0  0  0  0  0  0  0  0  0  0  0
  152.1504  142.9329  160.0650 C   0  0  0  0  0  0  0  0  0  0  0  0
  151.1283  144.0335  159.8589 C   0  0  1  0  0  0  0  0  0  0  0  0
  152.0684  145.2308  159.6735 C   0  0  0  0  0  0  0  0  0  0  0  0
  150.2792  139.5256  155.0389 C   0  0  0  0  0  0  0  0  0  0  0  0
  150.0331  138.2846  154.4141 C   0  0  0  0  0  0  0  0  0  0  0  0
  150.9619  137.2405  154.5980 C   0  0  0  0  0  0  0  0  0  0  0  0
  152.0821  137.3671  155.3406 N   0  0  0  0  0  0  0  0  0  0  0  0
  152.3130  138.5552  155.9380 C   0  0  0  0  0  0  0  0  0  0  0  0
  151.4487  139.6617  155.8186 C   0  0  0  0  0  0  0  0  0  0  0  0
  148.3816  139.8794  153.0596 H   0  0  0  0  0  0  0  0  0  0  0  0
  147.4241  141.1224  153.8538 H   0  0  0  0  0  0  0  0  0  0  0  0
  147.5006  139.5030  154.5376 H   0  0  0  0  0  0  0  0  0  0  0  0
  149.8283  141.4617  154.2847 H   0  0  0  0  0  0  0  0  0  0  0  0
  147.9135  141.7656  156.1236 H   0  0  0  0  0  0  0  0  0  0  0  0
  148.8320  140.5386  156.9733 H   0  0  0  0  0  0  0  0  0  0  0  0
  150.7899  142.0492  156.3701 H   0  0  0  0  0  0  0  0  0  0  0  0
  148.8326  142.6224  158.4465 H   0  0  0  0  0  0  0  0  0  0  0  0
  150.3605  141.7715  158.6011 H   0  0  0  0  0  0  0  0  0  0  0  0
  149.8323  144.7400  158.2889 H   0  0  0  0  0  0  0  0  0  0  0  0
  152.0952  143.4103  156.8962 H   0  0  0  0  0  0  0  0  0  0  0  0
  151.6415  145.1121  156.9129 H   0  0  0  0  0  0  0  0  0  0  0  0
  153.7846  145.0775  158.2534 H   0  0  0  0  0  0  0  0  0  0  0  0
  154.1156  142.6523  159.1863 H   0  0  0  0  0  0  0  0  0  0  0  0
  152.0021  142.0615  160.6857 H   0  0  0  0  0  0  0  0  0  0  0  0
  150.3977  144.1380  160.6616 H   0  0  0  0  0  0  0  0  0  0  0  0
  152.6392  145.4679  160.5737 H   0  0  0  0  0  0  0  0  0  0  0  0
  151.5711  146.1376  159.3235 H   0  0  0  0  0  0  0  0  0  0  0  0
  149.1538  138.1280  153.8064 H   0  0  0  0  0  0  0  0  0  0  0  0
  150.8017  136.2788  154.1335 H   0  0  0  0  0  0  0  0  0  0  0  0
  153.2152  138.6279  156.5272 H   0  0  0  0  0  0  0  0  0  0  0  0
  151.6842  140.5904  156.3172 H   0  0  0  0  0  0  0  0  0  0  0  0
  149.6484  143.2088  156.1602 H   0  0  0  0  0  0  0  0  0  0  0  0
  1  2  1  0  0  0  0
  1 19  1  0  0  0  0
  1 20  1  0  0  0  0
  1 21  1  0  0  0  0
  2  3  1  0  0  0  0
  2 13  1  0  0  0  0
  2 22  1  0  0  0  0
  3  4  1  0  0  0  0
  3 23  1  0  0  0  0
  3 24  1  0  0  0  0
  4  5  1  0  0  0  0
  4 25  1  0  0  0  0
  4 41  1  0  0  0  0
  5  6  1  0  0  0  0
  5 26  1  0  0  0  0
  5 27  1  0  0  0  0
  6 11  1  0  0  0  0
  6  7  1  0  0  0  0
  6 28  1  0  0  0  0
  7  8  1  0  0  0  0
  7 29  1  0  0  0  0
  7 30  1  0  0  0  0
  8 12  1  0  0  0  0
  8  9  1  0  0  0  0
  8 31  1  0  0  0  0
  9 10  2  0  0  0  0
  9 32  1  0  0  0  0
 10 11  1  0  0  0  0
 10 33  1  0  0  0  0
 11 12  1  0  0  0  0
 11 34  1  0  0  0  0
 12 35  1  0  0  0  0
 12 36  1  0  0  0  0
 13 18  1  0  0  0  0
 13 14  2  0  0  0  0
 14 15  1  0  0  0  0
 14 37  1  0  0  0  0
 15 16  2  0  0  0  0
 15 38  1  0  0  0  0
 16 17  1  0  0  0  0
 17 18  2  0  0  0  0
 17 39  1  0  0  0  0
 18 40  1  0  0  0  0
M  CHG  1   4   1
M  END
> <s_m_source_file>
AV-unprocessed.smi

> <i_m_source_file_index>
3316

> <i_lp_mmshare_version>
43012

> <i_f3d_flags>
0

> <s_epik_input>
W2NIXTFbY0hdbltjSF1bY0hdYzFbQ0BIXShbQ0gzXSlbQ0gyXVtOSF1bQ0gyXVtDQEhdKFtDSDJdW0NASF0yMylbQ0BIXShbQ0gyXTMpW0NIXT1bQ0hdMg==

> <s_epik_cmdline>
J2VwaWtfcHl0aG9uJywgJy1waCcsICc3LjAnLCAnLXRuJywgJzgnLCAnLW1hJywgJzIwMCcsICctbWV0YWxfYmluZGluZycsICctaW1hZScsICc8aW5maWxlLm1hZT4nLCAnLW9tYWUnLCAnPG91dGZpbGUubWFlPic=

> <r_lp_tautomer_probability>
1

> <r_epik_Ionization_Penalty>
0.00280406

> <r_epik_Ionization_Penalty_Charging>
0.000446589

> <r_epik_Ionization_Penalty_Neutral>
0.00235747

> <r_epik_State_Penalty>
-0

> <r_epik_Charging_Adjusted_Penalty>
0.000446589

> <i_epik_Tot_Q>
1

> <i_epik_Tot_abs_Q>
1

> <r_epik_Metal_State_Penalty>
-0

> <b_epik_Metal_Only>
0

> <s_lp_Force_Field>
OPLS_2005

> <r_lp_Energy>
65.6542

> <b_lp_Chiralities_Consistent>
1

> <s_lp_Variant>
AV-unprocessed.smi:3316-2

> <Gold.Version>
5.8.1

> <Gold.Id.Protein>
6NUR|6NUR_protein|mol2

> <Gold.PLP.Fitness>
56.3068

> <Gold.PLP.PLP>
-48.2483

> <Gold.PLP.part.hbond>
-2.0000

> <Gold.PLP.part.metal>
0.0000

> <Gold.PLP.part.buried>
-2.4182

> <Gold.PLP.part.nonpolar>
-44.3079

> <Gold.PLP.part.repulsive>
0.1020

> <Gold.PLP.ligand.clash>
0.0000

> <Gold.PLP.ligand.torsion>
0.8725

> <Gold.PLP.Chemscore.Hbond>
2.1999

> <Gold.PLP.Chemscore.CHOScore>
1.0000

> <Gold.PLP.Chemscore.Metal>
0.0000

> <Gold.Chemscore.Hbonds>
donor molecule, donor type, donor heavy atom, donor atom, acceptor molecule, acceptor atom, score
      L1  H     4    41       P1  8028  2.00
      P1  H 10752 10763       L1    16  0.60
      L1  C    15    38       P1  7948  0.03
      L1  C    15    38       P1  7949  0.40

> <Gold.PLP.Chemscore.Internal.Correction>
0.2037

> <Gold.Rescore>
     Score         DG    S(hbond)    S(metal)    S(lipo)     H(rot)  DE(clash)    DE(int)     intcor
     22.99     -24.37       1.87        0.00     138.00       1.36       0.04       1.35       ----

> <Gold.Chemscore.Fitness>
22.9864

> <Gold.Chemscore.DG>
-24.3728

> <Gold.Chemscore.ZeroCoef>
-5.4800

> <Gold.Chemscore.Hbond>
1.8678

> <Gold.Chemscore.Metal>
0.0000

> <Gold.Chemscore.Lipo>
138.0011

> <Gold.Chemscore.Internal_Hbond>
0.0000

> <Gold.Chemscore.DEClash>
0.0382

> <Gold.Chemscore.DEInternal>
1.3481

> <Gold.Chemscore.Rot>
1.3640

> <Gold.Chemscore.Internal.Correction>
   9.000000E+99

> <Gold.Chemscore.Hbonds>
donor molecule, donor type, donor heavy atom, donor atom, acceptor molecule, acceptor atom, score
      L1  H     4    41       P1  8028  1.00
      P1  H 10752 10763       L1    16  0.17

> <Gold.Chemscore.Hbond.Weighted>
-6.2386

> <Gold.Chemscore.Metal.Weighted>
-0.0000

> <Gold.Chemscore.Lipo.Weighted>
-16.1461

> <Gold.Chemscore.Internal_Hbond.Weighted>
0.0000

> <Gold.Chemscore.DEClash.Weighted>
0.0382

> <Gold.Chemscore.DEInternal.Weighted>
1.3481

> <Gold.Chemscore.Rot.Weighted>
3.4919

> <Gold.Chemscore.Internal.Correction.Weighted>
   9.000000E+99

> <Gold.Protein.RotatedTorsions>
[ 6907 6896 6895 6894 ] final  159.51 input  -60.11 | X-H torsion
[ 7974 7965 7964 7962 ] final   13.23 input  175.53 | X-H torsion
[ 8008 7997 7996 7995 ] final -155.23 input   59.86 | X-H torsion
[ 10167 10162 10161 10158 ] final  154.11 input  -65.29 | X-H torsion
[ 10718 10713 10712 10709 ] final  124.36 input   66.30 | X-H torsion
[ 10763 10752 10751 10750 ] final   79.61 input  -60.55 | X-H torsion
[ 11005 11000 10999 10996 ] final -145.34 input  -57.11 | X-H torsion

> <Gold.Protein.ActiveResidues>
 VAL166  LYS551  ARG553  GLY616  TRP617  ASP618  TYR619  PRO620  LYS621  CYS622 
 ASP623  PHE694  ASN695  SER759  ASP760  ASP761  ALA762  ILE779  LEU786  VAL792 
 PHE793  MET794  SER795  GLU796  ALA797  LYS798  CYS799  TRP800  GLU811  SER814 

> <Gold.Protein.RotatedAtoms>
  151.9845  133.3769  159.4120 H   0  0  0  0  0  0  0  0  0  0  0  0  # atno 6907 bound_to 6896
  150.6930  134.4003  159.5125 H   0  0  0  0  0  0  0  0  0  0  0  0  # atno 6908 bound_to 6896
  152.1727  134.8820  160.0584 H   0  0  0  0  0  0  0  0  0  0  0  0  # atno 6909 bound_to 6896
  146.2334  139.9220  142.8509 H   0  0  0  0  0  0  0  0  0  0  0  0  # atno 7974 bound_to 7965
  155.6986  140.0764  157.2419 H   0  0  0  0  0  0  0  0  0  0  0  0  # atno 8008 bound_to 7997
  154.4077  140.1651  156.2218 H   0  0  0  0  0  0  0  0  0  0  0  0  # atno 8009 bound_to 7997
  155.9388  140.3386  155.6313 H   0  0  0  0  0  0  0  0  0  0  0  0  # atno 8010 bound_to 7997
  139.4824  144.5215  151.7868 H   0  0  0  0  0  0  0  0  0  0  0  0  # atno 10167 bound_to 10162
  157.5591  131.1090  150.8569 H   0  0  0  0  0  0  0  0  0  0  0  0  # atno 10718 bound_to 10713
  153.0967  135.4833  154.8791 H   0  0  0  0  0  0  0  0  0  0  0  0  # atno 10763 bound_to 10752
  154.7332  135.3065  154.8858 H   0  0  0  0  0  0  0  0  0  0  0  0  # atno 10764 bound_to 10752
  153.9488  135.6826  153.4797 H   0  0  0  0  0  0  0  0  0  0  0  0  # atno 10765 bound_to 10752
  140.7932  134.2944  157.5006 H   0  0  0  0  0  0  0  0  0  0  0  0  # atno 11005 bound_to 11000
  145.2128  140.9902  143.4091 LP  0  0  0  0  0  0  0  0  0  0  0  0  # atno 17320 bound_to 7965
  144.9677  139.3913  143.6324 LP  0  0  0  0  0  0  0  0  0  0  0  0  # atno 17321 bound_to 7965
  140.4730  144.1560  150.5920 LP  0  0  0  0  0  0  0  0  0  0  0  0  # atno 17342 bound_to 10162
  140.4362  143.2546  151.9532 LP  0  0  0  0  0  0  0  0  0  0  0  0  # atno 17343 bound_to 10162
  156.9072  130.5268  149.5281 LP  0  0  0  0  0  0  0  0  0  0  0  0  # atno 17370 bound_to 10713
  156.0646  130.5692  150.9262 LP  0  0  0  0  0  0  0  0  0  0  0  0  # atno 17371 bound_to 10713
  139.8729  134.9387  156.3720 LP  0  0  0  0  0  0  0  0  0  0  0  0  # atno 17394 bound_to 11000
  140.9369  133.7541  156.0096 LP  0  0  0  0  0  0  0  0  0  0  0  0  # atno 17395 bound_to 11000

$$$$
