AV-unprocessed.smi:249|AV-procd|sdf|1911|dock4
  -GOLD-   2262021 03D 1   1.00000     0.00000
 Structure written by MMmdl.
 64 67  0  0  0  0  0  0  0  0  2 V2000
  145.1171  131.7707  151.6773 C   0  0  0  0  0  0  0  0  0  0  0  0
  145.3484  133.1223  152.3703 C   0  0  0  0  0  0  0  0  0  0  0  0
  145.3087  133.0334  153.8600 N   0  3  1  0  0  0  0  0  0  0  0  0
  146.4074  132.2181  154.4521 C   0  0  0  0  0  0  0  0  0  0  0  0
  147.7642  132.9463  154.3904 C   0  0  0  0  0  0  0  0  0  0  0  0
  147.6776  134.3268  155.0693 C   0  0  1  0  0  0  0  0  0  0  0  0
  148.9470  135.0566  155.0047 N   0  0  0  0  0  0  0  0  0  0  0  0
  150.1428  134.4331  154.4416 C   0  0  0  0  0  0  0  0  0  0  0  0
  149.1096  136.1515  155.7921 C   0  0  0  0  0  0  0  0  0  0  0  0
  148.0198  136.6951  156.3964 N   0  0  0  0  0  0  0  0  0  0  0  0
  148.1437  137.7766  157.1710 C   0  0  0  0  0  0  0  0  0  0  0  0
  149.2469  138.4613  157.4768 N   0  0  0  0  0  0  0  0  0  0  0  0
  150.3471  137.9132  156.8874 C   0  0  0  0  0  0  0  0  0  0  0  0
  150.3697  136.7704  156.0380 C   0  0  0  0  0  0  0  0  0  0  0  0
  151.6767  136.5071  155.6406 N   0  0  0  0  0  0  0  0  0  0  0  0
  152.3811  137.4486  156.2063 C   0  0  0  0  0  0  0  0  0  0  0  0
  151.6608  138.3402  156.9673 N   0  0  0  0  0  0  0  0  0  0  0  0
  152.1902  139.4774  157.6989 C   0  0  0  0  0  0  0  0  0  0  0  0
  151.9248  140.8437  157.0125 C   0  0  1  0  0  0  0  0  0  0  0  0
  150.6907  140.8037  156.0744 C   0  0  0  0  0  0  0  0  0  0  0  0
  150.9667  140.1213  154.8685 O   0  0  0  0  0  0  0  0  0  0  0  0
  151.7780  141.9643  158.0753 C   0  0  1  0  0  0  0  0  0  0  0  0
  152.9638  142.1176  159.0142 C   0  0  0  0  0  0  0  0  0  0  0  0
  152.7507  143.5174  159.5739 C   0  0  0  0  0  0  0  0  0  0  0  0
  152.2133  144.2681  158.4939 O   0  0  0  0  0  0  0  0  0  0  0  0
  151.6866  143.3877  157.5050 C   0  0  0  0  0  0  0  0  0  0  0  0
  146.5065  135.1449  154.4930 C   0  0  0  0  0  0  0  0  0  0  0  0
  145.1905  134.3437  154.5712 C   0  0  1  0  0  0  0  0  0  0  0  0
  143.9677  135.1733  154.1392 C   0  0  0  0  0  0  0  0  0  0  0  0
  145.0033  131.9101  150.6019 H   0  0  0  0  0  0  0  0  0  0  0  0
  144.2108  131.2874  152.0434 H   0  0  0  0  0  0  0  0  0  0  0  0
  145.9516  131.0852  151.8202 H   0  0  0  0  0  0  0  0  0  0  0  0
  146.2852  133.5625  152.0296 H   0  0  0  0  0  0  0  0  0  0  0  0
  144.5581  133.7834  152.0206 H   0  0  0  0  0  0  0  0  0  0  0  0
  146.1582  132.0148  155.4944 H   0  0  0  0  0  0  0  0  0  0  0  0
  146.4774  131.2402  153.9787 H   0  0  0  0  0  0  0  0  0  0  0  0
  148.5255  132.3410  154.8839 H   0  0  0  0  0  0  0  0  0  0  0  0
  148.0823  133.0449  153.3526 H   0  0  0  0  0  0  0  0  0  0  0  0
  147.4391  134.1222  156.1122 H   0  0  0  0  0  0  0  0  0  0  0  0
  150.8086  135.1876  154.0212 H   0  0  0  0  0  0  0  0  0  0  0  0
  149.8906  133.7346  153.6448 H   0  0  0  0  0  0  0  0  0  0  0  0
  150.6867  133.8836  155.2104 H   0  0  0  0  0  0  0  0  0  0  0  0
  147.2273  138.1470  157.6067 H   0  0  0  0  0  0  0  0  0  0  0  0
  153.4517  137.5228  156.0809 H   0  0  0  0  0  0  0  0  0  0  0  0
  151.7659  139.4736  158.7037 H   0  0  0  0  0  0  0  0  0  0  0  0
  153.2601  139.3080  157.8190 H   0  0  0  0  0  0  0  0  0  0  0  0
  152.7979  141.0907  156.4062 H   0  0  0  0  0  0  0  0  0  0  0  0
  149.8393  140.3386  156.5720 H   0  0  0  0  0  0  0  0  0  0  0  0
  150.3756  141.8060  155.7895 H   0  0  0  0  0  0  0  0  0  0  0  0
  150.2324  139.5608  154.6694 H   0  0  0  0  0  0  0  0  0  0  0  0
  150.8881  141.7757  158.6785 H   0  0  0  0  0  0  0  0  0  0  0  0
  152.9954  141.3615  159.7991 H   0  0  0  0  0  0  0  0  0  0  0  0
  153.9016  142.0757  158.4581 H   0  0  0  0  0  0  0  0  0  0  0  0
  152.0205  143.4958  160.3839 H   0  0  0  0  0  0  0  0  0  0  0  0
  153.6694  143.9631  159.9552 H   0  0  0  0  0  0  0  0  0  0  0  0
  152.2947  143.4878  156.6050 H   0  0  0  0  0  0  0  0  0  0  0  0
  150.6637  143.6665  157.2513 H   0  0  0  0  0  0  0  0  0  0  0  0
  146.4050  136.0733  155.0563 H   0  0  0  0  0  0  0  0  0  0  0  0
  146.7032  135.4354  153.4611 H   0  0  0  0  0  0  0  0  0  0  0  0
  145.0219  134.0993  155.6214 H   0  0  0  0  0  0  0  0  0  0  0  0
  143.8082  136.0045  154.8265 H   0  0  0  0  0  0  0  0  0  0  0  0
  143.0592  134.5703  154.1398 H   0  0  0  0  0  0  0  0  0  0  0  0
  144.0909  135.6060  153.1463 H   0  0  0  0  0  0  0  0  0  0  0  0
  144.4545  132.5364  154.0692 H   0  0  0  0  0  0  0  0  0  0  0  0
  1  2  1  0  0  0  0
  1 30  1  0  0  0  0
  1 31  1  0  0  0  0
  1 32  1  0  0  0  0
  2  3  1  0  0  0  0
  2 33  1  0  0  0  0
  2 34  1  0  0  0  0
  3 28  1  0  0  0  0
  3  4  1  0  0  0  0
  3 64  1  0  0  0  0
  4  5  1  0  0  0  0
  4 35  1  0  0  0  0
  4 36  1  0  0  0  0
  5  6  1  0  0  0  0
  5 37  1  0  0  0  0
  5 38  1  0  0  0  0
  6  7  1  0  0  0  0
  6 27  1  0  0  0  0
  6 39  1  0  0  0  0
  7  8  1  0  0  0  0
  7  9  1  0  0  0  0
  8 40  1  0  0  0  0
  8 41  1  0  0  0  0
  8 42  1  0  0  0  0
  9 14  1  0  0  0  0
  9 10  2  0  0  0  0
 10 11  1  0  0  0  0
 11 12  2  0  0  0  0
 11 43  1  0  0  0  0
 12 13  1  0  0  0  0
 13 17  1  0  0  0  0
 13 14  2  0  0  0  0
 14 15  1  0  0  0  0
 15 16  2  0  0  0  0
 16 17  1  0  0  0  0
 16 44  1  0  0  0  0
 17 18  1  0  0  0  0
 18 19  1  0  0  0  0
 18 45  1  0  0  0  0
 18 46  1  0  0  0  0
 19 20  1  0  0  0  0
 19 22  1  0  0  0  0
 19 47  1  0  0  0  0
 20 21  1  0  0  0  0
 20 48  1  0  0  0  0
 20 49  1  0  0  0  0
 21 50  1  0  0  0  0
 22 26  1  0  0  0  0
 22 23  1  0  0  0  0
 22 51  1  0  0  0  0
 23 24  1  0  0  0  0
 23 52  1  0  0  0  0
 23 53  1  0  0  0  0
 24 25  1  0  0  0  0
 24 54  1  0  0  0  0
 24 55  1  0  0  0  0
 25 26  1  0  0  0  0
 26 56  1  0  0  0  0
 26 57  1  0  0  0  0
 27 28  1  0  0  0  0
 27 58  1  0  0  0  0
 27 59  1  0  0  0  0
 28 29  1  0  0  0  0
 28 60  1  0  0  0  0
 29 61  1  0  0  0  0
 29 62  1  0  0  0  0
 29 63  1  0  0  0  0
M  CHG  1   3   1
M  END
> <s_m_source_file>
AV-unprocessed.smi

> <i_m_source_file_index>
249

> <i_lp_mmshare_version>
43012

> <i_f3d_flags>
0

> <s_epik_input>
W0NIM11bQ0gyXU4xW0NIMl1bQ0gyXVtDQEhdKFtDSDJdW0NASF0xW0NIM10pTihbQ0gzXSljKG5bY0hdbjIpYyhjMjMpbltjSF1uM1tDSDJdW0NASF0oW0NIMl1bT0hdKVtDQEBIXTRbQ0gyXVtDSDJdT1tDSDJdNA==

> <s_epik_cmdline>
J2VwaWtfcHl0aG9uJywgJy1waCcsICc3LjAnLCAnLXRuJywgJzgnLCAnLW1hJywgJzIwMCcsICctbWV0YWxfYmluZGluZycsICctaW1hZScsICc8aW5maWxlLm1hZT4nLCAnLW9tYWUnLCAnPG91dGZpbGUubWFlPic=

> <r_lp_tautomer_probability>
1

> <r_epik_Ionization_Penalty>
0.00294688

> <r_epik_Ionization_Penalty_Charging>
0.00169971

> <r_epik_Ionization_Penalty_Neutral>
0.00124717

> <r_epik_State_Penalty>
-0

> <r_epik_Charging_Adjusted_Penalty>
0.00169971

> <i_epik_Tot_Q>
1

> <i_epik_Tot_abs_Q>
1

> <r_epik_Metal_State_Penalty>
-0

> <b_epik_Metal_Only>
0

> <s_lp_Force_Field>
OPLS_2005

> <r_lp_Energy>
53.8972

> <b_lp_Chiralities_Consistent>
1

> <s_lp_Variant>
AV-unprocessed.smi:249-14

> <Gold.Version>
5.8.1

> <Gold.Id.Protein>
6NUR|6NUR_protein|mol2

> <Gold.PLP.Fitness>
44.9457

> <Gold.PLP.PLP>
-34.4986

> <Gold.PLP.part.hbond>
-3.0000

> <Gold.PLP.part.metal>
0.0000

> <Gold.PLP.part.buried>
-7.7992

> <Gold.PLP.part.nonpolar>
-24.3291

> <Gold.PLP.part.repulsive>
0.1130

> <Gold.PLP.ligand.clash>
0.0000

> <Gold.PLP.ligand.torsion>
1.0903

> <Gold.PLP.Chemscore.Hbond>
4.0000

> <Gold.PLP.Chemscore.CHOScore>
0.0000

> <Gold.PLP.Chemscore.Metal>
0.0000

> <Gold.Chemscore.Hbonds>
donor molecule, donor type, donor heavy atom, donor atom, acceptor molecule, acceptor atom, score
      L1  H     3    64       P1 10957  1.85
      P1  H  7989  7998       L1    21  1.00
      P1  H 10752 10763       L1    15  1.00

> <Gold.PLP.Chemscore.Internal.Correction>
0.6276

> <Gold.Rescore>
     Score         DG    S(hbond)    S(metal)    S(lipo)     H(rot)  DE(clash)    DE(int)     intcor
     11.17     -17.26       2.21        0.00      95.72       2.65       0.24       5.85       ----

> <Gold.Chemscore.Fitness>
11.1708

> <Gold.Chemscore.DG>
-17.2645

> <Gold.Chemscore.ZeroCoef>
-5.4800

> <Gold.Chemscore.Hbond>
2.2077

> <Gold.Chemscore.Metal>
0.0000

> <Gold.Chemscore.Lipo>
95.7163

> <Gold.Chemscore.Internal_Hbond>
0.0000

> <Gold.Chemscore.DEClash>
0.2395

> <Gold.Chemscore.DEInternal>
5.8542

> <Gold.Chemscore.Rot>
2.6515

> <Gold.Chemscore.Internal.Correction>
   9.000000E+99

> <Gold.Chemscore.Hbonds>
donor molecule, donor type, donor heavy atom, donor atom, acceptor molecule, acceptor atom, score
      L1  H     3    64       P1 10957  0.58
      P1  H  7989  7998       L1    21  0.87
      P1  H 10752 10763       L1    15  0.35

> <Gold.Chemscore.Hbond.Weighted>
-7.3737

> <Gold.Chemscore.Metal.Weighted>
-0.0000

> <Gold.Chemscore.Lipo.Weighted>
-11.1988

> <Gold.Chemscore.Internal_Hbond.Weighted>
0.0000

> <Gold.Chemscore.DEClash.Weighted>
0.2395

> <Gold.Chemscore.DEInternal.Weighted>
5.8542

> <Gold.Chemscore.Rot.Weighted>
6.7880

> <Gold.Chemscore.Internal.Correction.Weighted>
   9.000000E+99

> <Gold.Protein.RotatedTorsions>
[ 6907 6896 6895 6894 ] final  -25.10 input  -60.11 | X-H torsion
[ 7974 7965 7964 7962 ] final  112.95 input  175.53 | X-H torsion
[ 8008 7997 7996 7995 ] final   74.82 input   59.86 | X-H torsion
[ 10167 10162 10161 10158 ] final  -58.58 input  -65.29 | X-H torsion
[ 10718 10713 10712 10709 ] final -119.82 input   66.30 | X-H torsion
[ 10763 10752 10751 10750 ] final   66.96 input  -60.55 | X-H torsion
[ 11005 11000 10999 10996 ] final -132.89 input  -57.11 | X-H torsion

> <Gold.Protein.ActiveResidues>
 VAL166  LYS551  ARG553  GLY616  TRP617  ASP618  TYR619  PRO620  LYS621  CYS622 
 ASP623  PHE694  ASN695  SER759  ASP760  ASP761  ALA762  ILE779  LEU786  VAL792 
 PHE793  MET794  SER795  GLU796  ALA797  LYS798  CYS799  TRP800  GLU811  SER814 

> <Gold.Protein.RotatedAtoms>
  151.1800  135.0357  159.8788 H   0  0  0  0  0  0  0  0  0  0  0  0  # atno 6907 bound_to 6896
  152.5445  134.1073  159.8353 H   0  0  0  0  0  0  0  0  0  0  0  0  # atno 6908 bound_to 6896
  151.1189  133.5072  159.2635 H   0  0  0  0  0  0  0  0  0  0  0  0  # atno 6909 bound_to 6896
  145.2231  139.2853  143.4208 H   0  0  0  0  0  0  0  0  0  0  0  0  # atno 7974 bound_to 7965
  155.8039  140.3475  155.5419 H   0  0  0  0  0  0  0  0  0  0  0  0  # atno 8008 bound_to 7997
  155.8509  140.0956  157.1695 H   0  0  0  0  0  0  0  0  0  0  0  0  # atno 8009 bound_to 7997
  154.4008  140.1376  156.3831 H   0  0  0  0  0  0  0  0  0  0  0  0  # atno 8010 bound_to 7997
  140.6188  143.2412  151.5531 H   0  0  0  0  0  0  0  0  0  0  0  0  # atno 10167 bound_to 10162
  156.1210  130.6323  150.9464 H   0  0  0  0  0  0  0  0  0  0  0  0  # atno 10718 bound_to 10713
  153.0164  135.5301  154.6905 H   0  0  0  0  0  0  0  0  0  0  0  0  # atno 10763 bound_to 10752
  154.6040  135.2871  155.0506 H   0  0  0  0  0  0  0  0  0  0  0  0  # atno 10764 bound_to 10752
  154.1552  135.6556  153.5025 H   0  0  0  0  0  0  0  0  0  0  0  0  # atno 10765 bound_to 10752
  140.9130  134.1544  157.4375 H   0  0  0  0  0  0  0  0  0  0  0  0  # atno 11005 bound_to 11000
  146.3371  140.2543  142.8599 LP  0  0  0  0  0  0  0  0  0  0  0  0  # atno 17320 bound_to 7965
  144.9747  140.8402  143.5434 LP  0  0  0  0  0  0  0  0  0  0  0  0  # atno 17321 bound_to 7965
  139.5421  144.2619  152.1371 LP  0  0  0  0  0  0  0  0  0  0  0  0  # atno 17342 bound_to 10162
  140.1834  144.4822  150.6516 LP  0  0  0  0  0  0  0  0  0  0  0  0  # atno 17343 bound_to 10162
  157.6394  131.0912  150.8283 LP  0  0  0  0  0  0  0  0  0  0  0  0  # atno 17370 bound_to 10713
  156.8379  130.5038  149.5324 LP  0  0  0  0  0  0  0  0  0  0  0  0  # atno 17371 bound_to 10713
  139.8761  134.9943  156.5685 LP  0  0  0  0  0  0  0  0  0  0  0  0  # atno 17394 bound_to 11000
  140.8086  133.8447  155.8790 LP  0  0  0  0  0  0  0  0  0  0  0  0  # atno 17395 bound_to 11000

$$$$
