AV-unprocessed.smi:243|AV-procd|sdf|1855|dock5
  -GOLD-   2262020483D 1   1.00000     0.00000
 Structure written by MMmdl.
 58 61  0  0  0  0  0  0  0  0  2 V2000
  146.0810  135.8689  151.4959 C   0  0  0  0  0  0  0  0  0  0  0  0
  146.3763  134.9545  152.6939 C   0  0  0  0  0  0  0  0  0  0  0  0
  147.7002  135.2277  153.3086 N   0  3  1  0  0  0  0  0  0  0  0  0
  147.7578  136.5304  154.0183 C   0  0  0  0  0  0  0  0  0  0  0  0
  149.1856  136.8254  154.4936 C   0  0  0  0  0  0  0  0  0  0  0  0
  149.7233  135.7036  155.4092 C   0  0  2  0  0  0  0  0  0  0  0  0
  151.0745  135.9943  155.9146 N   0  0  0  0  0  0  0  0  0  0  0  0
  151.4222  135.4439  157.2198 C   0  0  0  0  0  0  0  0  0  0  0  0
  151.5767  137.2339  155.6861 C   0  0  0  0  0  0  0  0  0  0  0  0
  152.6818  137.3310  154.9056 N   0  0  0  0  0  0  0  0  0  0  0  0
  153.2199  138.5257  154.6447 C   0  0  0  0  0  0  0  0  0  0  0  0
  152.8186  139.7292  155.0574 N   0  0  0  0  0  0  0  0  0  0  0  0
  151.7140  139.6382  155.8516 C   0  0  0  0  0  0  0  0  0  0  0  0
  151.0347  138.4413  156.2163 C   0  0  0  0  0  0  0  0  0  0  0  0
  149.9460  138.7459  157.0256 N   0  0  0  0  0  0  0  0  0  0  0  0
  149.9828  140.0455  157.1362 C   0  0  0  0  0  0  0  0  0  0  0  0
  151.0148  140.6623  156.4662 N   0  0  0  0  0  0  0  0  0  0  0  0
  151.2909  142.0895  156.4144 C   0  0  0  0  0  0  0  0  0  0  0  0
  151.2113  142.7840  157.7940 C   0  0  2  0  0  0  0  0  0  0  0  0
  149.8536  142.8813  158.1873 O   0  0  0  0  0  0  0  0  0  0  0  0
  151.8251  144.1815  157.8262 C   0  0  0  0  0  0  0  0  0  0  0  0
  152.3798  144.2780  159.2405 C   0  0  0  0  0  0  0  0  0  0  0  0
  152.8963  142.9763  159.4557 O   0  0  0  0  0  0  0  0  0  0  0  0
  151.9864  142.0350  158.8965 C   0  0  0  0  0  0  0  0  0  0  0  0
  149.5903  134.3301  154.6996 C   0  0  1  0  0  0  0  0  0  0  0  0
  149.9801  133.1617  155.6236 C   0  0  0  0  0  0  0  0  0  0  0  0
  148.1477  134.1203  154.1904 C   0  0  0  0  0  0  0  0  0  0  0  0
  145.1464  135.5789  151.0151 H   0  0  0  0  0  0  0  0  0  0  0  0
  146.8704  135.8038  150.7465 H   0  0  0  0  0  0  0  0  0  0  0  0
  145.9792  136.9131  151.7898 H   0  0  0  0  0  0  0  0  0  0  0  0
  145.5898  135.0372  153.4454 H   0  0  0  0  0  0  0  0  0  0  0  0
  146.3528  133.9247  152.3352 H   0  0  0  0  0  0  0  0  0  0  0  0
  147.4349  137.3375  153.3618 H   0  0  0  0  0  0  0  0  0  0  0  0
  147.0714  136.5194  154.8666 H   0  0  0  0  0  0  0  0  0  0  0  0
  149.8253  136.9403  153.6180 H   0  0  0  0  0  0  0  0  0  0  0  0
  149.1996  137.7826  155.0152 H   0  0  0  0  0  0  0  0  0  0  0  0
  149.0751  135.6701  156.2863 H   0  0  0  0  0  0  0  0  0  0  0  0
  152.4456  135.7019  157.4962 H   0  0  0  0  0  0  0  0  0  0  0  0
  151.3518  134.3563  157.1957 H   0  0  0  0  0  0  0  0  0  0  0  0
  150.7528  135.8064  157.9996 H   0  0  0  0  0  0  0  0  0  0  0  0
  154.0977  138.5162  154.0156 H   0  0  0  0  0  0  0  0  0  0  0  0
  149.2528  140.5934  157.7141 H   0  0  0  0  0  0  0  0  0  0  0  0
  152.2779  142.2354  155.9736 H   0  0  0  0  0  0  0  0  0  0  0  0
  150.5794  142.5456  155.7246 H   0  0  0  0  0  0  0  0  0  0  0  0
  149.3270  142.3955  157.5712 H   0  0  0  0  0  0  0  0  0  0  0  0
  152.6551  144.2458  157.1214 H   0  0  0  0  0  0  0  0  0  0  0  0
  151.1215  144.9791  157.5838 H   0  0  0  0  0  0  0  0  0  0  0  0
  153.1522  145.0405  159.3420 H   0  0  0  0  0  0  0  0  0  0  0  0
  151.5879  144.4860  159.9618 H   0  0  0  0  0  0  0  0  0  0  0  0
  151.3260  141.6589  159.6798 H   0  0  0  0  0  0  0  0  0  0  0  0
  152.5463  141.1841  158.5075 H   0  0  0  0  0  0  0  0  0  0  0  0
  150.2454  134.3118  153.8282 H   0  0  0  0  0  0  0  0  0  0  0  0
  149.3408  133.1263  156.5062 H   0  0  0  0  0  0  0  0  0  0  0  0
  151.0105  133.2398  155.9690 H   0  0  0  0  0  0  0  0  0  0  0  0
  149.8859  132.2059  155.1077 H   0  0  0  0  0  0  0  0  0  0  0  0
  147.4573  134.0293  155.0307 H   0  0  0  0  0  0  0  0  0  0  0  0
  148.0994  133.1793  153.6405 H   0  0  0  0  0  0  0  0  0  0  0  0
  148.3655  135.2720  152.5495 H   0  0  0  0  0  0  0  0  0  0  0  0
  1  2  1  0  0  0  0
  1 28  1  0  0  0  0
  1 29  1  0  0  0  0
  1 30  1  0  0  0  0
  2  3  1  0  0  0  0
  2 31  1  0  0  0  0
  2 32  1  0  0  0  0
  3 27  1  0  0  0  0
  3  4  1  0  0  0  0
  3 58  1  0  0  0  0
  4  5  1  0  0  0  0
  4 33  1  0  0  0  0
  4 34  1  0  0  0  0
  5  6  1  0  0  0  0
  5 35  1  0  0  0  0
  5 36  1  0  0  0  0
  6  7  1  0  0  0  0
  6 25  1  0  0  0  0
  6 37  1  0  0  0  0
  7  8  1  0  0  0  0
  7  9  1  0  0  0  0
  8 38  1  0  0  0  0
  8 39  1  0  0  0  0
  8 40  1  0  0  0  0
  9 14  1  0  0  0  0
  9 10  2  0  0  0  0
 10 11  1  0  0  0  0
 11 12  2  0  0  0  0
 11 41  1  0  0  0  0
 12 13  1  0  0  0  0
 13 17  1  0  0  0  0
 13 14  2  0  0  0  0
 14 15  1  0  0  0  0
 15 16  2  0  0  0  0
 16 17  1  0  0  0  0
 16 42  1  0  0  0  0
 17 18  1  0  0  0  0
 18 19  1  0  0  0  0
 18 43  1  0  0  0  0
 18 44  1  0  0  0  0
 19 24  1  0  0  0  0
 19 20  1  0  0  0  0
 19 21  1  0  0  0  0
 20 45  1  0  0  0  0
 21 22  1  0  0  0  0
 21 46  1  0  0  0  0
 21 47  1  0  0  0  0
 22 23  1  0  0  0  0
 22 48  1  0  0  0  0
 22 49  1  0  0  0  0
 23 24  1  0  0  0  0
 24 50  1  0  0  0  0
 24 51  1  0  0  0  0
 25 26  1  0  0  0  0
 25 27  1  0  0  0  0
 25 52  1  0  0  0  0
 26 53  1  0  0  0  0
 26 54  1  0  0  0  0
 26 55  1  0  0  0  0
 27 56  1  0  0  0  0
 27 57  1  0  0  0  0
M  CHG  1   3   1
M  END
> <s_m_source_file>
AV-unprocessed.smi

> <i_m_source_file_index>
243

> <i_lp_mmshare_version>
43012

> <i_f3d_flags>
0

> <s_epik_input>
W0NIM11bQ0gyXU4xW0NIMl1bQ0gyXVtDQEhdKFtDQEBIXShbQ0gzXSlbQ0gyXTEpTihbQ0gzXSljKG5bY0hdbjIpYyhjMjMpbltjSF1uM1tDSDJdW0NAQF00KFtPSF0pW0NIMl1bQ0gyXU9bQ0gyXTQ=

> <s_epik_cmdline>
J2VwaWtfcHl0aG9uJywgJy1waCcsICc3LjAnLCAnLXRuJywgJzgnLCAnLW1hJywgJzIwMCcsICctbWV0YWxfYmluZGluZycsICctaW1hZScsICc8aW5maWxlLm1hZT4nLCAnLW9tYWUnLCAnPG91dGZpbGUubWFlPic=

> <r_lp_tautomer_probability>
1

> <r_epik_Ionization_Penalty>
0.00253099

> <r_epik_Ionization_Penalty_Charging>
0.00137877

> <r_epik_Ionization_Penalty_Neutral>
0.00115221

> <r_epik_State_Penalty>
-0

> <r_epik_Charging_Adjusted_Penalty>
0.00137877

> <i_epik_Tot_Q>
1

> <i_epik_Tot_abs_Q>
1

> <r_epik_Metal_State_Penalty>
-0

> <b_epik_Metal_Only>
0

> <s_lp_Force_Field>
OPLS_2005

> <r_lp_Energy>
45.753

> <b_lp_Chiralities_Consistent>
1

> <s_lp_Variant>
AV-unprocessed.smi:243-8

> <Gold.Version>
5.8.1

> <Gold.Id.Protein>
6NUR|6NUR_protein|mol2

> <Gold.PLP.Fitness>
44.8089

> <Gold.PLP.PLP>
-37.8243

> <Gold.PLP.part.hbond>
-3.7498

> <Gold.PLP.part.metal>
0.0000

> <Gold.PLP.part.buried>
-1.9913

> <Gold.PLP.part.nonpolar>
-32.6808

> <Gold.PLP.part.repulsive>
0.1449

> <Gold.PLP.ligand.clash>
1.7041

> <Gold.PLP.ligand.torsion>
1.6454

> <Gold.PLP.Chemscore.Hbond>
3.7506

> <Gold.PLP.Chemscore.CHOScore>
0.0000

> <Gold.PLP.Chemscore.Metal>
0.0000

> <Gold.Chemscore.Hbonds>
donor molecule, donor type, donor heavy atom, donor atom, acceptor molecule, acceptor atom, score
      L1  H     3    58       P1  7948  0.60
      P1  H  7989  7998       L1    12  0.15
      P1  H  7997  8009       L1    12  0.85
      P1  H 10752 10765       L1    10  0.51

> <Gold.PLP.Chemscore.Internal.Correction>
0.7277

> <Gold.Rescore>
     Score         DG    S(hbond)    S(metal)    S(lipo)     H(rot)  DE(clash)    DE(int)     intcor
     14.09     -15.98       2.04        0.00      86.91       2.53       0.15       1.74       ----

> <Gold.Chemscore.Fitness>
14.0941

> <Gold.Chemscore.DG>
-15.9813

> <Gold.Chemscore.ZeroCoef>
-5.4800

> <Gold.Chemscore.Hbond>
2.0391

> <Gold.Chemscore.Metal>
0.0000

> <Gold.Chemscore.Lipo>
86.9130

> <Gold.Chemscore.Internal_Hbond>
0.0000

> <Gold.Chemscore.DEClash>
0.1462

> <Gold.Chemscore.DEInternal>
1.7411

> <Gold.Chemscore.Rot>
2.5305

> <Gold.Chemscore.Internal.Correction>
   9.000000E+99

> <Gold.Chemscore.Hbonds>
donor molecule, donor type, donor heavy atom, donor atom, acceptor molecule, acceptor atom, score
      L1  H     3    58       P1  7948  0.25
      P1  H  7989  7998       L1    12  0.01
      P1  H  7997  8009       L1    12  0.11
      P1  H 10752 10765       L1    10  0.15

> <Gold.Chemscore.Hbond.Weighted>
-6.8105

> <Gold.Chemscore.Metal.Weighted>
-0.0000

> <Gold.Chemscore.Lipo.Weighted>
-10.1688

> <Gold.Chemscore.Internal_Hbond.Weighted>
0.0000

> <Gold.Chemscore.DEClash.Weighted>
0.1462

> <Gold.Chemscore.DEInternal.Weighted>
1.7411

> <Gold.Chemscore.Rot.Weighted>
6.4780

> <Gold.Chemscore.Internal.Correction.Weighted>
   9.000000E+99

> <Gold.Protein.RotatedTorsions>
[ 6907 6896 6895 6894 ] final   29.05 input  -60.11 | X-H torsion
[ 7974 7965 7964 7962 ] final  145.87 input  175.53 | X-H torsion
[ 8008 7997 7996 7995 ] final -149.08 input   59.86 | X-H torsion
[ 10167 10162 10161 10158 ] final   17.26 input  -65.29 | X-H torsion
[ 10718 10713 10712 10709 ] final  -56.81 input   66.30 | X-H torsion
[ 10763 10752 10751 10750 ] final  175.35 input  -60.55 | X-H torsion
[ 11005 11000 10999 10996 ] final   96.00 input  -57.11 | X-H torsion

> <Gold.Protein.ActiveResidues>
 VAL166  LYS551  ARG553  GLY616  TRP617  ASP618  TYR619  PRO620  LYS621  CYS622 
 ASP623  PHE694  ASN695  SER759  ASP760  ASP761  ALA762  ILE779  LEU786  VAL792 
 PHE793  MET794  SER795  GLU796  ALA797  LYS798  CYS799  TRP800  GLU811  SER814 

> <Gold.Protein.RotatedAtoms>
  152.0259  134.9796  160.0571 H   0  0  0  0  0  0  0  0  0  0  0  0  # atno 6907 bound_to 6896
  152.1291  133.4393  159.4720 H   0  0  0  0  0  0  0  0  0  0  0  0  # atno 6908 bound_to 6896
  150.6855  134.2360  159.4497 H   0  0  0  0  0  0  0  0  0  0  0  0  # atno 6909 bound_to 6896
  144.8717  139.5836  143.5884 H   0  0  0  0  0  0  0  0  0  0  0  0  # atno 7974 bound_to 7965
  155.6019  140.0663  157.2730 H   0  0  0  0  0  0  0  0  0  0  0  0  # atno 8008 bound_to 7997
  154.4276  140.1817  156.1229 H   0  0  0  0  0  0  0  0  0  0  0  0  # atno 8009 bound_to 7997
  156.0153  140.3322  155.6986 H   0  0  0  0  0  0  0  0  0  0  0  0  # atno 8010 bound_to 7997
  140.5739  143.9110  150.6734 H   0  0  0  0  0  0  0  0  0  0  0  0  # atno 10167 bound_to 10162
  156.1259  130.4162  150.0356 H   0  0  0  0  0  0  0  0  0  0  0  0  # atno 10718 bound_to 10713
  154.4664  135.2769  155.1675 H   0  0  0  0  0  0  0  0  0  0  0  0  # atno 10763 bound_to 10752
  154.3441  135.6164  153.5614 H   0  0  0  0  0  0  0  0  0  0  0  0  # atno 10764 bound_to 10752
  152.9860  135.5795  154.5037 H   0  0  0  0  0  0  0  0  0  0  0  0  # atno 10765 bound_to 10752
  139.8784  134.8928  156.4094 H   0  0  0  0  0  0  0  0  0  0  0  0  # atno 11005 bound_to 11000
  146.2935  139.7208  142.9144 LP  0  0  0  0  0  0  0  0  0  0  0  0  # atno 17320 bound_to 7965
  145.4118  141.0397  143.3013 LP  0  0  0  0  0  0  0  0  0  0  0  0  # atno 17321 bound_to 7965
  140.2592  143.3536  152.1338 LP  0  0  0  0  0  0  0  0  0  0  0  0  # atno 17342 bound_to 10162
  139.5132  144.6929  151.5711 LP  0  0  0  0  0  0  0  0  0  0  0  0  # atno 17343 bound_to 10162
  156.8282  130.9383  151.3638 LP  0  0  0  0  0  0  0  0  0  0  0  0  # atno 17370 bound_to 10713
  157.6441  130.8829  149.9504 LP  0  0  0  0  0  0  0  0  0  0  0  0  # atno 17371 bound_to 10713
  140.9211  133.7644  155.9908 LP  0  0  0  0  0  0  0  0  0  0  0  0  # atno 17394 bound_to 11000
  140.8438  134.3035  157.5303 LP  0  0  0  0  0  0  0  0  0  0  0  0  # atno 17395 bound_to 11000

$$$$
