AV-unprocessed.smi:249|AV-procd|sdf|1920|dock7
  -GOLD-   2262021 23D 1   1.00000     0.00000
 Structure written by MMmdl.
 64 67  0  0  0  0  0  0  0  0  2 V2000
  146.9966  141.8737  156.5487 C   0  0  0  0  0  0  0  0  0  0  0  0
  148.4506  141.7441  157.0283 C   0  0  0  0  0  0  0  0  0  0  0  0
  149.4438  142.2234  156.0222 N   0  3  2  0  0  0  0  0  0  0  0  0
  149.3917  141.4958  154.7223 C   0  0  0  0  0  0  0  0  0  0  0  0
  149.9813  140.0762  154.8311 C   0  0  0  0  0  0  0  0  0  0  0  0
  151.4223  140.1209  155.3766 C   0  0  2  0  0  0  0  0  0  0  0  0
  152.0194  138.7860  155.4957 N   0  0  0  0  0  0  0  0  0  0  0  0
  153.2350  138.4602  154.7505 C   0  0  0  0  0  0  0  0  0  0  0  0
  151.8720  138.1907  156.7073 C   0  0  0  0  0  0  0  0  0  0  0  0
  152.9682  137.9424  157.4728 N   0  0  0  0  0  0  0  0  0  0  0  0
  152.8372  137.3743  158.6750 C   0  0  0  0  0  0  0  0  0  0  0  0
  151.7233  136.9776  159.2930 N   0  0  0  0  0  0  0  0  0  0  0  0
  150.6212  137.2127  158.5257 C   0  0  0  0  0  0  0  0  0  0  0  0
  150.6050  137.8133  157.2353 C   0  0  0  0  0  0  0  0  0  0  0  0
  149.2989  137.8886  156.7649 N   0  0  0  0  0  0  0  0  0  0  0  0
  148.5836  137.3687  157.7249 C   0  0  0  0  0  0  0  0  0  0  0  0
  149.2992  136.9189  158.8117 N   0  0  0  0  0  0  0  0  0  0  0  0
  148.7592  136.3043  160.0116 C   0  0  0  0  0  0  0  0  0  0  0  0
  147.6156  135.2861  159.7601 C   0  0  1  0  0  0  0  0  0  0  0  0
  147.9725  134.4114  158.5359 C   0  0  0  0  0  0  0  0  0  0  0  0
  148.7808  133.3100  158.8988 O   0  0  0  0  0  0  0  0  0  0  0  0
  147.2224  134.4382  161.0055 C   0  0  2  0  0  0  0  0  0  0  0  0
  145.9393  133.6369  160.8475 C   0  0  0  0  0  0  0  0  0  0  0  0
  145.5797  133.3164  162.2908 C   0  0  0  0  0  0  0  0  0  0  0  0
  145.9213  134.4920  163.0083 O   0  0  0  0  0  0  0  0  0  0  0  0
  146.8990  135.2317  162.2824 C   0  0  0  0  0  0  0  0  0  0  0  0
  151.4745  140.9146  156.6967 C   0  0  0  0  0  0  0  0  0  0  0  0
  150.8537  142.3151  156.5126 C   0  0  2  0  0  0  0  0  0  0  0  0
  151.0178  143.2040  157.7587 C   0  0  0  0  0  0  0  0  0  0  0  0
  146.3065  141.6561  157.3642 H   0  0  0  0  0  0  0  0  0  0  0  0
  146.7634  141.1779  155.7434 H   0  0  0  0  0  0  0  0  0  0  0  0
  146.7839  142.8844  156.1993 H   0  0  0  0  0  0  0  0  0  0  0  0
  148.5267  142.3403  157.9353 H   0  0  0  0  0  0  0  0  0  0  0  0
  148.6577  140.7160  157.3241 H   0  0  0  0  0  0  0  0  0  0  0  0
  148.3781  141.4581  154.3269 H   0  0  0  0  0  0  0  0  0  0  0  0
  149.9650  142.0651  153.9891 H   0  0  0  0  0  0  0  0  0  0  0  0
  149.3471  139.4595  155.4678 H   0  0  0  0  0  0  0  0  0  0  0  0
  149.9721  139.6048  153.8477 H   0  0  0  0  0  0  0  0  0  0  0  0
  152.0039  140.6955  154.6562 H   0  0  0  0  0  0  0  0  0  0  0  0
  153.4449  137.3910  154.8037 H   0  0  0  0  0  0  0  0  0  0  0  0
  154.0958  138.9963  155.1507 H   0  0  0  0  0  0  0  0  0  0  0  0
  153.1342  138.7144  153.6965 H   0  0  0  0  0  0  0  0  0  0  0  0
  153.7563  137.2148  159.2195 H   0  0  0  0  0  0  0  0  0  0  0  0
  147.5084  137.2852  157.6600 H   0  0  0  0  0  0  0  0  0  0  0  0
  149.5893  135.8135  160.5211 H   0  0  0  0  0  0  0  0  0  0  0  0
  148.4166  137.0953  160.6800 H   0  0  0  0  0  0  0  0  0  0  0  0
  146.7313  135.8520  159.4663 H   0  0  0  0  0  0  0  0  0  0  0  0
  147.0750  134.0419  158.0403 H   0  0  0  0  0  0  0  0  0  0  0  0
  148.5058  135.0025  157.7907 H   0  0  0  0  0  0  0  0  0  0  0  0
  148.2373  132.6681  159.3304 H   0  0  0  0  0  0  0  0  0  0  0  0
  148.0281  133.7378  161.2315 H   0  0  0  0  0  0  0  0  0  0  0  0
  145.1573  134.2494  160.3962 H   0  0  0  0  0  0  0  0  0  0  0  0
  146.0642  132.7382  160.2427 H   0  0  0  0  0  0  0  0  0  0  0  0
  144.5280  133.0591  162.4183 H   0  0  0  0  0  0  0  0  0  0  0  0
  146.1833  132.4868  162.6612 H   0  0  0  0  0  0  0  0  0  0  0  0
  147.7818  135.3874  162.9013 H   0  0  0  0  0  0  0  0  0  0  0  0
  146.4730  136.2074  162.0470 H   0  0  0  0  0  0  0  0  0  0  0  0
  150.9530  140.3862  157.4942 H   0  0  0  0  0  0  0  0  0  0  0  0
  152.5123  141.0110  157.0189 H   0  0  0  0  0  0  0  0  0  0  0  0
  151.4132  142.8161  155.7208 H   0  0  0  0  0  0  0  0  0  0  0  0
  152.0723  143.4123  157.9424 H   0  0  0  0  0  0  0  0  0  0  0  0
  150.6292  142.7297  158.6597 H   0  0  0  0  0  0  0  0  0  0  0  0
  150.5136  144.1623  157.6313 H   0  0  0  0  0  0  0  0  0  0  0  0
  149.1689  143.1735  155.8169 H   0  0  0  0  0  0  0  0  0  0  0  0
  1  2  1  0  0  0  0
  1 30  1  0  0  0  0
  1 31  1  0  0  0  0
  1 32  1  0  0  0  0
  2  3  1  0  0  0  0
  2 33  1  0  0  0  0
  2 34  1  0  0  0  0
  3 28  1  0  0  0  0
  3  4  1  0  0  0  0
  3 64  1  0  0  0  0
  4  5  1  0  0  0  0
  4 35  1  0  0  0  0
  4 36  1  0  0  0  0
  5  6  1  0  0  0  0
  5 37  1  0  0  0  0
  5 38  1  0  0  0  0
  6  7  1  0  0  0  0
  6 27  1  0  0  0  0
  6 39  1  0  0  0  0
  7  8  1  0  0  0  0
  7  9  1  0  0  0  0
  8 40  1  0  0  0  0
  8 41  1  0  0  0  0
  8 42  1  0  0  0  0
  9 14  1  0  0  0  0
  9 10  2  0  0  0  0
 10 11  1  0  0  0  0
 11 12  2  0  0  0  0
 11 43  1  0  0  0  0
 12 13  1  0  0  0  0
 13 17  1  0  0  0  0
 13 14  2  0  0  0  0
 14 15  1  0  0  0  0
 15 16  2  0  0  0  0
 16 17  1  0  0  0  0
 16 44  1  0  0  0  0
 17 18  1  0  0  0  0
 18 19  1  0  0  0  0
 18 45  1  0  0  0  0
 18 46  1  0  0  0  0
 19 20  1  0  0  0  0
 19 22  1  0  0  0  0
 19 47  1  0  0  0  0
 20 21  1  0  0  0  0
 20 48  1  0  0  0  0
 20 49  1  0  0  0  0
 21 50  1  0  0  0  0
 22 26  1  0  0  0  0
 22 23  1  0  0  0  0
 22 51  1  0  0  0  0
 23 24  1  0  0  0  0
 23 52  1  0  0  0  0
 23 53  1  0  0  0  0
 24 25  1  0  0  0  0
 24 54  1  0  0  0  0
 24 55  1  0  0  0  0
 25 26  1  0  0  0  0
 26 56  1  0  0  0  0
 26 57  1  0  0  0  0
 27 28  1  0  0  0  0
 27 58  1  0  0  0  0
 27 59  1  0  0  0  0
 28 29  1  0  0  0  0
 28 60  1  0  0  0  0
 29 61  1  0  0  0  0
 29 62  1  0  0  0  0
 29 63  1  0  0  0  0
M  CHG  1   3   1
M  END
> <s_m_source_file>
AV-unprocessed.smi

> <i_m_source_file_index>
249

> <i_lp_mmshare_version>
43012

> <i_f3d_flags>
0

> <s_epik_input>
W0NIM11bQ0gyXU4xW0NIMl1bQ0gyXVtDQEhdKFtDSDJdW0NASF0xW0NIM10pTihbQ0gzXSljKG5bY0hdbjIpYyhjMjMpbltjSF1uM1tDSDJdW0NASF0oW0NIMl1bT0hdKVtDQEBIXTRbQ0gyXVtDSDJdT1tDSDJdNA==

> <s_epik_cmdline>
J2VwaWtfcHl0aG9uJywgJy1waCcsICc3LjAnLCAnLXRuJywgJzgnLCAnLW1hJywgJzIwMCcsICctbWV0YWxfYmluZGluZycsICctaW1hZScsICc8aW5maWxlLm1hZT4nLCAnLW9tYWUnLCAnPG91dGZpbGUubWFlPic=

> <r_lp_tautomer_probability>
1

> <r_epik_Ionization_Penalty>
0.00294688

> <r_epik_Ionization_Penalty_Charging>
0.00169971

> <r_epik_Ionization_Penalty_Neutral>
0.00124717

> <r_epik_State_Penalty>
-0

> <r_epik_Charging_Adjusted_Penalty>
0.00169971

> <i_epik_Tot_Q>
1

> <i_epik_Tot_abs_Q>
1

> <r_epik_Metal_State_Penalty>
-0

> <b_epik_Metal_Only>
0

> <s_lp_Force_Field>
OPLS_2005

> <r_lp_Energy>
55.0731

> <b_lp_Chiralities_Consistent>
1

> <s_lp_Variant>
AV-unprocessed.smi:249-23

> <Gold.Version>
5.8.1

> <Gold.Id.Protein>
6NUR|6NUR_protein|mol2

> <Gold.PLP.Fitness>
56.2453

> <Gold.PLP.PLP>
-46.7687

> <Gold.PLP.part.hbond>
-4.0000

> <Gold.PLP.part.metal>
0.0000

> <Gold.PLP.part.buried>
-3.0540

> <Gold.PLP.part.nonpolar>
-39.6943

> <Gold.PLP.part.repulsive>
0.1168

> <Gold.PLP.ligand.clash>
0.0000

> <Gold.PLP.ligand.torsion>
1.8966

> <Gold.PLP.Chemscore.Hbond>
4.0000

> <Gold.PLP.Chemscore.CHOScore>
0.0000

> <Gold.PLP.Chemscore.Metal>
0.0000

> <Gold.Chemscore.Hbonds>
donor molecule, donor type, donor heavy atom, donor atom, acceptor molecule, acceptor atom, score
      L1  H     3    64       P1  8028  2.00
      P1  H  6896  6908       L1    21  0.93
      P1  H  6896  6909       L1    12  1.00

> <Gold.PLP.Chemscore.Internal.Correction>
1.2698

> <Gold.Rescore>
     Score         DG    S(hbond)    S(metal)    S(lipo)     H(rot)  DE(clash)    DE(int)     intcor
     17.07     -18.87       2.68        0.00      96.04       2.65       0.18       1.62       ----

> <Gold.Chemscore.Fitness>
17.0702

> <Gold.Chemscore.DG>
-18.8738

> <Gold.Chemscore.ZeroCoef>
-5.4800

> <Gold.Chemscore.Hbond>
2.6782

> <Gold.Chemscore.Metal>
0.0000

> <Gold.Chemscore.Lipo>
96.0403

> <Gold.Chemscore.Internal_Hbond>
0.0000

> <Gold.Chemscore.DEClash>
0.1836

> <Gold.Chemscore.DEInternal>
1.6200

> <Gold.Chemscore.Rot>
2.6515

> <Gold.Chemscore.Internal.Correction>
   9.000000E+99

> <Gold.Chemscore.Hbonds>
donor molecule, donor type, donor heavy atom, donor atom, acceptor molecule, acceptor atom, score
      L1  H     3    64       P1  8028  0.97
      P1  H  6896  6908       L1    21  0.70
      P1  H  6896  6909       L1    12  0.69

> <Gold.Chemscore.Hbond.Weighted>
-8.9451

> <Gold.Chemscore.Metal.Weighted>
-0.0000

> <Gold.Chemscore.Lipo.Weighted>
-11.2367

> <Gold.Chemscore.Internal_Hbond.Weighted>
0.0000

> <Gold.Chemscore.DEClash.Weighted>
0.1836

> <Gold.Chemscore.DEInternal.Weighted>
1.6200

> <Gold.Chemscore.Rot.Weighted>
6.7880

> <Gold.Chemscore.Internal.Correction.Weighted>
   9.000000E+99

> <Gold.Protein.RotatedTorsions>
[ 6907 6896 6895 6894 ] final  126.58 input  -60.11 | X-H torsion
[ 7974 7965 7964 7962 ] final -148.45 input  175.53 | X-H torsion
[ 8008 7997 7996 7995 ] final    0.97 input   59.86 | X-H torsion
[ 10167 10162 10161 10158 ] final  -99.74 input  -65.29 | X-H torsion
[ 10718 10713 10712 10709 ] final -122.08 input   66.30 | X-H torsion
[ 10763 10752 10751 10750 ] final  -44.66 input  -60.55 | X-H torsion
[ 11005 11000 10999 10996 ] final   41.45 input  -57.11 | X-H torsion

> <Gold.Protein.ActiveResidues>
 VAL166  LYS551  ARG553  GLY616  TRP617  ASP618  TYR619  PRO620  LYS621  CYS622 
 ASP623  PHE694  ASN695  SER759  ASP760  ASP761  ALA762  ILE779  LEU786  VAL792 
 PHE793  MET794  SER795  GLU796  ALA797  LYS798  CYS799  TRP800  GLU811  SER814 

> <Gold.Protein.RotatedAtoms>
  152.3890  133.6652  159.6221 H   0  0  0  0  0  0  0  0  0  0  0  0  # atno 6907 bound_to 6896
  150.7803  133.8986  159.3343 H   0  0  0  0  0  0  0  0  0  0  0  0  # atno 6908 bound_to 6896
  151.6777  135.0968  160.0261 H   0  0  0  0  0  0  0  0  0  0  0  0  # atno 6909 bound_to 6896
  144.8029  140.5195  143.5695 H   0  0  0  0  0  0  0  0  0  0  0  0  # atno 7974 bound_to 7965
  154.6742  140.2618  155.6975 H   0  0  0  0  0  0  0  0  0  0  0  0  # atno 8008 bound_to 7997
  156.2671  140.2823  156.1185 H   0  0  0  0  0  0  0  0  0  0  0  0  # atno 8009 bound_to 7997
  155.1124  140.0376  157.2718 H   0  0  0  0  0  0  0  0  0  0  0  0  # atno 8010 bound_to 7997
  140.2593  143.3418  152.0641 H   0  0  0  0  0  0  0  0  0  0  0  0  # atno 10167 bound_to 10162
  156.1389  130.6451  150.9740 H   0  0  0  0  0  0  0  0  0  0  0  0  # atno 10718 bound_to 10713
  154.0157  135.6675  153.4768 H   0  0  0  0  0  0  0  0  0  0  0  0  # atno 10763 bound_to 10752
  153.0601  135.5032  154.8071 H   0  0  0  0  0  0  0  0  0  0  0  0  # atno 10764 bound_to 10752
  154.6968  135.3071  154.9364 H   0  0  0  0  0  0  0  0  0  0  0  0  # atno 10765 bound_to 10752
  140.1833  134.4077  155.8188 H   0  0  0  0  0  0  0  0  0  0  0  0  # atno 11005 bound_to 11000
  145.5510  139.1477  143.3394 LP  0  0  0  0  0  0  0  0  0  0  0  0  # atno 17320 bound_to 7965
  146.2314  140.5648  142.8974 LP  0  0  0  0  0  0  0  0  0  0  0  0  # atno 17321 bound_to 7965
  139.5022  144.6729  151.6199 LP  0  0  0  0  0  0  0  0  0  0  0  0  # atno 17342 bound_to 10162
  140.5978  143.9664  150.6366 LP  0  0  0  0  0  0  0  0  0  0  0  0  # atno 17343 bound_to 10162
  157.6558  131.0889  150.7951 LP  0  0  0  0  0  0  0  0  0  0  0  0  # atno 17370 bound_to 10713
  156.8028  130.4927  149.5367 LP  0  0  0  0  0  0  0  0  0  0  0  0  # atno 17371 bound_to 10713
  141.2224  133.7011  156.7968 LP  0  0  0  0  0  0  0  0  0  0  0  0  # atno 17394 bound_to 11000
  140.2243  134.8734  157.3410 LP  0  0  0  0  0  0  0  0  0  0  0  0  # atno 17395 bound_to 11000

$$$$
