#       Name:                AV-unprocessed.smi:1867
#       Creating user name   scv26
#       Creation time:       Fri Mar 27 09:28:22 2020


#       File generated by GOLD software.
#

@<TRIPOS>MOLECULE
AV-unprocessed.smi:1867
    55    58     1
SMALL
NO_CHARGES


@<TRIPOS>ATOM
      1 ****        -1.2695   2.5476   1.4859 O.2            1 S1                 0.0000
      2 ****        -1.4893   1.3626   1.2488 C.2            1 S1                 0.0000
      3 ****        -0.5385   0.4201   1.0922 N.am           1 S1                 0.0000
      4 ****         0.8750   0.5524   1.1630 C.ar           1 S1                 0.0000
      5 ****         1.5497   1.6430   1.7662 C.ar           1 S1                 0.0000
      6 ****         2.9594   1.6621   1.7887 C.ar           1 S1                 0.0000
      7 ****         3.6874   0.5936   1.2151 C.ar           1 S1                 0.0000
      8 ****         5.0943   0.5483   1.2072 N.pl3          1 S1                 0.0000
      9 ****         5.8186  -0.4635   0.4543 C.3            1 S1                 0.0000
     10 ****         7.2850  -0.0480   0.5635 C.3            1 S1                 0.0000
     11 ****         7.2083   1.4779   0.6188 C.3            1 S1                 0.0000
     12 ****         5.8894   1.7603   1.3483 C.3            1 S1                 0.0000
     13 ****         2.9989  -0.4353   0.6662 N.pl3          1 S1                 1.0000
     14 ****         1.6508  -0.4936   0.6227 C.ar           1 S1                 0.0000
     15 ****        -2.7476   0.9118   1.0926 N.am           1 S1                 0.0000
     16 ****        -4.0092   1.6531   1.1914 C.3            1 S1                 0.0000
     17 ****        -5.1288   1.0307   0.3335 C.3            1 S1                 0.0000
     18 ****        -6.3836   1.1096   1.2088 C.3            1 S1                 0.0000
     19 ****        -5.8475   0.9468   2.5645 N.4            1 S1                 1.0000
     20 ****        -6.7386   1.2126   3.7120 C.3            1 S1                 0.0000
     21 ****        -6.0070   0.7931   5.0047 C.3            1 S1                 0.0000
     22 ****        -4.6081   1.4398   5.1207 C.3            1 S1                 0.0000
     23 ****        -3.7733   1.2376   3.8374 C.3            1 S1                 0.0000
     24 ****        -4.5924   1.7163   2.6247 C.3            1 S1                 0.0000
     25 ****        -0.8707  -0.4991   0.8405 H              1 S1                 0.0000
     26 ****         1.0205   2.4619   2.2270 H              1 S1                 0.0000
     27 ****         3.4653   2.4937   2.2570 H              1 S1                 0.0000
     28 ****         5.6517  -1.4631   0.8572 H              1 S1                 0.0000
     29 ****         5.4914  -0.4491  -0.5863 H              1 S1                 0.0000
     30 ****         7.7097  -0.4289   1.4934 H              1 S1                 0.0000
     31 ****         7.8941  -0.4171  -0.2620 H              1 S1                 0.0000
     32 ****         8.0692   1.9301   1.1121 H              1 S1                 0.0000
     33 ****         7.1573   1.8761  -0.3956 H              1 S1                 0.0000
     34 ****         5.3910   2.6344   0.9274 H              1 S1                 0.0000
     35 ****         6.0660   1.9432   2.4086 H              1 S1                 0.0000
     36 ****         1.2365  -1.3745   0.1538 H              1 S1                 0.0000
     37 ****        -2.8377  -0.0666   0.8578 H              1 S1                 0.0000
     38 ****        -3.8600   2.6735   0.8334 H              1 S1                 0.0000
     39 ****        -5.2571   1.5380  -0.6234 H              1 S1                 0.0000
     40 ****        -4.9064  -0.0165   0.1216 H              1 S1                 0.0000
     41 ****        -6.8589   2.0872   1.1138 H              1 S1                 0.0000
     42 ****        -7.1176   0.3411   0.9644 H              1 S1                 0.0000
     43 ****        -7.0090   2.2691   3.7423 H              1 S1                 0.0000
     44 ****        -7.6626   0.6441   3.6010 H              1 S1                 0.0000
     45 ****        -6.6107   1.0490   5.8759 H              1 S1                 0.0000
     46 ****        -5.8981  -0.2923   5.0170 H              1 S1                 0.0000
     47 ****        -4.7228   2.5078   5.3102 H              1 S1                 0.0000
     48 ****        -4.0772   1.0316   5.9812 H              1 S1                 0.0000
     49 ****        -2.8405   1.7958   3.9181 H              1 S1                 0.0000
     50 ****        -3.5072   0.1856   3.7266 H              1 S1                 0.0000
     51 ****        -4.8593   2.7614   2.7969 H              1 S1                 0.0000
     52 ****        -5.5803  -0.0250   2.6307 H              1 S1                 0.0000
     53 ****         3.5279  -1.2088   0.2627 H              1 S1                 0.0000
     54 ****        -0.3284   2.8732   1.5760 LP             1 S1                 0.0000
     55 ****        -2.0318   3.1866   1.5887 LP             1 S1                 0.0000
@<TRIPOS>BOND
    1    1    2 2     
    2    2    3 am    
    3    2   15 am    
    4    3    4 1     
    5    3   25 1     
    6    4   14 ar    
    7    4    5 ar    
    8    5    6 ar    
    9    5   26 1     
   10    6    7 ar    
   11    6   27 1     
   12    7    8 1     
   13    7   13 ar    
   14    8   12 1     
   15    8    9 1     
   16    9   10 1     
   17    9   28 1     
   18    9   29 1     
   19   10   11 1     
   20   10   30 1     
   21   10   31 1     
   22   11   12 1     
   23   11   32 1     
   24   11   33 1     
   25   12   34 1     
   26   12   35 1     
   27   13   14 ar    
   28   13   53 1     
   29   14   36 1     
   30   15   16 1     
   31   15   37 1     
   32   16   24 1     
   33   16   17 1     
   34   16   38 1     
   35   17   18 1     
   36   17   39 1     
   37   17   40 1     
   38   18   19 1     
   39   18   41 1     
   40   18   42 1     
   41   19   24 1     
   42   19   20 1     
   43   19   52 1     
   44   20   21 1     
   45   20   43 1     
   46   20   44 1     
   47   21   22 1     
   48   21   45 1     
   49   21   46 1     
   50   22   23 1     
   51   22   47 1     
   52   22   48 1     
   53   23   24 1     
   54   23   49 1     
   55   23   50 1     
   56   24   51 1     
   57    1   54 1     
   58    1   55 1     
@<TRIPOS>SUBSTRUCTURE
      1 S1             1
@<TRIPOS>SET
LONE_PAIRS      STATIC     ATOMS    <user>   **** ""
2 54 55
DONOR_HYDROGENS      STATIC     ATOMS    <user>   **** ""
4 25 53 37 52
ATOM$BLUE        STATIC     ATOMS    COLORGROUP SYSTEM
2 54 55
ATOM$RED        STATIC     ATOMS    COLORGROUP SYSTEM
4 25 53 37 52
