AV-unprocessed.smi:2525|AV-procd|sdf|9928|dock6
  -GOLD-   2272013573D 1   1.00000     0.00000
 Structure written by MMmdl.
 44 45  0  0  0  0  0  0  0  0  1 V2000
  146.7442  142.3060  154.0082 C   0  0  0  0  0  0  0  0  0  0  0  0
  147.1680  140.8614  153.6835 C   0  0  0  0  0  0  0  0  0  0  0  0
  147.5271  139.9465  154.8911 C   0  0  0  0  0  0  0  0  0  0  0  0
  146.4029  140.0065  155.9433 C   0  0  0  0  0  0  0  0  0  0  0  0
  146.6785  139.2002  157.2221 C   0  0  0  0  0  0  0  0  0  0  0  0
  148.0577  138.5175  154.5822 C   0  0  1  0  0  0  0  0  0  0  0  0
  147.6410  137.9525  153.3036 N   0  0  0  0  0  0  0  0  0  0  0  0
  146.3701  137.6897  152.9674 C   0  0  0  0  0  0  0  0  0  0  0  0
  145.4165  137.9103  153.7155 O   0  0  0  0  0  0  0  0  0  0  0  0
  146.1587  137.1070  151.5651 C   0  0  0  0  0  0  0  0  0  0  0  0
  145.3433  135.9040  151.5768 N   0  0  0  0  0  0  0  0  0  0  0  0
  144.8799  135.1681  150.5053 C   0  0  0  0  0  0  0  0  0  0  0  0
  144.1833  134.1526  151.0955 C   0  0  0  0  0  0  0  0  0  0  0  0
  144.2480  134.3110  152.4788 N   0  0  0  0  0  0  0  0  0  0  0  0
  144.9477  135.3662  152.7559 N   0  0  0  0  0  0  0  0  0  0  0  0
  149.4882  139.0655  154.5395 C   0  0  2  0  0  0  0  0  0  0  0  0
  150.6293  138.1669  154.9982 C   0  0  0  0  0  0  0  0  0  0  0  0
  148.9516  140.1633  155.4706 C   0  0  1  0  0  0  0  0  0  0  0  0
  149.4581  141.4661  155.2205 O   0  0  0  0  0  0  0  0  0  0  0  0
  150.6501  141.7495  155.9309 C   0  0  0  0  0  0  0  0  0  0  0  0
  146.4209  142.8165  153.1008 H   0  0  0  0  0  0  0  0  0  0  0  0
  147.5680  142.8876  154.4208 H   0  0  0  0  0  0  0  0  0  0  0  0
  145.9178  142.3505  154.7137 H   0  0  0  0  0  0  0  0  0  0  0  0
  146.3666  140.4092  153.0995 H   0  0  0  0  0  0  0  0  0  0  0  0
  148.0097  140.9121  152.9927 H   0  0  0  0  0  0  0  0  0  0  0  0
  146.1643  141.0378  156.2018 H   0  0  0  0  0  0  0  0  0  0  0  0
  145.4814  139.6180  155.5081 H   0  0  0  0  0  0  0  0  0  0  0  0
  145.8088  139.2157  157.8791 H   0  0  0  0  0  0  0  0  0  0  0  0
  147.5177  139.6069  157.7857 H   0  0  0  0  0  0  0  0  0  0  0  0
  146.9003  138.1574  156.9941 H   0  0  0  0  0  0  0  0  0  0  0  0
  147.9297  137.8358  155.4273 H   0  0  0  0  0  0  0  0  0  0  0  0
  148.3669  137.7508  152.6312 H   0  0  0  0  0  0  0  0  0  0  0  0
  145.6858  137.8580  150.9304 H   0  0  0  0  0  0  0  0  0  0  0  0
  147.1224  136.8651  151.1145 H   0  0  0  0  0  0  0  0  0  0  0  0
  145.0798  135.4166  149.4736 H   0  0  0  0  0  0  0  0  0  0  0  0
  143.6472  133.3298  150.6458 H   0  0  0  0  0  0  0  0  0  0  0  0
  149.7035  139.4891  153.5568 H   0  0  0  0  0  0  0  0  0  0  0  0
  150.4711  137.8098  156.0161 H   0  0  0  0  0  0  0  0  0  0  0  0
  151.5844  138.6906  154.9766 H   0  0  0  0  0  0  0  0  0  0  0  0
  150.7210  137.2925  154.3536 H   0  0  0  0  0  0  0  0  0  0  0  0
  149.0097  139.8842  156.5257 H   0  0  0  0  0  0  0  0  0  0  0  0
  150.9587  142.7747  155.7274 H   0  0  0  0  0  0  0  0  0  0  0  0
  151.4619  141.0906  155.6244 H   0  0  0  0  0  0  0  0  0  0  0  0
  150.5028  141.6503  157.0072 H   0  0  0  0  0  0  0  0  0  0  0  0
  1  2  1  0  0  0  0
  1 21  1  0  0  0  0
  1 22  1  0  0  0  0
  1 23  1  0  0  0  0
  2  3  1  0  0  0  0
  2 24  1  0  0  0  0
  2 25  1  0  0  0  0
  3 18  1  0  0  0  0
  3  4  1  0  0  0  0
  3  6  1  0  0  0  0
  4  5  1  0  0  0  0
  4 26  1  0  0  0  0
  4 27  1  0  0  0  0
  5 28  1  0  0  0  0
  5 29  1  0  0  0  0
  5 30  1  0  0  0  0
  6  7  1  0  0  0  0
  6 16  1  0  0  0  0
  6 31  1  0  0  0  0
  7  8  1  0  0  0  0
  7 32  1  0  0  0  0
  8  9  2  0  0  0  0
  8 10  1  0  0  0  0
 10 11  1  0  0  0  0
 10 33  1  0  0  0  0
 10 34  1  0  0  0  0
 11 15  1  0  0  0  0
 11 12  1  0  0  0  0
 12 13  2  0  0  0  0
 12 35  1  0  0  0  0
 13 14  1  0  0  0  0
 13 36  1  0  0  0  0
 14 15  2  0  0  0  0
 16 17  1  0  0  0  0
 16 18  1  0  0  0  0
 16 37  1  0  0  0  0
 17 38  1  0  0  0  0
 17 39  1  0  0  0  0
 17 40  1  0  0  0  0
 18 19  1  0  0  0  0
 18 41  1  0  0  0  0
 19 20  1  0  0  0  0
 20 42  1  0  0  0  0
 20 43  1  0  0  0  0
 20 44  1  0  0  0  0
M  END
> <s_m_source_file>
AV-unprocessed.smi

> <i_m_source_file_index>
2525

> <i_lp_mmshare_version>
43012

> <i_f3d_flags>
0

> <s_epik_input>
W0NIM11PW0NAQEhdMVtDQEhdKFtDSDNdKVtDQEBIXShDMShbQ0gyXVtDSDNdKVtDSDJdW0NIM10pW05IXUMoPU8pW0NIMl1uMltjSF1bY0hdbm4y

> <s_epik_cmdline>
J2VwaWtfcHl0aG9uJywgJy1waCcsICc3LjAnLCAnLXRuJywgJzgnLCAnLW1hJywgJzIwMCcsICctbWV0YWxfYmluZGluZycsICctaW1hZScsICc8aW5maWxlLm1hZT4nLCAnLW9tYWUnLCAnPG91dGZpbGUubWFlPic=

> <r_lp_tautomer_probability>
1

> <r_epik_Ionization_Penalty>
1.18045e-06

> <r_epik_Ionization_Penalty_Charging>
0

> <r_epik_Ionization_Penalty_Neutral>
1.18045e-06

> <r_epik_State_Penalty>
-0

> <r_epik_Charging_Adjusted_Penalty>
0

> <i_epik_Tot_Q>
0

> <i_epik_Tot_abs_Q>
0

> <r_epik_Metal_State_Penalty>
-0

> <b_epik_Metal_Only>
0

> <s_lp_Force_Field>
OPLS_2005

> <r_lp_Energy>
27.7257

> <b_lp_Chiralities_Consistent>
1

> <s_lp_Variant>
AV-unprocessed.smi:2525-3

> <Gold.Version>
5.8.1

> <Gold.Id.Protein>
6NUR|6NUR_protein|mol2

> <Gold.PLP.Fitness>
33.1200

> <Gold.PLP.PLP>
-26.5195

> <Gold.PLP.part.hbond>
-1.0000

> <Gold.PLP.part.metal>
0.0000

> <Gold.PLP.part.buried>
-3.0204

> <Gold.PLP.part.nonpolar>
-24.0740

> <Gold.PLP.part.repulsive>
0.5094

> <Gold.PLP.ligand.clash>
0.0000

> <Gold.PLP.ligand.torsion>
0.6093

> <Gold.PLP.Chemscore.Hbond>
0.7840

> <Gold.PLP.Chemscore.CHOScore>
1.6215

> <Gold.PLP.Chemscore.Metal>
0.0000

> <Gold.Chemscore.Hbonds>
donor molecule, donor type, donor heavy atom, donor atom, acceptor molecule, acceptor atom, score
      L1  H     7    32       P1  7948  0.70
      L1  C    12    35       P1  7921  1.00

> <Gold.PLP.Chemscore.Internal.Correction>
0.6025

> <Gold.Rescore>
     Score         DG    S(hbond)    S(metal)    S(lipo)     H(rot)  DE(clash)    DE(int)     intcor
      8.90     -10.84       0.91        0.00      63.18       1.98       0.19       1.74       ----

> <Gold.Chemscore.Fitness>
8.8985

> <Gold.Chemscore.DG>
-10.8357

> <Gold.Chemscore.ZeroCoef>
-5.4800

> <Gold.Chemscore.Hbond>
0.9092

> <Gold.Chemscore.Metal>
0.0000

> <Gold.Chemscore.Lipo>
63.1802

> <Gold.Chemscore.Internal_Hbond>
0.0000

> <Gold.Chemscore.DEClash>
0.1944

> <Gold.Chemscore.DEInternal>
1.7428

> <Gold.Chemscore.Rot>
1.9817

> <Gold.Chemscore.Internal.Correction>
   9.000000E+99

> <Gold.Chemscore.Hbonds>
donor molecule, donor type, donor heavy atom, donor atom, acceptor molecule, acceptor atom, score
      L1  H     7    32       P1  7948  0.70

> <Gold.Chemscore.Hbond.Weighted>
-3.0367

> <Gold.Chemscore.Metal.Weighted>
-0.0000

> <Gold.Chemscore.Lipo.Weighted>
-7.3921

> <Gold.Chemscore.Internal_Hbond.Weighted>
0.0000

> <Gold.Chemscore.DEClash.Weighted>
0.1944

> <Gold.Chemscore.DEInternal.Weighted>
1.7428

> <Gold.Chemscore.Rot.Weighted>
5.0731

> <Gold.Chemscore.Internal.Correction.Weighted>
   9.000000E+99

> <Gold.Protein.RotatedTorsions>
[ 6907 6896 6895 6894 ] final   49.37 input  -60.11 | X-H torsion
[ 7974 7965 7964 7962 ] final  -87.43 input  175.53 | X-H torsion
[ 8008 7997 7996 7995 ] final -144.38 input   59.86 | X-H torsion
[ 10167 10162 10161 10158 ] final  119.73 input  -65.29 | X-H torsion
[ 10718 10713 10712 10709 ] final  -21.10 input   66.30 | X-H torsion
[ 10763 10752 10751 10750 ] final  -93.46 input  -60.55 | X-H torsion
[ 11005 11000 10999 10996 ] final   23.50 input  -57.11 | X-H torsion

> <Gold.Protein.ActiveResidues>
 VAL166  LYS551  ARG553  GLY616  TRP617  ASP618  TYR619  PRO620  LYS621  CYS622 
 ASP623  PHE694  ASN695  SER759  ASP760  ASP761  ALA762  ILE779  LEU786  VAL792 
 PHE793  MET794  SER795  GLU796  ALA797  LYS798  CYS799  TRP800  GLU811  SER814 

> <Gold.Protein.RotatedAtoms>
  152.2900  134.7732  160.0379 H   0  0  0  0  0  0  0  0  0  0  0  0  # atno 6907 bound_to 6896
  151.8282  133.3399  159.3613 H   0  0  0  0  0  0  0  0  0  0  0  0  # atno 6908 bound_to 6896
  150.7226  134.5437  159.5804 H   0  0  0  0  0  0  0  0  0  0  0  0  # atno 6909 bound_to 6896
  145.4666  140.9560  143.1940 H   0  0  0  0  0  0  0  0  0  0  0  0  # atno 7974 bound_to 7965
  155.5260  140.0595  157.2898 H   0  0  0  0  0  0  0  0  0  0  0  0  # atno 8008 bound_to 7997
  154.4501  140.1944  156.0491 H   0  0  0  0  0  0  0  0  0  0  0  0  # atno 8009 bound_to 7997
  156.0686  140.3263  155.7552 H   0  0  0  0  0  0  0  0  0  0  0  0  # atno 8010 bound_to 7997
  139.6027  144.7061  151.3025 H   0  0  0  0  0  0  0  0  0  0  0  0  # atno 10167 bound_to 10162
  156.5227  130.4636  149.6588 H   0  0  0  0  0  0  0  0  0  0  0  0  # atno 10718 bound_to 10713
  154.6962  135.5193  153.8461 H   0  0  0  0  0  0  0  0  0  0  0  0  # atno 10763 bound_to 10752
  153.0668  135.6588  154.0345 H   0  0  0  0  0  0  0  0  0  0  0  0  # atno 10764 bound_to 10752
  154.0211  135.2993  155.3360 H   0  0  0  0  0  0  0  0  0  0  0  0  # atno 10765 bound_to 10752
  140.3689  134.2044  155.7668 H   0  0  0  0  0  0  0  0  0  0  0  0  # atno 11005 bound_to 11000
  144.7970  139.6214  143.7088 LP  0  0  0  0  0  0  0  0  0  0  0  0  # atno 17320 bound_to 7965
  146.2421  139.6022  142.9485 LP  0  0  0  0  0  0  0  0  0  0  0  0  # atno 17321 bound_to 7965
  140.7262  143.6997  150.7855 LP  0  0  0  0  0  0  0  0  0  0  0  0  # atno 17342 bound_to 10162
  140.0577  143.5186  152.2643 LP  0  0  0  0  0  0  0  0  0  0  0  0  # atno 17343 bound_to 10162
  156.3134  130.7241  151.2138 LP  0  0  0  0  0  0  0  0  0  0  0  0  # atno 17370 bound_to 10713
  157.7434  131.0475  150.4948 LP  0  0  0  0  0  0  0  0  0  0  0  0  # atno 17371 bound_to 10713
  141.1961  133.8091  157.0688 LP  0  0  0  0  0  0  0  0  0  0  0  0  # atno 17394 bound_to 11000
  140.0567  134.9776  157.1233 LP  0  0  0  0  0  0  0  0  0  0  0  0  # atno 17395 bound_to 11000

$$$$
