#       Name:                AV-unprocessed.smi:160
#       Creating user name   scv26
#       Creation time:       Thu Mar 26 19:04:42 2020


#       File generated by GOLD software.
#

@<TRIPOS>MOLECULE
AV-unprocessed.smi:160
    41    42     1
SMALL
NO_CHARGES


@<TRIPOS>ATOM
      1 ****        -3.7989   1.0341   0.0640 N.am           1 S1                 0.0000
      2 ****        -3.8263   0.0227  -0.8102 C.2            1 S1                 0.0000
      3 ****        -4.8664  -0.3579  -1.3452 O.2            1 S1                 0.0000
      4 ****        -2.5060  -0.6325  -1.1078 C.2            1 S1                 0.0000
      5 ****        -2.4161  -1.6759  -1.9852 N.2            1 S1                 0.0000
      6 ****        -1.1095  -1.8958  -1.9133 C.2            1 S1                 0.0000
      7 ****        -0.4625  -1.0810  -1.0739 N.pl3          1 S1                 0.0000
      8 ****         0.9927  -1.0102  -0.7325 C.3            1 S1                 0.0000
      9 ****         1.3960   0.3172  -0.8904 O.3            1 S1                 0.0000
     10 ****         2.1313   0.7530   0.2507 C.3            1 S1                 0.0000
     11 ****         2.0354   2.2795   0.4208 C.3            1 S1                 0.0000
     12 ****         2.9754   2.9220  -0.4141 O.3            1 S1                 0.0000
     13 ****         1.5579  -0.0798   1.4059 C.3            1 S1                 0.0000
     14 ****         0.3819   0.5111   1.9329 O.3            1 S1                 0.0000
     15 ****         1.2916  -1.4170   0.7252 C.3            1 S1                 0.0000
     16 ****         0.2967  -2.1941   1.3717 O.3            1 S1                 0.0000
     17 ****        -1.3703  -0.2293  -0.5364 N.2            1 S1                 0.0000
     18 ****         1.4762  -1.6580  -1.4647 H              1 S1                 0.0000
     19 ****         3.1731   0.4568   0.1127 H              1 S1                 0.0000
     20 ****         2.2747  -0.1835   2.2211 H              1 S1                 0.0000
     21 ****         2.2189  -1.9912   0.7098 H              1 S1                 0.0000
     22 ****        -4.6524   1.5160   0.3051 H              1 S1                 0.0000
     23 ****        -2.9193   1.3096   0.4773 H              1 S1                 0.0000
     24 ****        -0.6141  -2.6685  -2.4825 H              1 S1                 0.0000
     25 ****         1.0290   2.6406   0.2059 H              1 S1                 0.0000
     26 ****         2.2699   2.5589   1.4484 H              1 S1                 0.0000
     27 ****         2.8939   3.8558  -0.2940 H              1 S1                 0.0000
     28 ****        -0.0243  -0.1104   2.5180 H              1 S1                 0.0000
     29 ****         0.1711  -2.9918   0.8809 H              1 S1                 0.0000
     30 ****        -5.7328   0.0931  -1.1311 LP             1 S1                 0.0000
     31 ****        -4.8456  -1.1184  -1.9942 LP             1 S1                 0.0000
     32 ****        -3.1236  -2.1363  -2.5214 LP             1 S1                 0.0000
     33 ****         0.5881   0.8958  -1.0024 LP             1 S1                 0.0000
     34 ****         1.9743   0.3913  -1.7029 LP             1 S1                 0.0000
     35 ****         2.7941   2.6876  -1.3692 LP             1 S1                 0.0000
     36 ****         3.8998   2.6297  -0.1689 LP             1 S1                 0.0000
     37 ****        -0.2468   0.7360   1.1885 LP             1 S1                 0.0000
     38 ****         0.6169   1.3440   2.4339 LP             1 S1                 0.0000
     39 ****        -0.5612  -1.6815   1.4068 LP             1 S1                 0.0000
     40 ****         0.5921  -2.4136   2.3015 LP             1 S1                 0.0000
     41 ****        -1.2255   0.5111   0.1200 LP             1 S1                 0.0000
@<TRIPOS>BOND
    1    1    2 am    
    2    1   22 1     
    3    1   23 1     
    4    2    3 2     
    5    2    4 1     
    6    4   17 2     
    7    4    5 1     
    8    5    6 2     
    9    6    7 1     
   10    6   24 1     
   11    7    8 1     
   12    7   17 1     
   13    8   18 1     
   14    8   15 1     
   15    8    9 1     
   16    9   10 1     
   17   10   19 1     
   18   10   11 1     
   19   10   13 1     
   20   11   12 1     
   21   11   25 1     
   22   11   26 1     
   23   12   27 1     
   24   13   20 1     
   25   13   14 1     
   26   13   15 1     
   27   14   28 1     
   28   15   21 1     
   29   15   16 1     
   30   16   29 1     
   31    3   30 1     
   32    3   31 1     
   33    5   32 1     
   34    9   33 1     
   35    9   34 1     
   36   12   35 1     
   37   12   36 1     
   38   14   37 1     
   39   14   38 1     
   40   16   39 1     
   41   16   40 1     
   42   17   41 1     
@<TRIPOS>SUBSTRUCTURE
      1 S1             1
@<TRIPOS>SET
LONE_PAIRS      STATIC     ATOMS    <user>   **** ""
12 30 31 32 33 34 35 36 37 38 39 40 41
DONOR_HYDROGENS      STATIC     ATOMS    <user>   **** ""
5 22 23 27 28 29
ATOM$BLUE        STATIC     ATOMS    COLORGROUP SYSTEM
12 30 31 32 33 34 35 36 37 38 39 40 41
ATOM$RED        STATIC     ATOMS    COLORGROUP SYSTEM
5 22 23 27 28 29
