AV-unprocessed.smi:703|AV-procd|sdf|3434|dock7
  -GOLD-   22720 0423D 1   1.00000     0.00000
 Structure written by MMmdl.
 37 38  0  0  0  0  0  0  0  0  3 V2000
  147.3488  139.4392  153.1067 C   0  0  0  0  0  0  0  0  0  0  0  0
  147.6721  138.5042  154.2799 C   0  0  0  0  0  0  0  0  0  0  0  0
  148.9258  137.7419  154.0620 N   0  3  1  0  0  0  0  0  0  0  0  0
  150.1643  138.5561  154.1037 C   0  0  0  0  0  0  0  0  0  0  0  0
  151.2420  137.6308  154.6776 C   0  0  1  0  0  0  0  0  0  0  0  0
  152.5065  138.3509  155.1921 C   0  0  0  0  0  0  0  0  0  0  0  0
  150.4620  136.7556  155.6761 C   0  0  1  0  0  0  0  0  0  0  0  0
  150.2656  137.4491  156.9442 N   0  5  0  0  0  0  0  0  0  0  0  0
  149.9908  136.5875  158.2886 S   0  0  0  0  0  0  0  0  0  0  0  0
  149.7567  135.1629  158.0024 O   0  0  0  0  0  0  0  0  0  0  0  0
  150.9417  136.9057  159.3661 O   0  0  0  0  0  0  0  0  0  0  0  0
  148.3667  137.2852  158.8119 C   0  0  0  0  0  0  0  0  0  0  0  0
  147.8423  136.5374  160.0056 C   0  0  0  0  0  0  0  0  0  0  0  0
  147.6241  135.1390  160.1497 C   0  0  0  0  0  0  0  0  0  0  0  0
  147.1500  135.0192  161.4239 C   0  0  0  0  0  0  0  0  0  0  0  0
  147.0880  136.2345  162.0241 O   0  0  0  0  0  0  0  0  0  0  0  0
  147.5355  137.1971  161.1121 N   0  0  0  0  0  0  0  0  0  0  0  0
  149.1021  136.5864  154.9799 C   0  0  0  0  0  0  0  0  0  0  0  0
  146.3911  139.9360  153.2637 H   0  0  0  0  0  0  0  0  0  0  0  0
  147.2862  138.8879  152.1682 H   0  0  0  0  0  0  0  0  0  0  0  0
  148.1044  140.2166  152.9909 H   0  0  0  0  0  0  0  0  0  0  0  0
  147.7382  139.0687  155.2113 H   0  0  0  0  0  0  0  0  0  0  0  0
  146.8504  137.7970  154.3989 H   0  0  0  0  0  0  0  0  0  0  0  0
  150.4248  138.9207  153.1095 H   0  0  0  0  0  0  0  0  0  0  0  0
  150.0261  139.4314  154.7443 H   0  0  0  0  0  0  0  0  0  0  0  0
  151.5612  136.9712  153.8688 H   0  0  0  0  0  0  0  0  0  0  0  0
  152.2826  139.0845  155.9686 H   0  0  0  0  0  0  0  0  0  0  0  0
  152.9953  138.8872  154.3786 H   0  0  0  0  0  0  0  0  0  0  0  0
  153.2358  137.6478  155.5984 H   0  0  0  0  0  0  0  0  0  0  0  0
  150.9490  135.7879  155.8011 H   0  0  0  0  0  0  0  0  0  0  0  0
  148.5065  138.3409  159.0431 H   0  0  0  0  0  0  0  0  0  0  0  0
  147.6800  137.2176  157.9678 H   0  0  0  0  0  0  0  0  0  0  0  0
  147.7836  134.3516  159.4279 H   0  0  0  0  0  0  0  0  0  0  0  0
  146.8302  134.1778  162.0204 H   0  0  0  0  0  0  0  0  0  0  0  0
  148.2783  136.4737  155.6877 H   0  0  0  0  0  0  0  0  0  0  0  0
  149.1137  135.6832  154.3689 H   0  0  0  0  0  0  0  0  0  0  0  0
  148.8715  137.3450  153.1352 H   0  0  0  0  0  0  0  0  0  0  0  0
  1  2  1  0  0  0  0
  1 19  1  0  0  0  0
  1 20  1  0  0  0  0
  1 21  1  0  0  0  0
  2  3  1  0  0  0  0
  2 22  1  0  0  0  0
  2 23  1  0  0  0  0
  3 18  1  0  0  0  0
  3  4  1  0  0  0  0
  3 37  1  0  0  0  0
  4  5  1  0  0  0  0
  4 24  1  0  0  0  0
  4 25  1  0  0  0  0
  5  6  1  0  0  0  0
  5  7  1  0  0  0  0
  5 26  1  0  0  0  0
  6 27  1  0  0  0  0
  6 28  1  0  0  0  0
  6 29  1  0  0  0  0
  7  8  1  0  0  0  0
  7 18  1  0  0  0  0
  7 30  1  0  0  0  0
  8  9  1  0  0  0  0
  9 10  2  0  0  0  0
  9 11  2  0  0  0  0
  9 12  1  0  0  0  0
 12 13  1  0  0  0  0
 12 31  1  0  0  0  0
 12 32  1  0  0  0  0
 13 17  2  0  0  0  0
 13 14  1  0  0  0  0
 14 15  2  0  0  0  0
 14 33  1  0  0  0  0
 15 16  1  0  0  0  0
 15 34  1  0  0  0  0
 16 17  1  0  0  0  0
 18 35  1  0  0  0  0
 18 36  1  0  0  0  0
M  CHG  1   3   1
M  CHG  1   8  -1
M  END
> <s_m_source_file>
AV-unprocessed.smi

> <i_m_source_file_index>
703

> <i_lp_mmshare_version>
43012

> <i_f3d_flags>
0

> <s_epik_input>
W0NIM11bQ0gyXU4xW0NIMl1bQ0BASF0oW0NIM10pW0NASF0oW0NIMl0xKVtOSF1TKD1PKSg9TylbQ0gyXWMyW2NIXVtjSF1vbjI=

> <s_epik_cmdline>
J2VwaWtfcHl0aG9uJywgJy1waCcsICc3LjAnLCAnLXRuJywgJzgnLCAnLW1hJywgJzIwMCcsICctbWV0YWxfYmluZGluZycsICctaW1hZScsICc8aW5maWxlLm1hZT4nLCAnLW9tYWUnLCAnPG91dGZpbGUubWFlPic=

> <r_epik_Ionization_Penalty>
3.62494

> <r_epik_Ionization_Penalty_Charging>
3.62494

> <r_epik_Ionization_Penalty_Neutral>
2.0321e-10

> <r_epik_State_Penalty>
3.62558

> <r_epik_Charging_Adjusted_Penalty>
7.25052

> <i_epik_Tot_Q>
0

> <i_epik_Tot_abs_Q>
2

> <r_epik_Metal_State_Penalty>
0.530836

> <b_epik_Metal_Only>
1

> <s_lp_Force_Field>
OPLS_2005

> <r_lp_Energy>
18.2255

> <b_lp_Chiralities_Consistent>
1

> <s_lp_Variant>
AV-unprocessed.smi:703-9

> <Gold.Version>
5.8.1

> <Gold.Id.Protein>
6NUR|6NUR_protein|mol2

> <Gold.PLP.Fitness>
41.5562

> <Gold.PLP.PLP>
-28.4383

> <Gold.PLP.part.hbond>
-4.6886

> <Gold.PLP.part.metal>
0.0000

> <Gold.PLP.part.buried>
-4.0423

> <Gold.PLP.part.nonpolar>
-19.5193

> <Gold.PLP.part.repulsive>
0.0000

> <Gold.PLP.ligand.clash>
0.0000

> <Gold.PLP.ligand.torsion>
1.0196

> <Gold.PLP.Chemscore.Hbond>
4.7040

> <Gold.PLP.Chemscore.CHOScore>
0.0000

> <Gold.PLP.Chemscore.Metal>
0.0000

> <Gold.Chemscore.Hbonds>
donor molecule, donor type, donor heavy atom, donor atom, acceptor molecule, acceptor atom, score
      L1  H     3    37       P1  7948  2.00
      P1  H  6896  6907       L1    11  0.01
      P1  H  6896  6909       L1    10  0.90
      P1  H  6931  6943       L1    17  0.88
      P1  H  6934  6947       L1    17  0.96

> <Gold.PLP.Chemscore.Internal.Correction>
1.0450

> <Gold.Rescore>
     Score         DG    S(hbond)    S(metal)    S(lipo)     H(rot)  DE(clash)    DE(int)     intcor
     16.84     -18.60       3.10        0.00      59.42       1.63       0.00       1.76       ----

> <Gold.Chemscore.Fitness>
16.8438

> <Gold.Chemscore.DG>
-18.6024

> <Gold.Chemscore.ZeroCoef>
-5.4800

> <Gold.Chemscore.Hbond>
3.0996

> <Gold.Chemscore.Metal>
0.0000

> <Gold.Chemscore.Lipo>
59.4198

> <Gold.Chemscore.Internal_Hbond>
0.0000

> <Gold.Chemscore.DEClash>
0.0009

> <Gold.Chemscore.DEInternal>
1.7577

> <Gold.Chemscore.Rot>
1.6338

> <Gold.Chemscore.Internal.Correction>
   9.000000E+99

> <Gold.Chemscore.Hbonds>
donor molecule, donor type, donor heavy atom, donor atom, acceptor molecule, acceptor atom, score
      L1  H     3    37       P1  7948  1.00
      P1  H  6896  6907       L1    11  0.01
      P1  H  6896  6909       L1    10  0.17
      P1  H  6931  6943       L1    17  0.56
      P1  H  6934  6947       L1    17  0.87

> <Gold.Chemscore.Hbond.Weighted>
-10.3528

> <Gold.Chemscore.Metal.Weighted>
-0.0000

> <Gold.Chemscore.Lipo.Weighted>
-6.9521

> <Gold.Chemscore.Internal_Hbond.Weighted>
0.0000

> <Gold.Chemscore.DEClash.Weighted>
0.0009

> <Gold.Chemscore.DEInternal.Weighted>
1.7577

> <Gold.Chemscore.Rot.Weighted>
4.1825

> <Gold.Chemscore.Internal.Correction.Weighted>
   9.000000E+99

> <Gold.Protein.RotatedTorsions>
[ 6907 6896 6895 6894 ] final   40.67 input  -60.11 | X-H torsion
[ 7974 7965 7964 7962 ] final -157.38 input  175.53 | X-H torsion
[ 8008 7997 7996 7995 ] final -163.04 input   59.86 | X-H torsion
[ 10167 10162 10161 10158 ] final   95.99 input  -65.29 | X-H torsion
[ 10718 10713 10712 10709 ] final   48.14 input   66.30 | X-H torsion
[ 10763 10752 10751 10750 ] final -146.91 input  -60.55 | X-H torsion
[ 11005 11000 10999 10996 ] final   -7.85 input  -57.11 | X-H torsion

> <Gold.Protein.ActiveResidues>
 VAL166  LYS551  ARG553  GLY616  TRP617  ASP618  TYR619  PRO620  LYS621  CYS622 
 ASP623  PHE694  ASN695  SER759  ASP760  ASP761  ALA762  ILE779  LEU786  VAL792 
 PHE793  MET794  SER795  GLU796  ALA797  LYS798  CYS799  TRP800  GLU811  SER814 

> <Gold.Protein.RotatedAtoms>
  152.1854  134.8718  160.0522 H   0  0  0  0  0  0  0  0  0  0  0  0  # atno 6907 bound_to 6896
  151.9627  133.3695  159.4049 H   0  0  0  0  0  0  0  0  0  0  0  0  # atno 6908 bound_to 6896
  150.6925  134.4147  159.5222 H   0  0  0  0  0  0  0  0  0  0  0  0  # atno 6909 bound_to 6896
  144.7551  140.3978  143.6018 H   0  0  0  0  0  0  0  0  0  0  0  0  # atno 7974 bound_to 7965
  155.8155  140.0912  157.1879 H   0  0  0  0  0  0  0  0  0  0  0  0  # atno 8008 bound_to 7997
  154.3979  140.1446  156.3497 H   0  0  0  0  0  0  0  0  0  0  0  0  # atno 8009 bound_to 7997
  155.8321  140.3442  155.5581 H   0  0  0  0  0  0  0  0  0  0  0  0  # atno 8010 bound_to 7997
  139.7936  144.6842  150.9859 H   0  0  0  0  0  0  0  0  0  0  0  0  # atno 10167 bound_to 10162
  157.4656  130.8223  149.7933 H   0  0  0  0  0  0  0  0  0  0  0  0  # atno 10718 bound_to 10713
  154.8313  135.3374  154.6735 H   0  0  0  0  0  0  0  0  0  0  0  0  # atno 10763 bound_to 10752
  153.7354  135.6949  153.4984 H   0  0  0  0  0  0  0  0  0  0  0  0  # atno 10764 bound_to 10752
  153.2282  135.4425  155.0517 H   0  0  0  0  0  0  0  0  0  0  0  0  # atno 10765 bound_to 10752
  140.7172  133.8859  155.8793 H   0  0  0  0  0  0  0  0  0  0  0  0  # atno 11005 bound_to 11000
  145.6808  139.1618  143.2702 LP  0  0  0  0  0  0  0  0  0  0  0  0  # atno 17320 bound_to 7965
  146.1551  140.6870  142.9304 LP  0  0  0  0  0  0  0  0  0  0  0  0  # atno 17321 bound_to 7965
  140.7820  143.4355  151.0630 LP  0  0  0  0  0  0  0  0  0  0  0  0  # atno 17342 bound_to 10162
  139.8030  143.8057  152.3165 LP  0  0  0  0  0  0  0  0  0  0  0  0  # atno 17343 bound_to 10162
  156.0049  130.3861  150.2468 LP  0  0  0  0  0  0  0  0  0  0  0  0  # atno 17370 bound_to 10713
  157.0648  131.0100  151.3210 LP  0  0  0  0  0  0  0  0  0  0  0  0  # atno 17371 bound_to 10713
  141.0035  134.1118  157.4294 LP  0  0  0  0  0  0  0  0  0  0  0  0  # atno 17394 bound_to 11000
  139.8857  135.0075  156.6451 LP  0  0  0  0  0  0  0  0  0  0  0  0  # atno 17395 bound_to 11000

$$$$
