AV-unprocessed.smi:2208|AV-procd|sdf|8945|dock1
  -GOLD-   2272012163D 1   1.00000     0.00000
 Structure written by MMmdl.
 35 36  0  0  0  0  0  0  0  0  1 V2000
  145.8816  141.9785  154.8410 C   0  0  0  0  0  0  0  0  0  0  0  0
  146.7711  140.7872  154.6283 C   0  0  0  0  0  0  0  0  0  0  0  0
  146.2218  139.5907  154.5089 N   0  0  0  0  0  0  0  0  0  0  0  0
  147.2808  138.6990  154.3163 O   0  0  0  0  0  0  0  0  0  0  0  0
  148.4409  139.4026  154.3241 C   0  0  0  0  0  0  0  0  0  0  0  0
  149.6946  138.6221  154.1184 C   0  0  0  0  0  0  0  0  0  0  0  0
  148.1917  140.7339  154.5171 C   0  0  0  0  0  0  0  0  0  0  0  0
  149.1809  141.8713  154.5749 C   0  0  0  0  0  0  0  0  0  0  0  0
  150.2250  141.5710  155.6493 C   0  0  0  0  0  0  0  0  0  0  0  0
  150.9821  140.6093  155.5212 O   0  0  0  0  0  0  0  0  0  0  0  0
  150.2747  142.4239  156.6838 N   0  0  0  0  0  0  0  0  0  0  0  0
  151.2999  142.4319  157.7219 C   0  0  0  0  0  0  0  0  0  0  0  0
  150.9929  143.4538  158.8354 C   0  0  2  0  0  0  0  0  0  0  0  0
  151.6894  144.8139  158.6981 C   0  0  0  0  0  0  0  0  0  0  0  0
  151.8156  145.2482  160.1405 C   0  0  0  0  0  0  0  0  0  0  0  0
  152.1183  143.9233  160.8300 C   0  0  0  0  0  0  0  0  0  0  0  0
  151.3627  142.9490  160.1182 O   0  0  0  0  0  0  0  0  0  0  0  0
  146.4574  142.8970  154.9485 H   0  0  0  0  0  0  0  0  0  0  0  0
  145.2783  141.8611  155.7415 H   0  0  0  0  0  0  0  0  0  0  0  0
  145.2013  142.1142  154.0001 H   0  0  0  0  0  0  0  0  0  0  0  0
  149.5423  137.8274  153.3876 H   0  0  0  0  0  0  0  0  0  0  0  0
  150.0228  138.1666  155.0524 H   0  0  0  0  0  0  0  0  0  0  0  0
  150.4978  139.2624  153.7532 H   0  0  0  0  0  0  0  0  0  0  0  0
  149.6810  142.0263  153.6187 H   0  0  0  0  0  0  0  0  0  0  0  0
  148.6859  142.8141  154.8117 H   0  0  0  0  0  0  0  0  0  0  0  0
  149.6035  143.1777  156.7045 H   0  0  0  0  0  0  0  0  0  0  0  0
  151.3457  141.4309  158.1511 H   0  0  0  0  0  0  0  0  0  0  0  0
  152.2836  142.6245  157.2910 H   0  0  0  0  0  0  0  0  0  0  0  0
  149.9156  143.6212  158.8715 H   0  0  0  0  0  0  0  0  0  0  0  0
  152.6848  144.7162  158.2652 H   0  0  0  0  0  0  0  0  0  0  0  0
  151.1249  145.5193  158.0878 H   0  0  0  0  0  0  0  0  0  0  0  0
  152.5919  145.9977  160.2971 H   0  0  0  0  0  0  0  0  0  0  0  0
  150.8675  145.6525  160.4973 H   0  0  0  0  0  0  0  0  0  0  0  0
  153.1769  143.6804  160.7356 H   0  0  0  0  0  0  0  0  0  0  0  0
  151.8652  143.9322  161.8902 H   0  0  0  0  0  0  0  0  0  0  0  0
  1  2  1  0  0  0  0
  1 18  1  0  0  0  0
  1 19  1  0  0  0  0
  1 20  1  0  0  0  0
  2  7  1  0  0  0  0
  2  3  2  0  0  0  0
  3  4  1  0  0  0  0
  4  5  1  0  0  0  0
  5  6  1  0  0  0  0
  5  7  2  0  0  0  0
  6 21  1  0  0  0  0
  6 22  1  0  0  0  0
  6 23  1  0  0  0  0
  7  8  1  0  0  0  0
  8  9  1  0  0  0  0
  8 24  1  0  0  0  0
  8 25  1  0  0  0  0
  9 10  2  0  0  0  0
  9 11  1  0  0  0  0
 11 12  1  0  0  0  0
 11 26  1  0  0  0  0
 12 13  1  0  0  0  0
 12 27  1  0  0  0  0
 12 28  1  0  0  0  0
 13 17  1  0  0  0  0
 13 14  1  0  0  0  0
 13 29  1  0  0  0  0
 14 15  1  0  0  0  0
 14 30  1  0  0  0  0
 14 31  1  0  0  0  0
 15 16  1  0  0  0  0
 15 32  1  0  0  0  0
 15 33  1  0  0  0  0
 16 17  1  0  0  0  0
 16 34  1  0  0  0  0
 16 35  1  0  0  0  0
M  END
> <s_m_source_file>
AV-unprocessed.smi

> <i_m_source_file_index>
2208

> <i_lp_mmshare_version>
43012

> <i_f3d_flags>
0

> <s_epik_input>
W0NIM11jMW5vYyhbQ0gzXSljMVtDSDJdQyg9TylbTkhdW0NIMl1bQ0BASF0yW0NIMl1bQ0gyXVtDSDJdTzI=

> <s_epik_cmdline>
J2VwaWtfcHl0aG9uJywgJy1waCcsICc3LjAnLCAnLXRuJywgJzgnLCAnLW1hJywgJzIwMCcsICctbWV0YWxfYmluZGluZycsICctaW1hZScsICc8aW5maWxlLm1hZT4nLCAnLW9tYWUnLCAnPG91dGZpbGUubWFlPic=

> <r_lp_tautomer_probability>
1

> <r_epik_Ionization_Penalty>
3.13901e-08

> <r_epik_Ionization_Penalty_Charging>
0

> <r_epik_Ionization_Penalty_Neutral>
3.13901e-08

> <r_epik_State_Penalty>
-0

> <r_epik_Charging_Adjusted_Penalty>
0

> <i_epik_Tot_Q>
0

> <i_epik_Tot_abs_Q>
0

> <r_epik_Metal_State_Penalty>
-0

> <b_epik_Metal_Only>
0

> <s_lp_Force_Field>
OPLS_2005

> <r_lp_Energy>
11.1183

> <b_lp_Chiralities_Consistent>
1

> <s_lp_Variant>
AV-unprocessed.smi:2208-1

> <Gold.Version>
5.8.1

> <Gold.Id.Protein>
6NUR|6NUR_protein|mol2

> <Gold.PLP.Fitness>
38.1435

> <Gold.PLP.PLP>
-34.0008

> <Gold.PLP.part.hbond>
-2.4638

> <Gold.PLP.part.metal>
0.0000

> <Gold.PLP.part.buried>
-2.2841

> <Gold.PLP.part.nonpolar>
-28.8216

> <Gold.PLP.part.repulsive>
0.3462

> <Gold.PLP.ligand.clash>
0.0000

> <Gold.PLP.ligand.torsion>
0.5686

> <Gold.PLP.Chemscore.Hbond>
1.7431

> <Gold.PLP.Chemscore.CHOScore>
0.0000

> <Gold.PLP.Chemscore.Metal>
0.0000

> <Gold.Chemscore.Hbonds>
donor molecule, donor type, donor heavy atom, donor atom, acceptor molecule, acceptor atom, score
      L1  H    11    26       P1  8028  0.88
      P1  H  7989  7998       L1    10  0.66

> <Gold.PLP.Chemscore.Internal.Correction>
0.0506

> <Gold.Rescore>
     Score         DG    S(hbond)    S(metal)    S(lipo)     H(rot)  DE(clash)    DE(int)     intcor
     14.01     -15.84       0.99        0.00      94.22       1.56       0.13       1.70       ----

> <Gold.Chemscore.Fitness>
14.0075

> <Gold.Chemscore.DG>
-15.8367

> <Gold.Chemscore.ZeroCoef>
-5.4800

> <Gold.Chemscore.Hbond>
0.9923

> <Gold.Chemscore.Metal>
0.0000

> <Gold.Chemscore.Lipo>
94.2153

> <Gold.Chemscore.Internal_Hbond>
0.0000

> <Gold.Chemscore.DEClash>
0.1308

> <Gold.Chemscore.DEInternal>
1.6984

> <Gold.Chemscore.Rot>
1.5551

> <Gold.Chemscore.Internal.Correction>
   9.000000E+99

> <Gold.Chemscore.Hbonds>
donor molecule, donor type, donor heavy atom, donor atom, acceptor molecule, acceptor atom, score
      L1  H    11    26       P1  8028  0.84
      P1  H  7989  7998       L1    10  0.19

> <Gold.Chemscore.Hbond.Weighted>
-3.3144

> <Gold.Chemscore.Metal.Weighted>
-0.0000

> <Gold.Chemscore.Lipo.Weighted>
-11.0232

> <Gold.Chemscore.Internal_Hbond.Weighted>
0.0000

> <Gold.Chemscore.DEClash.Weighted>
0.1308

> <Gold.Chemscore.DEInternal.Weighted>
1.6984

> <Gold.Chemscore.Rot.Weighted>
3.9809

> <Gold.Chemscore.Internal.Correction.Weighted>
   9.000000E+99

> <Gold.Protein.RotatedTorsions>
[ 6907 6896 6895 6894 ] final  178.16 input  -60.11 | X-H torsion
[ 7974 7965 7964 7962 ] final   51.41 input  175.53 | X-H torsion
[ 8008 7997 7996 7995 ] final  -35.15 input   59.86 | X-H torsion
[ 10167 10162 10161 10158 ] final   -9.07 input  -65.29 | X-H torsion
[ 10718 10713 10712 10709 ] final -168.54 input   66.30 | X-H torsion
[ 10763 10752 10751 10750 ] final -140.62 input  -60.55 | X-H torsion
[ 11005 11000 10999 10996 ] final -117.41 input  -57.11 | X-H torsion

> <Gold.Protein.ActiveResidues>
 VAL166  LYS551  ARG553  GLY616  TRP617  ASP618  TYR619  PRO620  LYS621  CYS622 
 ASP623  PHE694  ASN695  SER759  ASP760  ASP761  ALA762  ILE779  LEU786  VAL792 
 PHE793  MET794  SER795  GLU796  ALA797  LYS798  CYS799  TRP800  GLU811  SER814 

> <Gold.Protein.RotatedAtoms>
  151.6923  133.3311  159.3245 H   0  0  0  0  0  0  0  0  0  0  0  0  # atno 6907 bound_to 6896
  150.7773  134.6688  159.6389 H   0  0  0  0  0  0  0  0  0  0  0  0  # atno 6908 bound_to 6896
  152.3820  134.6579  160.0191 H   0  0  0  0  0  0  0  0  0  0  0  0  # atno 6909 bound_to 6896
  145.9916  139.4345  143.0070 H   0  0  0  0  0  0  0  0  0  0  0  0  # atno 7974 bound_to 7965
  154.4103  140.1665  156.2164 H   0  0  0  0  0  0  0  0  0  0  0  0  # atno 8008 bound_to 7997
  155.9400  140.3408  155.6297 H   0  0  0  0  0  0  0  0  0  0  0  0  # atno 8009 bound_to 7997
  155.7000  140.0744  157.2404 H   0  0  0  0  0  0  0  0  0  0  0  0  # atno 8010 bound_to 7997
  140.7077  143.5898  150.8905 H   0  0  0  0  0  0  0  0  0  0  0  0  # atno 10167 bound_to 10162
  156.6984  130.9187  151.3077 H   0  0  0  0  0  0  0  0  0  0  0  0  # atno 10718 bound_to 10713
  154.8572  135.3548  154.5737 H   0  0  0  0  0  0  0  0  0  0  0  0  # atno 10763 bound_to 10752
  153.6349  135.7000  153.5267 H   0  0  0  0  0  0  0  0  0  0  0  0  # atno 10764 bound_to 10752
  153.3018  135.4204  155.1219 H   0  0  0  0  0  0  0  0  0  0  0  0  # atno 10765 bound_to 10752
  141.0356  133.9914  157.3075 H   0  0  0  0  0  0  0  0  0  0  0  0  # atno 11005 bound_to 11000
  145.7621  140.9931  143.1194 LP  0  0  0  0  0  0  0  0  0  0  0  0  # atno 17320 bound_to 7965
  144.6891  139.9343  143.7473 LP  0  0  0  0  0  0  0  0  0  0  0  0  # atno 17321 bound_to 7965
  139.9624  143.6149  152.2998 LP  0  0  0  0  0  0  0  0  0  0  0  0  # atno 17342 bound_to 10162
  139.6706  144.7661  151.1790 LP  0  0  0  0  0  0  0  0  0  0  0  0  # atno 17343 bound_to 10162
  157.6982  130.9305  150.0707 LP  0  0  0  0  0  0  0  0  0  0  0  0  # atno 17370 bound_to 10713
  156.1746  130.3647  149.9117 LP  0  0  0  0  0  0  0  0  0  0  0  0  # atno 17371 bound_to 10713
  139.9238  135.0201  156.8162 LP  0  0  0  0  0  0  0  0  0  0  0  0  # atno 17394 bound_to 11000
  140.6328  133.9890  155.7670 LP  0  0  0  0  0  0  0  0  0  0  0  0  # atno 17395 bound_to 11000

$$$$
