AV-unprocessed.smi:1376|AV-procd|sdf|5593|dock8
  -GOLD-   22720 5193D 1   1.00000     0.00000
 Structure written by MMmdl.
 42 43  0  0  0  0  0  0  0  0  1 V2000
  151.3649  141.1560  157.5700 O   0  0  0  0  0  0  0  0  0  0  0  0
  150.9786  142.2342  157.1154 C   0  0  0  0  0  0  0  0  0  0  0  0
  151.6527  143.5543  157.5176 C   0  0  0  0  0  0  0  0  0  0  0  0
  151.9033  143.6733  158.9638 N   0  0  0  0  0  0  0  0  0  0  0  0
  152.6010  142.6147  159.5793 C   0  0  0  0  0  0  0  0  0  0  0  0
  152.8776  142.6151  160.8928 C   0  0  0  0  0  0  0  0  0  0  0  0
  152.4397  143.7421  161.6819 C   0  0  0  0  0  0  0  0  0  0  0  0
  151.7695  144.7588  161.1039 C   0  0  0  0  0  0  0  0  0  0  0  0
  151.4624  144.7611  159.6686 C   0  0  0  0  0  0  0  0  0  0  0  0
  150.8458  145.6828  159.1337 O   0  0  0  0  0  0  0  0  0  0  0  0
  149.9634  142.3406  156.2444 N   0  0  0  0  0  0  0  0  0  0  0  0
  149.1756  141.2248  155.7293 C   0  0  1  0  0  0  0  0  0  0  0  0
  148.0972  141.7517  154.7648 C   0  0  0  0  0  0  0  0  0  0  0  0
  147.2723  140.6031  154.1620 C   0  0  0  0  0  0  0  0  0  0  0  0
  148.1729  139.5589  153.4791 C   0  0  0  0  0  0  0  0  0  0  0  0
  149.2535  139.0237  154.4359 C   0  0  2  0  0  0  0  0  0  0  0  0
  148.5918  138.2765  155.4515 O   0  0  0  0  0  0  0  0  0  0  0  0
  149.4454  137.5507  156.3255 C   0  0  0  0  0  0  0  0  0  0  0  0
  149.0800  137.8884  157.7758 C   0  0  0  0  0  0  0  0  0  0  0  0
  149.8957  137.2320  158.6001 F   0  0  0  0  0  0  0  0  0  0  0  0
  149.2148  139.1966  157.9915 F   0  0  0  0  0  0  0  0  0  0  0  0
  147.8253  137.5191  158.0329 F   0  0  0  0  0  0  0  0  0  0  0  0
  150.0768  140.1918  155.0195 C   0  0  0  0  0  0  0  0  0  0  0  0
  152.5900  143.6445  156.9664 H   0  0  0  0  0  0  0  0  0  0  0  0
  151.0366  144.3843  157.1669 H   0  0  0  0  0  0  0  0  0  0  0  0
  152.8868  141.8079  158.9201 H   0  0  0  0  0  0  0  0  0  0  0  0
  153.4103  141.7931  161.3476 H   0  0  0  0  0  0  0  0  0  0  0  0
  152.6493  143.7694  162.7411 H   0  0  0  0  0  0  0  0  0  0  0  0
  151.4489  145.5930  161.7106 H   0  0  0  0  0  0  0  0  0  0  0  0
  149.7111  143.2634  155.9214 H   0  0  0  0  0  0  0  0  0  0  0  0
  148.6737  140.7402  156.5691 H   0  0  0  0  0  0  0  0  0  0  0  0
  147.4342  142.4435  155.2856 H   0  0  0  0  0  0  0  0  0  0  0  0
  148.5663  142.3198  153.9600 H   0  0  0  0  0  0  0  0  0  0  0  0
  146.6873  140.1241  154.9482 H   0  0  0  0  0  0  0  0  0  0  0  0
  146.5541  140.9996  153.4441 H   0  0  0  0  0  0  0  0  0  0  0  0
  147.5672  138.7347  153.1007 H   0  0  0  0  0  0  0  0  0  0  0  0
  148.6514  140.0112  152.6094 H   0  0  0  0  0  0  0  0  0  0  0  0
  149.9096  138.3572  153.8738 H   0  0  0  0  0  0  0  0  0  0  0  0
  149.3352  136.4786  156.1563 H   0  0  0  0  0  0  0  0  0  0  0  0
  150.4896  137.8067  156.1477 H   0  0  0  0  0  0  0  0  0  0  0  0
  150.6159  140.6830  154.2082 H   0  0  0  0  0  0  0  0  0  0  0  0
  150.8457  139.8205  155.6959 H   0  0  0  0  0  0  0  0  0  0  0  0
  1  2  2  0  0  0  0
  2  3  1  0  0  0  0
  2 11  1  0  0  0  0
  3  4  1  0  0  0  0
  3 24  1  0  0  0  0
  3 25  1  0  0  0  0
  4  9  1  0  0  0  0
  4  5  1  0  0  0  0
  5  6  2  0  0  0  0
  5 26  1  0  0  0  0
  6  7  1  0  0  0  0
  6 27  1  0  0  0  0
  7  8  2  0  0  0  0
  7 28  1  0  0  0  0
  8  9  1  0  0  0  0
  8 29  1  0  0  0  0
  9 10  2  0  0  0  0
 11 12  1  0  0  0  0
 11 30  1  0  0  0  0
 12 23  1  0  0  0  0
 12 13  1  0  0  0  0
 12 31  1  0  0  0  0
 13 14  1  0  0  0  0
 13 32  1  0  0  0  0
 13 33  1  0  0  0  0
 14 15  1  0  0  0  0
 14 34  1  0  0  0  0
 14 35  1  0  0  0  0
 15 16  1  0  0  0  0
 15 36  1  0  0  0  0
 15 37  1  0  0  0  0
 16 17  1  0  0  0  0
 16 23  1  0  0  0  0
 16 38  1  0  0  0  0
 17 18  1  0  0  0  0
 18 19  1  0  0  0  0
 18 39  1  0  0  0  0
 18 40  1  0  0  0  0
 19 20  1  0  0  0  0
 19 21  1  0  0  0  0
 19 22  1  0  0  0  0
 23 41  1  0  0  0  0
 23 42  1  0  0  0  0
M  END
> <s_m_source_file>
AV-unprocessed.smi

> <i_m_source_file_index>
1376

> <i_lp_mmshare_version>
43012

> <i_f3d_flags>
0

> <s_epik_input>
Tz1jMVtjSF1bY0hdW2NIXVtjSF1uMVtDSDJdQyg9TylbTkhdW0NAQEhdMltDSDJdW0NIMl1bQ0gyXVtDQEhdKFtDSDJdMilPW0NIMl1DKEYpKEYpRg==

> <s_epik_cmdline>
J2VwaWtfcHl0aG9uJywgJy1waCcsICc3LjAnLCAnLXRuJywgJzgnLCAnLW1hJywgJzIwMCcsICctbWV0YWxfYmluZGluZycsICctaW1hZScsICc8aW5maWxlLm1hZT4nLCAnLW9tYWUnLCAnPG91dGZpbGUubWFlPic=

> <r_lp_tautomer_probability>
1

> <r_epik_Ionization_Penalty>
4.08567e-07

> <r_epik_Ionization_Penalty_Charging>
3.90028e-07

> <r_epik_Ionization_Penalty_Neutral>
1.85393e-08

> <r_epik_State_Penalty>
-0

> <r_epik_Charging_Adjusted_Penalty>
3.90028e-07

> <i_epik_Tot_Q>
0

> <i_epik_Tot_abs_Q>
0

> <r_epik_Metal_State_Penalty>
-0

> <b_epik_Metal_Only>
0

> <s_lp_Force_Field>
OPLS_2005

> <r_lp_Energy>
20.214

> <b_lp_Chiralities_Consistent>
1

> <s_lp_Variant>
AV-unprocessed.smi:1376-4

> <Gold.Version>
5.8.1

> <Gold.Id.Protein>
6NUR|6NUR_protein|mol2

> <Gold.PLP.Fitness>
46.4262

> <Gold.PLP.PLP>
-44.6528

> <Gold.PLP.part.hbond>
-2.5500

> <Gold.PLP.part.metal>
0.0000

> <Gold.PLP.part.buried>
-0.9972

> <Gold.PLP.part.nonpolar>
-40.9249

> <Gold.PLP.part.repulsive>
0.3534

> <Gold.PLP.ligand.clash>
0.0000

> <Gold.PLP.ligand.torsion>
0.6281

> <Gold.PLP.Chemscore.Hbond>
1.0000

> <Gold.PLP.Chemscore.CHOScore>
0.0000

> <Gold.PLP.Chemscore.Metal>
0.0000

> <Gold.Chemscore.Hbonds>
donor molecule, donor type, donor heavy atom, donor atom, acceptor molecule, acceptor atom, score
      L1  H    11    30       P1  8028  1.00

> <Gold.PLP.Chemscore.Internal.Correction>
0.0297

> <Gold.Rescore>
     Score         DG    S(hbond)    S(metal)    S(lipo)     H(rot)  DE(clash)    DE(int)     intcor
     11.51     -14.68       0.99        0.00      98.17       2.18       0.37       2.80       ----

> <Gold.Chemscore.Fitness>
11.5081

> <Gold.Chemscore.DG>
-14.6806

> <Gold.Chemscore.ZeroCoef>
-5.4800

> <Gold.Chemscore.Hbond>
0.9863

> <Gold.Chemscore.Metal>
0.0000

> <Gold.Chemscore.Lipo>
98.1744

> <Gold.Chemscore.Internal_Hbond>
0.0000

> <Gold.Chemscore.DEClash>
0.3706

> <Gold.Chemscore.DEInternal>
2.8018

> <Gold.Chemscore.Rot>
2.1797

> <Gold.Chemscore.Internal.Correction>
   9.000000E+99

> <Gold.Chemscore.Hbonds>
donor molecule, donor type, donor heavy atom, donor atom, acceptor molecule, acceptor atom, score
      L1  H    11    30       P1  8028  1.00

> <Gold.Chemscore.Hbond.Weighted>
-3.2944

> <Gold.Chemscore.Metal.Weighted>
-0.0000

> <Gold.Chemscore.Lipo.Weighted>
-11.4864

> <Gold.Chemscore.Internal_Hbond.Weighted>
0.0000

> <Gold.Chemscore.DEClash.Weighted>
0.3706

> <Gold.Chemscore.DEInternal.Weighted>
2.8018

> <Gold.Chemscore.Rot.Weighted>
5.5802

> <Gold.Chemscore.Internal.Correction.Weighted>
   9.000000E+99

> <Gold.Protein.RotatedTorsions>
[ 6907 6896 6895 6894 ] final  -59.12 input  -60.11 | X-H torsion
[ 7974 7965 7964 7962 ] final   62.25 input  175.53 | X-H torsion
[ 8008 7997 7996 7995 ] final -113.31 input   59.86 | X-H torsion
[ 10167 10162 10161 10158 ] final  119.32 input  -65.29 | X-H torsion
[ 10718 10713 10712 10709 ] final -142.11 input   66.30 | X-H torsion
[ 10763 10752 10751 10750 ] final  162.33 input  -60.55 | X-H torsion
[ 11005 11000 10999 10996 ] final   23.69 input  -57.11 | X-H torsion

> <Gold.Protein.ActiveResidues>
 VAL166  LYS551  ARG553  GLY616  TRP617  ASP618  TYR619  PRO620  LYS621  CYS622 
 ASP623  PHE694  ASN695  SER759  ASP760  ASP761  ALA762  ILE779  LEU786  VAL792 
 PHE793  MET794  SER795  GLU796  ALA797  LYS798  CYS799  TRP800  GLU811  SER814 

> <Gold.Protein.RotatedAtoms>
  150.7955  134.7011  159.6549 H   0  0  0  0  0  0  0  0  0  0  0  0  # atno 6907 bound_to 6896
  152.4066  134.6193  160.0056 H   0  0  0  0  0  0  0  0  0  0  0  0  # atno 6908 bound_to 6896
  151.6448  133.3287  159.3174 H   0  0  0  0  0  0  0  0  0  0  0  0  # atno 6909 bound_to 6896
  145.8755  139.3407  143.0737 H   0  0  0  0  0  0  0  0  0  0  0  0  # atno 7974 bound_to 7965
  155.0187  140.0393  157.2428 H   0  0  0  0  0  0  0  0  0  0  0  0  # atno 8008 bound_to 7997
  154.7397  140.2746  155.6361 H   0  0  0  0  0  0  0  0  0  0  0  0  # atno 8009 bound_to 7997
  156.2861  140.2668  156.2121 H   0  0  0  0  0  0  0  0  0  0  0  0  # atno 8010 bound_to 7997
  139.6053  144.7068  151.2967 H   0  0  0  0  0  0  0  0  0  0  0  0  # atno 10167 bound_to 10162
  156.3420  130.7642  151.1780 H   0  0  0  0  0  0  0  0  0  0  0  0  # atno 10718 bound_to 10713
  154.2767  135.2764  155.2715 H   0  0  0  0  0  0  0  0  0  0  0  0  # atno 10763 bound_to 10752
  154.5254  135.5744  153.6718 H   0  0  0  0  0  0  0  0  0  0  0  0  # atno 10764 bound_to 10752
  152.9936  135.6214  154.2925 H   0  0  0  0  0  0  0  0  0  0  0  0  # atno 10765 bound_to 10752
  140.3669  134.2065  155.7669 H   0  0  0  0  0  0  0  0  0  0  0  0  # atno 11005 bound_to 11000
  145.9086  140.9195  143.0466 LP  0  0  0  0  0  0  0  0  0  0  0  0  # atno 17320 bound_to 7965
  144.6726  140.1129  143.7454 LP  0  0  0  0  0  0  0  0  0  0  0  0  # atno 17321 bound_to 7965
  140.7280  143.6946  150.7894 LP  0  0  0  0  0  0  0  0  0  0  0  0  # atno 17342 bound_to 10162
  140.0531  143.5230  152.2664 LP  0  0  0  0  0  0  0  0  0  0  0  0  # atno 17343 bound_to 10162
  157.7448  131.0452  150.4830 LP  0  0  0  0  0  0  0  0  0  0  0  0  # atno 17370 bound_to 10713
  156.5012  130.4117  149.6352 LP  0  0  0  0  0  0  0  0  0  0  0  0  # atno 17371 bound_to 10713
  141.1967  133.8077  157.0661 LP  0  0  0  0  0  0  0  0  0  0  0  0  # atno 17394 bound_to 11000
  140.0582  134.9769  157.1259 LP  0  0  0  0  0  0  0  0  0  0  0  0  # atno 17395 bound_to 11000

$$$$
