AV-unprocessed.smi:93|AV-procd|sdf|850|dock10
  -GOLD-   2262017293D 1   1.00000     0.00000
 Structure written by MMmdl.
 50 52  0  0  0  0  0  0  0  0  1 V2000
  147.5476  138.6871  157.3510 C   0  0  0  0  0  0  0  0  0  0  0  0
  146.6932  138.7499  156.1702 N   0  0  0  0  0  0  0  0  0  0  0  0
  146.5541  140.0182  155.4433 C   0  0  0  0  0  0  0  0  0  0  0  0
  147.8773  140.5936  154.8520 C   0  0  0  0  0  0  0  0  0  0  0  0
  147.5856  141.6840  153.7948 C   0  0  0  0  0  0  0  0  0  0  0  0
  148.6985  141.2086  156.0170 C   0  0  0  0  0  0  0  0  0  0  0  0
  148.0938  142.3667  156.5592 O   0  0  0  0  0  0  0  0  0  0  0  0
  148.7044  139.4506  154.2050 C   0  0  0  0  0  0  0  0  0  0  0  0
  149.8316  139.9241  153.4942 O   0  0  0  0  0  0  0  0  0  0  0  0
  146.0123  137.6363  155.7822 C   0  0  0  0  0  0  0  0  0  0  0  0
  145.7247  136.6896  156.7143 N   0  0  0  0  0  0  0  0  0  0  0  0
  145.0487  135.5870  156.3826 C   0  0  0  0  0  0  0  0  0  0  0  0
  144.5640  135.2337  155.1922 N   0  0  0  0  0  0  0  0  0  0  0  0
  144.8383  136.1780  154.2482 C   0  0  0  0  0  0  0  0  0  0  0  0
  145.5571  137.3922  154.4507 C   0  0  0  0  0  0  0  0  0  0  0  0
  145.6302  138.0917  153.2504 N   0  0  0  0  0  0  0  0  0  0  0  0
  144.9988  137.3377  152.3942 C   0  0  0  0  0  0  0  0  0  0  0  0
  144.4755  136.1757  152.9119 N   0  0  0  0  0  0  0  0  0  0  0  0
  143.7118  135.1667  152.1930 C   0  0  0  0  0  0  0  0  0  0  0  0
  144.4367  133.8036  152.0839 C   0  0  2  0  0  0  0  0  0  0  0  0
  144.6602  133.2925  153.3865 O   0  0  0  0  0  0  0  0  0  0  0  0
  145.7793  133.8999  151.3710 C   0  0  0  0  0  0  0  0  0  0  0  0
  145.9399  132.5092  150.7722 C   0  0  0  0  0  0  0  0  0  0  0  0
  144.6281  132.1979  150.3344 O   0  0  0  0  0  0  0  0  0  0  0  0
  143.6887  132.7324  151.2630 C   0  0  0  0  0  0  0  0  0  0  0  0
  147.0652  138.1211  158.1486 H   0  0  0  0  0  0  0  0  0  0  0  0
  147.7589  139.6845  157.7374 H   0  0  0  0  0  0  0  0  0  0  0  0
  148.4999  138.2126  157.1156 H   0  0  0  0  0  0  0  0  0  0  0  0
  145.8005  139.9220  154.6617 H   0  0  0  0  0  0  0  0  0  0  0  0
  146.1349  140.7509  156.1337 H   0  0  0  0  0  0  0  0  0  0  0  0
  148.5000  142.1807  153.4701 H   0  0  0  0  0  0  0  0  0  0  0  0
  146.9207  142.4549  154.1852 H   0  0  0  0  0  0  0  0  0  0  0  0
  147.1160  141.2664  152.9044 H   0  0  0  0  0  0  0  0  0  0  0  0
  148.8249  140.4813  156.8197 H   0  0  0  0  0  0  0  0  0  0  0  0
  149.6999  141.4859  155.6866 H   0  0  0  0  0  0  0  0  0  0  0  0
  148.4616  143.1252  156.1322 H   0  0  0  0  0  0  0  0  0  0  0  0
  149.0470  138.7475  154.9651 H   0  0  0  0  0  0  0  0  0  0  0  0
  148.0966  138.8847  153.4995 H   0  0  0  0  0  0  0  0  0  0  0  0
  149.7339  139.6873  152.5846 H   0  0  0  0  0  0  0  0  0  0  0  0
  144.8663  134.8907  157.1877 H   0  0  0  0  0  0  0  0  0  0  0  0
  144.8900  137.6171  151.3563 H   0  0  0  0  0  0  0  0  0  0  0  0
  142.7546  135.0428  152.7013 H   0  0  0  0  0  0  0  0  0  0  0  0
  143.4813  135.5520  151.1989 H   0  0  0  0  0  0  0  0  0  0  0  0
  143.8708  132.8642  153.6806 H   0  0  0  0  0  0  0  0  0  0  0  0
  145.7276  134.6306  150.5625 H   0  0  0  0  0  0  0  0  0  0  0  0
  146.6050  134.1852  152.0242 H   0  0  0  0  0  0  0  0  0  0  0  0
  146.6555  132.4817  149.9501 H   0  0  0  0  0  0  0  0  0  0  0  0
  146.2543  131.7893  151.5294 H   0  0  0  0  0  0  0  0  0  0  0  0
  143.2807  131.9382  151.8904 H   0  0  0  0  0  0  0  0  0  0  0  0
  142.8625  133.1534  150.6913 H   0  0  0  0  0  0  0  0  0  0  0  0
  1  2  1  0  0  0  0
  1 26  1  0  0  0  0
  1 27  1  0  0  0  0
  1 28  1  0  0  0  0
  2  3  1  0  0  0  0
  2 10  1  0  0  0  0
  3  4  1  0  0  0  0
  3 29  1  0  0  0  0
  3 30  1  0  0  0  0
  4  5  1  0  0  0  0
  4  6  1  0  0  0  0
  4  8  1  0  0  0  0
  5 31  1  0  0  0  0
  5 32  1  0  0  0  0
  5 33  1  0  0  0  0
  6  7  1  0  0  0  0
  6 34  1  0  0  0  0
  6 35  1  0  0  0  0
  7 36  1  0  0  0  0
  8  9  1  0  0  0  0
  8 37  1  0  0  0  0
  8 38  1  0  0  0  0
  9 39  1  0  0  0  0
 10 15  1  0  0  0  0
 10 11  2  0  0  0  0
 11 12  1  0  0  0  0
 12 13  2  0  0  0  0
 12 40  1  0  0  0  0
 13 14  1  0  0  0  0
 14 18  1  0  0  0  0
 14 15  2  0  0  0  0
 15 16  1  0  0  0  0
 16 17  2  0  0  0  0
 17 18  1  0  0  0  0
 17 41  1  0  0  0  0
 18 19  1  0  0  0  0
 19 20  1  0  0  0  0
 19 42  1  0  0  0  0
 19 43  1  0  0  0  0
 20 25  1  0  0  0  0
 20 21  1  0  0  0  0
 20 22  1  0  0  0  0
 21 44  1  0  0  0  0
 22 23  1  0  0  0  0
 22 45  1  0  0  0  0
 22 46  1  0  0  0  0
 23 24  1  0  0  0  0
 23 47  1  0  0  0  0
 23 48  1  0  0  0  0
 24 25  1  0  0  0  0
 25 49  1  0  0  0  0
 25 50  1  0  0  0  0
M  END
> <s_m_source_file>
AV-unprocessed.smi

> <i_m_source_file_index>
93

> <i_lp_mmshare_version>
43012

> <i_f3d_flags>
0

> <s_epik_input>
W09IXVtDSDJdQyhbQ0gzXSkoW0NIMl1bT0hdKVtDSDJdTihbQ0gzXSljKG5bY0hdbjEpYyhjMTIpbltjSF1uMltDSDJdW0NAQF0zKFtPSF0pW0NIMl1bQ0gyXU9bQ0gyXTM=

> <s_epik_cmdline>
J2VwaWtfcHl0aG9uJywgJy1waCcsICc3LjAnLCAnLXRuJywgJzgnLCAnLW1hJywgJzIwMCcsICctbWV0YWxfYmluZGluZycsICctaW1hZScsICc8aW5maWxlLm1hZT4nLCAnLW9tYWUnLCAnPG91dGZpbGUubWFlPic=

> <r_lp_tautomer_probability>
1

> <r_epik_Ionization_Penalty>
0.00325397

> <r_epik_Ionization_Penalty_Charging>
0

> <r_epik_Ionization_Penalty_Neutral>
0.00325397

> <r_epik_State_Penalty>
0.00225047

> <r_epik_Charging_Adjusted_Penalty>
0.00225047

> <i_epik_Tot_Q>
0

> <i_epik_Tot_abs_Q>
0

> <r_epik_Metal_State_Penalty>
-0

> <b_epik_Metal_Only>
0

> <s_lp_Force_Field>
OPLS_2005

> <r_lp_Energy>
41.2901

> <b_lp_Chiralities_Consistent>
1

> <s_lp_Variant>
AV-unprocessed.smi:93-2

> <Gold.Version>
5.8.1

> <Gold.Id.Protein>
6NUR|6NUR_protein|mol2

> <Gold.PLP.Fitness>
39.7979

> <Gold.PLP.PLP>
-26.6566

> <Gold.PLP.part.hbond>
-3.5992

> <Gold.PLP.part.metal>
0.0000

> <Gold.PLP.part.buried>
-5.2654

> <Gold.PLP.part.nonpolar>
-18.1632

> <Gold.PLP.part.repulsive>
0.4031

> <Gold.PLP.ligand.clash>
0.0000

> <Gold.PLP.ligand.torsion>
0.6121

> <Gold.PLP.Chemscore.Hbond>
3.7200

> <Gold.PLP.Chemscore.CHOScore>
1.0000

> <Gold.PLP.Chemscore.Metal>
0.0000

> <Gold.Chemscore.Hbonds>
donor molecule, donor type, donor heavy atom, donor atom, acceptor molecule, acceptor atom, score
      L1  H     7    36       P1  8028  1.00
      L1  H     9    39       P1  7957  0.84
      L1  H    21    44       P1 10957  1.00
      P1  H  7989  7998       L1     9  0.66
      L1  C    17    41       P1 10171  1.00

> <Gold.PLP.Chemscore.Internal.Correction>
0.2054

> <Gold.Rescore>
     Score         DG    S(hbond)    S(metal)    S(lipo)     H(rot)  DE(clash)    DE(int)     intcor
      8.13     -10.58       3.15        0.00      54.43       4.60       0.04       2.42       ----

> <Gold.Chemscore.Fitness>
8.1265

> <Gold.Chemscore.DG>
-10.5829

> <Gold.Chemscore.ZeroCoef>
-5.4800

> <Gold.Chemscore.Hbond>
3.1475

> <Gold.Chemscore.Metal>
0.0000

> <Gold.Chemscore.Lipo>
54.4347

> <Gold.Chemscore.Internal_Hbond>
0.0000

> <Gold.Chemscore.DEClash>
0.0404

> <Gold.Chemscore.DEInternal>
2.4160

> <Gold.Chemscore.Rot>
4.6010

> <Gold.Chemscore.Internal.Correction>
   9.000000E+99

> <Gold.Chemscore.Hbonds>
donor molecule, donor type, donor heavy atom, donor atom, acceptor molecule, acceptor atom, score
      L1  H     7    36       P1  8028  0.91
      L1  H     9    39       P1  7957  0.79
      L1  H    21    44       P1 10957  0.81
      P1  H  7989  7998       L1     9  0.19

> <Gold.Chemscore.Hbond.Weighted>
-10.5128

> <Gold.Chemscore.Metal.Weighted>
-0.0000

> <Gold.Chemscore.Lipo.Weighted>
-6.3689

> <Gold.Chemscore.Internal_Hbond.Weighted>
0.0000

> <Gold.Chemscore.DEClash.Weighted>
0.0404

> <Gold.Chemscore.DEInternal.Weighted>
2.4160

> <Gold.Chemscore.Rot.Weighted>
11.7787

> <Gold.Chemscore.Internal.Correction.Weighted>
   9.000000E+99

> <Gold.Protein.RotatedTorsions>
[ 6907 6896 6895 6894 ] final  129.85 input  -60.11 | X-H torsion
[ 7974 7965 7964 7962 ] final  -91.00 input  175.53 | X-H torsion
[ 8008 7997 7996 7995 ] final  131.75 input   59.86 | X-H torsion
[ 10167 10162 10161 10158 ] final -112.83 input  -65.29 | X-H torsion
[ 10718 10713 10712 10709 ] final   23.98 input   66.30 | X-H torsion
[ 10763 10752 10751 10750 ] final  164.04 input  -60.55 | X-H torsion
[ 11005 11000 10999 10996 ] final   -5.51 input  -57.11 | X-H torsion

> <Gold.Protein.ActiveResidues>
 VAL166  LYS551  ARG553  GLY616  TRP617  ASP618  TYR619  PRO620  LYS621  CYS622 
 ASP623  PHE694  ASN695  SER759  ASP760  ASP761  ALA762  ILE779  LEU786  VAL792 
 PHE793  MET794  SER795  GLU796  ALA797  LYS798  CYS799  TRP800  GLU811  SER814 

> <Gold.Protein.RotatedAtoms>
  152.3583  133.6265  159.5995 H   0  0  0  0  0  0  0  0  0  0  0  0  # atno 6907 bound_to 6896
  150.7584  133.9464  159.3481 H   0  0  0  0  0  0  0  0  0  0  0  0  # atno 6908 bound_to 6896
  151.7306  135.0876  160.0350 H   0  0  0  0  0  0  0  0  0  0  0  0  # atno 6909 bound_to 6896
  145.4190  140.9550  143.2192 H   0  0  0  0  0  0  0  0  0  0  0  0  # atno 7974 bound_to 7965
  156.2974  140.2563  156.2977 H   0  0  0  0  0  0  0  0  0  0  0  0  # atno 8008 bound_to 7997
  154.9448  140.0395  157.2133 H   0  0  0  0  0  0  0  0  0  0  0  0  # atno 8009 bound_to 7997
  154.8092  140.2841  155.5870 H   0  0  0  0  0  0  0  0  0  0  0  0  # atno 8010 bound_to 7997
  140.1184  143.4465  152.1707 H   0  0  0  0  0  0  0  0  0  0  0  0  # atno 10167 bound_to 10162
  157.1735  130.6770  149.6086 H   0  0  0  0  0  0  0  0  0  0  0  0  # atno 10718 bound_to 10713
  154.3029  135.2758  155.2603 H   0  0  0  0  0  0  0  0  0  0  0  0  # atno 10763 bound_to 10752
  154.5032  135.5802  153.6550 H   0  0  0  0  0  0  0  0  0  0  0  0  # atno 10764 bound_to 10752
  152.9898  135.6163  154.3200 H   0  0  0  0  0  0  0  0  0  0  0  0  # atno 10765 bound_to 10752
  140.6920  133.9063  155.8624 H   0  0  0  0  0  0  0  0  0  0  0  0  # atno 11005 bound_to 11000
  144.8258  139.5712  143.6966 LP  0  0  0  0  0  0  0  0  0  0  0  0  # atno 17320 bound_to 7965
  146.2666  139.6535  142.9325 LP  0  0  0  0  0  0  0  0  0  0  0  0  # atno 17321 bound_to 7965
  139.5582  144.7387  151.4233 LP  0  0  0  0  0  0  0  0  0  0  0  0  # atno 17342 bound_to 10162
  140.6886  143.7915  150.7222 LP  0  0  0  0  0  0  0  0  0  0  0  0  # atno 17343 bound_to 10162
  155.9735  130.4671  150.6312 LP  0  0  0  0  0  0  0  0  0  0  0  0  # atno 17370 bound_to 10713
  157.4021  131.0811  151.1299 LP  0  0  0  0  0  0  0  0  0  0  0  0  # atno 17371 bound_to 10713
  141.0234  134.0857  157.4096 LP  0  0  0  0  0  0  0  0  0  0  0  0  # atno 17394 bound_to 11000
  139.8921  135.0122  156.6826 LP  0  0  0  0  0  0  0  0  0  0  0  0  # atno 17395 bound_to 11000

$$$$
