AV-unprocessed.smi:3324|AV-procd|sdf|12781|dock5
  -GOLD-   2272019123D 1   1.00000     0.00000
 Structure written by MMmdl.
 31 31  0  0  0  0  0  0  0  0  2 V2000
  144.5911  137.4182  153.0939 O   0  0  0  0  0  0  0  0  0  0  0  0
  145.6782  137.2997  152.5274 C   0  0  0  0  0  0  0  0  0  0  0  0
  146.4557  138.5322  152.0607 C   0  0  0  0  0  0  0  0  0  0  0  0
  147.8366  138.5577  152.5859 N   0  3  0  0  0  0  0  0  0  0  0  0
  147.9440  139.0433  153.9747 C   0  0  0  0  0  0  0  0  0  0  0  0
  149.1452  139.9860  154.1373 C   0  0  0  0  0  0  0  0  0  0  0  0
  150.3661  139.2570  154.4209 N   0  0  0  0  0  0  0  0  0  0  0  0
  150.5868  137.8966  154.3704 C   0  0  0  0  0  0  0  0  0  0  0  0
  151.8887  137.6836  154.7232 C   0  0  0  0  0  0  0  0  0  0  0  0
  152.3889  138.9913  154.9771 C   0  0  0  0  0  0  0  0  0  0  0  0
  151.4747  139.9310  154.7952 N   0  0  0  0  0  0  0  0  0  0  0  0
  146.2539  136.1137  152.2803 N   0  0  0  0  0  0  0  0  0  0  0  0
  145.6813  134.8137  152.6176 C   0  0  0  0  0  0  0  0  0  0  0  0
  145.3879  133.9712  151.3645 C   0  0  0  0  0  0  0  0  0  0  0  0
  144.7039  134.7096  150.4917 F   0  0  0  0  0  0  0  0  0  0  0  0
  146.5196  133.5680  150.7866 F   0  0  0  0  0  0  0  0  0  0  0  0
  144.6568  132.9045  151.6884 F   0  0  0  0  0  0  0  0  0  0  0  0
  146.4816  138.5441  150.9703 H   0  0  0  0  0  0  0  0  0  0  0  0
  145.9282  139.4298  152.3869 H   0  0  0  0  0  0  0  0  0  0  0  0
  148.2101  137.6200  152.5420 H   0  0  0  0  0  0  0  0  0  0  0  0
  147.0237  139.5613  154.2480 H   0  0  0  0  0  0  0  0  0  0  0  0
  148.0438  138.1870  154.6432 H   0  0  0  0  0  0  0  0  0  0  0  0
  149.2967  140.5742  153.2308 H   0  0  0  0  0  0  0  0  0  0  0  0
  148.9667  140.6936  154.9484 H   0  0  0  0  0  0  0  0  0  0  0  0
  149.8093  137.2007  154.0909 H   0  0  0  0  0  0  0  0  0  0  0  0
  152.4054  136.7377  154.7913 H   0  0  0  0  0  0  0  0  0  0  0  0
  153.3818  139.2839  155.2859 H   0  0  0  0  0  0  0  0  0  0  0  0
  147.1473  136.1053  151.8093 H   0  0  0  0  0  0  0  0  0  0  0  0
  146.3970  134.2890  153.2512 H   0  0  0  0  0  0  0  0  0  0  0  0
  144.7762  134.9350  153.2152 H   0  0  0  0  0  0  0  0  0  0  0  0
  148.3937  139.1517  151.9882 H   0  0  0  0  0  0  0  0  0  0  0  0
  1  2  2  0  0  0  0
  2  3  1  0  0  0  0
  2 12  1  0  0  0  0
  3  4  1  0  0  0  0
  3 18  1  0  0  0  0
  3 19  1  0  0  0  0
  4  5  1  0  0  0  0
  4 20  1  0  0  0  0
  4 31  1  0  0  0  0
  5  6  1  0  0  0  0
  5 21  1  0  0  0  0
  5 22  1  0  0  0  0
  6  7  1  0  0  0  0
  6 23  1  0  0  0  0
  6 24  1  0  0  0  0
  7 11  1  0  0  0  0
  7  8  1  0  0  0  0
  8  9  2  0  0  0  0
  8 25  1  0  0  0  0
  9 10  1  0  0  0  0
  9 26  1  0  0  0  0
 10 11  2  0  0  0  0
 10 27  1  0  0  0  0
 12 13  1  0  0  0  0
 12 28  1  0  0  0  0
 13 14  1  0  0  0  0
 13 29  1  0  0  0  0
 13 30  1  0  0  0  0
 14 15  1  0  0  0  0
 14 16  1  0  0  0  0
 14 17  1  0  0  0  0
M  CHG  1   4   1
M  END
> <s_m_source_file>
AV-unprocessed.smi

> <i_m_source_file_index>
3324

> <i_lp_mmshare_version>
43012

> <i_f3d_flags>
0

> <s_epik_input>
RkMoRikoRilbQ0gyXVtOSF1DKD1PKVtDSDJdW05IXVtDSDJdW0NIMl1uMVtjSF1bY0hdW2NIXW4x

> <s_epik_cmdline>
J2VwaWtfcHl0aG9uJywgJy1waCcsICc3LjAnLCAnLXRuJywgJzgnLCAnLW1hJywgJzIwMCcsICctbWV0YWxfYmluZGluZycsICctaW1hZScsICc8aW5maWxlLm1hZT4nLCAnLW9tYWUnLCAnPG91dGZpbGUubWFlPic=

> <r_lp_tautomer_probability>
1

> <r_epik_Ionization_Penalty>
0.310414

> <r_epik_Ionization_Penalty_Charging>
0.310394

> <r_epik_Ionization_Penalty_Neutral>
2.02819e-05

> <r_epik_State_Penalty>
0.304907

> <r_epik_Charging_Adjusted_Penalty>
0.6153

> <i_epik_Tot_Q>
1

> <i_epik_Tot_abs_Q>
1

> <r_epik_Metal_State_Penalty>
0.315528

> <b_epik_Metal_Only>
0

> <s_lp_Force_Field>
OPLS_2005

> <r_lp_Energy>
1.82642

> <b_lp_Chiralities_Consistent>
1

> <s_lp_Variant>
AV-unprocessed.smi:3324-1

> <Gold.Version>
5.8.1

> <Gold.Id.Protein>
6NUR|6NUR_protein|mol2

> <Gold.PLP.Fitness>
51.8898

> <Gold.PLP.PLP>
-35.3558

> <Gold.PLP.part.hbond>
-4.0000

> <Gold.PLP.part.metal>
0.0000

> <Gold.PLP.part.buried>
-2.9101

> <Gold.PLP.part.nonpolar>
-29.3596

> <Gold.PLP.part.repulsive>
0.3488

> <Gold.PLP.ligand.clash>
0.0000

> <Gold.PLP.ligand.torsion>
0.7634

> <Gold.PLP.Chemscore.Hbond>
5.0000

> <Gold.PLP.Chemscore.CHOScore>
0.9909

> <Gold.PLP.Chemscore.Metal>
0.0000

> <Gold.Chemscore.Hbonds>
donor molecule, donor type, donor heavy atom, donor atom, acceptor molecule, acceptor atom, score
      L1  H     4    20       P1  7948  2.00
      L1  H     4    31       P1  7957  1.00
      L1  H    12    28       P1  7948  1.00
      P1  H  7989  7998       L1    11  0.95
      L1  C     8    25       P1  7948  0.96

> <Gold.PLP.Chemscore.Internal.Correction>
0.0880

> <Gold.Rescore>
     Score         DG    S(hbond)    S(metal)    S(lipo)     H(rot)  DE(clash)    DE(int)     intcor
     15.53     -16.21       3.65        0.00      51.01       2.91       0.03       0.65       ----

> <Gold.Chemscore.Fitness>
15.5306

> <Gold.Chemscore.DG>
-16.2078

> <Gold.Chemscore.ZeroCoef>
-5.4800

> <Gold.Chemscore.Hbond>
3.6547

> <Gold.Chemscore.Metal>
0.0000

> <Gold.Chemscore.Lipo>
51.0118

> <Gold.Chemscore.Internal_Hbond>
0.0000

> <Gold.Chemscore.DEClash>
0.0255

> <Gold.Chemscore.DEInternal>
0.6517

> <Gold.Chemscore.Rot>
2.9091

> <Gold.Chemscore.Internal.Correction>
   9.000000E+99

> <Gold.Chemscore.Hbonds>
donor molecule, donor type, donor heavy atom, donor atom, acceptor molecule, acceptor atom, score
      L1  H     4    20       P1  7948  0.99
      L1  H     4    31       P1  7957  0.99
      L1  H    12    28       P1  7948  0.96
      P1  H  7989  7998       L1    11  0.20

> <Gold.Chemscore.Hbond.Weighted>
-12.2066

> <Gold.Chemscore.Metal.Weighted>
-0.0000

> <Gold.Chemscore.Lipo.Weighted>
-5.9684

> <Gold.Chemscore.Internal_Hbond.Weighted>
0.0000

> <Gold.Chemscore.DEClash.Weighted>
0.0255

> <Gold.Chemscore.DEInternal.Weighted>
0.6517

> <Gold.Chemscore.Rot.Weighted>
7.4472

> <Gold.Chemscore.Internal.Correction.Weighted>
   9.000000E+99

> <Gold.Protein.RotatedTorsions>
[ 6907 6896 6895 6894 ] final   67.24 input  -60.11 | X-H torsion
[ 7974 7965 7964 7962 ] final  -23.50 input  175.53 | X-H torsion
[ 8008 7997 7996 7995 ] final  166.86 input   59.86 | X-H torsion
[ 10167 10162 10161 10158 ] final -107.80 input  -65.29 | X-H torsion
[ 10718 10713 10712 10709 ] final  128.32 input   66.30 | X-H torsion
[ 10763 10752 10751 10750 ] final   44.06 input  -60.55 | X-H torsion
[ 11005 11000 10999 10996 ] final    2.49 input  -57.11 | X-H torsion

> <Gold.Protein.ActiveResidues>
 VAL166  LYS551  ARG553  GLY616  TRP617  ASP618  TYR619  PRO620  LYS621  CYS622 
 ASP623  PHE694  ASN695  SER759  ASP760  ASP761  ALA762  ILE779  LEU786  VAL792 
 PHE793  MET794  SER795  GLU796  ALA797  LYS798  CYS799  TRP800  GLU811  SER814 

> <Gold.Protein.RotatedAtoms>
  152.4538  134.5337  159.9818 H   0  0  0  0  0  0  0  0  0  0  0  0  # atno 6907 bound_to 6896
  151.5403  133.3428  159.2942 H   0  0  0  0  0  0  0  0  0  0  0  0  # atno 6908 bound_to 6896
  150.8475  134.7820  159.7045 H   0  0  0  0  0  0  0  0  0  0  0  0  # atno 6909 bound_to 6896
  146.1612  140.4625  142.8570 H   0  0  0  0  0  0  0  0  0  0  0  0  # atno 7974 bound_to 7965
  156.1683  140.1632  156.8492 H   0  0  0  0  0  0  0  0  0  0  0  0  # atno 8008 bound_to 7997
  154.5230  140.0774  156.8242 H   0  0  0  0  0  0  0  0  0  0  0  0  # atno 8009 bound_to 7997
  155.3566  140.3393  155.4242 H   0  0  0  0  0  0  0  0  0  0  0  0  # atno 8010 bound_to 7997
  140.1730  143.4027  152.1340 H   0  0  0  0  0  0  0  0  0  0  0  0  # atno 10167 bound_to 10162
  157.5255  131.1098  150.9089 H   0  0  0  0  0  0  0  0  0  0  0  0  # atno 10718 bound_to 10713
  152.9848  135.6082  154.3212 H   0  0  0  0  0  0  0  0  0  0  0  0  # atno 10763 bound_to 10752
  154.2922  135.2774  155.2651 H   0  0  0  0  0  0  0  0  0  0  0  0  # atno 10764 bound_to 10752
  154.4942  135.5884  153.6538 H   0  0  0  0  0  0  0  0  0  0  0  0  # atno 10765 bound_to 10752
  140.6038  133.9812  155.8144 H   0  0  0  0  0  0  0  0  0  0  0  0  # atno 11005 bound_to 11000
  144.8029  140.6247  143.6466 LP  0  0  0  0  0  0  0  0  0  0  0  0  # atno 17320 bound_to 7965
  145.4583  139.1515  143.3880 LP  0  0  0  0  0  0  0  0  0  0  0  0  # atno 17321 bound_to 7965
  139.5329  144.7179  151.4992 LP  0  0  0  0  0  0  0  0  0  0  0  0  # atno 17342 bound_to 10162
  140.6569  143.8579  150.6845 LP  0  0  0  0  0  0  0  0  0  0  0  0  # atno 17343 bound_to 10162
  156.9686  130.5482  149.5289 LP  0  0  0  0  0  0  0  0  0  0  0  0  # atno 17370 bound_to 10713
  156.0384  130.5469  150.8710 LP  0  0  0  0  0  0  0  0  0  0  0  0  # atno 17371 bound_to 10713
  141.0854  133.9998  157.3321 LP  0  0  0  0  0  0  0  0  0  0  0  0  # atno 17394 bound_to 11000
  139.9221  135.0201  156.8102 LP  0  0  0  0  0  0  0  0  0  0  0  0  # atno 17395 bound_to 11000

$$$$
