AV-unprocessed.smi:652|AV-procd|sdf|3201|dock8
  -GOLD-   22720 0133D 1   1.00000     0.00000
 Structure written by MMmdl.
 49 50  0  0  0  0  0  0  0  0  3 V2000
  145.6064  136.6108  161.8213 C   0  0  0  0  0  0  0  0  0  0  0  0
  146.2975  135.3370  161.3169 C   0  0  0  0  0  0  0  0  0  0  0  0
  147.2813  134.7777  162.3571 C   0  0  0  0  0  0  0  0  0  0  0  0
  146.9855  135.6234  160.0608 N   0  0  0  0  0  0  0  0  0  0  0  0
  147.9507  136.5410  159.8938 C   0  0  0  0  0  0  0  0  0  0  0  0
  148.3642  137.2598  160.8040 O   0  0  0  0  0  0  0  0  0  0  0  0
  148.5220  136.6637  158.4772 C   0  0  0  0  0  0  0  0  0  0  0  0
  149.7549  137.5884  158.3933 C   0  0  0  0  0  0  0  0  0  0  0  0
  149.6597  138.5699  157.2834 N   0  3  2  0  0  0  0  0  0  0  0  0
  149.9628  137.9580  155.9682 C   0  0  0  0  0  0  0  0  0  0  0  0
  149.8117  138.9942  154.8435 C   0  0  0  0  0  0  0  0  0  0  0  0
  150.6574  140.1068  155.1074 O   0  0  0  0  0  0  0  0  0  0  0  0
  150.3167  140.7728  156.3180 C   0  0  2  0  0  0  0  0  0  0  0  0
  151.2304  142.0035  156.4374 C   0  0  0  0  0  0  0  0  0  0  0  0
  150.5239  143.1648  156.9584 N   0  0  0  0  0  0  0  0  0  0  0  0
  150.9736  143.8179  158.1136 C   0  0  0  0  0  0  0  0  0  0  0  0
  152.1133  143.4268  158.8542 C   0  0  0  0  0  0  0  0  0  0  0  0
  152.4538  144.1719  159.9958 C   0  0  0  0  0  0  0  0  0  0  0  0
  151.6347  145.2651  160.3289 C   0  0  0  0  0  0  0  0  0  0  0  0
  150.5488  145.6228  159.6077 N   0  0  0  0  0  0  0  0  0  0  0  0
  150.2488  144.8901  158.5209 N   0  3  0  0  0  0  0  0  0  0  0  0
  150.4883  139.7841  157.4916 C   0  0  0  0  0  0  0  0  0  0  0  0
  145.0565  136.4187  162.7430 H   0  0  0  0  0  0  0  0  0  0  0  0
  144.8943  136.9897  161.0875 H   0  0  0  0  0  0  0  0  0  0  0  0
  146.3290  137.4018  162.0247 H   0  0  0  0  0  0  0  0  0  0  0  0
  145.5231  134.5899  161.1335 H   0  0  0  0  0  0  0  0  0  0  0  0
  146.7743  134.5633  163.2983 H   0  0  0  0  0  0  0  0  0  0  0  0
  148.0841  135.4854  162.5663 H   0  0  0  0  0  0  0  0  0  0  0  0
  147.7372  133.8485  162.0139 H   0  0  0  0  0  0  0  0  0  0  0  0
  146.7041  135.0786  159.2584 H   0  0  0  0  0  0  0  0  0  0  0  0
  148.7912  135.6656  158.1282 H   0  0  0  0  0  0  0  0  0  0  0  0
  147.7248  137.0230  157.8266 H   0  0  0  0  0  0  0  0  0  0  0  0
  149.9118  138.1138  159.3370 H   0  0  0  0  0  0  0  0  0  0  0  0
  150.6409  136.9718  158.2302 H   0  0  0  0  0  0  0  0  0  0  0  0
  150.9788  137.5601  155.9750 H   0  0  0  0  0  0  0  0  0  0  0  0
  149.2909  137.1187  155.7844 H   0  0  0  0  0  0  0  0  0  0  0  0
  150.0954  138.5542  153.8873 H   0  0  0  0  0  0  0  0  0  0  0  0
  148.7749  139.3211  154.7487 H   0  0  0  0  0  0  0  0  0  0  0  0
  149.2784  141.1049  156.2561 H   0  0  0  0  0  0  0  0  0  0  0  0
  152.0846  141.7732  157.0753 H   0  0  0  0  0  0  0  0  0  0  0  0
  151.6239  142.2563  155.4520 H   0  0  0  0  0  0  0  0  0  0  0  0
  149.7172  143.5142  156.4618 H   0  0  0  0  0  0  0  0  0  0  0  0
  152.7201  142.5809  158.5671 H   0  0  0  0  0  0  0  0  0  0  0  0
  153.3139  143.9158  160.5968 H   0  0  0  0  0  0  0  0  0  0  0  0
  151.8546  145.8700  161.1964 H   0  0  0  0  0  0  0  0  0  0  0  0
  150.2038  140.2746  158.4218 H   0  0  0  0  0  0  0  0  0  0  0  0
  151.5362  139.4956  157.5901 H   0  0  0  0  0  0  0  0  0  0  0  0
  148.6956  138.8686  157.2416 H   0  0  0  0  0  0  0  0  0  0  0  0
  149.4309  145.1559  157.9722 H   0  0  0  0  0  0  0  0  0  0  0  0
  1  2  1  0  0  0  0
  1 23  1  0  0  0  0
  1 24  1  0  0  0  0
  1 25  1  0  0  0  0
  2  3  1  0  0  0  0
  2  4  1  0  0  0  0
  2 26  1  0  0  0  0
  3 27  1  0  0  0  0
  3 28  1  0  0  0  0
  3 29  1  0  0  0  0
  4  5  1  0  0  0  0
  4 30  1  0  0  0  0
  5  6  2  0  0  0  0
  5  7  1  0  0  0  0
  7  8  1  0  0  0  0
  7 31  1  0  0  0  0
  7 32  1  0  0  0  0
  8  9  1  0  0  0  0
  8 33  1  0  0  0  0
  8 34  1  0  0  0  0
  9 22  1  0  0  0  0
  9 10  1  0  0  0  0
  9 48  1  0  0  0  0
 10 11  1  0  0  0  0
 10 35  1  0  0  0  0
 10 36  1  0  0  0  0
 11 12  1  0  0  0  0
 11 37  1  0  0  0  0
 11 38  1  0  0  0  0
 12 13  1  0  0  0  0
 13 14  1  0  0  0  0
 13 22  1  0  0  0  0
 13 39  1  0  0  0  0
 14 15  1  0  0  0  0
 14 40  1  0  0  0  0
 14 41  1  0  0  0  0
 15 16  1  0  0  0  0
 15 42  1  0  0  0  0
 16 21  1  0  0  0  0
 16 17  2  0  0  0  0
 17 18  1  0  0  0  0
 17 43  1  0  0  0  0
 18 19  2  0  0  0  0
 18 44  1  0  0  0  0
 19 20  1  0  0  0  0
 19 45  1  0  0  0  0
 20 21  2  0  0  0  0
 21 49  1  0  0  0  0
 22 46  1  0  0  0  0
 22 47  1  0  0  0  0
M  CHG  1   9   1
M  CHG  1  21   1
M  END
> <s_m_source_file>
AV-unprocessed.smi

> <i_m_source_file_index>
652

> <i_lp_mmshare_version>
43012

> <i_f3d_flags>
0

> <s_epik_input>
W0NIM11bQ0hdKFtDSDNdKVtOSF1DKD1PKVtDSDJdW0NIMl1OMVtDSDJdW0NIMl1PW0NASF0oW0NIMl0xKVtDSDJdW05IXWMyW2NIXVtjSF1bY0hdbm4y

> <s_epik_cmdline>
J2VwaWtfcHl0aG9uJywgJy1waCcsICc3LjAnLCAnLXRuJywgJzgnLCAnLW1hJywgJzIwMCcsICctbWV0YWxfYmluZGluZycsICctaW1hZScsICc8aW5maWxlLm1hZT4nLCAnLW9tYWUnLCAnPG91dGZpbGUubWFlPic=

> <r_lp_tautomer_probability>
0.966961

> <r_epik_Ionization_Penalty>
2.79885

> <r_epik_Ionization_Penalty_Charging>
2.79884

> <r_epik_Ionization_Penalty_Neutral>
3.2567e-06

> <r_epik_State_Penalty>
2.43203

> <r_epik_Charging_Adjusted_Penalty>
5.23087

> <i_epik_Tot_Q>
2

> <i_epik_Tot_abs_Q>
2

> <r_epik_Metal_State_Penalty>
2.43963

> <b_epik_Metal_Only>
0

> <s_lp_Force_Field>
OPLS_2005

> <r_lp_Energy>
30.0621

> <b_lp_Chiralities_Consistent>
1

> <s_lp_Variant>
AV-unprocessed.smi:652-10

> <Gold.Version>
5.8.1

> <Gold.Id.Protein>
6NUR|6NUR_protein|mol2

> <Gold.PLP.Fitness>
55.0331

> <Gold.PLP.PLP>
-38.8375

> <Gold.PLP.part.hbond>
-6.6184

> <Gold.PLP.part.metal>
0.0000

> <Gold.PLP.part.buried>
-6.5097

> <Gold.PLP.part.nonpolar>
-27.1143

> <Gold.PLP.part.repulsive>
0.5427

> <Gold.PLP.ligand.clash>
0.0000

> <Gold.PLP.ligand.torsion>
1.1802

> <Gold.PLP.Chemscore.Hbond>
6.1556

> <Gold.PLP.Chemscore.CHOScore>
0.0000

> <Gold.PLP.Chemscore.Metal>
0.0000

> <Gold.Chemscore.Hbonds>
donor molecule, donor type, donor heavy atom, donor atom, acceptor molecule, acceptor atom, score
      L1  H    15    42       P1  8028  2.00
      L1  H    21    49       P1  8029  1.80
      P1  H  6931  6943       L1     6  0.85
      P1  H  6934  6947       L1     6  0.45
      P1  H  7989  7998       L1    12  1.00

> <Gold.PLP.Chemscore.Internal.Correction>
0.0893

> <Gold.Rescore>
     Score         DG    S(hbond)    S(metal)    S(lipo)     H(rot)  DE(clash)    DE(int)     intcor
     18.96     -21.19       3.46        0.00      86.50       2.33       0.14       2.09       ----

> <Gold.Chemscore.Fitness>
18.9605

> <Gold.Chemscore.DG>
-21.1863

> <Gold.Chemscore.ZeroCoef>
-5.4800

> <Gold.Chemscore.Hbond>
3.4603

> <Gold.Chemscore.Metal>
0.0000

> <Gold.Chemscore.Lipo>
86.4979

> <Gold.Chemscore.Internal_Hbond>
0.0000

> <Gold.Chemscore.DEClash>
0.1363

> <Gold.Chemscore.DEInternal>
2.0896

> <Gold.Chemscore.Rot>
2.3326

> <Gold.Chemscore.Internal.Correction>
   9.000000E+99

> <Gold.Chemscore.Hbonds>
donor molecule, donor type, donor heavy atom, donor atom, acceptor molecule, acceptor atom, score
      L1  H    15    42       P1  8028  0.95
      L1  H    21    49       P1  8029  0.18
      P1  H  6931  6943       L1     6  0.82
      P1  H  6934  6947       L1     6  0.35
      P1  H  7989  7998       L1    12  0.86

> <Gold.Chemscore.Hbond.Weighted>
-11.5574

> <Gold.Chemscore.Metal.Weighted>
-0.0000

> <Gold.Chemscore.Lipo.Weighted>
-10.1203

> <Gold.Chemscore.Internal_Hbond.Weighted>
0.0000

> <Gold.Chemscore.DEClash.Weighted>
0.1363

> <Gold.Chemscore.DEInternal.Weighted>
2.0896

> <Gold.Chemscore.Rot.Weighted>
5.9714

> <Gold.Chemscore.Internal.Correction.Weighted>
   9.000000E+99

> <Gold.Protein.RotatedTorsions>
[ 6907 6896 6895 6894 ] final   92.44 input  -60.11 | X-H torsion
[ 7974 7965 7964 7962 ] final   17.49 input  175.53 | X-H torsion
[ 8008 7997 7996 7995 ] final  -77.40 input   59.86 | X-H torsion
[ 10167 10162 10161 10158 ] final   72.66 input  -65.29 | X-H torsion
[ 10718 10713 10712 10709 ] final -160.85 input   66.30 | X-H torsion
[ 10763 10752 10751 10750 ] final   74.21 input  -60.55 | X-H torsion
[ 11005 11000 10999 10996 ] final  -49.33 input  -57.11 | X-H torsion

> <Gold.Protein.ActiveResidues>
 VAL166  LYS551  ARG553  GLY616  TRP617  ASP618  TYR619  PRO620  LYS621  CYS622 
 ASP623  PHE694  ASN695  SER759  ASP760  ASP761  ALA762  ILE779  LEU786  VAL792 
 PHE793  MET794  SER795  GLU796  ALA797  LYS798  CYS799  TRP800  GLU811  SER814 

> <Gold.Protein.RotatedAtoms>
  152.5452  134.1501  159.8514 H   0  0  0  0  0  0  0  0  0  0  0  0  # atno 6907 bound_to 6896
  151.1529  133.4888  159.2602 H   0  0  0  0  0  0  0  0  0  0  0  0  # atno 6908 bound_to 6896
  151.1453  135.0211  159.8699 H   0  0  0  0  0  0  0  0  0  0  0  0  # atno 6909 bound_to 6896
  146.2216  139.8594  142.8607 H   0  0  0  0  0  0  0  0  0  0  0  0  # atno 7974 bound_to 7965
  154.5593  140.0711  156.8793 H   0  0  0  0  0  0  0  0  0  0  0  0  # atno 8008 bound_to 7997
  155.2842  140.3374  155.4238 H   0  0  0  0  0  0  0  0  0  0  0  0  # atno 8009 bound_to 7997
  156.2028  140.1728  156.7848 H   0  0  0  0  0  0  0  0  0  0  0  0  # atno 8010 bound_to 7997
  140.0329  144.5451  150.7493 H   0  0  0  0  0  0  0  0  0  0  0  0  # atno 10167 bound_to 10162
  156.5880  130.8758  151.2882 H   0  0  0  0  0  0  0  0  0  0  0  0  # atno 10718 bound_to 10713
  153.0572  135.5034  154.8008 H   0  0  0  0  0  0  0  0  0  0  0  0  # atno 10763 bound_to 10752
  154.6825  135.2970  154.9595 H   0  0  0  0  0  0  0  0  0  0  0  0  # atno 10764 bound_to 10752
  154.0377  135.6721  153.4839 H   0  0  0  0  0  0  0  0  0  0  0  0  # atno 10765 bound_to 10752
  141.0753  133.6667  156.3570 H   0  0  0  0  0  0  0  0  0  0  0  0  # atno 11005 bound_to 11000
  145.2720  141.0111  143.3766 LP  0  0  0  0  0  0  0  0  0  0  0  0  # atno 17320 bound_to 7965
  144.9216  139.4405  143.6538 LP  0  0  0  0  0  0  0  0  0  0  0  0  # atno 17321 bound_to 7965
  140.7294  143.2672  151.4005 LP  0  0  0  0  0  0  0  0  0  0  0  0  # atno 17342 bound_to 10162
  139.6064  144.1188  152.2254 LP  0  0  0  0  0  0  0  0  0  0  0  0  # atno 17343 bound_to 10162
  157.7311  130.9694  150.1862 LP  0  0  0  0  0  0  0  0  0  0  0  0  # atno 17370 bound_to 10713
  156.2574  130.3707  149.8167 LP  0  0  0  0  0  0  0  0  0  0  0  0  # atno 17371 bound_to 10713
  140.5586  134.5956  157.5427 LP  0  0  0  0  0  0  0  0  0  0  0  0  # atno 17394 bound_to 11000
  139.9565  134.7525  156.0329 LP  0  0  0  0  0  0  0  0  0  0  0  0  # atno 17395 bound_to 11000

$$$$
