AV-unprocessed.smi:431|AV-procd|sdf|2547|dock8
  -GOLD-   2262022513D 1   1.00000     0.00000
 Structure written by MMmdl.
 43 44  0  0  0  0  0  0  0  0  1 V2000
  149.3636  133.5370  155.2726 C   0  0  0  0  0  0  0  0  0  0  0  0
  149.4462  135.0718  155.3007 C   0  0  0  0  0  0  0  0  0  0  0  0
  148.1036  135.7774  155.5957 C   0  0  2  0  0  0  0  0  0  0  0  0
  147.0069  135.2995  154.6290 C   0  0  0  0  0  0  0  0  0  0  0  0
  148.2344  137.3065  155.5315 C   0  0  0  0  0  0  0  0  0  0  0  0
  148.0089  137.9915  156.5296 O   0  0  0  0  0  0  0  0  0  0  0  0
  148.5862  137.8285  154.3460 N   0  0  0  0  0  0  0  0  0  0  0  0
  148.7136  139.2551  154.0677 C   0  0  0  0  0  0  0  0  0  0  0  0
  149.4757  140.0278  155.1347 C   0  0  0  0  0  0  0  0  0  0  0  0
  150.7218  139.5875  155.6270 C   0  0  0  0  0  0  0  0  0  0  0  0
  151.3753  140.3494  156.6139 C   0  0  0  0  0  0  0  0  0  0  0  0
  150.7651  141.5350  157.0887 C   0  0  0  0  0  0  0  0  0  0  0  0
  151.4048  142.3199  158.0736 N   0  0  0  0  0  0  0  0  0  0  0  0
  150.9767  143.7149  158.1500 C   0  0  0  0  0  0  0  0  0  0  0  0
  151.9440  144.5256  159.0297 C   0  0  0  0  0  0  0  0  0  0  0  0
  152.0612  143.9134  160.3096 O   0  0  0  0  0  0  0  0  0  0  0  0
  152.5891  142.5944  160.2180 C   0  0  0  0  0  0  0  0  0  0  0  0
  151.6430  141.7150  159.3832 C   0  0  0  0  0  0  0  0  0  0  0  0
  149.5585  141.9447  156.6243 N   0  0  0  0  0  0  0  0  0  0  0  0
  148.9372  141.2114  155.6767 C   0  0  0  0  0  0  0  0  0  0  0  0
  150.3209  133.1054  154.9807 H   0  0  0  0  0  0  0  0  0  0  0  0
  148.6144  133.1956  154.5582 H   0  0  0  0  0  0  0  0  0  0  0  0
  149.1076  133.1286  156.2503 H   0  0  0  0  0  0  0  0  0  0  0  0
  150.1986  135.3787  156.0288 H   0  0  0  0  0  0  0  0  0  0  0  0
  149.8160  135.4111  154.3325 H   0  0  0  0  0  0  0  0  0  0  0  0
  147.7932  135.5015  156.6052 H   0  0  0  0  0  0  0  0  0  0  0  0
  146.0589  135.8035  154.8217 H   0  0  0  0  0  0  0  0  0  0  0  0
  146.8328  134.2286  154.7365 H   0  0  0  0  0  0  0  0  0  0  0  0
  147.2786  135.4863  153.5892 H   0  0  0  0  0  0  0  0  0  0  0  0
  148.7576  137.1947  153.5789 H   0  0  0  0  0  0  0  0  0  0  0  0
  149.1852  139.3995  153.0939 H   0  0  0  0  0  0  0  0  0  0  0  0
  147.7117  139.6774  153.9907 H   0  0  0  0  0  0  0  0  0  0  0  0
  151.1752  138.6785  155.2601 H   0  0  0  0  0  0  0  0  0  0  0  0
  152.3233  140.0086  157.0019 H   0  0  0  0  0  0  0  0  0  0  0  0
  150.9243  144.1775  157.1657 H   0  0  0  0  0  0  0  0  0  0  0  0
  149.9709  143.7509  158.5709 H   0  0  0  0  0  0  0  0  0  0  0  0
  152.9259  144.6016  158.5593 H   0  0  0  0  0  0  0  0  0  0  0  0
  151.5725  145.5428  159.1555 H   0  0  0  0  0  0  0  0  0  0  0  0
  153.5874  142.6194  159.7777 H   0  0  0  0  0  0  0  0  0  0  0  0
  152.6947  142.1837  161.2222 H   0  0  0  0  0  0  0  0  0  0  0  0
  150.6917  141.5930  159.9030 H   0  0  0  0  0  0  0  0  0  0  0  0
  152.0821  140.7232  159.2677 H   0  0  0  0  0  0  0  0  0  0  0  0
  147.9815  141.5855  155.3400 H   0  0  0  0  0  0  0  0  0  0  0  0
  1  2  1  0  0  0  0
  1 21  1  0  0  0  0
  1 22  1  0  0  0  0
  1 23  1  0  0  0  0
  2  3  1  0  0  0  0
  2 24  1  0  0  0  0
  2 25  1  0  0  0  0
  3  4  1  0  0  0  0
  3  5  1  0  0  0  0
  3 26  1  0  0  0  0
  4 27  1  0  0  0  0
  4 28  1  0  0  0  0
  4 29  1  0  0  0  0
  5  6  2  0  0  0  0
  5  7  1  0  0  0  0
  7  8  1  0  0  0  0
  7 30  1  0  0  0  0
  8  9  1  0  0  0  0
  8 31  1  0  0  0  0
  8 32  1  0  0  0  0
  9 20  1  0  0  0  0
  9 10  2  0  0  0  0
 10 11  1  0  0  0  0
 10 33  1  0  0  0  0
 11 12  2  0  0  0  0
 11 34  1  0  0  0  0
 12 13  1  0  0  0  0
 12 19  1  0  0  0  0
 13 18  1  0  0  0  0
 13 14  1  0  0  0  0
 14 15  1  0  0  0  0
 14 35  1  0  0  0  0
 14 36  1  0  0  0  0
 15 16  1  0  0  0  0
 15 37  1  0  0  0  0
 15 38  1  0  0  0  0
 16 17  1  0  0  0  0
 17 18  1  0  0  0  0
 17 39  1  0  0  0  0
 17 40  1  0  0  0  0
 18 41  1  0  0  0  0
 18 42  1  0  0  0  0
 19 20  2  0  0  0  0
 20 43  1  0  0  0  0
M  END
> <s_m_source_file>
AV-unprocessed.smi

> <i_m_source_file_index>
431

> <i_lp_mmshare_version>
43012

> <i_f3d_flags>
0

> <s_epik_input>
W0NIM11bQ0gyXVtDQEhdKFtDSDNdKUMoPU8pW05IXVtDSDJdYzFbY0hdW2NIXWMobltjSF0xKU4yW0NIMl1bQ0gyXU9bQ0gyXVtDSDJdMg==

> <s_epik_cmdline>
J2VwaWtfcHl0aG9uJywgJy1waCcsICc3LjAnLCAnLXRuJywgJzgnLCAnLW1hJywgJzIwMCcsICctbWV0YWxfYmluZGluZycsICctaW1hZScsICc8aW5maWxlLm1hZT4nLCAnLW9tYWUnLCAnPG91dGZpbGUubWFlPic=

> <r_lp_tautomer_probability>
1

> <r_epik_Ionization_Penalty>
0.00513882

> <r_epik_Ionization_Penalty_Charging>
0

> <r_epik_Ionization_Penalty_Neutral>
0.00513882

> <r_epik_State_Penalty>
0.00374265

> <r_epik_Charging_Adjusted_Penalty>
0.00374265

> <i_epik_Tot_Q>
0

> <i_epik_Tot_abs_Q>
0

> <r_epik_Metal_State_Penalty>
-0

> <b_epik_Metal_Only>
0

> <s_lp_Force_Field>
OPLS_2005

> <r_lp_Energy>
15.574

> <b_lp_Chiralities_Consistent>
1

> <s_lp_Variant>
AV-unprocessed.smi:431-1

> <Gold.Version>
5.8.1

> <Gold.Id.Protein>
6NUR|6NUR_protein|mol2

> <Gold.PLP.Fitness>
36.5387

> <Gold.PLP.PLP>
-34.2144

> <Gold.PLP.part.hbond>
-1.0000

> <Gold.PLP.part.metal>
0.0000

> <Gold.PLP.part.buried>
-3.9870

> <Gold.PLP.part.nonpolar>
-30.0839

> <Gold.PLP.part.repulsive>
0.7183

> <Gold.PLP.ligand.clash>
0.0000

> <Gold.PLP.ligand.torsion>
0.5241

> <Gold.PLP.Chemscore.Hbond>
1.0000

> <Gold.PLP.Chemscore.CHOScore>
0.0000

> <Gold.PLP.Chemscore.Metal>
0.0000

> <Gold.Chemscore.Hbonds>
donor molecule, donor type, donor heavy atom, donor atom, acceptor molecule, acceptor atom, score
      L1  H     7    30       P1  7948  1.00

> <Gold.PLP.Chemscore.Internal.Correction>
0.3725

> <Gold.Rescore>
     Score         DG    S(hbond)    S(metal)    S(lipo)     H(rot)  DE(clash)    DE(int)     intcor
     13.64     -15.22       1.00        0.00      90.69       1.64       0.03       1.55       ----

> <Gold.Chemscore.Fitness>
13.6378

> <Gold.Chemscore.DG>
-15.2151

> <Gold.Chemscore.ZeroCoef>
-5.4800

> <Gold.Chemscore.Hbond>
0.9953

> <Gold.Chemscore.Metal>
0.0000

> <Gold.Chemscore.Lipo>
90.6912

> <Gold.Chemscore.Internal_Hbond>
0.0000

> <Gold.Chemscore.DEClash>
0.0256

> <Gold.Chemscore.DEInternal>
1.5518

> <Gold.Chemscore.Rot>
1.6407

> <Gold.Chemscore.Internal.Correction>
   9.000000E+99

> <Gold.Chemscore.Hbonds>
donor molecule, donor type, donor heavy atom, donor atom, acceptor molecule, acceptor atom, score
      L1  H     7    30       P1  7948  0.98

> <Gold.Chemscore.Hbond.Weighted>
-3.3244

> <Gold.Chemscore.Metal.Weighted>
-0.0000

> <Gold.Chemscore.Lipo.Weighted>
-10.6109

> <Gold.Chemscore.Internal_Hbond.Weighted>
0.0000

> <Gold.Chemscore.DEClash.Weighted>
0.0256

> <Gold.Chemscore.DEInternal.Weighted>
1.5518

> <Gold.Chemscore.Rot.Weighted>
4.2001

> <Gold.Chemscore.Internal.Correction.Weighted>
   9.000000E+99

> <Gold.Protein.RotatedTorsions>
[ 6907 6896 6895 6894 ] final   94.70 input  -60.11 | X-H torsion
[ 7974 7965 7964 7962 ] final -104.40 input  175.53 | X-H torsion
[ 8008 7997 7996 7995 ] final  -32.04 input   59.86 | X-H torsion
[ 10167 10162 10161 10158 ] final  -60.20 input  -65.29 | X-H torsion
[ 10718 10713 10712 10709 ] final  -78.33 input   66.30 | X-H torsion
[ 10763 10752 10751 10750 ] final   86.58 input  -60.55 | X-H torsion
[ 11005 11000 10999 10996 ] final  130.51 input  -57.11 | X-H torsion

> <Gold.Protein.ActiveResidues>
 VAL166  LYS551  ARG553  GLY616  TRP617  ASP618  TYR619  PRO620  LYS621  CYS622 
 ASP623  PHE694  ASN695  SER759  ASP760  ASP761  ALA762  ILE779  LEU786  VAL792 
 PHE793  MET794  SER795  GLU796  ALA797  LYS798  CYS799  TRP800  GLU811  SER814 

> <Gold.Protein.RotatedAtoms>
  152.5448  134.1154  159.8375 H   0  0  0  0  0  0  0  0  0  0  0  0  # atno 6907 bound_to 6896
  151.1215  133.5093  159.2609 H   0  0  0  0  0  0  0  0  0  0  0  0  # atno 6908 bound_to 6896
  151.1773  135.0355  159.8832 H   0  0  0  0  0  0  0  0  0  0  0  0  # atno 6909 bound_to 6896
  145.2436  140.9214  143.3135 H   0  0  0  0  0  0  0  0  0  0  0  0  # atno 7974 bound_to 7965
  154.4193  140.1748  156.1664 H   0  0  0  0  0  0  0  0  0  0  0  0  # atno 8008 bound_to 7997
  155.9796  140.3378  155.6627 H   0  0  0  0  0  0  0  0  0  0  0  0  # atno 8009 bound_to 7997
  155.6517  140.0691  157.2575 H   0  0  0  0  0  0  0  0  0  0  0  0  # atno 8010 bound_to 7997
  140.6086  143.2380  151.5762 H   0  0  0  0  0  0  0  0  0  0  0  0  # atno 10167 bound_to 10162
  156.0120  130.4515  150.3480 H   0  0  0  0  0  0  0  0  0  0  0  0  # atno 10718 bound_to 10713
  153.1584  135.4575  154.9737 H   0  0  0  0  0  0  0  0  0  0  0  0  # atno 10763 bound_to 10752
  154.7879  135.3210  154.7847 H   0  0  0  0  0  0  0  0  0  0  0  0  # atno 10764 bound_to 10752
  153.8341  135.6936  153.4865 H   0  0  0  0  0  0  0  0  0  0  0  0  # atno 10765 bound_to 10752
  139.9676  134.9586  156.9304 H   0  0  0  0  0  0  0  0  0  0  0  0  # atno 11005 bound_to 11000
  144.9566  139.4024  143.6376 LP  0  0  0  0  0  0  0  0  0  0  0  0  # atno 17320 bound_to 7965
  146.3322  139.8600  142.8858 LP  0  0  0  0  0  0  0  0  0  0  0  0  # atno 17321 bound_to 7965
  139.5344  144.2823  152.1219 LP  0  0  0  0  0  0  0  0  0  0  0  0  # atno 17342 bound_to 10162
  140.2018  144.4651  150.6428 LP  0  0  0  0  0  0  0  0  0  0  0  0  # atno 17343 bound_to 10162
  157.1574  131.0336  151.2857 LP  0  0  0  0  0  0  0  0  0  0  0  0  # atno 17370 bound_to 10713
  157.4341  130.7507  149.7014 LP  0  0  0  0  0  0  0  0  0  0  0  0  # atno 17371 bound_to 10713
  140.5362  134.0764  155.7329 LP  0  0  0  0  0  0  0  0  0  0  0  0  # atno 17394 bound_to 11000
  141.1356  133.9227  157.2441 LP  0  0  0  0  0  0  0  0  0  0  0  0  # atno 17395 bound_to 11000

$$$$
