#       Name:                AV-unprocessed.smi:2916
#       Creating user name   scv26
#       Creation time:       Fri Mar 27 16:08:09 2020


#       File generated by GOLD software.
#

@<TRIPOS>MOLECULE
AV-unprocessed.smi:2916
    41    42     1
SMALL
NO_CHARGES


@<TRIPOS>ATOM
      1 ****        -0.3603   1.0092   3.0705 N.am           1 S1                 0.0000
      2 ****         0.1771   1.5116   1.9535 C.2            1 S1                 0.0000
      3 ****         1.0125   2.4123   2.0040 O.2            1 S1                 0.0000
      4 ****        -0.2516   0.8913   0.5967 C.3            1 S1                 0.0000
      5 ****         0.2862  -0.4956   0.5357 N.4            1 S1                 1.0000
      6 ****         1.7572  -0.6749   0.4529 C.3            1 S1                 0.0000
      7 ****         2.1287  -2.1671   0.4107 C.3            1 S1                 0.0000
      8 ****         1.5667  -2.8554  -0.7391 N.pl3          1 S1                 0.0000
      9 ****         0.7759  -3.9851  -0.7571 C.2            1 S1                 0.0000
     10 ****         0.5042  -4.2707  -2.0643 C.2            1 S1                 0.0000
     11 ****         1.1932  -3.2545  -2.7833 C.2            1 S1                 0.0000
     12 ****         1.8316  -2.4122  -1.9874 N.2            1 S1                 0.0000
     13 ****        -1.8006   0.7880   0.4960 C.3            1 S1                 0.0000
     14 ****        -2.5043   2.1526   0.3831 C.3            1 S1                 0.0000
     15 ****        -1.9875   2.9325  -0.8324 C.3            1 S1                 0.0000
     16 ****        -0.4623   3.0892  -0.7764 C.3            1 S1                 0.0000
     17 ****         0.2437   1.7260  -0.6250 C.3            1 S1                 0.0000
     18 ****        -0.1163   1.4124   3.9642 H              1 S1                 0.0000
     19 ****        -1.0237   0.2496   3.0226 H              1 S1                 0.0000
     20 ****        -0.0419  -0.9889   1.3532 H              1 S1                 0.0000
     21 ****         2.1541  -0.1793  -0.4325 H              1 S1                 0.0000
     22 ****         2.2405  -0.2151   1.3149 H              1 S1                 0.0000
     23 ****         3.2128  -2.2822   0.3789 H              1 S1                 0.0000
     24 ****         1.7870  -2.6656   1.3188 H              1 S1                 0.0000
     25 ****         0.4730  -4.4856   0.1509 H              1 S1                 0.0000
     26 ****        -0.0916  -5.0852  -2.4490 H              1 S1                 0.0000
     27 ****         1.2493  -3.1059  -3.8516 H              1 S1                 0.0000
     28 ****        -2.0615   0.1975  -0.3839 H              1 S1                 0.0000
     29 ****        -2.2154   0.2359   1.3403 H              1 S1                 0.0000
     30 ****        -3.5810   2.0056   0.2934 H              1 S1                 0.0000
     31 ****        -2.3506   2.7358   1.2916 H              1 S1                 0.0000
     32 ****        -2.2678   2.4101  -1.7482 H              1 S1                 0.0000
     33 ****        -2.4627   3.9130  -0.8778 H              1 S1                 0.0000
     34 ****        -0.1118   3.5852  -1.6819 H              1 S1                 0.0000
     35 ****        -0.1950   3.7487   0.0493 H              1 S1                 0.0000
     36 ****         1.3183   1.9037  -0.5716 H              1 S1                 0.0000
     37 ****         0.0850   1.1516  -1.5391 H              1 S1                 0.0000
     38 ****        -0.1118  -0.9381  -0.2807 H              1 S1                 0.0000
     39 ****         1.2991   2.7794   2.8889 LP             1 S1                 0.0000
     40 ****         1.4054   2.7777   1.1601 LP             1 S1                 0.0000
     41 ****         2.3866  -1.6233  -2.2512 LP             1 S1                 0.0000
@<TRIPOS>BOND
    1    1    2 am    
    2    1   18 1     
    3    1   19 1     
    4    2    3 2     
    5    2    4 1     
    6    4   17 1     
    7    4    5 1     
    8    4   13 1     
    9    5    6 1     
   10    5   20 1     
   11    5   38 1     
   12    6    7 1     
   13    6   21 1     
   14    6   22 1     
   15    7    8 1     
   16    7   23 1     
   17    7   24 1     
   18    8   12 1     
   19    8    9 1     
   20    9   10 2     
   21    9   25 1     
   22   10   11 1     
   23   10   26 1     
   24   11   12 2     
   25   11   27 1     
   26   13   14 1     
   27   13   28 1     
   28   13   29 1     
   29   14   15 1     
   30   14   30 1     
   31   14   31 1     
   32   15   16 1     
   33   15   32 1     
   34   15   33 1     
   35   16   17 1     
   36   16   34 1     
   37   16   35 1     
   38   17   36 1     
   39   17   37 1     
   40    3   39 1     
   41    3   40 1     
   42   12   41 1     
@<TRIPOS>SUBSTRUCTURE
      1 S1             1
@<TRIPOS>SET
LONE_PAIRS      STATIC     ATOMS    <user>   **** ""
3 39 40 41
DONOR_HYDROGENS      STATIC     ATOMS    <user>   **** ""
4 18 19 20 38
ATOM$BLUE        STATIC     ATOMS    COLORGROUP SYSTEM
3 39 40 41
ATOM$RED        STATIC     ATOMS    COLORGROUP SYSTEM
4 18 19 20 38
