AV-unprocessed.smi:1095|AV-procd|sdf|4747|dock5
  -GOLD-   22720 3283D 1   1.00000     0.00000
 Structure written by MMmdl.
 50 51  0  0  0  0  0  0  0  0  1 V2000
  151.9544  144.6435  159.9729 C   0  0  0  0  0  0  0  0  0  0  0  0
  151.8630  144.1132  158.5352 C   0  0  0  0  0  0  0  0  0  0  0  0
  151.3765  142.6532  158.4325 C   0  0  2  0  0  0  0  0  0  0  0  0
  152.2758  141.7168  159.2630 C   0  0  0  0  0  0  0  0  0  0  0  0
  151.8042  140.2562  159.1871 C   0  0  0  0  0  0  0  0  0  0  0  0
  151.7406  139.7517  157.7334 C   0  0  1  0  0  0  0  0  0  0  0  0
  151.2841  138.2784  157.6834 C   0  0  0  0  0  0  0  0  0  0  0  0
  149.9483  138.1130  158.2453 N   0  0  0  0  0  0  0  0  0  0  0  0
  149.5155  137.0458  158.9344 C   0  0  0  0  0  0  0  0  0  0  0  0
  150.1708  136.0147  159.0831 O   0  0  0  0  0  0  0  0  0  0  0  0
  148.1468  137.1838  159.5981 C   0  0  0  0  0  0  0  0  0  0  0  0
  147.8587  135.9310  160.3878 C   0  0  0  0  0  0  0  0  0  0  0  0
  147.5216  135.8282  161.7708 C   0  0  0  0  0  0  0  0  0  0  0  0
  147.3703  136.9289  162.7815 C   0  0  0  0  0  0  0  0  0  0  0  0
  147.3499  134.5752  162.1566 N   0  0  0  0  0  0  0  0  0  0  0  0
  147.5676  133.8402  161.0480 N   0  0  0  0  0  0  0  0  0  0  0  0
  147.4617  132.3959  161.1212 C   0  0  0  0  0  0  0  0  0  0  0  0
  147.8837  134.6305  159.9601 C   0  0  0  0  0  0  0  0  0  0  0  0
  148.1851  134.0525  158.6149 C   0  0  0  0  0  0  0  0  0  0  0  0
  150.8467  140.6890  156.8919 C   0  0  0  0  0  0  0  0  0  0  0  0
  151.3105  142.1520  156.9749 C   0  0  0  0  0  0  0  0  0  0  0  0
  152.3764  145.6486  159.9854 H   0  0  0  0  0  0  0  0  0  0  0  0
  152.5933  144.0091  160.5878 H   0  0  0  0  0  0  0  0  0  0  0  0
  150.9746  144.6972  160.4471 H   0  0  0  0  0  0  0  0  0  0  0  0
  151.2150  144.7635  157.9464 H   0  0  0  0  0  0  0  0  0  0  0  0
  152.8538  144.1895  158.0858 H   0  0  0  0  0  0  0  0  0  0  0  0
  150.3717  142.6047  158.8552 H   0  0  0  0  0  0  0  0  0  0  0  0
  153.3056  141.7849  158.9098 H   0  0  0  0  0  0  0  0  0  0  0  0
  152.2868  142.0377  160.3053 H   0  0  0  0  0  0  0  0  0  0  0  0
  152.4784  139.6278  159.7700 H   0  0  0  0  0  0  0  0  0  0  0  0
  150.8216  140.1672  159.6524 H   0  0  0  0  0  0  0  0  0  0  0  0
  152.7506  139.7984  157.3227 H   0  0  0  0  0  0  0  0  0  0  0  0
  151.2486  137.9387  156.6480 H   0  0  0  0  0  0  0  0  0  0  0  0
  152.0104  137.6391  158.1878 H   0  0  0  0  0  0  0  0  0  0  0  0
  149.3298  138.9084  158.1777 H   0  0  0  0  0  0  0  0  0  0  0  0
  148.1373  138.0712  160.2320 H   0  0  0  0  0  0  0  0  0  0  0  0
  147.3928  137.3569  158.8293 H   0  0  0  0  0  0  0  0  0  0  0  0
  147.0187  137.8487  162.3154 H   0  0  0  0  0  0  0  0  0  0  0  0
  148.3233  137.1449  163.2647 H   0  0  0  0  0  0  0  0  0  0  0  0
  146.6543  136.6623  163.5599 H   0  0  0  0  0  0  0  0  0  0  0  0
  148.4515  131.9518  161.0132 H   0  0  0  0  0  0  0  0  0  0  0  0
  146.8179  132.0329  160.3198 H   0  0  0  0  0  0  0  0  0  0  0  0
  147.0380  132.0885  162.0783 H   0  0  0  0  0  0  0  0  0  0  0  0
  148.6478  134.7923  157.9619 H   0  0  0  0  0  0  0  0  0  0  0  0
  147.2729  133.7008  158.1328 H   0  0  0  0  0  0  0  0  0  0  0  0
  148.8726  133.2104  158.6965 H   0  0  0  0  0  0  0  0  0  0  0  0
  150.8494  140.3837  155.8456 H   0  0  0  0  0  0  0  0  0  0  0  0
  149.8128  140.6141  157.2309 H   0  0  0  0  0  0  0  0  0  0  0  0
  150.6287  142.7685  156.3898 H   0  0  0  0  0  0  0  0  0  0  0  0
  152.2910  142.2481  156.5062 H   0  0  0  0  0  0  0  0  0  0  0  0
  1  2  1  0  0  0  0
  1 22  1  0  0  0  0
  1 23  1  0  0  0  0
  1 24  1  0  0  0  0
  2  3  1  0  0  0  0
  2 25  1  0  0  0  0
  2 26  1  0  0  0  0
  3 21  1  0  0  0  0
  3  4  1  0  0  0  0
  3 27  1  0  0  0  0
  4  5  1  0  0  0  0
  4 28  1  0  0  0  0
  4 29  1  0  0  0  0
  5  6  1  0  0  0  0
  5 30  1  0  0  0  0
  5 31  1  0  0  0  0
  6  7  1  0  0  0  0
  6 20  1  0  0  0  0
  6 32  1  0  0  0  0
  7  8  1  0  0  0  0
  7 33  1  0  0  0  0
  7 34  1  0  0  0  0
  8  9  1  0  0  0  0
  8 35  1  0  0  0  0
  9 10  2  0  0  0  0
  9 11  1  0  0  0  0
 11 12  1  0  0  0  0
 11 36  1  0  0  0  0
 11 37  1  0  0  0  0
 12 18  2  0  0  0  0
 12 13  1  0  0  0  0
 13 14  1  0  0  0  0
 13 15  2  0  0  0  0
 14 38  1  0  0  0  0
 14 39  1  0  0  0  0
 14 40  1  0  0  0  0
 15 16  1  0  0  0  0
 16 17  1  0  0  0  0
 16 18  1  0  0  0  0
 17 41  1  0  0  0  0
 17 42  1  0  0  0  0
 17 43  1  0  0  0  0
 18 19  1  0  0  0  0
 19 44  1  0  0  0  0
 19 45  1  0  0  0  0
 19 46  1  0  0  0  0
 20 21  1  0  0  0  0
 20 47  1  0  0  0  0
 20 48  1  0  0  0  0
 21 49  1  0  0  0  0
 21 50  1  0  0  0  0
M  END
> <s_m_source_file>
AV-unprocessed.smi

> <i_m_source_file_index>
1095

> <i_lp_mmshare_version>
43012

> <i_f3d_flags>
0

> <s_epik_input>
W0NIM11bQ0gyXVtDQEBIXTFbQ0gyXVtDSDJdW0NASF0oW0NIMl1bQ0gyXTEpW0NIMl1bTkhdQyg9TylbQ0gyXWMyYyhbQ0gzXSlubihbQ0gzXSljMltDSDNd

> <s_epik_cmdline>
J2VwaWtfcHl0aG9uJywgJy1waCcsICc3LjAnLCAnLXRuJywgJzgnLCAnLW1hJywgJzIwMCcsICctbWV0YWxfYmluZGluZycsICctaW1hZScsICc8aW5maWxlLm1hZT4nLCAnLW9tYWUnLCAnPG91dGZpbGUubWFlPic=

> <r_lp_tautomer_probability>
1

> <r_epik_Ionization_Penalty>
0.00317479

> <r_epik_Ionization_Penalty_Charging>
0

> <r_epik_Ionization_Penalty_Neutral>
0.00317479

> <r_epik_State_Penalty>
0.00223767

> <r_epik_Charging_Adjusted_Penalty>
0.00223767

> <i_epik_Tot_Q>
0

> <i_epik_Tot_abs_Q>
0

> <r_epik_Metal_State_Penalty>
-0

> <b_epik_Metal_Only>
0

> <s_lp_Force_Field>
OPLS_2005

> <r_lp_Energy>
5.54232

> <b_lp_Chiralities_Consistent>
1

> <s_lp_Variant>
AV-unprocessed.smi:1095-1

> <Gold.Version>
5.8.1

> <Gold.Id.Protein>
6NUR|6NUR_protein|mol2

> <Gold.PLP.Fitness>
43.3183

> <Gold.PLP.PLP>
-40.7324

> <Gold.PLP.part.hbond>
-0.9099

> <Gold.PLP.part.metal>
0.0000

> <Gold.PLP.part.buried>
-3.9839

> <Gold.PLP.part.nonpolar>
-35.9457

> <Gold.PLP.part.repulsive>
0.1099

> <Gold.PLP.ligand.clash>
0.0000

> <Gold.PLP.ligand.torsion>
0.2207

> <Gold.PLP.Chemscore.Hbond>
1.0000

> <Gold.PLP.Chemscore.CHOScore>
0.0000

> <Gold.PLP.Chemscore.Metal>
0.0000

> <Gold.Chemscore.Hbonds>
donor molecule, donor type, donor heavy atom, donor atom, acceptor molecule, acceptor atom, score
      P1  H  6896  6907       L1    10  0.89

> <Gold.PLP.Chemscore.Internal.Correction>
0.0271

> <Gold.Rescore>
     Score         DG    S(hbond)    S(metal)    S(lipo)     H(rot)  DE(clash)    DE(int)     intcor
     16.67     -17.99       0.99        0.00     110.04       1.43       0.02       1.31       ----

> <Gold.Chemscore.Fitness>
16.6680

> <Gold.Chemscore.DG>
-17.9944

> <Gold.Chemscore.ZeroCoef>
-5.4800

> <Gold.Chemscore.Hbond>
0.9910

> <Gold.Chemscore.Metal>
0.0000

> <Gold.Chemscore.Lipo>
110.0383

> <Gold.Chemscore.Internal_Hbond>
0.0000

> <Gold.Chemscore.DEClash>
0.0186

> <Gold.Chemscore.DEInternal>
1.3077

> <Gold.Chemscore.Rot>
1.4336

> <Gold.Chemscore.Internal.Correction>
   9.000000E+99

> <Gold.Chemscore.Hbonds>
donor molecule, donor type, donor heavy atom, donor atom, acceptor molecule, acceptor atom, score
      P1  H  6896  6907       L1    10  0.85

> <Gold.Chemscore.Hbond.Weighted>
-3.3099

> <Gold.Chemscore.Metal.Weighted>
-0.0000

> <Gold.Chemscore.Lipo.Weighted>
-12.8745

> <Gold.Chemscore.Internal_Hbond.Weighted>
0.0000

> <Gold.Chemscore.DEClash.Weighted>
0.0186

> <Gold.Chemscore.DEInternal.Weighted>
1.3077

> <Gold.Chemscore.Rot.Weighted>
3.6700

> <Gold.Chemscore.Internal.Correction.Weighted>
   9.000000E+99

> <Gold.Protein.RotatedTorsions>
[ 6907 6896 6895 6894 ] final  -34.25 input  -60.11 | X-H torsion
[ 7974 7965 7964 7962 ] final  108.89 input  175.53 | X-H torsion
[ 8008 7997 7996 7995 ] final   11.41 input   59.86 | X-H torsion
[ 10167 10162 10161 10158 ] final   92.28 input  -65.29 | X-H torsion
[ 10718 10713 10712 10709 ] final   78.42 input   66.30 | X-H torsion
[ 10763 10752 10751 10750 ] final  -33.81 input  -60.55 | X-H torsion
[ 11005 11000 10999 10996 ] final  -42.81 input  -57.11 | X-H torsion

> <Gold.Protein.ActiveResidues>
 VAL166  LYS551  ARG553  GLY616  TRP617  ASP618  TYR619  PRO620  LYS621  CYS622 
 ASP623  PHE694  ASN695  SER759  ASP760  ASP761  ALA762  ILE779  LEU786  VAL792 
 PHE793  MET794  SER795  GLU796  ALA797  LYS798  CYS799  TRP800  GLU811  SER814 

> <Gold.Protein.RotatedAtoms>
  151.0551  134.9699  159.8231 H   0  0  0  0  0  0  0  0  0  0  0  0  # atno 6907 bound_to 6896
  152.5387  134.2489  159.8901 H   0  0  0  0  0  0  0  0  0  0  0  0  # atno 6908 bound_to 6896
  151.2506  133.4309  159.2645 H   0  0  0  0  0  0  0  0  0  0  0  0  # atno 6909 bound_to 6896
  145.2749  139.2653  143.3946 H   0  0  0  0  0  0  0  0  0  0  0  0  # atno 7974 bound_to 7965
  154.8066  140.2861  155.5883 H   0  0  0  0  0  0  0  0  0  0  0  0  # atno 8008 bound_to 7997
  156.2983  140.2576  156.2875 H   0  0  0  0  0  0  0  0  0  0  0  0  # atno 8009 bound_to 7997
  154.9496  140.0379  157.2127 H   0  0  0  0  0  0  0  0  0  0  0  0  # atno 8010 bound_to 7997
  139.8292  144.6695  150.9421 H   0  0  0  0  0  0  0  0  0  0  0  0  # atno 10167 bound_to 10162
  157.6744  130.9867  150.1784 H   0  0  0  0  0  0  0  0  0  0  0  0  # atno 10718 bound_to 10713
  153.8363  135.6861  153.4808 H   0  0  0  0  0  0  0  0  0  0  0  0  # atno 10763 bound_to 10752
  153.1480  135.4629  154.9593 H   0  0  0  0  0  0  0  0  0  0  0  0  # atno 10764 bound_to 10752
  154.7864  135.3286  154.7821 H   0  0  0  0  0  0  0  0  0  0  0  0  # atno 10765 bound_to 10752
  141.0341  133.6807  156.2646 H   0  0  0  0  0  0  0  0  0  0  0  0  # atno 11005 bound_to 11000
  146.3235  140.3201  142.8632 LP  0  0  0  0  0  0  0  0  0  0  0  0  # atno 17320 bound_to 7965
  144.9303  140.7967  143.5693 LP  0  0  0  0  0  0  0  0  0  0  0  0  # atno 17321 bound_to 7965
  140.7808  143.4017  151.1138 LP  0  0  0  0  0  0  0  0  0  0  0  0  # atno 17342 bound_to 10162
  139.7672  143.8547  152.3113 LP  0  0  0  0  0  0  0  0  0  0  0  0  # atno 17343 bound_to 10162
  156.2522  130.3702  149.8220 LP  0  0  0  0  0  0  0  0  0  0  0  0  # atno 17370 bound_to 10713
  156.5990  130.8538  151.3427 LP  0  0  0  0  0  0  0  0  0  0  0  0  # atno 17371 bound_to 10713
  140.6354  134.5221  157.5564 LP  0  0  0  0  0  0  0  0  0  0  0  0  # atno 17394 bound_to 11000
  139.9228  134.8115  156.1159 LP  0  0  0  0  0  0  0  0  0  0  0  0  # atno 17395 bound_to 11000

$$$$
