AV-unprocessed.smi:15|AV-procd|sdf|81|dock8
  -GOLD-   2262015213D 1   1.00000     0.00000
 Structure written by MMmdl.
 53 56  0  0  0  0  0  0  0  0  1 V2000
  152.2544  138.5644  159.6118 C   0  0  0  0  0  0  0  0  0  0  0  0
  151.3828  139.6185  158.9157 C   0  0  0  0  0  0  0  0  0  0  0  0
  151.9510  140.0933  157.6505 N   0  0  0  0  0  0  0  0  0  0  0  0
  151.7725  141.4959  157.2646 C   0  0  0  0  0  0  0  0  0  0  0  0
  151.5954  142.4409  158.4673 C   0  0  2  0  0  0  0  0  0  0  0  0
  151.3780  143.8972  158.0659 C   0  0  0  0  0  0  0  0  0  0  0  0
  151.8192  144.6703  159.2981 C   0  0  0  0  0  0  0  0  0  0  0  0
  152.6688  143.6647  160.0810 C   0  0  0  0  0  0  0  0  0  0  0  0
  152.7879  142.5327  159.2304 O   0  0  0  0  0  0  0  0  0  0  0  0
  151.9369  139.2201  156.6090 C   0  0  0  0  0  0  0  0  0  0  0  0
  152.5765  139.5421  155.4523 N   0  0  0  0  0  0  0  0  0  0  0  0
  152.6003  138.6819  154.4304 C   0  0  0  0  0  0  0  0  0  0  0  0
  152.0564  137.4667  154.3508 N   0  0  0  0  0  0  0  0  0  0  0  0
  151.4026  137.1408  155.5022 C   0  0  0  0  0  0  0  0  0  0  0  0
  151.2977  137.9490  156.6700 C   0  0  0  0  0  0  0  0  0  0  0  0
  150.5577  137.2818  157.6395 N   0  0  0  0  0  0  0  0  0  0  0  0
  150.2544  136.1418  157.0819 C   0  0  0  0  0  0  0  0  0  0  0  0
  150.7100  135.9783  155.7933 N   0  0  0  0  0  0  0  0  0  0  0  0
  150.5151  134.8146  154.9419 C   0  0  0  0  0  0  0  0  0  0  0  0
  149.0277  134.4582  154.6730 C   0  0  2  0  0  0  0  0  0  0  0  0
  148.3510  135.6331  154.2620 O   0  0  0  0  0  0  0  0  0  0  0  0
  148.3023  133.8703  155.8785 C   0  0  0  0  0  0  0  0  0  0  0  0
  148.6677  132.3976  155.7845 C   0  0  0  0  0  0  0  0  0  0  0  0
  148.6139  132.1270  154.3918 O   0  0  0  0  0  0  0  0  0  0  0  0
  148.9107  133.3061  153.6418 C   0  0  1  0  0  0  0  0  0  0  0  0
  147.7921  133.4557  152.5961 C   0  0  0  0  0  0  0  0  0  0  0  0
  151.7510  138.1788  160.4985 H   0  0  0  0  0  0  0  0  0  0  0  0
  153.2085  138.9785  159.9373 H   0  0  0  0  0  0  0  0  0  0  0  0
  152.4562  137.7207  158.9513 H   0  0  0  0  0  0  0  0  0  0  0  0
  150.4060  139.1719  158.7240 H   0  0  0  0  0  0  0  0  0  0  0  0
  151.2126  140.4628  159.5840 H   0  0  0  0  0  0  0  0  0  0  0  0
  152.6118  141.8233  156.6520 H   0  0  0  0  0  0  0  0  0  0  0  0
  150.9010  141.5876  156.6181 H   0  0  0  0  0  0  0  0  0  0  0  0
  150.7743  142.1156  159.1091 H   0  0  0  0  0  0  0  0  0  0  0  0
  152.0217  144.1545  157.2232 H   0  0  0  0  0  0  0  0  0  0  0  0
  150.3471  144.1063  157.7786 H   0  0  0  0  0  0  0  0  0  0  0  0
  152.3860  145.5604  159.0238 H   0  0  0  0  0  0  0  0  0  0  0  0
  150.9619  144.9867  159.8933 H   0  0  0  0  0  0  0  0  0  0  0  0
  153.6509  144.0593  160.3423 H   0  0  0  0  0  0  0  0  0  0  0  0
  152.1637  143.3709  161.0021 H   0  0  0  0  0  0  0  0  0  0  0  0
  153.1332  139.0142  153.5519 H   0  0  0  0  0  0  0  0  0  0  0  0
  149.6774  135.3864  157.5956 H   0  0  0  0  0  0  0  0  0  0  0  0
  151.0306  134.9962  153.9977 H   0  0  0  0  0  0  0  0  0  0  0  0
  151.0309  133.9723  155.4044 H   0  0  0  0  0  0  0  0  0  0  0  0
  148.5931  135.8216  153.3684 H   0  0  0  0  0  0  0  0  0  0  0  0
  148.5665  134.3188  156.8348 H   0  0  0  0  0  0  0  0  0  0  0  0
  147.2222  133.9724  155.7598 H   0  0  0  0  0  0  0  0  0  0  0  0
  149.6794  132.2215  156.1515 H   0  0  0  0  0  0  0  0  0  0  0  0
  147.9851  131.7569  156.3426 H   0  0  0  0  0  0  0  0  0  0  0  0
  149.8577  133.1607  153.1200 H   0  0  0  0  0  0  0  0  0  0  0  0
  147.9658  134.3147  151.9472 H   0  0  0  0  0  0  0  0  0  0  0  0
  146.8182  133.5797  153.0706 H   0  0  0  0  0  0  0  0  0  0  0  0
  147.7383  132.5726  151.9592 H   0  0  0  0  0  0  0  0  0  0  0  0
  1  2  1  0  0  0  0
  1 27  1  0  0  0  0
  1 28  1  0  0  0  0
  1 29  1  0  0  0  0
  2  3  1  0  0  0  0
  2 30  1  0  0  0  0
  2 31  1  0  0  0  0
  3  4  1  0  0  0  0
  3 10  1  0  0  0  0
  4  5  1  0  0  0  0
  4 32  1  0  0  0  0
  4 33  1  0  0  0  0
  5  9  1  0  0  0  0
  5  6  1  0  0  0  0
  5 34  1  0  0  0  0
  6  7  1  0  0  0  0
  6 35  1  0  0  0  0
  6 36  1  0  0  0  0
  7  8  1  0  0  0  0
  7 37  1  0  0  0  0
  7 38  1  0  0  0  0
  8  9  1  0  0  0  0
  8 39  1  0  0  0  0
  8 40  1  0  0  0  0
 10 15  1  0  0  0  0
 10 11  2  0  0  0  0
 11 12  1  0  0  0  0
 12 13  2  0  0  0  0
 12 41  1  0  0  0  0
 13 14  1  0  0  0  0
 14 18  1  0  0  0  0
 14 15  2  0  0  0  0
 15 16  1  0  0  0  0
 16 17  2  0  0  0  0
 17 18  1  0  0  0  0
 17 42  1  0  0  0  0
 18 19  1  0  0  0  0
 19 20  1  0  0  0  0
 19 43  1  0  0  0  0
 19 44  1  0  0  0  0
 20 25  1  0  0  0  0
 20 21  1  0  0  0  0
 20 22  1  0  0  0  0
 21 45  1  0  0  0  0
 22 23  1  0  0  0  0
 22 46  1  0  0  0  0
 22 47  1  0  0  0  0
 23 24  1  0  0  0  0
 23 48  1  0  0  0  0
 23 49  1  0  0  0  0
 24 25  1  0  0  0  0
 25 26  1  0  0  0  0
 25 50  1  0  0  0  0
 26 51  1  0  0  0  0
 26 52  1  0  0  0  0
 26 53  1  0  0  0  0
M  END
> <s_m_source_file>
AV-unprocessed.smi

> <i_m_source_file_index>
15

> <i_lp_mmshare_version>
43012

> <i_f3d_flags>
0

> <s_epik_input>
TzFbQ0gyXVtDSDJdW0NIMl1bQ0BIXTFbQ0gyXU4oW0NIMl1bQ0gzXSljKG5bY0hdbjIpYyhjMjMpbltjSF1uM1tDSDJdW0NAQF00KFtPSF0pW0NIMl1bQ0gyXU9bQ0BIXTRbQ0gzXQ==

> <s_epik_cmdline>
J2VwaWtfcHl0aG9uJywgJy1waCcsICc3LjAnLCAnLXRuJywgJzgnLCAnLW1hJywgJzIwMCcsICctbWV0YWxfYmluZGluZycsICctaW1hZScsICc8aW5maWxlLm1hZT4nLCAnLW9tYWUnLCAnPG91dGZpbGUubWFlPic=

> <r_lp_tautomer_probability>
1

> <r_epik_Ionization_Penalty>
0.00360814

> <r_epik_Ionization_Penalty_Charging>
0

> <r_epik_Ionization_Penalty_Neutral>
0.00360814

> <r_epik_State_Penalty>
0.00237482

> <r_epik_Charging_Adjusted_Penalty>
0.00237482

> <i_epik_Tot_Q>
0

> <i_epik_Tot_abs_Q>
0

> <r_epik_Metal_State_Penalty>
-0

> <b_epik_Metal_Only>
0

> <s_lp_Force_Field>
OPLS_2005

> <r_lp_Energy>
47.2651

> <b_lp_Chiralities_Consistent>
1

> <s_lp_Variant>
AV-unprocessed.smi:15-3

> <Gold.Version>
5.8.1

> <Gold.Id.Protein>
6NUR|6NUR_protein|mol2

> <Gold.PLP.Fitness>
48.5912

> <Gold.PLP.PLP>
-41.1184

> <Gold.PLP.part.hbond>
-3.0000

> <Gold.PLP.part.metal>
0.0000

> <Gold.PLP.part.buried>
-7.2449

> <Gold.PLP.part.nonpolar>
-30.9381

> <Gold.PLP.part.repulsive>
0.1777

> <Gold.PLP.ligand.clash>
0.0000

> <Gold.PLP.ligand.torsion>
0.8620

> <Gold.PLP.Chemscore.Hbond>
2.7680

> <Gold.PLP.Chemscore.CHOScore>
0.0000

> <Gold.PLP.Chemscore.Metal>
0.0000

> <Gold.Chemscore.Hbonds>
donor molecule, donor type, donor heavy atom, donor atom, acceptor molecule, acceptor atom, score
      L1  H    21    45       P1  7948  1.00
      P1  H  7997  8009       L1    11  1.00
      P1  H 10752 10764       L1    13  0.72

> <Gold.PLP.Chemscore.Internal.Correction>
0.8926

> <Gold.Rescore>
     Score         DG    S(hbond)    S(metal)    S(lipo)     H(rot)  DE(clash)    DE(int)     intcor
     15.21     -17.64       2.18        0.00      95.10       2.44       0.10       2.33       ----

> <Gold.Chemscore.Fitness>
15.2088

> <Gold.Chemscore.DG>
-17.6422

> <Gold.Chemscore.ZeroCoef>
-5.4800

> <Gold.Chemscore.Hbond>
2.1827

> <Gold.Chemscore.Metal>
0.0000

> <Gold.Chemscore.Lipo>
95.0970

> <Gold.Chemscore.Internal_Hbond>
0.0000

> <Gold.Chemscore.DEClash>
0.1043

> <Gold.Chemscore.DEInternal>
2.3291

> <Gold.Chemscore.Rot>
2.4431

> <Gold.Chemscore.Internal.Correction>
   9.000000E+99

> <Gold.Chemscore.Hbonds>
donor molecule, donor type, donor heavy atom, donor atom, acceptor molecule, acceptor atom, score
      L1  H    21    45       P1  7948  0.98
      P1  H  7997  8009       L1    11  0.27
      P1  H 10752 10764       L1    13  0.21

> <Gold.Chemscore.Hbond.Weighted>
-7.2903

> <Gold.Chemscore.Metal.Weighted>
-0.0000

> <Gold.Chemscore.Lipo.Weighted>
-11.1263

> <Gold.Chemscore.Internal_Hbond.Weighted>
0.0000

> <Gold.Chemscore.DEClash.Weighted>
0.1043

> <Gold.Chemscore.DEInternal.Weighted>
2.3291

> <Gold.Chemscore.Rot.Weighted>
6.2544

> <Gold.Chemscore.Internal.Correction.Weighted>
   9.000000E+99

> <Gold.Protein.RotatedTorsions>
[ 6907 6896 6895 6894 ] final  -32.52 input  -60.11 | X-H torsion
[ 7974 7965 7964 7962 ] final  -33.68 input  175.53 | X-H torsion
[ 8008 7997 7996 7995 ] final -152.56 input   59.86 | X-H torsion
[ 10167 10162 10161 10158 ] final -127.45 input  -65.29 | X-H torsion
[ 10718 10713 10712 10709 ] final  135.23 input   66.30 | X-H torsion
[ 10763 10752 10751 10750 ] final  -98.32 input  -60.55 | X-H torsion
[ 11005 11000 10999 10996 ] final -171.40 input  -57.11 | X-H torsion

> <Gold.Protein.ActiveResidues>
 VAL166  LYS551  ARG553  GLY616  TRP617  ASP618  TYR619  PRO620  LYS621  CYS622 
 ASP623  PHE694  ASN695  SER759  ASP760  ASP761  ALA762  ILE779  LEU786  VAL792 
 PHE793  MET794  SER795  GLU796  ALA797  LYS798  CYS799  TRP800  GLU811  SER814 

> <Gold.Protein.RotatedAtoms>
  151.0776  134.9838  159.8339 H   0  0  0  0  0  0  0  0  0  0  0  0  # atno 6907 bound_to 6896
  152.5416  134.2221  159.8802 H   0  0  0  0  0  0  0  0  0  0  0  0  # atno 6908 bound_to 6896
  151.2249  133.4438  159.2635 H   0  0  0  0  0  0  0  0  0  0  0  0  # atno 6909 bound_to 6896
  146.0891  140.5945  142.8872 H   0  0  0  0  0  0  0  0  0  0  0  0  # atno 7974 bound_to 7965
  155.6571  140.0718  157.2567 H   0  0  0  0  0  0  0  0  0  0  0  0  # atno 8008 bound_to 7997
  154.4150  140.1723  156.1787 H   0  0  0  0  0  0  0  0  0  0  0  0  # atno 8009 bound_to 7997
  155.9728  140.3360  155.6595 H   0  0  0  0  0  0  0  0  0  0  0  0  # atno 8010 bound_to 7997
  139.9607  143.5953  152.2446 H   0  0  0  0  0  0  0  0  0  0  0  0  # atno 10167 bound_to 10162
  157.4592  131.1072  150.9940 H   0  0  0  0  0  0  0  0  0  0  0  0  # atno 10718 bound_to 10713
  154.7404  135.5013  153.9113 H   0  0  0  0  0  0  0  0  0  0  0  0  # atno 10763 bound_to 10752
  153.1037  135.6692  153.9633 H   0  0  0  0  0  0  0  0  0  0  0  0  # atno 10764 bound_to 10752
  153.9411  135.3067  155.3421 H   0  0  0  0  0  0  0  0  0  0  0  0  # atno 10765 bound_to 10752
  140.5087  134.5823  157.5012 H   0  0  0  0  0  0  0  0  0  0  0  0  # atno 11005 bound_to 11000
  144.7347  140.4774  143.6912 LP  0  0  0  0  0  0  0  0  0  0  0  0  # atno 17320 bound_to 7965
  145.6073  139.1509  143.3096 LP  0  0  0  0  0  0  0  0  0  0  0  0  # atno 17321 bound_to 7965
  139.6556  144.7662  151.2062 LP  0  0  0  0  0  0  0  0  0  0  0  0  # atno 17342 bound_to 10162
  140.7554  143.6091  150.8623 LP  0  0  0  0  0  0  0  0  0  0  0  0  # atno 17343 bound_to 10162
  157.0744  130.5877  149.5408 LP  0  0  0  0  0  0  0  0  0  0  0  0  # atno 17370 bound_to 10713
  156.0021  130.5102  150.7700 LP  0  0  0  0  0  0  0  0  0  0  0  0  # atno 17371 bound_to 10713
  139.9671  134.7354  156.0116 LP  0  0  0  0  0  0  0  0  0  0  0  0  # atno 17394 bound_to 11000
  141.1397  133.6567  156.3695 LP  0  0  0  0  0  0  0  0  0  0  0  0  # atno 17395 bound_to 11000

$$$$
