#       Name:                AV-unprocessed.smi:2410
#       Creating user name   scv26
#       Creation time:       Fri Mar 27 13:15:48 2020


#       File generated by GOLD software.
#

@<TRIPOS>MOLECULE
AV-unprocessed.smi:2410
    52    54     1
SMALL
NO_CHARGES


@<TRIPOS>ATOM
      1 ****        -3.1086   4.4015   2.5172 C.3            1 S1                 0.0000
      2 ****        -2.9189   3.2449   1.5518 C.ar           1 S1                 0.0000
      3 ****        -3.5112   3.3149   0.2704 C.ar           1 S1                 0.0000
      4 ****        -3.3543   2.2629  -0.6585 C.ar           1 S1                 0.0000
      5 ****        -3.8364   2.1218  -1.9490 N.2            1 S1                 0.0000
      6 ****        -3.3465   0.9330  -2.2897 C.2            1 S1                 0.0000
      7 ****        -2.6024   0.2873  -1.3713 N.pl3          1 S1                 0.0000
      8 ****        -1.9613  -1.0077  -1.5065 C.3            1 S1                 0.0000
      9 ****        -0.4381  -0.8853  -1.7034 C.3            1 S1                 0.0000
     10 ****        -0.1992  -0.2115  -2.9245 O.3            1 S1                 0.0000
     11 ****         0.2497  -2.2665  -1.7548 C.3            1 S1                 0.0000
     12 ****         1.6511  -2.2003  -1.3084 N.am           1 S1                 0.0000
     13 ****         2.6243  -2.1405  -2.3188 C.2            1 S1                 0.0000
     14 ****         3.8864  -2.0858  -2.0433 N.2            1 S1                 0.0000
     15 ****         4.3096  -2.0780  -0.7110 C.2            1 S1                 0.0000
     16 ****         5.8122  -2.0195  -0.5002 C.3            1 S1                 0.0000
     17 ****         3.4160  -2.1183   0.3151 C.2            1 S1                 0.0000
     18 ****         3.8177  -2.1080   1.7848 C.3            1 S1                 0.0000
     19 ****         1.9759  -2.1756   0.0169 C.2            1 S1                 0.0000
     20 ****         1.1111  -2.1987   0.8952 O.2            1 S1                 0.0000
     21 ****        -2.5825   1.1306  -0.2666 C.ar           1 S1                 0.0000
     22 ****        -1.9916   1.0471   1.0064 C.ar           1 S1                 0.0000
     23 ****        -2.1582   2.1068   1.9221 C.ar           1 S1                 0.0000
     24 ****        -1.5124   2.0084   3.2929 C.3            1 S1                 0.0000
     25 ****        -3.6934   5.2040   2.0671 H              1 S1                 0.0000
     26 ****        -2.1438   4.8154   2.8114 H              1 S1                 0.0000
     27 ****        -3.6317   4.0686   3.4138 H              1 S1                 0.0000
     28 ****        -4.0911   4.1814  -0.0115 H              1 S1                 0.0000
     29 ****        -3.5353   0.5084  -3.2649 H              1 S1                 0.0000
     30 ****        -2.1788  -1.5815  -0.6047 H              1 S1                 0.0000
     31 ****        -2.4181  -1.5465  -2.3381 H              1 S1                 0.0000
     32 ****        -0.0256  -0.2859  -0.8907 H              1 S1                 0.0000
     33 ****        -0.5872  -0.7120  -3.6258 H              1 S1                 0.0000
     34 ****        -0.2799  -2.9617  -1.1006 H              1 S1                 0.0000
     35 ****         0.1504  -2.7117  -2.7472 H              1 S1                 0.0000
     36 ****         2.2415  -2.1403  -3.3407 H              1 S1                 0.0000
     37 ****         6.1547  -2.8949   0.0519 H              1 S1                 0.0000
     38 ****         6.0850  -1.1242   0.0594 H              1 S1                 0.0000
     39 ****         6.3463  -1.9952  -1.4510 H              1 S1                 0.0000
     40 ****         3.3911  -1.2373   2.2843 H              1 S1                 0.0000
     41 ****         4.8955  -2.0765   1.9355 H              1 S1                 0.0000
     42 ****         3.4433  -3.0027   2.2837 H              1 S1                 0.0000
     43 ****        -1.4120   0.1755   1.2732 H              1 S1                 0.0000
     44 ****        -1.0184   1.0461   3.4314 H              1 S1                 0.0000
     45 ****        -2.2602   2.1147   4.0790 H              1 S1                 0.0000
     46 ****        -0.7639   2.7911   3.4178 H              1 S1                 0.0000
     47 ****        -4.4034   2.7484  -2.4837 LP             1 S1                 0.0000
     48 ****         0.7857  -0.1271  -3.0757 LP             1 S1                 0.0000
     49 ****        -0.6108   0.6994  -2.8929 LP             1 S1                 0.0000
     50 ****         4.5590  -2.0491  -2.7824 LP             1 S1                 0.0000
     51 ****         0.1439  -2.2364   0.6438 LP             1 S1                 0.0000
     52 ****         1.3767  -2.1796   1.8591 LP             1 S1                 0.0000
@<TRIPOS>BOND
    1    1    2 1     
    2    1   25 1     
    3    1   26 1     
    4    1   27 1     
    5    2   23 ar    
    6    2    3 ar    
    7    3    4 ar    
    8    3   28 1     
    9    4   21 ar    
   10    4    5 1     
   11    5    6 2     
   12    6    7 1     
   13    6   29 1     
   14    7    8 1     
   15    7   21 1     
   16    8    9 1     
   17    8   30 1     
   18    8   31 1     
   19    9   10 1     
   20    9   11 1     
   21    9   32 1     
   22   10   33 1     
   23   11   12 1     
   24   11   34 1     
   25   11   35 1     
   26   12   19 am    
   27   12   13 1     
   28   13   14 2     
   29   13   36 1     
   30   14   15 1     
   31   15   16 1     
   32   15   17 2     
   33   16   37 1     
   34   16   38 1     
   35   16   39 1     
   36   17   18 1     
   37   17   19 1     
   38   18   40 1     
   39   18   41 1     
   40   18   42 1     
   41   19   20 2     
   42   21   22 ar    
   43   22   23 ar    
   44   22   43 1     
   45   23   24 1     
   46   24   44 1     
   47   24   45 1     
   48   24   46 1     
   49    5   47 1     
   50   10   48 1     
   51   10   49 1     
   52   14   50 1     
   53   20   51 1     
   54   20   52 1     
@<TRIPOS>SUBSTRUCTURE
      1 S1             1
@<TRIPOS>SET
LONE_PAIRS      STATIC     ATOMS    <user>   **** ""
6 47 48 49 50 51 52
DONOR_HYDROGENS      STATIC     ATOMS    <user>   **** ""
1 33
ATOM$BLUE        STATIC     ATOMS    COLORGROUP SYSTEM
6 47 48 49 50 51 52
ATOM$RED        STATIC     ATOMS    COLORGROUP SYSTEM
1 33
