AV-unprocessed.smi:157|AV-procd|sdf|1312|dock2
  -GOLD-   2262019 03D 1   1.00000     0.00000
 Structure written by MMmdl.
 36 38  0  0  0  0  0  0  0  0  2 V2000
  151.8794  137.3371  154.0456 O   0  0  0  0  0  0  0  0  0  0  0  0
  152.6434  138.2320  154.8257 C   0  0  0  0  0  0  0  0  0  0  0  0
  151.7336  138.9983  155.8020 C   0  0  2  0  0  0  0  0  0  0  0  0
  152.4398  140.0646  156.4315 O   0  0  0  0  0  0  0  0  0  0  0  0
  151.9690  140.2576  157.7332 C   0  0  1  0  0  0  0  0  0  0  0  0
  151.4944  141.6686  157.8620 N   0  0  0  0  0  0  0  0  0  0  0  0
  150.6912  142.3227  156.9968 C   0  0  0  0  0  0  0  0  0  0  0  0
  150.4145  143.5679  157.3450 N   0  3  0  0  0  0  0  0  0  0  0  0
  151.0707  143.7955  158.5362 C   0  0  0  0  0  0  0  0  0  0  0  0
  151.7254  142.6008  158.8475 C   0  0  0  0  0  0  0  0  0  0  0  0
  152.5241  142.2748  159.9545 N   0  0  0  0  0  0  0  0  0  0  0  0
  152.5538  142.9842  161.0355 C   0  0  0  0  0  0  0  0  0  0  0  0
  151.9299  144.1904  161.3069 N   0  0  0  0  0  0  0  0  0  0  0  0
  151.9347  145.3124  160.3852 C   0  0  0  0  0  0  0  0  0  0  0  0
  150.9813  145.1361  159.1962 C   0  0  2  0  0  0  0  0  0  0  0  0
  149.6695  145.4469  159.6188 O   0  0  0  0  0  0  0  0  0  0  0  0
  150.8085  139.2845  157.9574 C   0  0  0  0  0  0  0  0  0  0  0  0
  151.1192  138.1921  156.9560 C   0  0  2  0  0  0  0  0  0  0  0  0
  152.0251  137.2533  157.5043 O   0  0  0  0  0  0  0  0  0  0  0  0
  150.9213  139.4624  155.2395 H   0  0  0  0  0  0  0  0  0  0  0  0
  152.7849  140.1442  158.4479 H   0  0  0  0  0  0  0  0  0  0  0  0
  151.2417  145.8884  158.4508 H   0  0  0  0  0  0  0  0  0  0  0  0
  150.2196  137.6608  156.6433 H   0  0  0  0  0  0  0  0  0  0  0  0
  151.7383  137.7251  153.1953 H   0  0  0  0  0  0  0  0  0  0  0  0
  153.4282  137.6874  155.3510 H   0  0  0  0  0  0  0  0  0  0  0  0
  153.1401  138.9326  154.1540 H   0  0  0  0  0  0  0  0  0  0  0  0
  150.3124  141.8650  156.1005 H   0  0  0  0  0  0  0  0  0  0  0  0
  153.1448  142.6311  161.8818 H   0  0  0  0  0  0  0  0  0  0  0  0
  151.8752  144.5008  162.2668 H   0  0  0  0  0  0  0  0  0  0  0  0
  151.7125  146.2326  160.9271 H   0  0  0  0  0  0  0  0  0  0  0  0
  152.9531  145.4213  160.0088 H   0  0  0  0  0  0  0  0  0  0  0  0
  149.1277  145.5798  158.8564 H   0  0  0  0  0  0  0  0  0  0  0  0
  150.7612  138.9505  158.9947 H   0  0  0  0  0  0  0  0  0  0  0  0
  149.8644  139.7671  157.6990 H   0  0  0  0  0  0  0  0  0  0  0  0
  152.9039  137.5176  157.2771 H   0  0  0  0  0  0  0  0  0  0  0  0
  149.8392  144.2223  156.8300 H   0  0  0  0  0  0  0  0  0  0  0  0
  1  2  1  0  0  0  0
  1 24  1  0  0  0  0
  2  3  1  0  0  0  0
  2 25  1  0  0  0  0
  2 26  1  0  0  0  0
  3 20  1  0  0  0  0
  3 18  1  0  0  0  0
  3  4  1  0  0  0  0
  4  5  1  0  0  0  0
  5 21  1  0  0  0  0
  5  6  1  0  0  0  0
  5 17  1  0  0  0  0
  6 10  1  0  0  0  0
  6  7  1  0  0  0  0
  7  8  2  0  0  0  0
  7 27  1  0  0  0  0
  8  9  1  0  0  0  0
  8 36  1  0  0  0  0
  9 15  1  0  0  0  0
  9 10  2  0  0  0  0
 10 11  1  0  0  0  0
 11 12  2  0  0  0  0
 12 13  1  0  0  0  0
 12 28  1  0  0  0  0
 13 14  1  0  0  0  0
 13 29  1  0  0  0  0
 14 15  1  0  0  0  0
 14 30  1  0  0  0  0
 14 31  1  0  0  0  0
 15 22  1  0  0  0  0
 15 16  1  0  0  0  0
 16 32  1  0  0  0  0
 17 18  1  0  0  0  0
 17 33  1  0  0  0  0
 17 34  1  0  0  0  0
 18 23  1  0  0  0  0
 18 19  1  0  0  0  0
 19 35  1  0  0  0  0
M  CHG  1   8   1
M  END
> <s_m_source_file>
AV-unprocessed.smi

> <i_m_source_file_index>
157

> <i_lp_mmshare_version>
43012

> <i_f3d_flags>
0

> <s_epik_input>
W09IXVtDSDJdW0NASF0xT1tDQEhdKFtDSDJdW0NAQEhdMVtPSF0pbihbY0hdbjIpYyhjMjMpTj1bQ0hdW05IXVtDSDJdW0NASF0zW09IXQ==

> <s_epik_cmdline>
J2VwaWtfcHl0aG9uJywgJy1waCcsICc3LjAnLCAnLXRuJywgJzgnLCAnLW1hJywgJzIwMCcsICctbWV0YWxfYmluZGluZycsICctaW1hZScsICc8aW5maWxlLm1hZT4nLCAnLW9tYWUnLCAnPG91dGZpbGUubWFlPic=

> <r_epik_Ionization_Penalty>
1.68594

> <r_epik_Ionization_Penalty_Charging>
0

> <r_epik_Ionization_Penalty_Neutral>
1.68594

> <r_epik_State_Penalty>
1.79006

> <r_epik_Charging_Adjusted_Penalty>
1.79006

> <i_epik_Tot_Q>
1

> <i_epik_Tot_abs_Q>
1

> <r_epik_Metal_State_Penalty>
5.85324

> <b_epik_Metal_Only>
0

> <s_epik_Chemistry_Notes>
This compound has an imine and may undergo hydrolysis. This compound contains an acetal/aminal-like group ( X-CH(R)-Y where X, Y are N, S, or O) that may be acid/base labile, releasing an aldehyde.

> <s_lp_Force_Field>
OPLS_2005

> <r_lp_Energy>
55.0153

> <b_lp_Chiralities_Consistent>
1

> <s_lp_Variant>
AV-unprocessed.smi:157-22

> <Gold.Version>
5.8.1

> <Gold.Id.Protein>
6NUR|6NUR_protein|mol2

> <Gold.PLP.Fitness>
51.6266

> <Gold.PLP.PLP>
-37.2416

> <Gold.PLP.part.hbond>
-6.0246

> <Gold.PLP.part.metal>
0.0000

> <Gold.PLP.part.buried>
-6.0673

> <Gold.PLP.part.nonpolar>
-26.3678

> <Gold.PLP.part.repulsive>
0.0632

> <Gold.PLP.ligand.clash>
0.0000

> <Gold.PLP.ligand.torsion>
0.3107

> <Gold.PLP.Chemscore.Hbond>
5.0000

> <Gold.PLP.Chemscore.CHOScore>
0.0000

> <Gold.PLP.Chemscore.Metal>
0.0000

> <Gold.Chemscore.Hbonds>
donor molecule, donor type, donor heavy atom, donor atom, acceptor molecule, acceptor atom, score
      L1  H     8    36       P1  8028  2.00
      L1  H    16    32       P1  8029  1.00
      P1  H  7997  8009       L1     4  1.00
      P1  H 10752 10763       L1     1  1.00

> <Gold.PLP.Chemscore.Internal.Correction>
0.0063

> <Gold.Rescore>
     Score         DG    S(hbond)    S(metal)    S(lipo)     H(rot)  DE(clash)    DE(int)     intcor
     13.88     -14.43       3.49        0.00      57.00       3.67       0.46       0.08       ----

> <Gold.Chemscore.Fitness>
13.8847

> <Gold.Chemscore.DG>
-14.4326

> <Gold.Chemscore.ZeroCoef>
-5.4800

> <Gold.Chemscore.Hbond>
3.4935

> <Gold.Chemscore.Metal>
0.0000

> <Gold.Chemscore.Lipo>
57.0014

> <Gold.Chemscore.Internal_Hbond>
0.0000

> <Gold.Chemscore.DEClash>
0.4647

> <Gold.Chemscore.DEInternal>
0.0833

> <Gold.Chemscore.Rot>
3.6659

> <Gold.Chemscore.Internal.Correction>
   9.000000E+99

> <Gold.Chemscore.Hbonds>
donor molecule, donor type, donor heavy atom, donor atom, acceptor molecule, acceptor atom, score
      L1  H     8    36       P1  8028  0.85
      L1  H    16    32       P1  8029  0.93
      P1  H  7997  8009       L1     4  0.77
      P1  H 10752 10763       L1     1  0.27

> <Gold.Chemscore.Hbond.Weighted>
-11.6683

> <Gold.Chemscore.Metal.Weighted>
-0.0000

> <Gold.Chemscore.Lipo.Weighted>
-6.6692

> <Gold.Chemscore.Internal_Hbond.Weighted>
0.0000

> <Gold.Chemscore.DEClash.Weighted>
0.4647

> <Gold.Chemscore.DEInternal.Weighted>
0.0833

> <Gold.Chemscore.Rot.Weighted>
9.3848

> <Gold.Chemscore.Internal.Correction.Weighted>
   9.000000E+99

> <Gold.Protein.RotatedTorsions>
[ 6907 6896 6895 6894 ] final -166.49 input  -60.11 | X-H torsion
[ 7974 7965 7964 7962 ] final  -29.39 input  175.53 | X-H torsion
[ 8008 7997 7996 7995 ] final -165.45 input   59.86 | X-H torsion
[ 10167 10162 10161 10158 ] final   32.59 input  -65.29 | X-H torsion
[ 10718 10713 10712 10709 ] final -113.37 input   66.30 | X-H torsion
[ 10763 10752 10751 10750 ] final   34.31 input  -60.55 | X-H torsion
[ 11005 11000 10999 10996 ] final   41.54 input  -57.11 | X-H torsion

> <Gold.Protein.ActiveResidues>
 VAL166  LYS551  ARG553  GLY616  TRP617  ASP618  TYR619  PRO620  LYS621  CYS622 
 ASP623  PHE694  ASN695  SER759  ASP760  ASP761  ALA762  ILE779  LEU786  VAL792 
 PHE793  MET794  SER795  GLU796  ALA797  LYS798  CYS799  TRP800  GLU811  SER814 

> <Gold.Protein.RotatedAtoms>
  151.4445  133.3634  159.2786 H   0  0  0  0  0  0  0  0  0  0  0  0  # atno 6907 bound_to 6896
  150.9134  134.8553  159.7451 H   0  0  0  0  0  0  0  0  0  0  0  0  # atno 6908 bound_to 6896
  152.4944  134.4376  159.9585 H   0  0  0  0  0  0  0  0  0  0  0  0  # atno 6909 bound_to 6896
  146.1220  140.5406  142.8731 H   0  0  0  0  0  0  0  0  0  0  0  0  # atno 7974 bound_to 7965
  155.8499  140.0961  157.1681 H   0  0  0  0  0  0  0  0  0  0  0  0  # atno 8008 bound_to 7997
  154.3985  140.1385  156.3893 H   0  0  0  0  0  0  0  0  0  0  0  0  # atno 8009 bound_to 7997
  155.7972  140.3454  155.5385 H   0  0  0  0  0  0  0  0  0  0  0  0  # atno 8010 bound_to 7997
  140.4484  144.1084  150.6187 H   0  0  0  0  0  0  0  0  0  0  0  0  # atno 10167 bound_to 10162
  156.0762  130.5969  150.8633 H   0  0  0  0  0  0  0  0  0  0  0  0  # atno 10718 bound_to 10713
  153.0170  135.6364  154.1649 H   0  0  0  0  0  0  0  0  0  0  0  0  # atno 10763 bound_to 10752
  154.1387  135.2836  155.3168 H   0  0  0  0  0  0  0  0  0  0  0  0  # atno 10764 bound_to 10752
  154.6141  135.5547  153.7565 H   0  0  0  0  0  0  0  0  0  0  0  0  # atno 10765 bound_to 10752
  140.1824  134.4087  155.8192 H   0  0  0  0  0  0  0  0  0  0  0  0  # atno 11005 bound_to 11000
  144.7606  140.5413  143.6738 LP  0  0  0  0  0  0  0  0  0  0  0  0  # atno 17320 bound_to 7965
  145.5446  139.1475  143.3428 LP  0  0  0  0  0  0  0  0  0  0  0  0  # atno 17321 bound_to 7965
  140.4236  143.2600  151.9685 LP  0  0  0  0  0  0  0  0  0  0  0  0  # atno 17342 bound_to 10162
  139.4794  144.5809  151.7935 LP  0  0  0  0  0  0  0  0  0  0  0  0  # atno 17343 bound_to 10162
  157.5859  131.0945  150.9197 LP  0  0  0  0  0  0  0  0  0  0  0  0  # atno 17370 bound_to 10713
  156.9383  130.5375  149.5280 LP  0  0  0  0  0  0  0  0  0  0  0  0  # atno 17371 bound_to 10713
  141.2223  133.7007  156.7954 LP  0  0  0  0  0  0  0  0  0  0  0  0  # atno 17394 bound_to 11000
  140.2252  134.8727  157.3419 LP  0  0  0  0  0  0  0  0  0  0  0  0  # atno 17395 bound_to 11000

$$$$
