#       Name:                AV-unprocessed.smi:110
#       Creating user name   scv26
#       Creation time:       Thu Mar 26 18:16:26 2020


#       File generated by GOLD software.
#

@<TRIPOS>MOLECULE
AV-unprocessed.smi:110
    57    61     1
SMALL
NO_CHARGES


@<TRIPOS>ATOM
      1 ****        -5.6708  -0.4687  -1.0067 O.3            1 S1                 0.0000
      2 ****        -5.1819  -1.7467  -1.3541 C.3            1 S1                 0.0000
      3 ****        -3.6533  -1.7006  -1.5299 C.3            1 S1                 0.0000
      4 ****        -2.9881  -1.8054  -0.2715 O.3            1 S1                 0.0000
      5 ****        -1.7410  -2.4186  -0.4180 C.3            1 S1                 0.0000
      6 ****        -0.6829  -1.4390  -0.0134 N.pl3          1 S1                 0.0000
      7 ****         0.2690  -1.6095   0.9664 C.2            1 S1                 0.0000
      8 ****         1.0853  -0.6062   1.1365 N.2            1 S1                 0.0000
      9 ****         0.6535   0.3453   0.2207 C.ar           1 S1                 0.0000
     10 ****         1.0836   1.6564  -0.1332 C.ar           1 S1                 0.0000
     11 ****         2.1313   2.3019   0.4295 N.pl3          1 S1                 0.0000
     12 ****         3.2100   2.7776  -0.4491 C.3            1 S1                 0.0000
     13 ****         4.4737   2.9570   0.4135 C.3            1 S1                 0.0000
     14 ****         3.9464   2.6093   1.7676 C.ar           1 S1                 0.0000
     15 ****         4.6448   2.6350   2.9872 C.ar           1 S1                 0.0000
     16 ****         3.9446   2.2851   4.1617 C.ar           1 S1                 0.0000
     17 ****         2.5772   1.9289   4.0997 C.ar           1 S1                 0.0000
     18 ****         1.8956   1.9118   2.8629 C.ar           1 S1                 0.0000
     19 ****         2.6063   2.2440   1.6913 C.ar           1 S1                 0.0000
     20 ****         0.4301   2.2826  -1.1441 N.ar           1 S1                 0.0000
     21 ****        -0.6020   1.6860  -1.7453 C.ar           1 S1                 0.0000
     22 ****        -1.1205   0.4803  -1.5085 N.ar           1 S1                 0.0000
     23 ****        -0.4537  -0.1706  -0.5124 C.ar           1 S1                 0.0000
     24 ****        -1.5949  -2.8394  -1.8876 C.3            1 S1                 0.0000
     25 ****        -0.9863  -4.1065  -2.0543 O.3            1 S1                 0.0000
     26 ****        -3.0461  -2.8420  -2.3560 C.3            1 S1                 0.0000
     27 ****        -3.7037  -4.0678  -2.0740 O.3            1 S1                 0.0000
     28 ****        -3.3709  -0.7607  -2.0040 H              1 S1                 0.0000
     29 ****        -1.6563  -3.2464   0.2874 H              1 S1                 0.0000
     30 ****        -1.0328  -2.0866  -2.4405 H              1 S1                 0.0000
     31 ****        -3.1235  -2.6519  -3.4269 H              1 S1                 0.0000
     32 ****        -6.6098  -0.5215  -0.9136 H              1 S1                 0.0000
     33 ****        -5.4748  -2.4807  -0.6028 H              1 S1                 0.0000
     34 ****        -5.6589  -2.0322  -2.2921 H              1 S1                 0.0000
     35 ****         0.3458  -2.5135   1.5530 H              1 S1                 0.0000
     36 ****         3.3907   2.0656  -1.2558 H              1 S1                 0.0000
     37 ****         2.9167   3.7253  -0.9017 H              1 S1                 0.0000
     38 ****         5.2691   2.2702   0.1235 H              1 S1                 0.0000
     39 ****         4.8495   3.9800   0.3883 H              1 S1                 0.0000
     40 ****         5.6863   2.9182   3.0253 H              1 S1                 0.0000
     41 ****         4.4540   2.2962   5.1140 H              1 S1                 0.0000
     42 ****         2.0484   1.6718   5.0055 H              1 S1                 0.0000
     43 ****         0.8482   1.6511   2.8231 H              1 S1                 0.0000
     44 ****        -1.0792   2.2546  -2.5297 H              1 S1                 0.0000
     45 ****        -0.0997  -4.0565  -1.7305 H              1 S1                 0.0000
     46 ****        -3.2292  -4.7636  -2.5036 H              1 S1                 0.0000
     47 ****        -5.4395   0.1875  -1.7249 LP             1 S1                 0.0000
     48 ****        -5.2622  -0.1748  -0.1425 LP             1 S1                 0.0000
     49 ****        -3.5497  -2.3497   0.3517 LP             1 S1                 0.0000
     50 ****        -2.8602  -0.8894   0.1089 LP             1 S1                 0.0000
     51 ****         1.8481  -0.5376   1.7796 LP             1 S1                 0.0000
     52 ****         0.7220   3.1924  -1.4392 LP             1 S1                 0.0000
     53 ****        -1.9030   0.0997  -2.0013 LP             1 S1                 0.0000
     54 ****        -0.9785  -4.3525  -3.0235 LP             1 S1                 0.0000
     55 ****        -1.4955  -4.7961  -1.5394 LP             1 S1                 0.0000
     56 ****        -4.6421  -4.0354  -2.4180 LP             1 S1                 0.0000
     57 ****        -3.7160  -4.2259  -1.0866 LP             1 S1                 0.0000
@<TRIPOS>BOND
    1    1    2 1     
    2    1   32 1     
    3    2    3 1     
    4    2   33 1     
    5    2   34 1     
    6    3   28 1     
    7    3   26 1     
    8    3    4 1     
    9    4    5 1     
   10    5   29 1     
   11    5    6 1     
   12    5   24 1     
   13    6   23 1     
   14    6    7 1     
   15    7    8 2     
   16    7   35 1     
   17    8    9 1     
   18    9   23 ar    
   19    9   10 ar    
   20   10   11 1     
   21   10   20 ar    
   22   11   19 1     
   23   11   12 1     
   24   12   13 1     
   25   12   36 1     
   26   12   37 1     
   27   13   14 1     
   28   13   38 1     
   29   13   39 1     
   30   14   19 ar    
   31   14   15 ar    
   32   15   16 ar    
   33   15   40 1     
   34   16   17 ar    
   35   16   41 1     
   36   17   18 ar    
   37   17   42 1     
   38   18   19 ar    
   39   18   43 1     
   40   20   21 ar    
   41   21   22 ar    
   42   21   44 1     
   43   22   23 ar    
   44   24   30 1     
   45   24   25 1     
   46   24   26 1     
   47   25   45 1     
   48   26   31 1     
   49   26   27 1     
   50   27   46 1     
   51    1   47 1     
   52    1   48 1     
   53    4   49 1     
   54    4   50 1     
   55    8   51 1     
   56   20   52 1     
   57   22   53 1     
   58   25   54 1     
   59   25   55 1     
   60   27   56 1     
   61   27   57 1     
@<TRIPOS>SUBSTRUCTURE
      1 S1             1
@<TRIPOS>SET
LONE_PAIRS      STATIC     ATOMS    <user>   **** ""
11 47 48 49 50 51 52 53 54 55 56 57
DONOR_HYDROGENS      STATIC     ATOMS    <user>   **** ""
3 32 45 46
ATOM$BLUE        STATIC     ATOMS    COLORGROUP SYSTEM
11 47 48 49 50 51 52 53 54 55 56 57
ATOM$RED        STATIC     ATOMS    COLORGROUP SYSTEM
3 32 45 46
