AV-unprocessed.smi:165|AV-procd|sdf|1386|dock6
  -GOLD-   2262019123D 1   1.00000     0.00000
 Structure written by MMmdl.
 55 59  0  0  0  0  0  0  0  0  1 V2000
  144.5980  139.1125  155.1332 O   0  0  0  0  0  0  0  0  0  0  0  0
  145.1035  138.0478  154.3519 C   0  0  0  0  0  0  0  0  0  0  0  0
  146.4204  138.4041  153.6371 C   0  0  0  0  0  0  0  0  0  0  0  0
  146.1923  138.0216  152.1595 C   0  0  0  0  0  0  0  0  0  0  0  0
  147.1656  138.5545  151.2839 O   0  0  0  0  0  0  0  0  0  0  0  0
  146.9781  139.8221  153.8973 C   0  0  0  0  0  0  0  0  0  0  0  0
  148.3844  139.2438  154.0942 C   0  0  0  0  0  0  0  0  0  0  0  0
  149.2713  139.7831  155.0840 N   0  0  0  0  0  0  0  0  0  0  0  0
  149.8577  141.0286  155.0743 C   0  0  0  0  0  0  0  0  0  0  0  0
  150.5982  141.3040  156.1130 N   0  0  0  0  0  0  0  0  0  0  0  0
  150.4790  140.1806  156.9226 C   0  0  0  0  0  0  0  0  0  0  0  0
  151.0099  139.8122  158.1911 C   0  0  0  0  0  0  0  0  0  0  0  0
  151.8259  140.6260  158.9073 N   0  0  0  0  0  0  0  0  0  0  0  0
  153.1402  140.0741  159.2087 C   0  0  0  0  0  0  0  0  0  0  0  0
  153.8133  140.9028  160.3112 C   0  0  0  0  0  0  0  0  0  0  0  0
  153.8466  142.2789  159.9369 O   0  0  0  0  0  0  0  0  0  0  0  0
  152.5715  142.8704  159.6608 C   0  0  2  0  0  0  0  0  0  0  0  0
  152.8979  144.2930  159.1644 C   0  0  0  0  0  0  0  0  0  0  0  0
  151.6365  145.1585  159.0651 C   0  0  0  0  0  0  0  0  0  0  0  0
  150.8726  145.1327  160.3955 C   0  0  0  0  0  0  0  0  0  0  0  0
  150.5648  143.7888  160.7429 O   0  0  0  0  0  0  0  0  0  0  0  0
  151.7190  142.9800  160.9530 C   0  0  0  0  0  0  0  0  0  0  0  0
  151.8667  142.0434  158.5574 C   0  0  0  0  0  0  0  0  0  0  0  0
  150.6681  138.5900  158.6806 N   0  0  0  0  0  0  0  0  0  0  0  0
  149.8558  137.7878  157.9864 C   0  0  0  0  0  0  0  0  0  0  0  0
  149.2874  138.0014  156.7987 N   0  0  0  0  0  0  0  0  0  0  0  0
  149.6370  139.2193  156.2943 C   0  0  0  0  0  0  0  0  0  0  0  0
  147.7197  137.8751  154.2873 C   0  0  0  0  0  0  0  0  0  0  0  0
  144.1826  139.7374  154.5588 H   0  0  0  0  0  0  0  0  0  0  0  0
  145.2389  137.1888  155.0100 H   0  0  0  0  0  0  0  0  0  0  0  0
  144.3338  137.7722  153.6301 H   0  0  0  0  0  0  0  0  0  0  0  0
  146.1968  136.9380  152.0366 H   0  0  0  0  0  0  0  0  0  0  0  0
  145.2171  138.3700  151.8174 H   0  0  0  0  0  0  0  0  0  0  0  0
  147.7086  139.1573  151.7684 H   0  0  0  0  0  0  0  0  0  0  0  0
  146.8932  140.5089  153.0545 H   0  0  0  0  0  0  0  0  0  0  0  0
  146.5927  140.2843  154.8071 H   0  0  0  0  0  0  0  0  0  0  0  0
  148.9407  139.2684  153.1567 H   0  0  0  0  0  0  0  0  0  0  0  0
  149.7272  141.7301  154.2632 H   0  0  0  0  0  0  0  0  0  0  0  0
  153.0793  139.0324  159.5217 H   0  0  0  0  0  0  0  0  0  0  0  0
  153.7477  140.0973  158.3031 H   0  0  0  0  0  0  0  0  0  0  0  0
  153.3007  140.7727  161.2642 H   0  0  0  0  0  0  0  0  0  0  0  0
  154.8363  140.5584  160.4625 H   0  0  0  0  0  0  0  0  0  0  0  0
  153.5907  144.7675  159.8611 H   0  0  0  0  0  0  0  0  0  0  0  0
  153.4111  144.2592  158.2028 H   0  0  0  0  0  0  0  0  0  0  0  0
  151.9045  146.1827  158.8055 H   0  0  0  0  0  0  0  0  0  0  0  0
  150.9933  144.7933  158.2641 H   0  0  0  0  0  0  0  0  0  0  0  0
  151.4551  145.6015  161.1901 H   0  0  0  0  0  0  0  0  0  0  0  0
  149.9435  145.6959  160.3058 H   0  0  0  0  0  0  0  0  0  0  0  0
  151.3815  142.0003  161.2904 H   0  0  0  0  0  0  0  0  0  0  0  0
  152.3107  143.4029  161.7664 H   0  0  0  0  0  0  0  0  0  0  0  0
  152.4004  142.1535  157.6122 H   0  0  0  0  0  0  0  0  0  0  0  0
  150.8539  142.4166  158.3992 H   0  0  0  0  0  0  0  0  0  0  0  0
  149.6306  136.8376  158.4478 H   0  0  0  0  0  0  0  0  0  0  0  0
  147.6042  137.6153  155.3402 H   0  0  0  0  0  0  0  0  0  0  0  0
  148.2050  137.0640  153.7439 H   0  0  0  0  0  0  0  0  0  0  0  0
  1  2  1  0  0  0  0
  1 29  1  0  0  0  0
  2  3  1  0  0  0  0
  2 30  1  0  0  0  0
  2 31  1  0  0  0  0
  3 28  1  0  0  0  0
  3  4  1  0  0  0  0
  3  6  1  0  0  0  0
  4  5  1  0  0  0  0
  4 32  1  0  0  0  0
  4 33  1  0  0  0  0
  5 34  1  0  0  0  0
  6  7  1  0  0  0  0
  6 35  1  0  0  0  0
  6 36  1  0  0  0  0
  7  8  1  0  0  0  0
  7 28  1  0  0  0  0
  7 37  1  0  0  0  0
  8 27  1  0  0  0  0
  8  9  1  0  0  0  0
  9 10  2  0  0  0  0
  9 38  1  0  0  0  0
 10 11  1  0  0  0  0
 11 27  2  0  0  0  0
 11 12  1  0  0  0  0
 12 13  1  0  0  0  0
 12 24  2  0  0  0  0
 13 23  1  0  0  0  0
 13 14  1  0  0  0  0
 14 15  1  0  0  0  0
 14 39  1  0  0  0  0
 14 40  1  0  0  0  0
 15 16  1  0  0  0  0
 15 41  1  0  0  0  0
 15 42  1  0  0  0  0
 16 17  1  0  0  0  0
 17 22  1  0  0  0  0
 17 18  1  0  0  0  0
 17 23  1  0  0  0  0
 18 19  1  0  0  0  0
 18 43  1  0  0  0  0
 18 44  1  0  0  0  0
 19 20  1  0  0  0  0
 19 45  1  0  0  0  0
 19 46  1  0  0  0  0
 20 21  1  0  0  0  0
 20 47  1  0  0  0  0
 20 48  1  0  0  0  0
 21 22  1  0  0  0  0
 22 49  1  0  0  0  0
 22 50  1  0  0  0  0
 23 51  1  0  0  0  0
 23 52  1  0  0  0  0
 24 25  1  0  0  0  0
 25 26  2  0  0  0  0
 25 53  1  0  0  0  0
 26 27  1  0  0  0  0
 28 54  1  0  0  0  0
 28 55  1  0  0  0  0
M  END
> <s_m_source_file>
AV-unprocessed.smi

> <i_m_source_file_index>
165

> <i_lp_mmshare_version>
43012

> <i_f3d_flags>
0

> <s_epik_input>
W09IXVtDSDJdQzEoW0NIMl1bT0hdKVtDSDJdW0NIXShbQ0gyXTEpbihbY0hdbjIpYyhjMjMpbltjSF1uYzNOKFtDSDJdNClbQ0gyXVtDSDJdT1tDQEBdNDVbQ0gyXVtDSDJdW0NIMl1PW0NIMl01

> <s_epik_cmdline>
J2VwaWtfcHl0aG9uJywgJy1waCcsICc3LjAnLCAnLXRuJywgJzgnLCAnLW1hJywgJzIwMCcsICctbWV0YWxfYmluZGluZycsICctaW1hZScsICc8aW5maWxlLm1hZT4nLCAnLW9tYWUnLCAnPG91dGZpbGUubWFlPic=

> <r_lp_tautomer_probability>
1

> <r_epik_Ionization_Penalty>
0.00466923

> <r_epik_Ionization_Penalty_Charging>
0

> <r_epik_Ionization_Penalty_Neutral>
0.00466923

> <r_epik_State_Penalty>
0.0032353

> <r_epik_Charging_Adjusted_Penalty>
0.0032353

> <i_epik_Tot_Q>
0

> <i_epik_Tot_abs_Q>
0

> <r_epik_Metal_State_Penalty>
-0

> <b_epik_Metal_Only>
0

> <s_lp_Force_Field>
OPLS_2005

> <r_lp_Energy>
54.9184

> <b_lp_Chiralities_Consistent>
1

> <s_lp_Variant>
AV-unprocessed.smi:165-1

> <Gold.Version>
5.8.1

> <Gold.Id.Protein>
6NUR|6NUR_protein|mol2

> <Gold.PLP.Fitness>
50.8556

> <Gold.PLP.PLP>
-45.8898

> <Gold.PLP.part.hbond>
-4.6859

> <Gold.PLP.part.metal>
0.0000

> <Gold.PLP.part.buried>
-5.8605

> <Gold.PLP.part.nonpolar>
-35.6950

> <Gold.PLP.part.repulsive>
0.1896

> <Gold.PLP.ligand.clash>
0.0000

> <Gold.PLP.ligand.torsion>
1.5471

> <Gold.PLP.Chemscore.Hbond>
2.4545

> <Gold.PLP.Chemscore.CHOScore>
0.0000

> <Gold.PLP.Chemscore.Metal>
0.0000

> <Gold.Chemscore.Hbonds>
donor molecule, donor type, donor heavy atom, donor atom, acceptor molecule, acceptor atom, score
      L1  H     1    29       P1 10175  0.46
      L1  H     5    34       P1  7957  0.38
      P1  H  7954  7966       L1     5  1.00

> <Gold.PLP.Chemscore.Internal.Correction>
0.6965

> <Gold.Rescore>
     Score         DG    S(hbond)    S(metal)    S(lipo)     H(rot)  DE(clash)    DE(int)     intcor
     12.93     -17.50       1.88        0.00     117.52       3.14       0.23       4.34       ----

> <Gold.Chemscore.Fitness>
12.9325

> <Gold.Chemscore.DG>
-17.4967

> <Gold.Chemscore.ZeroCoef>
-5.4800

> <Gold.Chemscore.Hbond>
1.8841

> <Gold.Chemscore.Metal>
0.0000

> <Gold.Chemscore.Lipo>
117.5205

> <Gold.Chemscore.Internal_Hbond>
0.0000

> <Gold.Chemscore.DEClash>
0.2257

> <Gold.Chemscore.DEInternal>
4.3386

> <Gold.Chemscore.Rot>
3.1351

> <Gold.Chemscore.Internal.Correction>
   9.000000E+99

> <Gold.Chemscore.Hbonds>
donor molecule, donor type, donor heavy atom, donor atom, acceptor molecule, acceptor atom, score
      L1  H     1    29       P1 10175  0.44
      L1  H     5    34       P1  7957  0.36
      P1  H  7954  7966       L1     5  0.64

> <Gold.Chemscore.Hbond.Weighted>
-6.2928

> <Gold.Chemscore.Metal.Weighted>
-0.0000

> <Gold.Chemscore.Lipo.Weighted>
-13.7499

> <Gold.Chemscore.Internal_Hbond.Weighted>
0.0000

> <Gold.Chemscore.DEClash.Weighted>
0.2257

> <Gold.Chemscore.DEInternal.Weighted>
4.3386

> <Gold.Chemscore.Rot.Weighted>
8.0260

> <Gold.Chemscore.Internal.Correction.Weighted>
   9.000000E+99

> <Gold.Protein.RotatedTorsions>
[ 6907 6896 6895 6894 ] final   26.02 input  -60.11 | X-H torsion
[ 7974 7965 7964 7962 ] final  -54.75 input  175.53 | X-H torsion
[ 8008 7997 7996 7995 ] final  135.62 input   59.86 | X-H torsion
[ 10167 10162 10161 10158 ] final  177.71 input  -65.29 | X-H torsion
[ 10718 10713 10712 10709 ] final   57.03 input   66.30 | X-H torsion
[ 10763 10752 10751 10750 ] final -119.16 input  -60.55 | X-H torsion
[ 11005 11000 10999 10996 ] final   46.82 input  -57.11 | X-H torsion

> <Gold.Protein.ActiveResidues>
 VAL166  LYS551  ARG553  GLY616  TRP617  ASP618  TYR619  PRO620  LYS621  CYS622 
 ASP623  PHE694  ASN695  SER759  ASP760  ASP761  ALA762  ILE779  LEU786  VAL792 
 PHE793  MET794  SER795  GLU796  ALA797  LYS798  CYS799  TRP800  GLU811  SER814 

> <Gold.Protein.RotatedAtoms>
  151.9812  135.0028  160.0557 H   0  0  0  0  0  0  0  0  0  0  0  0  # atno 6907 bound_to 6896
  152.1695  133.4629  159.4910 H   0  0  0  0  0  0  0  0  0  0  0  0  # atno 6908 bound_to 6896
  150.6899  134.1889  159.4320 H   0  0  0  0  0  0  0  0  0  0  0  0  # atno 6909 bound_to 6896
  145.8820  140.8137  142.9835 H   0  0  0  0  0  0  0  0  0  0  0  0  # atno 7974 bound_to 7965
  156.3003  140.2466  156.3611 H   0  0  0  0  0  0  0  0  0  0  0  0  # atno 8008 bound_to 7997
  154.8876  140.0410  157.1839 H   0  0  0  0  0  0  0  0  0  0  0  0  # atno 8009 bound_to 7997
  154.8631  140.2923  155.5531 H   0  0  0  0  0  0  0  0  0  0  0  0  # atno 8010 bound_to 7997
  139.5264  144.2766  152.0582 H   0  0  0  0  0  0  0  0  0  0  0  0  # atno 10167 bound_to 10162
  157.5481  130.8745  149.8921 H   0  0  0  0  0  0  0  0  0  0  0  0  # atno 10718 bound_to 10713
  154.8609  135.4248  154.2254 H   0  0  0  0  0  0  0  0  0  0  0  0  # atno 10763 bound_to 10752
  153.3250  135.6984  153.7003 H   0  0  0  0  0  0  0  0  0  0  0  0  # atno 10764 bound_to 10752
  153.6042  135.3531  155.2930 H   0  0  0  0  0  0  0  0  0  0  0  0  # atno 10765 bound_to 10752
  140.1334  134.4676  155.8504 H   0  0  0  0  0  0  0  0  0  0  0  0  # atno 11005 bound_to 11000
  144.6727  140.1398  143.7438 LP  0  0  0  0  0  0  0  0  0  0  0  0  # atno 17320 bound_to 7965
  145.9012  139.2431  143.1492 LP  0  0  0  0  0  0  0  0  0  0  0  0  # atno 17321 bound_to 7965
  140.2223  144.4453  150.6336 LP  0  0  0  0  0  0  0  0  0  0  0  0  # atno 17342 bound_to 10162
  140.6410  143.2203  151.6290 LP  0  0  0  0  0  0  0  0  0  0  0  0  # atno 17343 bound_to 10162
  156.0552  130.3710  150.1107 LP  0  0  0  0  0  0  0  0  0  0  0  0  # atno 17370 bound_to 10713
  156.9282  130.9705  151.3537 LP  0  0  0  0  0  0  0  0  0  0  0  0  # atno 17371 bound_to 10713
  141.2174  133.6805  156.7112 LP  0  0  0  0  0  0  0  0  0  0  0  0  # atno 17394 bound_to 11000
  140.2813  134.8314  157.3935 LP  0  0  0  0  0  0  0  0  0  0  0  0  # atno 17395 bound_to 11000

$$$$
