AV-unprocessed.smi:2769|AV-procd|sdf|10657|dock10
  -GOLD-   2272015103D 1   1.00000     0.00000
 Structure written by MMmdl.
 19 20  0  0  0  0  0  0  0  0  1 V2000
  154.6314  140.7035  161.7706 C   0  0  0  0  0  0  0  0  0  0  0  0
  153.7336  141.3482  160.7705 C   0  0  0  0  0  0  0  0  0  0  0  0
  153.4428  140.7529  159.6208 N   0  0  0  0  0  0  0  0  0  0  0  0
  152.5997  141.6750  158.9842 O   0  0  0  0  0  0  0  0  0  0  0  0
  152.4489  142.7027  159.8544 C   0  0  0  0  0  0  0  0  0  0  0  0
  151.6708  143.9015  159.4224 C   0  0  0  0  0  0  0  0  0  0  0  0
  150.1945  143.8076  159.0489 C   0  0  0  0  0  0  0  0  0  0  0  0
  150.4577  144.9191  158.1455 N   0  0  0  0  0  0  0  0  0  0  0  0
  151.8635  144.5494  158.0533 C   0  0  0  0  0  0  0  0  0  0  0  0
  153.1672  142.5699  160.9677 N   0  0  0  0  0  0  0  0  0  0  0  0
  155.3145  140.0063  161.2842 H   0  0  0  0  0  0  0  0  0  0  0  0
  154.0419  140.1557  162.5060 H   0  0  0  0  0  0  0  0  0  0  0  0
  155.2239  141.4560  162.2915 H   0  0  0  0  0  0  0  0  0  0  0  0
  151.8008  144.6609  160.1985 H   0  0  0  0  0  0  0  0  0  0  0  0
  149.9183  142.8952  158.5179 H   0  0  0  0  0  0  0  0  0  0  0  0
  149.5098  144.0454  159.8634 H   0  0  0  0  0  0  0  0  0  0  0  0
  149.9764  144.8174  157.2631 H   0  0  0  0  0  0  0  0  0  0  0  0
  152.5494  145.3968  158.0503 H   0  0  0  0  0  0  0  0  0  0  0  0
  152.0564  143.8477  157.2401 H   0  0  0  0  0  0  0  0  0  0  0  0
  1  2  1  0  0  0  0
  1 11  1  0  0  0  0
  1 12  1  0  0  0  0
  1 13  1  0  0  0  0
  2 10  1  0  0  0  0
  2  3  2  0  0  0  0
  3  4  1  0  0  0  0
  4  5  1  0  0  0  0
  5  6  1  0  0  0  0
  5 10  2  0  0  0  0
  6  9  1  0  0  0  0
  6  7  1  0  0  0  0
  6 14  1  0  0  0  0
  7  8  1  0  0  0  0
  7 15  1  0  0  0  0
  7 16  1  0  0  0  0
  8  9  1  0  0  0  0
  8 17  1  0  0  0  0
  9 18  1  0  0  0  0
  9 19  1  0  0  0  0
M  END
> <s_m_source_file>
AV-unprocessed.smi

> <i_m_source_file_index>
2769

> <i_lp_mmshare_version>
43012

> <i_f3d_flags>
0

> <s_epik_input>
W0NIM11jMW5vYyhuMSlbQ0hdMltDSDJdW05IXVtDSDJdMg==

> <s_epik_cmdline>
J2VwaWtfcHl0aG9uJywgJy1waCcsICc3LjAnLCAnLXRuJywgJzgnLCAnLW1hJywgJzIwMCcsICctbWV0YWxfYmluZGluZycsICctaW1hZScsICc8aW5maWxlLm1hZT4nLCAnLW9tYWUnLCAnPG91dGZpbGUubWFlPic=

> <r_lp_tautomer_probability>
1

> <r_epik_Ionization_Penalty>
2.39489

> <r_epik_Ionization_Penalty_Charging>
0

> <r_epik_Ionization_Penalty_Neutral>
2.39489

> <r_epik_State_Penalty>
2.55237

> <r_epik_Charging_Adjusted_Penalty>
2.55237

> <i_epik_Tot_Q>
0

> <i_epik_Tot_abs_Q>
0

> <r_epik_Metal_State_Penalty>
2.55237

> <b_epik_Metal_Only>
0

> <s_lp_Force_Field>
OPLS_2005

> <r_lp_Energy>
11.1519

> <b_lp_Chiralities_Consistent>
1

> <s_lp_Variant>
AV-unprocessed.smi:2769-2

> <Gold.Version>
5.8.1

> <Gold.Id.Protein>
6NUR|6NUR_protein|mol2

> <Gold.PLP.Fitness>
27.6934

> <Gold.PLP.PLP>
-24.7459

> <Gold.PLP.part.hbond>
-2.0000

> <Gold.PLP.part.metal>
0.0000

> <Gold.PLP.part.buried>
-2.8125

> <Gold.PLP.part.nonpolar>
-19.4642

> <Gold.PLP.part.repulsive>
0.0147

> <Gold.PLP.ligand.clash>
0.0000

> <Gold.PLP.ligand.torsion>
0.1392

> <Gold.PLP.Chemscore.Hbond>
1.0000

> <Gold.PLP.Chemscore.CHOScore>
0.0000

> <Gold.PLP.Chemscore.Metal>
0.0000

> <Gold.Chemscore.Hbonds>
donor molecule, donor type, donor heavy atom, donor atom, acceptor molecule, acceptor atom, score
      L1  H     8    17       P1  8028  0.80

> <Gold.PLP.Chemscore.Internal.Correction>
0.2259

> <Gold.Rescore>
     Score         DG    S(hbond)    S(metal)    S(lipo)     H(rot)  DE(clash)    DE(int)     intcor
     10.27     -10.91       0.88        0.00      43.09       1.00       0.29       0.35       ----

> <Gold.Chemscore.Fitness>
10.2687

> <Gold.Chemscore.DG>
-10.9139

> <Gold.Chemscore.ZeroCoef>
-5.4800

> <Gold.Chemscore.Hbond>
0.8838

> <Gold.Chemscore.Metal>
0.0000

> <Gold.Chemscore.Lipo>
43.0926

> <Gold.Chemscore.Internal_Hbond>
0.0000

> <Gold.Chemscore.DEClash>
0.2946

> <Gold.Chemscore.DEInternal>
0.3506

> <Gold.Chemscore.Rot>
1.0000

> <Gold.Chemscore.Internal.Correction>
   9.000000E+99

> <Gold.Chemscore.Hbonds>
donor molecule, donor type, donor heavy atom, donor atom, acceptor molecule, acceptor atom, score
      L1  H     8    17       P1  8028  0.12

> <Gold.Chemscore.Hbond.Weighted>
-2.9520

> <Gold.Chemscore.Metal.Weighted>
-0.0000

> <Gold.Chemscore.Lipo.Weighted>
-5.0418

> <Gold.Chemscore.Internal_Hbond.Weighted>
0.0000

> <Gold.Chemscore.DEClash.Weighted>
0.2946

> <Gold.Chemscore.DEInternal.Weighted>
0.3506

> <Gold.Chemscore.Rot.Weighted>
2.5600

> <Gold.Chemscore.Internal.Correction.Weighted>
   9.000000E+99

> <Gold.Protein.RotatedTorsions>
[ 6907 6896 6895 6894 ] final -125.96 input  -60.11 | X-H torsion
[ 7974 7965 7964 7962 ] final   84.41 input  175.53 | X-H torsion
[ 8008 7997 7996 7995 ] final  137.95 input   59.86 | X-H torsion
[ 10167 10162 10161 10158 ] final  -10.39 input  -65.29 | X-H torsion
[ 10718 10713 10712 10709 ] final -130.04 input   66.30 | X-H torsion
[ 10763 10752 10751 10750 ] final  -79.15 input  -60.55 | X-H torsion
[ 11005 11000 10999 10996 ] final -101.40 input  -57.11 | X-H torsion

> <Gold.Protein.ActiveResidues>
 VAL166  LYS551  ARG553  GLY616  TRP617  ASP618  TYR619  PRO620  LYS621  CYS622 
 ASP623  PHE694  ASN695  SER759  ASP760  ASP761  ALA762  ILE779  LEU786  VAL792 
 PHE793  MET794  SER795  GLU796  ALA797  LYS798  CYS799  TRP800  GLU811  SER814 

> <Gold.Protein.RotatedAtoms>
  150.8920  133.7230  159.2901 H   0  0  0  0  0  0  0  0  0  0  0  0  # atno 6907 bound_to 6896
  151.4777  135.1049  159.9778 H   0  0  0  0  0  0  0  0  0  0  0  0  # atno 6908 bound_to 6896
  152.4826  133.8245  159.7126 H   0  0  0  0  0  0  0  0  0  0  0  0  # atno 6909 bound_to 6896
  145.5991  139.2349  143.2256 H   0  0  0  0  0  0  0  0  0  0  0  0  # atno 7974 bound_to 7965
  156.3000  140.2406  156.3993 H   0  0  0  0  0  0  0  0  0  0  0  0  # atno 8008 bound_to 7997
  154.8542  140.0422  157.1643 H   0  0  0  0  0  0  0  0  0  0  0  0  # atno 8009 bound_to 7997
  154.8966  140.2971  155.5344 H   0  0  0  0  0  0  0  0  0  0  0  0  # atno 8010 bound_to 7997
  140.7112  143.5753  150.9049 H   0  0  0  0  0  0  0  0  0  0  0  0  # atno 10167 bound_to 10162
  156.2105  130.6915  151.0644 H   0  0  0  0  0  0  0  0  0  0  0  0  # atno 10718 bound_to 10713
  154.5350  135.5705  153.6791 H   0  0  0  0  0  0  0  0  0  0  0  0  # atno 10763 bound_to 10752
  152.9949  135.6214  154.2578 H   0  0  0  0  0  0  0  0  0  0  0  0  # atno 10764 bound_to 10752
  154.2506  135.2859  155.2797 H   0  0  0  0  0  0  0  0  0  0  0  0  # atno 10765 bound_to 10752
  141.1232  133.8475  157.1227 H   0  0  0  0  0  0  0  0  0  0  0  0  # atno 11005 bound_to 11000
  146.1590  140.6816  142.9286 LP  0  0  0  0  0  0  0  0  0  0  0  0  # atno 17320 bound_to 7965
  144.7318  140.4693  143.6932 LP  0  0  0  0  0  0  0  0  0  0  0  0  # atno 17321 bound_to 7965
  139.9479  143.6306  152.3037 LP  0  0  0  0  0  0  0  0  0  0  0  0  # atno 17342 bound_to 10162
  139.6814  144.7655  151.1602 LP  0  0  0  0  0  0  0  0  0  0  0  0  # atno 17343 bound_to 10162
  157.7036  131.0766  150.6741 LP  0  0  0  0  0  0  0  0  0  0  0  0  # atno 17370 bound_to 10713
  156.6800  130.4564  149.5630 LP  0  0  0  0  0  0  0  0  0  0  0  0  # atno 17371 bound_to 10713
  140.0207  134.9947  157.0586 LP  0  0  0  0  0  0  0  0  0  0  0  0  # atno 17394 bound_to 11000
  140.4444  134.1647  155.7176 LP  0  0  0  0  0  0  0  0  0  0  0  0  # atno 17395 bound_to 11000

$$$$
