AV-unprocessed.smi:726|AV-procd|sdf|3510|dock5
  -GOLD-   22720 0503D 1   1.00000     0.00000
 Structure written by MMmdl.
 24 24  0  0  0  0  0  0  0  0  2 V2000
  151.0853  141.1321  158.1095 C   0  0  0  0  0  0  0  0  0  0  0  0
  151.0003  140.3788  156.7867 C   0  0  0  0  0  0  0  0  0  0  0  0
  150.3774  140.9421  155.7351 C   0  0  0  0  0  0  0  0  0  0  0  0
  150.2562  140.2180  154.4972 C   0  0  0  0  0  0  0  0  0  0  0  0
  149.6596  140.7846  153.4410 O   0  0  0  0  0  0  0  0  0  0  0  0
  150.7361  138.9659  154.4148 C   0  0  0  0  0  0  0  0  0  0  0  0
  151.3950  138.3097  155.5458 C   0  0  0  0  0  0  0  0  0  0  0  0
  151.7773  137.1438  155.4482 O   0  0  0  0  0  0  0  0  0  0  0  0
  151.5499  139.0584  156.6926 N   0  0  0  0  0  0  0  0  0  0  0  0
  152.3441  138.5034  157.8317 C   0  0  2  0  0  0  0  0  0  0  0  0
  153.6402  137.7792  157.3878 C   0  0  0  0  0  0  0  0  0  0  0  0
  151.4720  137.7140  158.8250 C   0  0  0  0  0  0  0  0  0  0  0  0
  150.3852  138.2199  159.1824 O   0  0  0  0  0  0  0  0  0  0  0  0
  151.9126  136.6099  159.2138 O   0  5  0  0  0  0  0  0  0  0  0  0
  150.4552  142.0220  158.0908 H   0  0  0  0  0  0  0  0  0  0  0  0
  152.1064  141.4619  158.3028 H   0  0  0  0  0  0  0  0  0  0  0  0
  150.7373  140.5217  158.9427 H   0  0  0  0  0  0  0  0  0  0  0  0
  149.9522  141.9318  155.8193 H   0  0  0  0  0  0  0  0  0  0  0  0
  149.6295  140.1385  152.7522 H   0  0  0  0  0  0  0  0  0  0  0  0
  150.6386  138.4209  153.4867 H   0  0  0  0  0  0  0  0  0  0  0  0
  152.7548  139.3020  158.4411 H   0  0  0  0  0  0  0  0  0  0  0  0
  154.2699  137.5619  158.2513 H   0  0  0  0  0  0  0  0  0  0  0  0
  154.2241  138.4065  156.7140 H   0  0  0  0  0  0  0  0  0  0  0  0
  153.4623  136.8279  156.8886 H   0  0  0  0  0  0  0  0  0  0  0  0
  1  2  1  0  0  0  0
  1 15  1  0  0  0  0
  1 16  1  0  0  0  0
  1 17  1  0  0  0  0
  2  9  1  0  0  0  0
  2  3  2  0  0  0  0
  3  4  1  0  0  0  0
  3 18  1  0  0  0  0
  4  5  1  0  0  0  0
  4  6  2  0  0  0  0
  5 19  1  0  0  0  0
  6  7  1  0  0  0  0
  6 20  1  0  0  0  0
  7  8  2  0  0  0  0
  7  9  1  0  0  0  0
  9 10  1  0  0  0  0
 10 11  1  0  0  0  0
 10 12  1  0  0  0  0
 10 21  1  0  0  0  0
 11 22  1  0  0  0  0
 11 23  1  0  0  0  0
 11 24  1  0  0  0  0
 12 13  2  0  0  0  0
 12 14  1  0  0  0  0
M  CHG  1  14  -1
M  END
> <s_m_source_file>
AV-unprocessed.smi

> <i_m_source_file_index>
726

> <i_lp_mmshare_version>
43012

> <i_f3d_flags>
0

> <s_epik_input>
W0NIM11jMVtjSF1jKFtPSF0pW2NIXWMoPU8pbjFbQ0BIXShbQ0gzXSlDKD1PKVtPSF0=

> <s_epik_cmdline>
J2VwaWtfcHl0aG9uJywgJy1waCcsICc3LjAnLCAnLXRuJywgJzgnLCAnLW1hJywgJzIwMCcsICctbWV0YWxfYmluZGluZycsICctaW1hZScsICc8aW5maWxlLm1hZT4nLCAnLW9tYWUnLCAnPG91dGZpbGUubWFlPic=

> <r_lp_tautomer_probability>
0.999984

> <r_epik_Ionization_Penalty>
0.316948

> <r_epik_Ionization_Penalty_Charging>
0.000813874

> <r_epik_Ionization_Penalty_Neutral>
0.316134

> <r_epik_State_Penalty>
0.363429

> <r_epik_Charging_Adjusted_Penalty>
0.364242

> <i_epik_Tot_Q>
-1

> <i_epik_Tot_abs_Q>
1

> <r_epik_Metal_State_Penalty>
0.363429

> <b_epik_Metal_Only>
0

> <s_lp_Force_Field>
OPLS_2005

> <r_lp_Energy>
20.5014

> <b_lp_Chiralities_Consistent>
1

> <s_lp_Variant>
AV-unprocessed.smi:726-1

> <Gold.Version>
5.8.1

> <Gold.Id.Protein>
6NUR|6NUR_protein|mol2

> <Gold.PLP.Fitness>
35.1547

> <Gold.PLP.PLP>
-22.9879

> <Gold.PLP.part.hbond>
-5.3032

> <Gold.PLP.part.metal>
0.0000

> <Gold.PLP.part.buried>
-1.4292

> <Gold.PLP.part.nonpolar>
-16.9265

> <Gold.PLP.part.repulsive>
0.0623

> <Gold.PLP.ligand.clash>
0.0000

> <Gold.PLP.ligand.torsion>
0.7881

> <Gold.PLP.Chemscore.Hbond>
4.4833

> <Gold.PLP.Chemscore.CHOScore>
0.0000

> <Gold.PLP.Chemscore.Metal>
0.0000

> <Gold.Chemscore.Hbonds>
donor molecule, donor type, donor heavy atom, donor atom, acceptor molecule, acceptor atom, score
      L1  H     5    19       P1  7957  0.80
      P1  H  6896  6909       L1    14  1.95
      P1  H  8011  8017       L1     5  0.95
      P1  H 10752 10764       L1     8  0.81

> <Gold.PLP.Chemscore.Internal.Correction>
0.2932

> <Gold.Rescore>
     Score         DG    S(hbond)    S(metal)    S(lipo)     H(rot)  DE(clash)    DE(int)     intcor
     11.87     -14.79       2.85        0.00      43.40       2.06       0.81       2.12       ----

> <Gold.Chemscore.Fitness>
11.8699

> <Gold.Chemscore.DG>
-14.7947

> <Gold.Chemscore.ZeroCoef>
-5.4800

> <Gold.Chemscore.Hbond>
2.8468

> <Gold.Chemscore.Metal>
0.0000

> <Gold.Chemscore.Lipo>
43.4010

> <Gold.Chemscore.Internal_Hbond>
0.0000

> <Gold.Chemscore.DEClash>
0.8072

> <Gold.Chemscore.DEInternal>
2.1176

> <Gold.Chemscore.Rot>
2.0592

> <Gold.Chemscore.Internal.Correction>
   9.000000E+99

> <Gold.Chemscore.Hbonds>
donor molecule, donor type, donor heavy atom, donor atom, acceptor molecule, acceptor atom, score
      L1  H     5    19       P1  7957  0.78
      P1  H  6896  6909       L1    14  0.93
      P1  H  8011  8017       L1     5  0.21
      P1  H 10752 10764       L1     8  0.77

> <Gold.Chemscore.Hbond.Weighted>
-9.5083

> <Gold.Chemscore.Metal.Weighted>
-0.0000

> <Gold.Chemscore.Lipo.Weighted>
-5.0779

> <Gold.Chemscore.Internal_Hbond.Weighted>
0.0000

> <Gold.Chemscore.DEClash.Weighted>
0.8072

> <Gold.Chemscore.DEInternal.Weighted>
2.1176

> <Gold.Chemscore.Rot.Weighted>
5.2715

> <Gold.Chemscore.Internal.Correction.Weighted>
   9.000000E+99

> <Gold.Protein.RotatedTorsions>
[ 6907 6896 6895 6894 ] final  122.22 input  -60.11 | X-H torsion
[ 7974 7965 7964 7962 ] final   49.63 input  175.53 | X-H torsion
[ 8008 7997 7996 7995 ] final  137.85 input   59.86 | X-H torsion
[ 10167 10162 10161 10158 ] final  -46.01 input  -65.29 | X-H torsion
[ 10718 10713 10712 10709 ] final  -97.62 input   66.30 | X-H torsion
[ 10763 10752 10751 10750 ] final  -58.45 input  -60.55 | X-H torsion
[ 11005 11000 10999 10996 ] final  -59.81 input  -57.11 | X-H torsion

> <Gold.Protein.ActiveResidues>
 VAL166  LYS551  ARG553  GLY616  TRP617  ASP618  TYR619  PRO620  LYS621  CYS622 
 ASP623  PHE694  ASN695  SER759  ASP760  ASP761  ALA762  ILE779  LEU786  VAL792 
 PHE793  MET794  SER795  GLU796  ALA797  LYS798  CYS799  TRP800  GLU811  SER814 

> <Gold.Protein.RotatedAtoms>
  152.4260  133.7195  159.6525 H   0  0  0  0  0  0  0  0  0  0  0  0  # atno 6907 bound_to 6896
  150.8136  133.8366  159.3176 H   0  0  0  0  0  0  0  0  0  0  0  0  # atno 6908 bound_to 6896
  151.6068  135.1045  160.0124 H   0  0  0  0  0  0  0  0  0  0  0  0  # atno 6909 bound_to 6896
  146.0090  139.4522  142.9968 H   0  0  0  0  0  0  0  0  0  0  0  0  # atno 7974 bound_to 7965
  156.3000  140.2409  156.3977 H   0  0  0  0  0  0  0  0  0  0  0  0  # atno 8008 bound_to 7997
  154.8556  140.0422  157.1652 H   0  0  0  0  0  0  0  0  0  0  0  0  # atno 8009 bound_to 7997
  154.8951  140.2969  155.5352 H   0  0  0  0  0  0  0  0  0  0  0  0  # atno 8010 bound_to 7997
  140.6835  143.2851  151.3721 H   0  0  0  0  0  0  0  0  0  0  0  0  # atno 10167 bound_to 10162
  156.0088  130.5202  150.6402 H   0  0  0  0  0  0  0  0  0  0  0  0  # atno 10718 bound_to 10713
  154.2383  135.6348  153.5198 H   0  0  0  0  0  0  0  0  0  0  0  0  # atno 10763 bound_to 10752
  152.9935  135.5536  154.5938 H   0  0  0  0  0  0  0  0  0  0  0  0  # atno 10764 bound_to 10752
  154.5438  135.2896  155.1046 H   0  0  0  0  0  0  0  0  0  0  0  0  # atno 10765 bound_to 10752
  141.1263  133.6618  156.5129 H   0  0  0  0  0  0  0  0  0  0  0  0  # atno 11005 bound_to 11000
  145.7372  141.0021  143.1320 LP  0  0  0  0  0  0  0  0  0  0  0  0  # atno 17320 bound_to 7965
  144.6946  139.9055  143.7461 LP  0  0  0  0  0  0  0  0  0  0  0  0  # atno 17321 bound_to 7965
  139.6175  144.0974  152.2359 LP  0  0  0  0  0  0  0  0  0  0  0  0  # atno 17342 bound_to 10162
  140.0408  144.6009  150.7413 LP  0  0  0  0  0  0  0  0  0  0  0  0  # atno 17343 bound_to 10162
  157.4183  131.0833  151.1155 LP  0  0  0  0  0  0  0  0  0  0  0  0  # atno 17370 bound_to 10713
  157.1765  130.6290  149.5657 LP  0  0  0  0  0  0  0  0  0  0  0  0  # atno 17371 bound_to 10713
  140.4355  134.7063  157.4964 LP  0  0  0  0  0  0  0  0  0  0  0  0  # atno 17394 bound_to 11000
  140.0265  134.6470  155.9166 LP  0  0  0  0  0  0  0  0  0  0  0  0  # atno 17395 bound_to 11000

$$$$
