AV-unprocessed.smi:273|AV-procd|sdf|2054|dock5
  -GOLD-   2262021293D 1   1.00000     0.00000
 Structure written by MMmdl.
 59 62  0  0  0  0  0  0  0  0  1 V2000
  146.7507  129.4434  152.2218 C   0  0  0  0  0  0  0  0  0  0  0  0
  147.6365  129.1544  153.4374 C   0  0  0  0  0  0  0  0  0  0  0  0
  148.3041  130.3687  153.8844 N   0  0  0  0  0  0  0  0  0  0  0  0
  149.5637  130.4211  154.3458 C   0  0  0  0  0  0  0  0  0  0  0  0
  150.2784  129.4220  154.4278 O   0  0  0  0  0  0  0  0  0  0  0  0
  150.1253  131.7896  154.7755 C   0  0  0  0  0  0  0  0  0  0  0  0
  150.2820  131.8678  156.3090 C   0  0  0  0  0  0  0  0  0  0  0  0
  150.8707  133.2196  156.7454 C   0  0  0  0  0  0  0  0  0  0  0  0
  150.0874  134.3322  156.2057 N   0  0  0  0  0  0  0  0  0  0  0  0
  150.2641  135.5599  156.7585 C   0  0  0  0  0  0  0  0  0  0  0  0
  149.8665  135.7899  158.0389 N   0  0  0  0  0  0  0  0  0  0  0  0
  150.0399  136.9921  158.5955 C   0  0  0  0  0  0  0  0  0  0  0  0
  150.5773  138.0892  158.0600 N   0  0  0  0  0  0  0  0  0  0  0  0
  150.9715  137.8697  156.7734 C   0  0  0  0  0  0  0  0  0  0  0  0
  150.8538  136.6474  156.0526 C   0  0  0  0  0  0  0  0  0  0  0  0
  151.3528  136.8105  154.7653 N   0  0  0  0  0  0  0  0  0  0  0  0
  151.7544  138.0515  154.7319 C   0  0  0  0  0  0  0  0  0  0  0  0
  151.5451  138.7671  155.8889 N   0  0  0  0  0  0  0  0  0  0  0  0
  151.8959  140.1569  156.1286 C   0  0  0  0  0  0  0  0  0  0  0  0
  150.8843  140.9303  157.0139 C   0  0  2  0  0  0  0  0  0  0  0  0
  149.5861  141.1796  156.2112 C   0  0  0  0  0  0  0  0  0  0  0  0
  149.8025  142.0633  155.1299 O   0  0  0  0  0  0  0  0  0  0  0  0
  151.4482  142.2388  157.6420 C   0  0  2  0  0  0  0  0  0  0  0  0
  152.4577  142.0608  158.7654 C   0  0  0  0  0  0  0  0  0  0  0  0
  152.4232  143.4112  159.4729 C   0  0  0  0  0  0  0  0  0  0  0  0
  151.1132  143.9260  159.2714 O   0  0  0  0  0  0  0  0  0  0  0  0
  150.3999  143.0907  158.3678 C   0  0  0  0  0  0  0  0  0  0  0  0
  149.9284  134.3245  154.7524 C   0  0  0  0  0  0  0  0  0  0  0  0
  149.3037  133.0030  154.2790 C   0  0  0  0  0  0  0  0  0  0  0  0
  146.2549  128.5351  151.8793 H   0  0  0  0  0  0  0  0  0  0  0  0
  147.3369  129.8357  151.3901 H   0  0  0  0  0  0  0  0  0  0  0  0
  145.9773  130.1737  152.4623 H   0  0  0  0  0  0  0  0  0  0  0  0
  147.0308  128.7472  154.2485 H   0  0  0  0  0  0  0  0  0  0  0  0
  148.3851  128.4027  153.1833 H   0  0  0  0  0  0  0  0  0  0  0  0
  147.7741  131.2272  153.8449 H   0  0  0  0  0  0  0  0  0  0  0  0
  151.1200  131.8590  154.3322 H   0  0  0  0  0  0  0  0  0  0  0  0
  149.3103  131.7288  156.7860 H   0  0  0  0  0  0  0  0  0  0  0  0
  150.9230  131.0640  156.6734 H   0  0  0  0  0  0  0  0  0  0  0  0
  150.8899  133.2664  157.8351 H   0  0  0  0  0  0  0  0  0  0  0  0
  151.9020  133.3051  156.4002 H   0  0  0  0  0  0  0  0  0  0  0  0
  149.6983  137.0885  159.6156 H   0  0  0  0  0  0  0  0  0  0  0  0
  152.2079  138.4842  153.8521 H   0  0  0  0  0  0  0  0  0  0  0  0
  152.8910  140.2003  156.5724 H   0  0  0  0  0  0  0  0  0  0  0  0
  151.9781  140.6355  155.1520 H   0  0  0  0  0  0  0  0  0  0  0  0
  150.5995  140.2725  157.8359 H   0  0  0  0  0  0  0  0  0  0  0  0
  149.1969  140.2400  155.8178 H   0  0  0  0  0  0  0  0  0  0  0  0
  148.8011  141.5878  156.8475 H   0  0  0  0  0  0  0  0  0  0  0  0
  149.5358  142.9314  155.3922 H   0  0  0  0  0  0  0  0  0  0  0  0
  151.9067  142.8485  156.8619 H   0  0  0  0  0  0  0  0  0  0  0  0
  152.1355  141.2731  159.4479 H   0  0  0  0  0  0  0  0  0  0  0  0
  153.4613  141.8236  158.4162 H   0  0  0  0  0  0  0  0  0  0  0  0
  152.6598  143.3280  160.5337 H   0  0  0  0  0  0  0  0  0  0  0  0
  153.1382  144.0980  159.0189 H   0  0  0  0  0  0  0  0  0  0  0  0
  149.7981  143.6885  157.6830 H   0  0  0  0  0  0  0  0  0  0  0  0
  149.7252  142.4598  158.9482 H   0  0  0  0  0  0  0  0  0  0  0  0
  149.3133  135.1548  154.4087 H   0  0  0  0  0  0  0  0  0  0  0  0
  150.9093  134.4556  154.2936 H   0  0  0  0  0  0  0  0  0  0  0  0
  149.2436  133.0062  153.1898 H   0  0  0  0  0  0  0  0  0  0  0  0
  148.2794  132.9435  154.6509 H   0  0  0  0  0  0  0  0  0  0  0  0
  1  2  1  0  0  0  0
  1 30  1  0  0  0  0
  1 31  1  0  0  0  0
  1 32  1  0  0  0  0
  2  3  1  0  0  0  0
  2 33  1  0  0  0  0
  2 34  1  0  0  0  0
  3  4  1  0  0  0  0
  3 35  1  0  0  0  0
  4  5  2  0  0  0  0
  4  6  1  0  0  0  0
  6 29  1  0  0  0  0
  6  7  1  0  0  0  0
  6 36  1  0  0  0  0
  7  8  1  0  0  0  0
  7 37  1  0  0  0  0
  7 38  1  0  0  0  0
  8  9  1  0  0  0  0
  8 39  1  0  0  0  0
  8 40  1  0  0  0  0
  9 10  1  0  0  0  0
  9 28  1  0  0  0  0
 10 15  1  0  0  0  0
 10 11  2  0  0  0  0
 11 12  1  0  0  0  0
 12 13  2  0  0  0  0
 12 41  1  0  0  0  0
 13 14  1  0  0  0  0
 14 18  1  0  0  0  0
 14 15  2  0  0  0  0
 15 16  1  0  0  0  0
 16 17  2  0  0  0  0
 17 18  1  0  0  0  0
 17 42  1  0  0  0  0
 18 19  1  0  0  0  0
 19 20  1  0  0  0  0
 19 43  1  0  0  0  0
 19 44  1  0  0  0  0
 20 21  1  0  0  0  0
 20 23  1  0  0  0  0
 20 45  1  0  0  0  0
 21 22  1  0  0  0  0
 21 46  1  0  0  0  0
 21 47  1  0  0  0  0
 22 48  1  0  0  0  0
 23 27  1  0  0  0  0
 23 24  1  0  0  0  0
 23 49  1  0  0  0  0
 24 25  1  0  0  0  0
 24 50  1  0  0  0  0
 24 51  1  0  0  0  0
 25 26  1  0  0  0  0
 25 52  1  0  0  0  0
 25 53  1  0  0  0  0
 26 27  1  0  0  0  0
 27 54  1  0  0  0  0
 27 55  1  0  0  0  0
 28 29  1  0  0  0  0
 28 56  1  0  0  0  0
 28 57  1  0  0  0  0
 29 58  1  0  0  0  0
 29 59  1  0  0  0  0
M  END
> <s_m_source_file>
AV-unprocessed.smi

> <i_m_source_file_index>
273

> <i_lp_mmshare_version>
43012

> <i_f3d_flags>
0

> <s_epik_input>
W0NIM11bQ0gyXVtOSF1DKD1PKVtDSF0xW0NIMl1bQ0gyXU4oW0NIMl1bQ0gyXTEpYyhuW2NIXW4yKWMoYzIzKW5bY0hdbjNbQ0gyXVtDQEhdKFtDSDJdW09IXSlbQ0BASF00W0NIMl1bQ0gyXU9bQ0gyXTQ=

> <s_epik_cmdline>
J2VwaWtfcHl0aG9uJywgJy1waCcsICc3LjAnLCAnLXRuJywgJzgnLCAnLW1hJywgJzIwMCcsICctbWV0YWxfYmluZGluZycsICctaW1hZScsICc8aW5maWxlLm1hZT4nLCAnLW9tYWUnLCAnPG91dGZpbGUubWFlPic=

> <r_lp_tautomer_probability>
1

> <r_epik_Ionization_Penalty>
0.00226556

> <r_epik_Ionization_Penalty_Charging>
0

> <r_epik_Ionization_Penalty_Neutral>
0.00226556

> <r_epik_State_Penalty>
0.00139883

> <r_epik_Charging_Adjusted_Penalty>
0.00139883

> <i_epik_Tot_Q>
0

> <i_epik_Tot_abs_Q>
0

> <r_epik_Metal_State_Penalty>
-0

> <b_epik_Metal_Only>
0

> <s_lp_Force_Field>
OPLS_2005

> <r_lp_Energy>
46.1121

> <b_lp_Chiralities_Consistent>
1

> <s_lp_Variant>
AV-unprocessed.smi:273-1

> <Gold.Version>
5.8.1

> <Gold.Id.Protein>
6NUR|6NUR_protein|mol2

> <Gold.PLP.Fitness>
51.7198

> <Gold.PLP.PLP>
-45.3421

> <Gold.PLP.part.hbond>
-3.0063

> <Gold.PLP.part.metal>
0.0000

> <Gold.PLP.part.buried>
-8.1225

> <Gold.PLP.part.nonpolar>
-35.7089

> <Gold.PLP.part.repulsive>
0.3307

> <Gold.PLP.ligand.clash>
0.0000

> <Gold.PLP.ligand.torsion>
1.5059

> <Gold.PLP.Chemscore.Hbond>
2.9280

> <Gold.PLP.Chemscore.CHOScore>
0.0000

> <Gold.PLP.Chemscore.Metal>
0.0000

> <Gold.Chemscore.Hbonds>
donor molecule, donor type, donor heavy atom, donor atom, acceptor molecule, acceptor atom, score
      L1  H    22    48       P1  8028  1.00
      P1  H  6896  6908       L1    11  0.81
      P1  H 10752 10765       L1    16  1.00

> <Gold.PLP.Chemscore.Internal.Correction>
0.6055

> <Gold.Rescore>
     Score         DG    S(hbond)    S(metal)    S(lipo)     H(rot)  DE(clash)    DE(int)     intcor
     12.75     -16.25       2.22        0.00      99.34       3.22       0.01       3.49       ----

> <Gold.Chemscore.Fitness>
12.7497

> <Gold.Chemscore.DG>
-16.2525

> <Gold.Chemscore.ZeroCoef>
-5.4800

> <Gold.Chemscore.Hbond>
2.2168

> <Gold.Chemscore.Metal>
0.0000

> <Gold.Chemscore.Lipo>
99.3409

> <Gold.Chemscore.Internal_Hbond>
0.0000

> <Gold.Chemscore.DEClash>
0.0150

> <Gold.Chemscore.DEInternal>
3.4878

> <Gold.Chemscore.Rot>
3.2244

> <Gold.Chemscore.Internal.Correction>
   9.000000E+99

> <Gold.Chemscore.Hbonds>
donor molecule, donor type, donor heavy atom, donor atom, acceptor molecule, acceptor atom, score
      L1  H    22    48       P1  8028  1.00
      P1  H  6896  6908       L1    11  0.19
      P1  H 10752 10765       L1    16  0.50

> <Gold.Chemscore.Hbond.Weighted>
-7.4042

> <Gold.Chemscore.Metal.Weighted>
-0.0000

> <Gold.Chemscore.Lipo.Weighted>
-11.6229

> <Gold.Chemscore.Internal_Hbond.Weighted>
0.0000

> <Gold.Chemscore.DEClash.Weighted>
0.0150

> <Gold.Chemscore.DEInternal.Weighted>
3.4878

> <Gold.Chemscore.Rot.Weighted>
8.2545

> <Gold.Chemscore.Internal.Correction.Weighted>
   9.000000E+99

> <Gold.Protein.RotatedTorsions>
[ 6907 6896 6895 6894 ] final  167.91 input  -60.11 | X-H torsion
[ 7974 7965 7964 7962 ] final  170.65 input  175.53 | X-H torsion
[ 8008 7997 7996 7995 ] final  -68.02 input   59.86 | X-H torsion
[ 10167 10162 10161 10158 ] final   20.53 input  -65.29 | X-H torsion
[ 10718 10713 10712 10709 ] final  -62.50 input   66.30 | X-H torsion
[ 10763 10752 10751 10750 ] final  174.56 input  -60.55 | X-H torsion
[ 11005 11000 10999 10996 ] final  -35.71 input  -57.11 | X-H torsion

> <Gold.Protein.ActiveResidues>
 VAL166  LYS551  ARG553  GLY616  TRP617  ASP618  TYR619  PRO620  LYS621  CYS622 
 ASP623  PHE694  ASN695  SER759  ASP760  ASP761  ALA762  ILE779  LEU786  VAL792 
 PHE793  MET794  SER795  GLU796  ALA797  LYS798  CYS799  TRP800  GLU811  SER814 

> <Gold.Protein.RotatedAtoms>
  151.8559  133.3448  159.3687 H   0  0  0  0  0  0  0  0  0  0  0  0  # atno 6907 bound_to 6896
  150.7193  134.5253  159.5683 H   0  0  0  0  0  0  0  0  0  0  0  0  # atno 6908 bound_to 6896
  152.2757  134.7885  160.0457 H   0  0  0  0  0  0  0  0  0  0  0  0  # atno 6909 bound_to 6896
  144.7317  139.9233  143.6421 H   0  0  0  0  0  0  0  0  0  0  0  0  # atno 7974 bound_to 7965
  154.4839  140.0881  156.7442 H   0  0  0  0  0  0  0  0  0  0  0  0  # atno 8008 bound_to 7997
  155.4399  140.3453  155.4270 H   0  0  0  0  0  0  0  0  0  0  0  0  # atno 8009 bound_to 7997
  156.1233  140.1480  156.9161 H   0  0  0  0  0  0  0  0  0  0  0  0  # atno 8010 bound_to 7997
  140.5497  143.9532  150.6570 H   0  0  0  0  0  0  0  0  0  0  0  0  # atno 10167 bound_to 10162
  156.0851  130.4210  150.1144 H   0  0  0  0  0  0  0  0  0  0  0  0  # atno 10718 bound_to 10713
  154.4555  135.2766  155.1750 H   0  0  0  0  0  0  0  0  0  0  0  0  # atno 10763 bound_to 10752
  154.3560  135.6140  153.5670 H   0  0  0  0  0  0  0  0  0  0  0  0  # atno 10764 bound_to 10752
  152.9850  135.5823  154.4908 H   0  0  0  0  0  0  0  0  0  0  0  0  # atno 10765 bound_to 10752
  140.9818  133.7052  156.1696 H   0  0  0  0  0  0  0  0  0  0  0  0  # atno 11005 bound_to 11000
  146.0913  139.3903  143.0404 LP  0  0  0  0  0  0  0  0  0  0  0  0  # atno 17320 bound_to 7965
  145.7707  140.9897  143.1151 LP  0  0  0  0  0  0  0  0  0  0  0  0  # atno 17321 bound_to 7965
  140.2954  143.3296  152.1022 LP  0  0  0  0  0  0  0  0  0  0  0  0  # atno 17342 bound_to 10162
  139.5022  144.6729  151.6198 LP  0  0  0  0  0  0  0  0  0  0  0  0  # atno 17343 bound_to 10162
  156.9166  130.9669  151.3555 LP  0  0  0  0  0  0  0  0  0  0  0  0  # atno 17370 bound_to 10713
  157.5983  130.8493  149.8762 LP  0  0  0  0  0  0  0  0  0  0  0  0  # atno 17371 bound_to 10713
  140.7175  134.4394  157.5577 LP  0  0  0  0  0  0  0  0  0  0  0  0  # atno 17394 bound_to 11000
  139.8953  134.8685  156.2137 LP  0  0  0  0  0  0  0  0  0  0  0  0  # atno 17395 bound_to 11000

$$$$
