AV-unprocessed.smi:2157|AV-procd|sdf|8783|dock10
  -GOLD-   2272011563D 1   1.00000     0.00000
 Structure written by MMmdl.
 41 42  0  0  0  0  0  0  0  0  1 V2000
  153.4477  141.3471  159.8640 C   0  0  0  0  0  0  0  0  0  0  0  0
  152.6016  142.3144  159.0241 C   0  0  2  0  0  0  0  0  0  0  0  0
  153.2990  143.6791  158.8670 C   0  0  0  0  0  0  0  0  0  0  0  0
  152.4534  144.6524  158.0313 C   0  0  0  0  0  0  0  0  0  0  0  0
  151.0497  144.8303  158.6333 C   0  0  0  0  0  0  0  0  0  0  0  0
  150.3221  143.4818  158.8195 C   0  0  1  0  0  0  0  0  0  0  0  0
  149.9425  142.8958  157.5350 N   0  0  0  0  0  0  0  0  0  0  0  0
  149.4236  141.6712  157.3598 C   0  0  0  0  0  0  0  0  0  0  0  0
  149.1932  140.8961  158.2890 O   0  0  0  0  0  0  0  0  0  0  0  0
  149.0974  141.2813  155.9116 C   0  0  0  0  0  0  0  0  0  0  0  0
  149.6426  139.9720  155.5312 N   0  0  0  0  0  0  0  0  0  0  0  0
  148.7886  138.8996  155.3507 C   0  0  0  0  0  0  0  0  0  0  0  0
  149.2098  137.6598  155.0184 C   0  0  0  0  0  0  0  0  0  0  0  0
  150.6269  137.3759  154.8251 C   0  0  0  0  0  0  0  0  0  0  0  0
  151.0513  136.2582  154.5308 O   0  0  0  0  0  0  0  0  0  0  0  0
  151.4776  138.4927  155.0089 N   0  0  0  0  0  0  0  0  0  0  0  0
  152.9073  138.3245  154.8524 C   0  0  0  0  0  0  0  0  0  0  0  0
  151.0312  139.7846  155.3632 C   0  0  0  0  0  0  0  0  0  0  0  0
  151.8175  140.7212  155.5266 O   0  0  0  0  0  0  0  0  0  0  0  0
  151.1901  142.4925  159.6228 C   0  0  0  0  0  0  0  0  0  0  0  0
  153.5964  141.7260  160.8756 H   0  0  0  0  0  0  0  0  0  0  0  0
  154.4308  141.1960  159.4177 H   0  0  0  0  0  0  0  0  0  0  0  0
  152.9680  140.3710  159.9412 H   0  0  0  0  0  0  0  0  0  0  0  0
  152.4972  141.8747  158.0314 H   0  0  0  0  0  0  0  0  0  0  0  0
  153.4859  144.1133  159.8502 H   0  0  0  0  0  0  0  0  0  0  0  0
  154.2745  143.5484  158.3975 H   0  0  0  0  0  0  0  0  0  0  0  0
  152.9533  145.6193  157.9704 H   0  0  0  0  0  0  0  0  0  0  0  0
  152.3723  144.2834  157.0083 H   0  0  0  0  0  0  0  0  0  0  0  0
  151.1411  145.3211  159.6030 H   0  0  0  0  0  0  0  0  0  0  0  0
  150.4585  145.5034  158.0115 H   0  0  0  0  0  0  0  0  0  0  0  0
  149.4085  143.6575  159.3903 H   0  0  0  0  0  0  0  0  0  0  0  0
  150.0917  143.4664  156.7154 H   0  0  0  0  0  0  0  0  0  0  0  0
  148.0128  141.2796  155.7968 H   0  0  0  0  0  0  0  0  0  0  0  0
  149.4642  142.0515  155.2306 H   0  0  0  0  0  0  0  0  0  0  0  0
  147.7286  139.0570  155.4873 H   0  0  0  0  0  0  0  0  0  0  0  0
  148.4883  136.8655  154.8965 H   0  0  0  0  0  0  0  0  0  0  0  0
  153.2530  139.0807  154.1452 H   0  0  0  0  0  0  0  0  0  0  0  0
  153.1503  137.3360  154.4643 H   0  0  0  0  0  0  0  0  0  0  0  0
  153.3545  138.4659  155.8376 H   0  0  0  0  0  0  0  0  0  0  0  0
  150.6862  141.5271  159.6901 H   0  0  0  0  0  0  0  0  0  0  0  0
  151.2805  142.8561  160.6474 H   0  0  0  0  0  0  0  0  0  0  0  0
  1  2  1  0  0  0  0
  1 21  1  0  0  0  0
  1 22  1  0  0  0  0
  1 23  1  0  0  0  0
  2 20  1  0  0  0  0
  2  3  1  0  0  0  0
  2 24  1  0  0  0  0
  3  4  1  0  0  0  0
  3 25  1  0  0  0  0
  3 26  1  0  0  0  0
  4  5  1  0  0  0  0
  4 27  1  0  0  0  0
  4 28  1  0  0  0  0
  5  6  1  0  0  0  0
  5 29  1  0  0  0  0
  5 30  1  0  0  0  0
  6  7  1  0  0  0  0
  6 20  1  0  0  0  0
  6 31  1  0  0  0  0
  7  8  1  0  0  0  0
  7 32  1  0  0  0  0
  8  9  2  0  0  0  0
  8 10  1  0  0  0  0
 10 11  1  0  0  0  0
 10 33  1  0  0  0  0
 10 34  1  0  0  0  0
 11 18  1  0  0  0  0
 11 12  1  0  0  0  0
 12 13  2  0  0  0  0
 12 35  1  0  0  0  0
 13 14  1  0  0  0  0
 13 36  1  0  0  0  0
 14 15  2  0  0  0  0
 14 16  1  0  0  0  0
 16 17  1  0  0  0  0
 16 18  1  0  0  0  0
 17 37  1  0  0  0  0
 17 38  1  0  0  0  0
 17 39  1  0  0  0  0
 18 19  2  0  0  0  0
 20 40  1  0  0  0  0
 20 41  1  0  0  0  0
M  END
> <s_m_source_file>
AV-unprocessed.smi

> <i_m_source_file_index>
2157

> <i_lp_mmshare_version>
43012

> <i_f3d_flags>
0

> <s_epik_input>
W0NIM11bQ0BASF0xW0NIMl1bQ0gyXVtDSDJdW0NASF0oW0NIMl0xKVtOSF1DKD1PKVtDSDJdbjJbY0hdW2NIXWMoPU8pbihbQ0gzXSljMj1P

> <s_epik_cmdline>
J2VwaWtfcHl0aG9uJywgJy1waCcsICc3LjAnLCAnLXRuJywgJzgnLCAnLW1hJywgJzIwMCcsICctbWV0YWxfYmluZGluZycsICctaW1hZScsICc8aW5maWxlLm1hZT4nLCAnLW9tYWUnLCAnPG91dGZpbGUubWFlPic=

> <r_lp_tautomer_probability>
1

> <r_epik_Ionization_Penalty>
3.1838e-08

> <r_epik_Ionization_Penalty_Charging>
1.27911e-08

> <r_epik_Ionization_Penalty_Neutral>
1.90469e-08

> <r_epik_State_Penalty>
-0

> <r_epik_Charging_Adjusted_Penalty>
1.27911e-08

> <i_epik_Tot_Q>
0

> <i_epik_Tot_abs_Q>
0

> <r_epik_Metal_State_Penalty>
-0

> <b_epik_Metal_Only>
0

> <s_lp_Force_Field>
OPLS_2005

> <r_lp_Energy>
16.0352

> <b_lp_Chiralities_Consistent>
1

> <s_lp_Variant>
AV-unprocessed.smi:2157-1

> <Gold.Version>
5.8.1

> <Gold.Id.Protein>
6NUR|6NUR_protein|mol2

> <Gold.PLP.Fitness>
41.3800

> <Gold.PLP.PLP>
-36.5452

> <Gold.PLP.part.hbond>
-3.0694

> <Gold.PLP.part.metal>
0.0000

> <Gold.PLP.part.buried>
-1.3644

> <Gold.PLP.part.nonpolar>
-33.7470

> <Gold.PLP.part.repulsive>
1.0160

> <Gold.PLP.ligand.clash>
0.0000

> <Gold.PLP.ligand.torsion>
0.2762

> <Gold.PLP.Chemscore.Hbond>
1.7928

> <Gold.PLP.Chemscore.CHOScore>
0.0000

> <Gold.PLP.Chemscore.Metal>
0.0000

> <Gold.Chemscore.Hbonds>
donor molecule, donor type, donor heavy atom, donor atom, acceptor molecule, acceptor atom, score
      L1  H     7    32       P1  8028  0.66
      P1  H  7989  7998       L1    19  0.12
      P1  H 10752 10764       L1    15  1.00

> <Gold.PLP.Chemscore.Internal.Correction>
0.0089

> <Gold.Rescore>
     Score         DG    S(hbond)    S(metal)    S(lipo)     H(rot)  DE(clash)    DE(int)     intcor
     16.53     -18.49       1.69        0.00      96.25       1.52       0.48       1.48       ----

> <Gold.Chemscore.Fitness>
16.5331

> <Gold.Chemscore.DG>
-18.4869

> <Gold.Chemscore.ZeroCoef>
-5.4800

> <Gold.Chemscore.Hbond>
1.6909

> <Gold.Chemscore.Metal>
0.0000

> <Gold.Chemscore.Lipo>
96.2509

> <Gold.Chemscore.Internal_Hbond>
0.0000

> <Gold.Chemscore.DEClash>
0.4766

> <Gold.Chemscore.DEInternal>
1.4772

> <Gold.Chemscore.Rot>
1.5242

> <Gold.Chemscore.Internal.Correction>
   9.000000E+99

> <Gold.Chemscore.Hbonds>
donor molecule, donor type, donor heavy atom, donor atom, acceptor molecule, acceptor atom, score
      L1  H     7    32       P1  8028  0.62
      P1  H 10752 10764       L1    15  0.92

> <Gold.Chemscore.Hbond.Weighted>
-5.6475

> <Gold.Chemscore.Metal.Weighted>
-0.0000

> <Gold.Chemscore.Lipo.Weighted>
-11.2614

> <Gold.Chemscore.Internal_Hbond.Weighted>
0.0000

> <Gold.Chemscore.DEClash.Weighted>
0.4766

> <Gold.Chemscore.DEInternal.Weighted>
1.4772

> <Gold.Chemscore.Rot.Weighted>
3.9019

> <Gold.Chemscore.Internal.Correction.Weighted>
   9.000000E+99

> <Gold.Protein.RotatedTorsions>
[ 6907 6896 6895 6894 ] final  169.91 input  -60.11 | X-H torsion
[ 7974 7965 7964 7962 ] final   23.24 input  175.53 | X-H torsion
[ 8008 7997 7996 7995 ] final   62.79 input   59.86 | X-H torsion
[ 10167 10162 10161 10158 ] final  167.79 input  -65.29 | X-H torsion
[ 10718 10713 10712 10709 ] final   52.32 input   66.30 | X-H torsion
[ 10763 10752 10751 10750 ] final  -84.96 input  -60.55 | X-H torsion
[ 11005 11000 10999 10996 ] final    0.49 input  -57.11 | X-H torsion

> <Gold.Protein.ActiveResidues>
 VAL166  LYS551  ARG553  GLY616  TRP617  ASP618  TYR619  PRO620  LYS621  CYS622 
 ASP623  PHE694  ASN695  SER759  ASP760  ASP761  ALA762  ILE779  LEU786  VAL792 
 PHE793  MET794  SER795  GLU796  ALA797  LYS798  CYS799  TRP800  GLU811  SER814 

> <Gold.Protein.RotatedAtoms>
  151.8244  133.3399  159.3593 H   0  0  0  0  0  0  0  0  0  0  0  0  # atno 6907 bound_to 6896
  150.7284  134.5542  159.5819 H   0  0  0  0  0  0  0  0  0  0  0  0  # atno 6908 bound_to 6896
  152.2982  134.7643  160.0414 H   0  0  0  0  0  0  0  0  0  0  0  0  # atno 6909 bound_to 6896
  146.1993  139.7773  142.8773 H   0  0  0  0  0  0  0  0  0  0  0  0  # atno 7974 bound_to 7965
  155.6200  140.3495  155.4649 H   0  0  0  0  0  0  0  0  0  0  0  0  # atno 8008 bound_to 7997
  156.0087  140.1228  157.0499 H   0  0  0  0  0  0  0  0  0  0  0  0  # atno 8009 bound_to 7997
  154.4273  140.1086  156.5785 H   0  0  0  0  0  0  0  0  0  0  0  0  # atno 8010 bound_to 7997
  139.4953  144.3884  151.9545 H   0  0  0  0  0  0  0  0  0  0  0  0  # atno 10167 bound_to 10162
  157.5063  130.8471  149.8379 H   0  0  0  0  0  0  0  0  0  0  0  0  # atno 10718 bound_to 10713
  154.6055  135.5502  153.7419 H   0  0  0  0  0  0  0  0  0  0  0  0  # atno 10763 bound_to 10752
  153.0172  135.6377  154.1653 H   0  0  0  0  0  0  0  0  0  0  0  0  # atno 10764 bound_to 10752
  154.1592  135.2898  155.3093 H   0  0  0  0  0  0  0  0  0  0  0  0  # atno 10765 bound_to 10752
  140.6260  133.9618  155.8249 H   0  0  0  0  0  0  0  0  0  0  0  0  # atno 11005 bound_to 11000
  145.3537  141.0312  143.3324 LP  0  0  0  0  0  0  0  0  0  0  0  0  # atno 17320 bound_to 7965
  144.8648  139.5123  143.6795 LP  0  0  0  0  0  0  0  0  0  0  0  0  # atno 17321 bound_to 7965
  140.3321  144.3304  150.5985 LP  0  0  0  0  0  0  0  0  0  0  0  0  # atno 17342 bound_to 10162
  140.5636  143.2189  151.7722 LP  0  0  0  0  0  0  0  0  0  0  0  0  # atno 17343 bound_to 10162
  156.0260  130.3779  150.1821 LP  0  0  0  0  0  0  0  0  0  0  0  0  # atno 17370 bound_to 10713
  157.0010  130.9922  151.3391 LP  0  0  0  0  0  0  0  0  0  0  0  0  # atno 17371 bound_to 10713
  141.0709  134.0207  157.3527 LP  0  0  0  0  0  0  0  0  0  0  0  0  # atno 17394 bound_to 11000
  139.9134  135.0193  156.7786 LP  0  0  0  0  0  0  0  0  0  0  0  0  # atno 17395 bound_to 11000

$$$$
