AV-unprocessed.smi:779|AV-procd|sdf|3704|dock7
  -GOLD-   22720 1123D 1   1.00000     0.00000
 Structure written by MMmdl.
 21 21  0  0  0  0  0  0  0  0  2 V2000
  153.4594  136.5580  156.7186 O   0  0  0  0  0  0  0  0  0  0  0  0
  153.3955  137.7620  157.0531 C   0  0  0  0  0  0  0  0  0  0  0  0
  154.0806  138.3038  157.9492 O   0  5  0  0  0  0  0  0  0  0  0  0
  152.3375  138.6355  156.2497 C   0  0  0  0  0  0  0  0  0  0  0  0
  152.0193  139.9177  156.5693 C   0  0  0  0  0  0  0  0  0  0  0  0
  151.1003  140.6793  155.8649 N   0  0  0  0  0  0  0  0  0  0  0  0
  150.7973  142.0456  156.2135 C   0  0  0  0  0  0  0  0  0  0  0  0
  150.2536  142.1860  157.6451 C   0  0  0  0  0  0  0  0  0  0  0  0
  149.9438  143.5372  157.9091 O   0  0  0  0  0  0  0  0  0  0  0  0
  150.4529  140.1274  154.7387 C   0  0  0  0  0  0  0  0  0  0  0  0
  149.6408  140.7489  154.0527 O   0  0  0  0  0  0  0  0  0  0  0  0
  150.7751  138.8119  154.4121 N   0  0  0  0  0  0  0  0  0  0  0  0
  151.6843  137.9922  155.0890 C   0  0  0  0  0  0  0  0  0  0  0  0
  151.8488  136.8482  154.6657 O   0  0  0  0  0  0  0  0  0  0  0  0
  150.3111  138.4123  153.6098 H   0  0  0  0  0  0  0  0  0  0  0  0
  152.5076  140.3784  157.4163 H   0  0  0  0  0  0  0  0  0  0  0  0
  151.6966  142.6414  156.0414 H   0  0  0  0  0  0  0  0  0  0  0  0
  150.0620  142.3879  155.4835 H   0  0  0  0  0  0  0  0  0  0  0  0
  149.3515  141.5868  157.7726 H   0  0  0  0  0  0  0  0  0  0  0  0
  150.9817  141.8401  158.3793 H   0  0  0  0  0  0  0  0  0  0  0  0
  149.5550  143.9123  157.1337 H   0  0  0  0  0  0  0  0  0  0  0  0
  1  2  2  0  0  0  0
  2  3  1  0  0  0  0
  2  4  1  0  0  0  0
  4 13  1  0  0  0  0
  4  5  2  0  0  0  0
  5  6  1  0  0  0  0
  5 16  1  0  0  0  0
  6  7  1  0  0  0  0
  6 10  1  0  0  0  0
  7  8  1  0  0  0  0
  7 17  1  0  0  0  0
  7 18  1  0  0  0  0
  8  9  1  0  0  0  0
  8 19  1  0  0  0  0
  8 20  1  0  0  0  0
  9 21  1  0  0  0  0
 10 11  2  0  0  0  0
 10 12  1  0  0  0  0
 12 15  1  0  0  0  0
 12 13  1  0  0  0  0
 13 14  2  0  0  0  0
M  CHG  1   3  -1
M  END
> <s_m_source_file>
AV-unprocessed.smi

> <i_m_source_file_index>
779

> <i_lp_mmshare_version>
43012

> <i_f3d_flags>
0

> <s_epik_input>
Tz1DKFtPSF0pYzFbY0hdbihbQ0gyXVtDSDJdW09IXSljKD1PKVtuSF1jMT1P

> <s_epik_cmdline>
J2VwaWtfcHl0aG9uJywgJy1waCcsICc3LjAnLCAnLXRuJywgJzgnLCAnLW1hJywgJzIwMCcsICctbWV0YWxfYmluZGluZycsICctaW1hZScsICc8aW5maWxlLm1hZT4nLCAnLW9tYWUnLCAnPG91dGZpbGUubWFlPic=

> <r_lp_tautomer_probability>
1

> <r_epik_Ionization_Penalty>
0.00105006

> <r_epik_Ionization_Penalty_Charging>
0.0010499

> <r_epik_Ionization_Penalty_Neutral>
1.56052e-07

> <r_epik_State_Penalty>
-0

> <r_epik_Charging_Adjusted_Penalty>
0.0010499

> <i_epik_Tot_Q>
-1

> <i_epik_Tot_abs_Q>
1

> <r_epik_Metal_State_Penalty>
0.521421

> <b_epik_Metal_Only>
0

> <s_lp_Force_Field>
OPLS_2005

> <r_lp_Energy>
14.2726

> <b_lp_Chiralities_Consistent>
1

> <s_lp_Variant>
AV-unprocessed.smi:779-1

> <Gold.Version>
5.8.1

> <Gold.Id.Protein>
6NUR|6NUR_protein|mol2

> <Gold.PLP.Fitness>
38.8504

> <Gold.PLP.PLP>
-22.8518

> <Gold.PLP.part.hbond>
-5.4762

> <Gold.PLP.part.metal>
0.0000

> <Gold.PLP.part.buried>
-2.6846

> <Gold.PLP.part.nonpolar>
-16.5512

> <Gold.PLP.part.repulsive>
1.1523

> <Gold.PLP.ligand.clash>
0.0000

> <Gold.PLP.ligand.torsion>
0.0298

> <Gold.PLP.Chemscore.Hbond>
5.3520

> <Gold.PLP.Chemscore.CHOScore>
0.0000

> <Gold.PLP.Chemscore.Metal>
0.0000

> <Gold.Chemscore.Hbonds>
donor molecule, donor type, donor heavy atom, donor atom, acceptor molecule, acceptor atom, score
      L1  H     9    21       P1  8028  1.00
      P1  H  7997  8009       L1     3  1.92
      P1  H  8011  8017       L1    11  0.08
      P1  H 10752 10763       L1    14  0.66
      P1  H 10752 10764       L1     1  1.73

> <Gold.PLP.Chemscore.Internal.Correction>
0.0022

> <Gold.Rescore>
     Score         DG    S(hbond)    S(metal)    S(lipo)     H(rot)  DE(clash)    DE(int)     intcor
     12.02     -14.00       3.31        0.00      26.15       2.19       0.32       1.67       ----

> <Gold.Chemscore.Fitness>
12.0159

> <Gold.Chemscore.DG>
-14.0038

> <Gold.Chemscore.ZeroCoef>
-5.4800

> <Gold.Chemscore.Hbond>
3.3146

> <Gold.Chemscore.Metal>
0.0000

> <Gold.Chemscore.Lipo>
26.1546

> <Gold.Chemscore.Internal_Hbond>
0.0000

> <Gold.Chemscore.DEClash>
0.3183

> <Gold.Chemscore.DEInternal>
1.6696

> <Gold.Chemscore.Rot>
2.1902

> <Gold.Chemscore.Internal.Correction>
   9.000000E+99

> <Gold.Chemscore.Hbonds>
donor molecule, donor type, donor heavy atom, donor atom, acceptor molecule, acceptor atom, score
      L1  H     9    21       P1  8028  0.70
      P1  H  7997  8009       L1     3  0.62
      P1  H  8011  8017       L1    11  0.10
      P1  H 10752 10763       L1    14  0.66
      P1  H 10752 10764       L1     1  0.85

> <Gold.Chemscore.Hbond.Weighted>
-11.0706

> <Gold.Chemscore.Metal.Weighted>
-0.0000

> <Gold.Chemscore.Lipo.Weighted>
-3.0601

> <Gold.Chemscore.Internal_Hbond.Weighted>
0.0000

> <Gold.Chemscore.DEClash.Weighted>
0.3183

> <Gold.Chemscore.DEInternal.Weighted>
1.6696

> <Gold.Chemscore.Rot.Weighted>
5.6069

> <Gold.Chemscore.Internal.Correction.Weighted>
   9.000000E+99

> <Gold.Protein.RotatedTorsions>
[ 6907 6896 6895 6894 ] final    6.44 input  -60.11 | X-H torsion
[ 7974 7965 7964 7962 ] final -116.84 input  175.53 | X-H torsion
[ 8008 7997 7996 7995 ] final  132.86 input   59.86 | X-H torsion
[ 10167 10162 10161 10158 ] final  103.46 input  -65.29 | X-H torsion
[ 10718 10713 10712 10709 ] final -160.27 input   66.30 | X-H torsion
[ 10763 10752 10751 10750 ] final   19.53 input  -60.55 | X-H torsion
[ 11005 11000 10999 10996 ] final   15.74 input  -57.11 | X-H torsion

> <Gold.Protein.ActiveResidues>
 VAL166  LYS551  ARG553  GLY616  TRP617  ASP618  TYR619  PRO620  LYS621  CYS622 
 ASP623  PHE694  ASN695  SER759  ASP760  ASP761  ALA762  ILE779  LEU786  VAL792 
 PHE793  MET794  SER795  GLU796  ALA797  LYS798  CYS799  TRP800  GLU811  SER814 

> <Gold.Protein.RotatedAtoms>
  151.6737  135.0972  160.0202 H   0  0  0  0  0  0  0  0  0  0  0  0  # atno 6907 bound_to 6896
  152.3876  133.6629  159.6220 H   0  0  0  0  0  0  0  0  0  0  0  0  # atno 6908 bound_to 6896
  150.7799  133.8925  159.3359 H   0  0  0  0  0  0  0  0  0  0  0  0  # atno 6909 bound_to 6896
  145.0921  140.8497  143.3976 H   0  0  0  0  0  0  0  0  0  0  0  0  # atno 7974 bound_to 7965
  156.2987  140.2536  156.3158 H   0  0  0  0  0  0  0  0  0  0  0  0  # atno 8008 bound_to 7997
  154.9282  140.0399  157.2053 H   0  0  0  0  0  0  0  0  0  0  0  0  # atno 8009 bound_to 7997
  154.8244  140.2865  155.5769 H   0  0  0  0  0  0  0  0  0  0  0  0  # atno 8010 bound_to 7997
  139.7261  144.7047  151.0795 H   0  0  0  0  0  0  0  0  0  0  0  0  # atno 10167 bound_to 10162
  156.5798  130.8724  151.2861 H   0  0  0  0  0  0  0  0  0  0  0  0  # atno 10718 bound_to 10713
  153.1154  135.6707  153.9427 H   0  0  0  0  0  0  0  0  0  0  0  0  # atno 10763 bound_to 10752
  153.8958  135.3041  155.3449 H   0  0  0  0  0  0  0  0  0  0  0  0  # atno 10764 bound_to 10752
  154.7571  135.5006  153.9473 H   0  0  0  0  0  0  0  0  0  0  0  0  # atno 10765 bound_to 10752
  140.4549  134.1186  155.7707 H   0  0  0  0  0  0  0  0  0  0  0  0  # atno 11005 bound_to 11000
  145.1053  139.2794  143.5665 LP  0  0  0  0  0  0  0  0  0  0  0  0  # atno 17320 bound_to 7965
  146.3531  140.0633  142.8628 LP  0  0  0  0  0  0  0  0  0  0  0  0  # atno 17321 bound_to 7965
  140.7763  143.5103  150.9661 LP  0  0  0  0  0  0  0  0  0  0  0  0  # atno 17342 bound_to 10162
  139.8790  143.7095  152.3159 LP  0  0  0  0  0  0  0  0  0  0  0  0  # atno 17343 bound_to 10162
  157.7329  130.9722  150.1952 LP  0  0  0  0  0  0  0  0  0  0  0  0  # atno 17370 bound_to 10713
  156.2642  130.3714  149.8099 LP  0  0  0  0  0  0  0  0  0  0  0  0  # atno 17371 bound_to 10713
  141.1647  133.8725  157.1747 LP  0  0  0  0  0  0  0  0  0  0  0  0  # atno 17394 bound_to 11000
  139.9983  135.0038  157.0132 LP  0  0  0  0  0  0  0  0  0  0  0  0  # atno 17395 bound_to 11000

$$$$
