AV-unprocessed.smi:781|AV-procd|sdf|3710|dock1
  -GOLD-   22720 1133D 1   1.00000     0.00000
 Structure written by MMmdl.
 38 40  0  0  0  0  0  0  0  0  1 V2000
  147.0301  129.7721  153.0332 C   0  0  0  0  0  0  0  0  0  0  0  0
  147.7839  130.9588  153.5276 C   0  0  0  0  0  0  0  0  0  0  0  0
  147.7160  132.2922  153.2358 C   0  0  0  0  0  0  0  0  0  0  0  0
  148.7194  132.8538  154.0695 C   0  0  0  0  0  0  0  0  0  0  0  0
  148.9715  134.2495  154.0658 N   0  0  0  0  0  0  0  0  0  0  0  0
  149.5175  134.9854  155.0491 C   0  0  0  0  0  0  0  0  0  0  0  0
  149.8972  134.5483  156.1356 O   0  0  0  0  0  0  0  0  0  0  0  0
  149.5934  136.2790  154.7037 N   0  0  0  0  0  0  0  0  0  0  0  0
  150.1469  137.3472  155.5379 C   0  0  1  0  0  0  0  0  0  0  0  0
  151.6892  137.3349  155.4647 C   0  0  2  0  0  0  0  0  0  0  0  0
  152.2549  138.1808  156.6199 C   0  0  0  0  0  0  0  0  0  0  0  0
  151.9099  139.6170  156.1820 C   0  0  0  0  0  0  0  0  0  0  0  0
  151.1944  139.4025  154.8329 C   0  0  1  0  0  0  0  0  0  0  0  0
  151.9739  138.2251  154.2613 C   0  0  0  0  0  0  0  0  0  0  0  0
  149.7914  138.7968  155.0855 C   0  0  1  0  0  0  0  0  0  0  0  0
  148.8441  138.9211  153.8700 C   0  0  0  0  0  0  0  0  0  0  0  0
  148.7688  140.2633  153.4376 O   0  0  0  0  0  0  0  0  0  0  0  0
  149.3433  131.9456  154.8039 N   0  0  0  0  0  0  0  0  0  0  0  0
  148.7471  130.7264  154.4603 O   0  0  0  0  0  0  0  0  0  0  0  0
  146.3367  130.0536  152.2405 H   0  0  0  0  0  0  0  0  0  0  0  0
  146.4550  129.3162  153.8393 H   0  0  0  0  0  0  0  0  0  0  0  0
  147.7107  129.0193  152.6352 H   0  0  0  0  0  0  0  0  0  0  0  0
  147.0536  132.7831  152.5385 H   0  0  0  0  0  0  0  0  0  0  0  0
  148.7048  134.7407  153.2255 H   0  0  0  0  0  0  0  0  0  0  0  0
  149.2546  136.5484  153.7919 H   0  0  0  0  0  0  0  0  0  0  0  0
  149.8316  137.1851  156.5705 H   0  0  0  0  0  0  0  0  0  0  0  0
  152.1244  136.3360  155.4126 H   0  0  0  0  0  0  0  0  0  0  0  0
  151.8153  137.9204  157.5836 H   0  0  0  0  0  0  0  0  0  0  0  0
  153.3353  138.0545  156.7010 H   0  0  0  0  0  0  0  0  0  0  0  0
  151.2826  140.1355  156.9079 H   0  0  0  0  0  0  0  0  0  0  0  0
  152.8193  140.2044  156.0491 H   0  0  0  0  0  0  0  0  0  0  0  0
  151.1909  140.2950  154.2066 H   0  0  0  0  0  0  0  0  0  0  0  0
  153.0356  138.4362  154.1212 H   0  0  0  0  0  0  0  0  0  0  0  0
  151.5628  137.8398  153.3273 H   0  0  0  0  0  0  0  0  0  0  0  0
  149.3152  139.3166  155.9185 H   0  0  0  0  0  0  0  0  0  0  0  0
  149.1723  138.2968  153.0386 H   0  0  0  0  0  0  0  0  0  0  0  0
  147.8356  138.6054  154.1371 H   0  0  0  0  0  0  0  0  0  0  0  0
  149.3592  140.3783  152.7086 H   0  0  0  0  0  0  0  0  0  0  0  0
  1  2  1  0  0  0  0
  1 20  1  0  0  0  0
  1 21  1  0  0  0  0
  1 22  1  0  0  0  0
  2 19  1  0  0  0  0
  2  3  2  0  0  0  0
  3  4  1  0  0  0  0
  3 23  1  0  0  0  0
  4  5  1  0  0  0  0
  4 18  2  0  0  0  0
  5  6  1  0  0  0  0
  5 24  1  0  0  0  0
  6  7  2  0  0  0  0
  6  8  1  0  0  0  0
  8  9  1  0  0  0  0
  8 25  1  0  0  0  0
  9 15  1  0  0  0  0
  9 10  1  0  0  0  0
  9 26  1  0  0  0  0
 10 14  1  0  0  0  0
 10 11  1  0  0  0  0
 10 27  1  0  0  0  0
 11 12  1  0  0  0  0
 11 28  1  0  0  0  0
 11 29  1  0  0  0  0
 12 13  1  0  0  0  0
 12 30  1  0  0  0  0
 12 31  1  0  0  0  0
 13 14  1  0  0  0  0
 13 15  1  0  0  0  0
 13 32  1  0  0  0  0
 14 33  1  0  0  0  0
 14 34  1  0  0  0  0
 15 16  1  0  0  0  0
 15 35  1  0  0  0  0
 16 17  1  0  0  0  0
 16 36  1  0  0  0  0
 16 37  1  0  0  0  0
 17 38  1  0  0  0  0
 18 19  1  0  0  0  0
M  END
> <s_m_source_file>
AV-unprocessed.smi

> <i_m_source_file_index>
781

> <i_lp_mmshare_version>
43012

> <i_f3d_flags>
0

> <s_epik_input>
W0NIM11jMVtjSF1jKG5vMSlbTkhdQyg9TylbTkhdW0NASF0oW0NAQEhdMjMpW0NASF0oW0NIMl1bT0hdKVtDQEBIXShbQ0gyXTMpW0NIMl1bQ0gyXTI=

> <s_epik_cmdline>
J2VwaWtfcHl0aG9uJywgJy1waCcsICc3LjAnLCAnLXRuJywgJzgnLCAnLW1hJywgJzIwMCcsICctbWV0YWxfYmluZGluZycsICctaW1hZScsICc8aW5maWxlLm1hZT4nLCAnLW9tYWUnLCAnPG91dGZpbGUubWFlPic=

> <r_lp_tautomer_probability>
1

> <r_epik_Ionization_Penalty>
2.32222e-05

> <r_epik_Ionization_Penalty_Charging>
0

> <r_epik_Ionization_Penalty_Neutral>
2.32222e-05

> <r_epik_State_Penalty>
-0

> <r_epik_Charging_Adjusted_Penalty>
0

> <i_epik_Tot_Q>
0

> <i_epik_Tot_abs_Q>
0

> <r_epik_Metal_State_Penalty>
-0

> <b_epik_Metal_Only>
0

> <s_lp_Force_Field>
OPLS_2005

> <r_lp_Energy>
48.1353

> <b_lp_Chiralities_Consistent>
1

> <s_lp_Variant>
AV-unprocessed.smi:781-4

> <Gold.Version>
5.8.1

> <Gold.Id.Protein>
6NUR|6NUR_protein|mol2

> <Gold.PLP.Fitness>
36.9903

> <Gold.PLP.PLP>
-28.7799

> <Gold.PLP.part.hbond>
-3.0000

> <Gold.PLP.part.metal>
0.0000

> <Gold.PLP.part.buried>
-3.1833

> <Gold.PLP.part.nonpolar>
-23.4478

> <Gold.PLP.part.repulsive>
0.1237

> <Gold.PLP.ligand.clash>
0.0000

> <Gold.PLP.ligand.torsion>
0.3927

> <Gold.PLP.Chemscore.Hbond>
2.9920

> <Gold.PLP.Chemscore.CHOScore>
0.0000

> <Gold.PLP.Chemscore.Metal>
0.0000

> <Gold.Chemscore.Hbonds>
donor molecule, donor type, donor heavy atom, donor atom, acceptor molecule, acceptor atom, score
      L1  H     5    24       P1  7948  1.00
      L1  H     8    25       P1  7948  1.00
      L1  H    17    38       P1  7957  0.90

> <Gold.PLP.Chemscore.Internal.Correction>
0.0198

> <Gold.Rescore>
     Score         DG    S(hbond)    S(metal)    S(lipo)     H(rot)  DE(clash)    DE(int)     intcor
     14.04     -15.78       2.23        0.00      64.92       1.86       0.21       1.53       ----

> <Gold.Chemscore.Fitness>
14.0357

> <Gold.Chemscore.DG>
-15.7778

> <Gold.Chemscore.ZeroCoef>
-5.4800

> <Gold.Chemscore.Hbond>
2.2337

> <Gold.Chemscore.Metal>
0.0000

> <Gold.Chemscore.Lipo>
64.9181

> <Gold.Chemscore.Internal_Hbond>
0.0000

> <Gold.Chemscore.DEClash>
0.2107

> <Gold.Chemscore.DEInternal>
1.5314

> <Gold.Chemscore.Rot>
1.8587

> <Gold.Chemscore.Internal.Correction>
   9.000000E+99

> <Gold.Chemscore.Hbonds>
donor molecule, donor type, donor heavy atom, donor atom, acceptor molecule, acceptor atom, score
      L1  H     5    24       P1  7948  0.32
      L1  H     8    25       P1  7948  0.91
      L1  H    17    38       P1  7957  0.87

> <Gold.Chemscore.Hbond.Weighted>
-7.4607

> <Gold.Chemscore.Metal.Weighted>
-0.0000

> <Gold.Chemscore.Lipo.Weighted>
-7.5954

> <Gold.Chemscore.Internal_Hbond.Weighted>
0.0000

> <Gold.Chemscore.DEClash.Weighted>
0.2107

> <Gold.Chemscore.DEInternal.Weighted>
1.5314

> <Gold.Chemscore.Rot.Weighted>
4.7583

> <Gold.Chemscore.Internal.Correction.Weighted>
   9.000000E+99

> <Gold.Protein.RotatedTorsions>
[ 6907 6896 6895 6894 ] final  -10.89 input  -60.11 | X-H torsion
[ 7974 7965 7964 7962 ] final   68.60 input  175.53 | X-H torsion
[ 8008 7997 7996 7995 ] final   20.32 input   59.86 | X-H torsion
[ 10167 10162 10161 10158 ] final  -13.77 input  -65.29 | X-H torsion
[ 10718 10713 10712 10709 ] final  130.79 input   66.30 | X-H torsion
[ 10763 10752 10751 10750 ] final   29.13 input  -60.55 | X-H torsion
[ 11005 11000 10999 10996 ] final   17.99 input  -57.11 | X-H torsion

> <Gold.Protein.ActiveResidues>
 VAL166  LYS551  ARG553  GLY616  TRP617  ASP618  TYR619  PRO620  LYS621  CYS622 
 ASP623  PHE694  ASN695  SER759  ASP760  ASP761  ALA762  ILE779  LEU786  VAL792 
 PHE793  MET794  SER795  GLU796  ALA797  LYS798  CYS799  TRP800  GLU811  SER814 

> <Gold.Protein.RotatedAtoms>
  151.3948  135.0962  159.9537 H   0  0  0  0  0  0  0  0  0  0  0  0  # atno 6907 bound_to 6896
  152.5068  133.8945  159.7420 H   0  0  0  0  0  0  0  0  0  0  0  0  # atno 6908 bound_to 6896
  150.9406  133.6605  159.2820 H   0  0  0  0  0  0  0  0  0  0  0  0  # atno 6909 bound_to 6896
  145.8007  139.2980  143.1157 H   0  0  0  0  0  0  0  0  0  0  0  0  # atno 7974 bound_to 7965
  154.9339  140.3044  155.5154 H   0  0  0  0  0  0  0  0  0  0  0  0  # atno 8008 bound_to 7997
  156.3001  140.2349  156.4338 H   0  0  0  0  0  0  0  0  0  0  0  0  # atno 8009 bound_to 7997
  154.8211  140.0423  157.1400 H   0  0  0  0  0  0  0  0  0  0  0  0  # atno 8010 bound_to 7997
  140.7188  143.5392  150.9429 H   0  0  0  0  0  0  0  0  0  0  0  0  # atno 10167 bound_to 10162
  157.5029  131.1094  150.9402 H   0  0  0  0  0  0  0  0  0  0  0  0  # atno 10718 bound_to 10713
  153.0449  135.6496  154.0844 H   0  0  0  0  0  0  0  0  0  0  0  0  # atno 10763 bound_to 10752
  154.0543  135.2893  155.3337 H   0  0  0  0  0  0  0  0  0  0  0  0  # atno 10764 bound_to 10752
  154.6699  135.5360  153.8190 H   0  0  0  0  0  0  0  0  0  0  0  0  # atno 10765 bound_to 10752
  140.4298  134.1432  155.7679 H   0  0  0  0  0  0  0  0  0  0  0  0  # atno 11005 bound_to 11000
  145.9881  140.8626  143.0080 LP  0  0  0  0  0  0  0  0  0  0  0  0  # atno 17320 bound_to 7965
  144.6769  140.2176  143.7370 LP  0  0  0  0  0  0  0  0  0  0  0  0  # atno 17321 bound_to 7965
  139.9114  143.6716  152.3114 LP  0  0  0  0  0  0  0  0  0  0  0  0  # atno 17342 bound_to 10162
  139.7100  144.7622  151.1128 LP  0  0  0  0  0  0  0  0  0  0  0  0  # atno 17343 bound_to 10162
  157.0067  130.5621  149.5316 LP  0  0  0  0  0  0  0  0  0  0  0  0  # atno 17370 bound_to 10713
  156.0240  130.5334  150.8355 LP  0  0  0  0  0  0  0  0  0  0  0  0  # atno 17371 bound_to 10713
  141.1750  133.8532  157.1450 LP  0  0  0  0  0  0  0  0  0  0  0  0  # atno 17394 bound_to 11000
  140.0142  134.9975  157.0459 LP  0  0  0  0  0  0  0  0  0  0  0  0  # atno 17395 bound_to 11000

$$$$
