AV-unprocessed.smi:13|AV-procd|sdf|72|dock6
  -GOLD-   2262015193D 1   1.00000     0.00000
 Structure written by MMmdl.
 54 58  0  0  0  0  0  0  0  0  1 V2000
  152.7451  137.5621  160.0680 C   0  0  0  0  0  0  0  0  0  0  0  0
  153.2609  138.5167  158.9917 C   0  0  0  0  0  0  0  0  0  0  0  0
  154.7924  138.5155  159.0979 C   0  0  0  0  0  0  0  0  0  0  0  0
  152.6956  138.2987  157.5777 C   0  0  0  0  0  0  0  0  0  0  0  0
  152.6451  139.7455  157.4598 N   0  0  0  0  0  0  0  0  0  0  0  0
  151.5561  140.2278  156.6843 C   0  0  0  0  0  0  0  0  0  0  0  0
  151.1709  141.5320  156.7284 N   0  0  0  0  0  0  0  0  0  0  0  0
  150.1521  141.9715  155.9841 C   0  0  0  0  0  0  0  0  0  0  0  0
  149.3820  141.2862  155.1380 N   0  0  0  0  0  0  0  0  0  0  0  0
  149.7511  139.9748  155.0931 C   0  0  0  0  0  0  0  0  0  0  0  0
  150.8141  139.3742  155.8246 C   0  0  0  0  0  0  0  0  0  0  0  0
  150.8983  138.0232  155.5152 N   0  0  0  0  0  0  0  0  0  0  0  0
  149.9415  137.8360  154.6476 C   0  0  0  0  0  0  0  0  0  0  0  0
  149.1916  138.9516  154.3466 N   0  0  0  0  0  0  0  0  0  0  0  0
  148.0791  139.0351  153.4112 C   0  0  0  0  0  0  0  0  0  0  0  0
  146.7410  138.4468  153.9289 C   0  0  2  0  0  0  0  0  0  0  0  0
  145.7729  138.6987  152.9264 O   0  0  0  0  0  0  0  0  0  0  0  0
  146.2270  139.0379  155.2425 C   0  0  0  0  0  0  0  0  0  0  0  0
  145.4628  137.8773  155.8643 C   0  0  0  0  0  0  0  0  0  0  0  0
  146.2862  136.7690  155.5480 O   0  0  0  0  0  0  0  0  0  0  0  0
  146.7499  136.9284  154.2120 C   0  0  0  0  0  0  0  0  0  0  0  0
  152.5474  139.8838  158.9088 C   0  0  2  0  0  0  0  0  0  0  0  0
  153.1935  141.1817  159.3946 C   0  0  2  0  0  0  0  0  0  0  0  0
  153.2902  141.2960  160.9177 C   0  0  0  0  0  0  0  0  0  0  0  0
  153.1565  142.7884  161.1894 C   0  0  0  0  0  0  0  0  0  0  0  0
  152.8278  143.3914  159.8230 C   0  0  0  0  0  0  0  0  0  0  0  0
  152.3749  142.2897  159.0535 O   0  0  0  0  0  0  0  0  0  0  0  0
  153.1413  136.5552  159.9340 H   0  0  0  0  0  0  0  0  0  0  0  0
  151.6575  137.4859  160.0461 H   0  0  0  0  0  0  0  0  0  0  0  0
  153.0243  137.8983  161.0670 H   0  0  0  0  0  0  0  0  0  0  0  0
  155.2486  139.2053  158.3872 H   0  0  0  0  0  0  0  0  0  0  0  0
  155.2034  137.5272  158.8904 H   0  0  0  0  0  0  0  0  0  0  0  0
  155.1292  138.8062  160.0930 H   0  0  0  0  0  0  0  0  0  0  0  0
  153.3848  137.8243  156.8786 H   0  0  0  0  0  0  0  0  0  0  0  0
  151.7091  137.8304  157.5677 H   0  0  0  0  0  0  0  0  0  0  0  0
  149.9226  143.0223  156.0802 H   0  0  0  0  0  0  0  0  0  0  0  0
  149.7615  136.8704  154.1983 H   0  0  0  0  0  0  0  0  0  0  0  0
  147.9435  140.0850  153.1470 H   0  0  0  0  0  0  0  0  0  0  0  0
  148.3759  138.5300  152.4910 H   0  0  0  0  0  0  0  0  0  0  0  0
  145.5426  139.6147  152.9560 H   0  0  0  0  0  0  0  0  0  0  0  0
  147.0461  139.2927  155.9124 H   0  0  0  0  0  0  0  0  0  0  0  0
  145.6182  139.9340  155.1145 H   0  0  0  0  0  0  0  0  0  0  0  0
  145.3289  137.9867  156.9408 H   0  0  0  0  0  0  0  0  0  0  0  0
  144.4820  137.7560  155.4016 H   0  0  0  0  0  0  0  0  0  0  0  0
  146.0855  136.3846  153.5381 H   0  0  0  0  0  0  0  0  0  0  0  0
  147.7347  136.4759  154.1151 H   0  0  0  0  0  0  0  0  0  0  0  0
  151.5238  139.7741  159.2716 H   0  0  0  0  0  0  0  0  0  0  0  0
  154.1818  141.3263  158.9534 H   0  0  0  0  0  0  0  0  0  0  0  0
  152.4664  140.7626  161.3942 H   0  0  0  0  0  0  0  0  0  0  0  0
  154.2220  140.8833  161.3043 H   0  0  0  0  0  0  0  0  0  0  0  0
  152.3499  142.9709  161.9005 H   0  0  0  0  0  0  0  0  0  0  0  0
  154.0710  143.2167  161.6008 H   0  0  0  0  0  0  0  0  0  0  0  0
  152.0744  144.1776  159.8784 H   0  0  0  0  0  0  0  0  0  0  0  0
  153.7234  143.8084  159.3598 H   0  0  0  0  0  0  0  0  0  0  0  0
  1  2  1  0  0  0  0
  1 28  1  0  0  0  0
  1 29  1  0  0  0  0
  1 30  1  0  0  0  0
  2 22  1  0  0  0  0
  2  3  1  0  0  0  0
  2  4  1  0  0  0  0
  3 31  1  0  0  0  0
  3 32  1  0  0  0  0
  3 33  1  0  0  0  0
  4  5  1  0  0  0  0
  4 34  1  0  0  0  0
  4 35  1  0  0  0  0
  5  6  1  0  0  0  0
  5 22  1  0  0  0  0
  6 11  1  0  0  0  0
  6  7  2  0  0  0  0
  7  8  1  0  0  0  0
  8  9  2  0  0  0  0
  8 36  1  0  0  0  0
  9 10  1  0  0  0  0
 10 14  1  0  0  0  0
 10 11  2  0  0  0  0
 11 12  1  0  0  0  0
 12 13  2  0  0  0  0
 13 14  1  0  0  0  0
 13 37  1  0  0  0  0
 14 15  1  0  0  0  0
 15 16  1  0  0  0  0
 15 38  1  0  0  0  0
 15 39  1  0  0  0  0
 16 21  1  0  0  0  0
 16 17  1  0  0  0  0
 16 18  1  0  0  0  0
 17 40  1  0  0  0  0
 18 19  1  0  0  0  0
 18 41  1  0  0  0  0
 18 42  1  0  0  0  0
 19 20  1  0  0  0  0
 19 43  1  0  0  0  0
 19 44  1  0  0  0  0
 20 21  1  0  0  0  0
 21 45  1  0  0  0  0
 21 46  1  0  0  0  0
 22 23  1  0  0  0  0
 22 47  1  0  0  0  0
 23 27  1  0  0  0  0
 23 24  1  0  0  0  0
 23 48  1  0  0  0  0
 24 25  1  0  0  0  0
 24 49  1  0  0  0  0
 24 50  1  0  0  0  0
 25 26  1  0  0  0  0
 25 51  1  0  0  0  0
 25 52  1  0  0  0  0
 26 27  1  0  0  0  0
 26 53  1  0  0  0  0
 26 54  1  0  0  0  0
M  END
> <s_m_source_file>
AV-unprocessed.smi

> <i_m_source_file_index>
13

> <i_lp_mmshare_version>
43012

> <i_f3d_flags>
0

> <s_epik_input>
TzFbQ0gyXVtDSDJdW0NIMl1bQ0BIXTFbQ0BASF0yTihbQ0gyXUMyKFtDSDNdKVtDSDNdKWMobltjSF1uMyljKGMzNCluW2NIXW40W0NIMl1bQ0BAXTUoW09IXSlbQ0gyXVtDSDJdT1tDSDJdNQ==

> <s_epik_cmdline>
J2VwaWtfcHl0aG9uJywgJy1waCcsICc3LjAnLCAnLXRuJywgJzgnLCAnLW1hJywgJzIwMCcsICctbWV0YWxfYmluZGluZycsICctaW1hZScsICc8aW5maWxlLm1hZT4nLCAnLW9tYWUnLCAnPG91dGZpbGUubWFlPic=

> <r_lp_tautomer_probability>
1

> <r_epik_Ionization_Penalty>
0.00202764

> <r_epik_Ionization_Penalty_Charging>
0

> <r_epik_Ionization_Penalty_Neutral>
0.00202764

> <r_epik_State_Penalty>
0.00134017

> <r_epik_Charging_Adjusted_Penalty>
0.00134017

> <i_epik_Tot_Q>
0

> <i_epik_Tot_abs_Q>
0

> <r_epik_Metal_State_Penalty>
-0

> <b_epik_Metal_Only>
0

> <s_lp_Force_Field>
OPLS_2005

> <r_lp_Energy>
64.4217

> <b_lp_Chiralities_Consistent>
1

> <s_lp_Variant>
AV-unprocessed.smi:13-4

> <Gold.Version>
5.8.1

> <Gold.Id.Protein>
6NUR|6NUR_protein|mol2

> <Gold.PLP.Fitness>
44.3068

> <Gold.PLP.PLP>
-34.6050

> <Gold.PLP.part.hbond>
-2.0000

> <Gold.PLP.part.metal>
0.0000

> <Gold.PLP.part.buried>
-3.0737

> <Gold.PLP.part.nonpolar>
-31.1066

> <Gold.PLP.part.repulsive>
0.2365

> <Gold.PLP.ligand.clash>
0.0164

> <Gold.PLP.ligand.torsion>
0.5201

> <Gold.PLP.Chemscore.Hbond>
1.4376

> <Gold.PLP.Chemscore.CHOScore>
1.9954

> <Gold.PLP.Chemscore.Metal>
0.0000

> <Gold.Chemscore.Hbonds>
donor molecule, donor type, donor heavy atom, donor atom, acceptor molecule, acceptor atom, score
      L1  H    17    40       P1 10175  0.44
      P1  H  7997  8010       L1     5  1.00
      L1  C     8    36       P1  8028  1.00
      L1  C    13    37       P1  7948  1.00

> <Gold.PLP.Chemscore.Internal.Correction>
0.4595

> <Gold.Rescore>
     Score         DG    S(hbond)    S(metal)    S(lipo)     H(rot)  DE(clash)    DE(int)     intcor
      9.50     -13.07       1.02        0.00      86.00       2.30       0.19       3.39       ----

> <Gold.Chemscore.Fitness>
9.4966

> <Gold.Chemscore.DG>
-13.0724

> <Gold.Chemscore.ZeroCoef>
-5.4800

> <Gold.Chemscore.Hbond>
1.0231

> <Gold.Chemscore.Metal>
0.0000

> <Gold.Chemscore.Lipo>
86.0022

> <Gold.Chemscore.Internal_Hbond>
0.0000

> <Gold.Chemscore.DEClash>
0.1889

> <Gold.Chemscore.DEInternal>
3.3869

> <Gold.Chemscore.Rot>
2.2996

> <Gold.Chemscore.Internal.Correction>
   9.000000E+99

> <Gold.Chemscore.Hbonds>
donor molecule, donor type, donor heavy atom, donor atom, acceptor molecule, acceptor atom, score
      L1  H    17    40       P1 10175  0.43
      P1  H  7997  8010       L1     5  0.20

> <Gold.Chemscore.Hbond.Weighted>
-3.4171

> <Gold.Chemscore.Metal.Weighted>
-0.0000

> <Gold.Chemscore.Lipo.Weighted>
-10.0623

> <Gold.Chemscore.Internal_Hbond.Weighted>
0.0000

> <Gold.Chemscore.DEClash.Weighted>
0.1889

> <Gold.Chemscore.DEInternal.Weighted>
3.3869

> <Gold.Chemscore.Rot.Weighted>
5.8869

> <Gold.Chemscore.Internal.Correction.Weighted>
   9.000000E+99

> <Gold.Protein.RotatedTorsions>
[ 6907 6896 6895 6894 ] final  171.54 input  -60.11 | X-H torsion
[ 7974 7965 7964 7962 ] final  -35.44 input  175.53 | X-H torsion
[ 8008 7997 7996 7995 ] final   59.84 input   59.86 | X-H torsion
[ 10167 10162 10161 10158 ] final    4.77 input  -65.29 | X-H torsion
[ 10718 10713 10712 10709 ] final   -1.14 input   66.30 | X-H torsion
[ 10763 10752 10751 10750 ] final  -55.58 input  -60.55 | X-H torsion
[ 11005 11000 10999 10996 ] final  156.61 input  -57.11 | X-H torsion

> <Gold.Protein.ActiveResidues>
 VAL166  LYS551  ARG553  GLY616  TRP617  ASP618  TYR619  PRO620  LYS621  CYS622 
 ASP623  PHE694  ASN695  SER759  ASP760  ASP761  ALA762  ILE779  LEU786  VAL792 
 PHE793  MET794  SER795  GLU796  ALA797  LYS798  CYS799  TRP800  GLU811  SER814 

> <Gold.Protein.RotatedAtoms>
  151.7986  133.3367  159.3519 H   0  0  0  0  0  0  0  0  0  0  0  0  # atno 6907 bound_to 6896
  150.7366  134.5775  159.5931 H   0  0  0  0  0  0  0  0  0  0  0  0  # atno 6908 bound_to 6896
  152.3159  134.7441  160.0376 H   0  0  0  0  0  0  0  0  0  0  0  0  # atno 6909 bound_to 6896
  146.0746  140.6160  142.8936 H   0  0  0  0  0  0  0  0  0  0  0  0  # atno 7974 bound_to 7965
  155.5726  140.3490  155.4519 H   0  0  0  0  0  0  0  0  0  0  0  0  # atno 8008 bound_to 7997
  156.0433  140.1301  157.0157 H   0  0  0  0  0  0  0  0  0  0  0  0  # atno 8009 bound_to 7997
  154.4401  140.1019  156.6254 H   0  0  0  0  0  0  0  0  0  0  0  0  # atno 8010 bound_to 7997
  140.6517  143.7528  150.7586 H   0  0  0  0  0  0  0  0  0  0  0  0  # atno 10167 bound_to 10162
  156.8100  130.5421  149.5710 H   0  0  0  0  0  0  0  0  0  0  0  0  # atno 10718 bound_to 10713
  154.1931  135.6424  153.5065 H   0  0  0  0  0  0  0  0  0  0  0  0  # atno 10763 bound_to 10752
  153.0030  135.5433  154.6394 H   0  0  0  0  0  0  0  0  0  0  0  0  # atno 10764 bound_to 10752
  154.5788  135.2923  155.0726 H   0  0  0  0  0  0  0  0  0  0  0  0  # atno 10765 bound_to 10752
  140.1691  134.8555  157.2669 H   0  0  0  0  0  0  0  0  0  0  0  0  # atno 11005 bound_to 11000
  144.7253  140.4505  143.6977 LP  0  0  0  0  0  0  0  0  0  0  0  0  # atno 17320 bound_to 7965
  145.6330  139.1539  143.2958 LP  0  0  0  0  0  0  0  0  0  0  0  0  # atno 17321 bound_to 7965
  140.1180  143.4638  152.2330 LP  0  0  0  0  0  0  0  0  0  0  0  0  # atno 17342 bound_to 10162
  139.5733  144.7474  151.3831 LP  0  0  0  0  0  0  0  0  0  0  0  0  # atno 17343 bound_to 10162
  156.1050  130.5998  150.9956 LP  0  0  0  0  0  0  0  0  0  0  0  0  # atno 17370 bound_to 10713
  157.6511  131.0897  150.8049 LP  0  0  0  0  0  0  0  0  0  0  0  0  # atno 17371 bound_to 10713
  140.2398  134.3809  155.7485 LP  0  0  0  0  0  0  0  0  0  0  0  0  # atno 17394 bound_to 11000
  141.2216  133.7259  156.8771 LP  0  0  0  0  0  0  0  0  0  0  0  0  # atno 17395 bound_to 11000

$$$$
