AV-unprocessed.smi:1662|AV-procd|sdf|6658|dock3
  -GOLD-   22720 7363D 1   1.00000     0.00000
 Structure written by MMmdl.
 47 48  0  0  0  0  0  0  0  0  1 V2000
  144.8899  143.9361  154.0349 C   0  0  0  0  0  0  0  0  0  0  0  0
  145.6961  143.0591  154.9546 C   0  0  0  0  0  0  0  0  0  0  0  0
  146.7891  142.5647  154.4735 N   0  0  0  0  0  0  0  0  0  0  0  0
  147.6015  141.7430  155.2306 N   0  0  0  0  0  0  0  0  0  0  0  0
  148.7936  141.2571  154.5203 C   0  0  0  0  0  0  0  0  0  0  0  0
  150.0791  141.3725  155.3517 C   0  0  0  0  0  0  0  0  0  0  0  0
  150.9542  140.5086  155.2793 O   0  0  0  0  0  0  0  0  0  0  0  0
  150.1802  142.4593  156.1316 N   0  0  0  0  0  0  0  0  0  0  0  0
  151.2952  142.7570  157.0277 C   0  0  1  0  0  0  0  0  0  0  0  0
  150.9435  143.9683  157.9129 C   0  0  0  0  0  0  0  0  0  0  0  0
  152.1071  144.3315  158.8474 C   0  0  0  0  0  0  0  0  0  0  0  0
  152.5493  143.1269  159.6929 C   0  0  0  0  0  0  0  0  0  0  0  0
  152.8940  141.9121  158.8078 C   0  0  1  0  0  0  0  0  0  0  0  0
  153.4342  140.7358  159.6383 C   0  0  0  0  0  0  0  0  0  0  0  0
  151.7112  141.5255  157.8799 C   0  0  1  0  0  0  0  0  0  0  0  0
  150.5247  140.8732  158.6282 C   0  0  0  0  0  0  0  0  0  0  0  0
  147.3547  141.3848  156.5240 C   0  0  0  0  0  0  0  0  0  0  0  0
  148.1125  140.6549  157.1652 O   0  0  0  0  0  0  0  0  0  0  0  0
  146.1146  141.9481  157.0623 C   0  0  0  0  0  0  0  0  0  0  0  0
  145.8138  141.5911  158.4110 C   0  0  0  0  0  0  0  0  0  0  0  0
  145.5656  141.3214  159.5092 N   0  0  0  0  0  0  0  0  0  0  0  0
  145.3070  142.7537  156.3278 C   0  0  0  0  0  0  0  0  0  0  0  0
  144.0098  143.3637  156.8410 C   0  0  0  0  0  0  0  0  0  0  0  0
  144.8723  144.9633  154.3988 H   0  0  0  0  0  0  0  0  0  0  0  0
  143.8610  143.5837  153.9645 H   0  0  0  0  0  0  0  0  0  0  0  0
  145.2998  143.9506  153.0241 H   0  0  0  0  0  0  0  0  0  0  0  0
  148.6686  140.2103  154.2376 H   0  0  0  0  0  0  0  0  0  0  0  0
  148.9105  141.8018  153.5812 H   0  0  0  0  0  0  0  0  0  0  0  0
  149.4167  143.1200  156.1232 H   0  0  0  0  0  0  0  0  0  0  0  0
  152.1483  143.0476  156.4110 H   0  0  0  0  0  0  0  0  0  0  0  0
  150.7004  144.8281  157.2874 H   0  0  0  0  0  0  0  0  0  0  0  0
  150.0510  143.7593  158.5037 H   0  0  0  0  0  0  0  0  0  0  0  0
  152.9502  144.6878  158.2543 H   0  0  0  0  0  0  0  0  0  0  0  0
  151.8180  145.1571  159.4982 H   0  0  0  0  0  0  0  0  0  0  0  0
  153.4164  143.4075  160.2920 H   0  0  0  0  0  0  0  0  0  0  0  0
  151.7629  142.8659  160.4017 H   0  0  0  0  0  0  0  0  0  0  0  0
  153.7135  142.2193  158.1562 H   0  0  0  0  0  0  0  0  0  0  0  0
  152.7237  140.4166  160.4010 H   0  0  0  0  0  0  0  0  0  0  0  0
  154.3554  141.0139  160.1507 H   0  0  0  0  0  0  0  0  0  0  0  0
  153.6581  139.8767  159.0051 H   0  0  0  0  0  0  0  0  0  0  0  0
  152.0863  140.7683  157.1898 H   0  0  0  0  0  0  0  0  0  0  0  0
  150.0874  141.5429  159.3678 H   0  0  0  0  0  0  0  0  0  0  0  0
  150.8303  139.9648  159.1460 H   0  0  0  0  0  0  0  0  0  0  0  0
  149.7305  140.5790  157.9420 H   0  0  0  0  0  0  0  0  0  0  0  0
  143.8478  143.1591  157.8990 H   0  0  0  0  0  0  0  0  0  0  0  0
  143.1574  142.9604  156.2931 H   0  0  0  0  0  0  0  0  0  0  0  0
  144.0173  144.4472  156.7177 H   0  0  0  0  0  0  0  0  0  0  0  0
  1  2  1  0  0  0  0
  1 24  1  0  0  0  0
  1 25  1  0  0  0  0
  1 26  1  0  0  0  0
  2 22  1  0  0  0  0
  2  3  2  0  0  0  0
  3  4  1  0  0  0  0
  4  5  1  0  0  0  0
  4 17  1  0  0  0  0
  5  6  1  0  0  0  0
  5 27  1  0  0  0  0
  5 28  1  0  0  0  0
  6  7  2  0  0  0  0
  6  8  1  0  0  0  0
  8  9  1  0  0  0  0
  8 29  1  0  0  0  0
  9 15  1  0  0  0  0
  9 10  1  0  0  0  0
  9 30  1  0  0  0  0
 10 11  1  0  0  0  0
 10 31  1  0  0  0  0
 10 32  1  0  0  0  0
 11 12  1  0  0  0  0
 11 33  1  0  0  0  0
 11 34  1  0  0  0  0
 12 13  1  0  0  0  0
 12 35  1  0  0  0  0
 12 36  1  0  0  0  0
 13 14  1  0  0  0  0
 13 15  1  0  0  0  0
 13 37  1  0  0  0  0
 14 38  1  0  0  0  0
 14 39  1  0  0  0  0
 14 40  1  0  0  0  0
 15 16  1  0  0  0  0
 15 41  1  0  0  0  0
 16 42  1  0  0  0  0
 16 43  1  0  0  0  0
 16 44  1  0  0  0  0
 17 18  2  0  0  0  0
 17 19  1  0  0  0  0
 19 20  1  0  0  0  0
 19 22  2  0  0  0  0
 20 21  3  0  0  0  0
 22 23  1  0  0  0  0
 23 45  1  0  0  0  0
 23 46  1  0  0  0  0
 23 47  1  0  0  0  0
M  END
> <s_m_source_file>
AV-unprocessed.smi

> <i_m_source_file_index>
1662

> <i_lp_mmshare_version>
43012

> <i_f3d_flags>
0

> <s_epik_input>
TiNDYyhjMVtDSDNdKWMoPU8pbihuYzFbQ0gzXSlbQ0gyXUMoPU8pW05IXVtDQEBIXTJbQ0gyXVtDSDJdW0NIMl1bQ0BASF0oW0NIM10pW0NASF0yW0NIM10=

> <s_epik_cmdline>
J2VwaWtfcHl0aG9uJywgJy1waCcsICc3LjAnLCAnLXRuJywgJzgnLCAnLW1hJywgJzIwMCcsICctbWV0YWxfYmluZGluZycsICctaW1hZScsICc8aW5maWxlLm1hZT4nLCAnLW9tYWUnLCAnPG91dGZpbGUubWFlPic=

> <r_lp_tautomer_probability>
1

> <r_epik_Ionization_Penalty>
1.90709e-08

> <r_epik_Ionization_Penalty_Charging>
2.37982e-11

> <r_epik_Ionization_Penalty_Neutral>
1.90471e-08

> <r_epik_State_Penalty>
-0

> <r_epik_Charging_Adjusted_Penalty>
2.37982e-11

> <i_epik_Tot_Q>
0

> <i_epik_Tot_abs_Q>
0

> <r_epik_Metal_State_Penalty>
-0

> <b_epik_Metal_Only>
0

> <s_lp_Force_Field>
OPLS_2005

> <r_lp_Energy>
29.2459

> <b_lp_Chiralities_Consistent>
1

> <s_lp_Variant>
AV-unprocessed.smi:1662-2

> <Gold.Version>
5.8.1

> <Gold.Id.Protein>
6NUR|6NUR_protein|mol2

> <Gold.PLP.Fitness>
49.0818

> <Gold.PLP.PLP>
-41.7417

> <Gold.PLP.part.hbond>
-3.0000

> <Gold.PLP.part.metal>
0.0000

> <Gold.PLP.part.buried>
-5.0543

> <Gold.PLP.part.nonpolar>
-34.2551

> <Gold.PLP.part.repulsive>
0.5615

> <Gold.PLP.ligand.clash>
0.0000

> <Gold.PLP.ligand.torsion>
0.6192

> <Gold.PLP.Chemscore.Hbond>
2.8553

> <Gold.PLP.Chemscore.CHOScore>
0.0000

> <Gold.PLP.Chemscore.Metal>
0.0000

> <Gold.Chemscore.Hbonds>
donor molecule, donor type, donor heavy atom, donor atom, acceptor molecule, acceptor atom, score
      L1  H     8    29       P1  8028  0.93
      P1  H  6934  6946       L1    21  0.90
      P1  H  7989  7998       L1     7  0.98

> <Gold.PLP.Chemscore.Internal.Correction>
0.0127

> <Gold.Rescore>
     Score         DG    S(hbond)    S(metal)    S(lipo)     H(rot)  DE(clash)    DE(int)     intcor
     15.04     -18.64       1.68        0.00      96.25       1.45       0.60       3.00       ----

> <Gold.Chemscore.Fitness>
15.0359

> <Gold.Chemscore.DG>
-18.6363

> <Gold.Chemscore.ZeroCoef>
-5.4800

> <Gold.Chemscore.Hbond>
1.6790

> <Gold.Chemscore.Metal>
0.0000

> <Gold.Chemscore.Lipo>
96.2518

> <Gold.Chemscore.Internal_Hbond>
0.0000

> <Gold.Chemscore.DEClash>
0.6005

> <Gold.Chemscore.DEInternal>
2.9999

> <Gold.Chemscore.Rot>
1.4504

> <Gold.Chemscore.Internal.Correction>
   9.000000E+99

> <Gold.Chemscore.Hbonds>
donor molecule, donor type, donor heavy atom, donor atom, acceptor molecule, acceptor atom, score
      L1  H     8    29       P1  8028  0.90
      P1  H  6934  6946       L1    21  0.87
      P1  H  7989  7998       L1     7  0.23

> <Gold.Chemscore.Hbond.Weighted>
-5.6078

> <Gold.Chemscore.Metal.Weighted>
-0.0000

> <Gold.Chemscore.Lipo.Weighted>
-11.2615

> <Gold.Chemscore.Internal_Hbond.Weighted>
0.0000

> <Gold.Chemscore.DEClash.Weighted>
0.6005

> <Gold.Chemscore.DEInternal.Weighted>
2.9999

> <Gold.Chemscore.Rot.Weighted>
3.7129

> <Gold.Chemscore.Internal.Correction.Weighted>
   9.000000E+99

> <Gold.Protein.RotatedTorsions>
[ 6907 6896 6895 6894 ] final   80.14 input  -60.11 | X-H torsion
[ 7974 7965 7964 7962 ] final   94.35 input  175.53 | X-H torsion
[ 8008 7997 7996 7995 ] final -157.44 input   59.86 | X-H torsion
[ 10167 10162 10161 10158 ] final   69.11 input  -65.29 | X-H torsion
[ 10718 10713 10712 10709 ] final  134.56 input   66.30 | X-H torsion
[ 10763 10752 10751 10750 ] final   53.81 input  -60.55 | X-H torsion
[ 11005 11000 10999 10996 ] final  -16.60 input  -57.11 | X-H torsion

> <Gold.Protein.ActiveResidues>
 VAL166  LYS551  ARG553  GLY616  TRP617  ASP618  TYR619  PRO620  LYS621  CYS622 
 ASP623  PHE694  ASN695  SER759  ASP760  ASP761  ALA762  ILE779  LEU786  VAL792 
 PHE793  MET794  SER795  GLU796  ALA797  LYS798  CYS799  TRP800  GLU811  SER814 

> <Gold.Protein.RotatedAtoms>
  152.5224  134.3404  159.9214 H   0  0  0  0  0  0  0  0  0  0  0  0  # atno 6907 bound_to 6896
  151.3353  133.3977  159.2674 H   0  0  0  0  0  0  0  0  0  0  0  0  # atno 6908 bound_to 6896
  150.9847  134.9213  159.7922 H   0  0  0  0  0  0  0  0  0  0  0  0  # atno 6909 bound_to 6896
  145.4667  139.2284  143.2957 H   0  0  0  0  0  0  0  0  0  0  0  0  # atno 7974 bound_to 7965
  155.7325  140.0804  157.2282 H   0  0  0  0  0  0  0  0  0  0  0  0  # atno 8008 bound_to 7997
  154.4031  140.1592  156.2579 H   0  0  0  0  0  0  0  0  0  0  0  0  # atno 8009 bound_to 7997
  155.9096  140.3405  155.6091 H   0  0  0  0  0  0  0  0  0  0  0  0  # atno 8010 bound_to 7997
  140.0713  144.5150  150.7225 H   0  0  0  0  0  0  0  0  0  0  0  0  # atno 10167 bound_to 10162
  157.4660  131.1077  150.9862 H   0  0  0  0  0  0  0  0  0  0  0  0  # atno 10718 bound_to 10713
  152.9798  135.5766  154.4801 H   0  0  0  0  0  0  0  0  0  0  0  0  # atno 10763 bound_to 10752
  154.4351  135.2774  155.1888 H   0  0  0  0  0  0  0  0  0  0  0  0  # atno 10764 bound_to 10752
  154.3579  135.6195  153.5729 H   0  0  0  0  0  0  0  0  0  0  0  0  # atno 10765 bound_to 10752
  140.8084  133.8160  155.9538 H   0  0  0  0  0  0  0  0  0  0  0  0  # atno 11005 bound_to 11000
  146.2420  140.5441  142.8930 LP  0  0  0  0  0  0  0  0  0  0  0  0  # atno 17320 bound_to 7965
  144.7970  140.6141  143.6503 LP  0  0  0  0  0  0  0  0  0  0  0  0  # atno 17321 bound_to 7965
  140.7124  143.2516  151.4540 LP  0  0  0  0  0  0  0  0  0  0  0  0  # atno 17342 bound_to 10162
  139.5834  144.1658  152.1998 LP  0  0  0  0  0  0  0  0  0  0  0  0  # atno 17343 bound_to 10162
  157.0643  130.5838  149.5391 LP  0  0  0  0  0  0  0  0  0  0  0  0  # atno 17370 bound_to 10713
  156.0050  130.5136  150.7799 LP  0  0  0  0  0  0  0  0  0  0  0  0  # atno 17371 bound_to 10713
  140.9223  134.2126  157.4918 LP  0  0  0  0  0  0  0  0  0  0  0  0  # atno 17394 bound_to 11000
  139.8716  134.9798  156.5049 LP  0  0  0  0  0  0  0  0  0  0  0  0  # atno 17395 bound_to 11000

$$$$
