AV-unprocessed.smi:1875|AV-procd|sdf|7612|dock9
  -GOLD-   22720 9333D 1   1.00000     0.00000
 Structure written by MMmdl.
 48 50  0  0  0  0  0  0  0  0  2 V2000
  144.7156  134.4656  154.0780 C   0  0  0  0  0  0  0  0  0  0  0  0
  145.1389  135.3615  152.9325 C   0  0  0  0  0  0  0  0  0  0  0  0
  144.9622  134.8844  151.6966 N   0  0  0  0  0  0  0  0  0  0  0  0
  145.3320  135.6836  150.6724 C   0  0  0  0  0  0  0  0  0  0  0  0
  145.8800  136.9640  150.8917 C   0  0  0  0  0  0  0  0  0  0  0  0
  146.0135  137.3611  152.2388 C   0  0  0  0  0  0  0  0  0  0  0  0
  146.6052  138.7038  152.6116 C   0  0  0  0  0  0  0  0  0  0  0  0
  147.8520  138.5153  153.3755 N   0  3  0  0  0  0  0  0  0  0  0  0
  148.6549  139.7435  153.5375 C   0  0  0  0  0  0  0  0  0  0  0  0
  149.7727  139.5421  154.5734 C   0  0  2  0  0  0  0  0  0  0  0  0
  149.3285  138.6208  155.5513 O   0  0  0  0  0  0  0  0  0  0  0  0
  150.1756  140.8637  155.2557 C   0  0  0  0  0  0  0  0  0  0  0  0
  151.1197  140.6619  156.3403 N   0  0  0  0  0  0  0  0  0  0  0  0
  151.9931  139.6452  156.4734 C   0  0  0  0  0  0  0  0  0  0  0  0
  152.7718  139.6482  157.5508 N   0  0  0  0  0  0  0  0  0  0  0  0
  152.3562  140.8023  158.1923 C   0  0  0  0  0  0  0  0  0  0  0  0
  152.7888  141.3837  159.4040 C   0  0  0  0  0  0  0  0  0  0  0  0
  152.2134  142.5841  159.8780 C   0  0  0  0  0  0  0  0  0  0  0  0
  152.7077  143.1727  161.1877 C   0  0  0  0  0  0  0  0  0  0  0  0
  151.1884  143.2228  159.1346 C   0  0  0  0  0  0  0  0  0  0  0  0
  150.5568  144.5140  159.6241 C   0  0  0  0  0  0  0  0  0  0  0  0
  150.7442  142.6556  157.9217 C   0  0  0  0  0  0  0  0  0  0  0  0
  151.3243  141.4603  157.4608 C   0  0  0  0  0  0  0  0  0  0  0  0
  145.6457  136.5548  153.2591 N   0  0  0  0  0  0  0  0  0  0  0  0
  144.7016  133.4178  153.7751 H   0  0  0  0  0  0  0  0  0  0  0  0
  143.7156  134.7377  154.4163 H   0  0  0  0  0  0  0  0  0  0  0  0
  145.4013  134.5623  154.9205 H   0  0  0  0  0  0  0  0  0  0  0  0
  145.1929  135.2989  149.6729 H   0  0  0  0  0  0  0  0  0  0  0  0
  146.1766  137.5999  150.0706 H   0  0  0  0  0  0  0  0  0  0  0  0
  146.8072  139.2820  151.7089 H   0  0  0  0  0  0  0  0  0  0  0  0
  145.8866  139.2699  153.2065 H   0  0  0  0  0  0  0  0  0  0  0  0
  147.6111  138.1665  154.2928 H   0  0  0  0  0  0  0  0  0  0  0  0
  149.0908  139.9961  152.5700 H   0  0  0  0  0  0  0  0  0  0  0  0
  148.0099  140.5756  153.8243 H   0  0  0  0  0  0  0  0  0  0  0  0
  150.6489  139.1188  154.0795 H   0  0  0  0  0  0  0  0  0  0  0  0
  149.8797  137.8534  155.5198 H   0  0  0  0  0  0  0  0  0  0  0  0
  150.6337  141.5369  154.5298 H   0  0  0  0  0  0  0  0  0  0  0  0
  149.2974  141.3797  155.6458 H   0  0  0  0  0  0  0  0  0  0  0  0
  152.0593  138.8564  155.7382 H   0  0  0  0  0  0  0  0  0  0  0  0
  153.5700  140.8973  159.9696 H   0  0  0  0  0  0  0  0  0  0  0  0
  151.8880  143.2605  161.9010 H   0  0  0  0  0  0  0  0  0  0  0  0
  153.1341  144.1629  161.0248 H   0  0  0  0  0  0  0  0  0  0  0  0
  153.4778  142.5468  161.6397 H   0  0  0  0  0  0  0  0  0  0  0  0
  149.7984  144.8753  158.9288 H   0  0  0  0  0  0  0  0  0  0  0  0
  151.3123  145.2931  159.7287 H   0  0  0  0  0  0  0  0  0  0  0  0
  150.0786  144.3622  160.5918 H   0  0  0  0  0  0  0  0  0  0  0  0
  149.9633  143.1316  157.3479 H   0  0  0  0  0  0  0  0  0  0  0  0
  148.4134  137.8194  152.9062 H   0  0  0  0  0  0  0  0  0  0  0  0
  1  2  1  0  0  0  0
  1 25  1  0  0  0  0
  1 26  1  0  0  0  0
  1 27  1  0  0  0  0
  2 24  1  0  0  0  0
  2  3  2  0  0  0  0
  3  4  1  0  0  0  0
  4  5  2  0  0  0  0
  4 28  1  0  0  0  0
  5  6  1  0  0  0  0
  5 29  1  0  0  0  0
  6  7  1  0  0  0  0
  6 24  2  0  0  0  0
  7  8  1  0  0  0  0
  7 30  1  0  0  0  0
  7 31  1  0  0  0  0
  8  9  1  0  0  0  0
  8 32  1  0  0  0  0
  8 48  1  0  0  0  0
  9 10  1  0  0  0  0
  9 33  1  0  0  0  0
  9 34  1  0  0  0  0
 10 11  1  0  0  0  0
 10 12  1  0  0  0  0
 10 35  1  0  0  0  0
 11 36  1  0  0  0  0
 12 13  1  0  0  0  0
 12 37  1  0  0  0  0
 12 38  1  0  0  0  0
 13 23  1  0  0  0  0
 13 14  1  0  0  0  0
 14 15  2  0  0  0  0
 14 39  1  0  0  0  0
 15 16  1  0  0  0  0
 16 23  2  0  0  0  0
 16 17  1  0  0  0  0
 17 18  2  0  0  0  0
 17 40  1  0  0  0  0
 18 19  1  0  0  0  0
 18 20  1  0  0  0  0
 19 41  1  0  0  0  0
 19 42  1  0  0  0  0
 19 43  1  0  0  0  0
 20 21  1  0  0  0  0
 20 22  2  0  0  0  0
 21 44  1  0  0  0  0
 21 45  1  0  0  0  0
 21 46  1  0  0  0  0
 22 23  1  0  0  0  0
 22 47  1  0  0  0  0
M  CHG  1   8   1
M  END
> <s_m_source_file>
AV-unprocessed.smi

> <i_m_source_file_index>
1875

> <i_lp_mmshare_version>
43012

> <i_f3d_flags>
0

> <s_epik_input>
W0NIM11jMW5bY0hdW2NIXWMobjEpW0NIMl1bTkhdW0NIMl1bQ0BIXShbT0hdKVtDSDJdbihbY0hdbjIpYyhjMjMpW2NIXWMoW0NIM10pYyhbY0hdMylbQ0gzXQ==

> <s_epik_cmdline>
J2VwaWtfcHl0aG9uJywgJy1waCcsICc3LjAnLCAnLXRuJywgJzgnLCAnLW1hJywgJzIwMCcsICctbWV0YWxfYmluZGluZycsICctaW1hZScsICc8aW5maWxlLm1hZT4nLCAnLW9tYWUnLCAnPG91dGZpbGUubWFlPic=

> <r_lp_tautomer_probability>
1

> <r_epik_Ionization_Penalty>
0.192455

> <r_epik_Ionization_Penalty_Charging>
0.102343

> <r_epik_Ionization_Penalty_Neutral>
0.0901122

> <r_epik_State_Penalty>
0.175389

> <r_epik_Charging_Adjusted_Penalty>
0.277732

> <i_epik_Tot_Q>
1

> <i_epik_Tot_abs_Q>
1

> <r_epik_Metal_State_Penalty>
0.167659

> <b_epik_Metal_Only>
0

> <s_epik_Chemistry_Notes>
This compound contains an electron-poor aromatic ring that is susceptible to covalent hydrolysis at low pH, typically resulting in measured values for nitrogen ring protonation that are around two units higher than predicted values.

> <s_lp_Force_Field>
OPLS_2005

> <r_lp_Energy>
2.18652

> <b_lp_Chiralities_Consistent>
1

> <s_lp_Variant>
AV-unprocessed.smi:1875-1

> <Gold.Version>
5.8.1

> <Gold.Id.Protein>
6NUR|6NUR_protein|mol2

> <Gold.PLP.Fitness>
52.2693

> <Gold.PLP.PLP>
-41.8193

> <Gold.PLP.part.hbond>
-2.4883

> <Gold.PLP.part.metal>
0.0000

> <Gold.PLP.part.buried>
2.9650

> <Gold.PLP.part.nonpolar>
-43.6198

> <Gold.PLP.part.repulsive>
0.2985

> <Gold.PLP.ligand.clash>
0.0028

> <Gold.PLP.ligand.torsion>
0.7998

> <Gold.PLP.Chemscore.Hbond>
3.0000

> <Gold.PLP.Chemscore.CHOScore>
1.0000

> <Gold.PLP.Chemscore.Metal>
0.0000

> <Gold.Chemscore.Hbonds>
donor molecule, donor type, donor heavy atom, donor atom, acceptor molecule, acceptor atom, score
      L1  H     8    48       P1  7948  2.00
      P1  H  7997  8010       L1    15  1.00
      L1  C     4    28       P1  7921  1.00

> <Gold.PLP.Chemscore.Internal.Correction>
0.0524

> <Gold.Rescore>
     Score         DG    S(hbond)    S(metal)    S(lipo)     H(rot)  DE(clash)    DE(int)     intcor
     14.03     -18.82       1.64        0.00     128.62       2.80       3.14       1.65       ----

> <Gold.Chemscore.Fitness>
14.0257

> <Gold.Chemscore.DG>
-18.8186

> <Gold.Chemscore.ZeroCoef>
-5.4800

> <Gold.Chemscore.Hbond>
1.6376

> <Gold.Chemscore.Metal>
0.0000

> <Gold.Chemscore.Lipo>
128.6232

> <Gold.Chemscore.Internal_Hbond>
0.0000

> <Gold.Chemscore.DEClash>
3.1395

> <Gold.Chemscore.DEInternal>
1.6534

> <Gold.Chemscore.Rot>
2.8047

> <Gold.Chemscore.Internal.Correction>
   9.000000E+99

> <Gold.Chemscore.Hbonds>
donor molecule, donor type, donor heavy atom, donor atom, acceptor molecule, acceptor atom, score
      L1  H     8    48       P1  7948  0.98
      P1  H  7997  8010       L1    15  0.22

> <Gold.Chemscore.Hbond.Weighted>
-5.4697

> <Gold.Chemscore.Metal.Weighted>
-0.0000

> <Gold.Chemscore.Lipo.Weighted>
-15.0489

> <Gold.Chemscore.Internal_Hbond.Weighted>
0.0000

> <Gold.Chemscore.DEClash.Weighted>
3.1395

> <Gold.Chemscore.DEInternal.Weighted>
1.6534

> <Gold.Chemscore.Rot.Weighted>
7.1801

> <Gold.Chemscore.Internal.Correction.Weighted>
   9.000000E+99

> <Gold.Protein.RotatedTorsions>
[ 6907 6896 6895 6894 ] final    6.94 input  -60.11 | X-H torsion
[ 7974 7965 7964 7962 ] final  -45.15 input  175.53 | X-H torsion
[ 8008 7997 7996 7995 ] final   44.87 input   59.86 | X-H torsion
[ 10167 10162 10161 10158 ] final    7.79 input  -65.29 | X-H torsion
[ 10718 10713 10712 10709 ] final  -23.38 input   66.30 | X-H torsion
[ 10763 10752 10751 10750 ] final   13.51 input  -60.55 | X-H torsion
[ 11005 11000 10999 10996 ] final  147.21 input  -57.11 | X-H torsion

> <Gold.Protein.ActiveResidues>
 VAL166  LYS551  ARG553  GLY616  TRP617  ASP618  TYR619  PRO620  LYS621  CYS622 
 ASP623  PHE694  ASN695  SER759  ASP760  ASP761  ALA762  ILE779  LEU786  VAL792 
 PHE793  MET794  SER795  GLU796  ALA797  LYS798  CYS799  TRP800  GLU811  SER814 

> <Gold.Protein.RotatedAtoms>
  151.6818  135.0960  160.0217 H   0  0  0  0  0  0  0  0  0  0  0  0  # atno 6907 bound_to 6896
  152.3831  133.6569  159.6185 H   0  0  0  0  0  0  0  0  0  0  0  0  # atno 6908 bound_to 6896
  150.7763  133.8997  159.3379 H   0  0  0  0  0  0  0  0  0  0  0  0  # atno 6909 bound_to 6896
  145.9849  140.7244  142.9345 H   0  0  0  0  0  0  0  0  0  0  0  0  # atno 7974 bound_to 7965
  155.3265  140.3400  155.4240 H   0  0  0  0  0  0  0  0  0  0  0  0  # atno 8008 bound_to 7997
  156.1883  140.1688  156.8179 H   0  0  0  0  0  0  0  0  0  0  0  0  # atno 8009 bound_to 7997
  154.5412  140.0724  156.8496 H   0  0  0  0  0  0  0  0  0  0  0  0  # atno 8010 bound_to 7997
  140.6352  143.7903  150.7349 H   0  0  0  0  0  0  0  0  0  0  0  0  # atno 10167 bound_to 10162
  156.4918  130.4568  149.6751 H   0  0  0  0  0  0  0  0  0  0  0  0  # atno 10718 bound_to 10713
  153.1714  135.6813  153.8603 H   0  0  0  0  0  0  0  0  0  0  0  0  # atno 10763 bound_to 10752
  153.7965  135.3161  155.3386 H   0  0  0  0  0  0  0  0  0  0  0  0  # atno 10764 bound_to 10752
  154.8000  135.4783  154.0345 H   0  0  0  0  0  0  0  0  0  0  0  0  # atno 10765 bound_to 10752
  140.0857  134.9071  157.1571 H   0  0  0  0  0  0  0  0  0  0  0  0  # atno 11005 bound_to 11000
  144.6872  140.2971  143.7269 LP  0  0  0  0  0  0  0  0  0  0  0  0  # atno 17320 bound_to 7965
  145.7715  139.1859  143.2209 LP  0  0  0  0  0  0  0  0  0  0  0  0  # atno 17321 bound_to 7965
  140.1523  143.4347  152.2123 LP  0  0  0  0  0  0  0  0  0  0  0  0  # atno 17342 bound_to 10162
  139.5562  144.7374  151.4286 LP  0  0  0  0  0  0  0  0  0  0  0  0  # atno 17343 bound_to 10162
  156.3419  130.7386  151.2333 LP  0  0  0  0  0  0  0  0  0  0  0  0  # atno 17370 bound_to 10713
  157.7473  131.0401  150.4583 LP  0  0  0  0  0  0  0  0  0  0  0  0  # atno 17371 bound_to 10713
  140.3424  134.2689  155.7210 LP  0  0  0  0  0  0  0  0  0  0  0  0  # atno 17394 bound_to 11000
  141.2061  133.7841  157.0193 LP  0  0  0  0  0  0  0  0  0  0  0  0  # atno 17395 bound_to 11000

$$$$
