AV-unprocessed.smi:1005|AV-procd|sdf|4374|dock3
  -GOLD-   22720 2283D 1   1.00000     0.00000
 Structure written by MMmdl.
 57 59  0  0  0  0  0  0  0  0  3 V2000
  152.0052  144.7245  160.6905 C   0  0  0  0  0  0  0  0  0  0  0  0
  151.9151  143.5679  159.7093 C   0  0  0  0  0  0  0  0  0  0  0  0
  151.1382  143.7343  158.5402 C   0  0  0  0  0  0  0  0  0  0  0  0
  151.0762  142.6591  157.6617 C   0  0  0  0  0  0  0  0  0  0  0  0
  150.4108  142.5083  156.4428 N   0  3  0  0  0  0  0  0  0  0  0  0
  150.6515  141.2636  155.9444 C   0  0  0  0  0  0  0  0  0  0  0  0
  151.4602  140.6184  156.8282 N   0  0  0  0  0  0  0  0  0  0  0  0
  152.0256  139.2640  156.7791 C   0  0  0  0  0  0  0  0  0  0  0  0
  152.2251  138.7558  155.3384 C   0  0  2  0  0  0  0  0  0  0  0  0
  153.0056  139.6954  154.6256 O   0  0  0  0  0  0  0  0  0  0  0  0
  150.8785  138.5765  154.6097 C   0  0  0  0  0  0  0  0  0  0  0  0
  149.8892  137.7488  155.3032 N   0  0  0  0  0  0  0  0  0  0  0  0
  148.5141  138.1611  155.0286 C   0  0  0  0  0  0  0  0  0  0  0  0
  147.4928  137.2528  155.7323 C   0  0  0  0  0  0  0  0  0  0  0  0
  147.7184  135.8990  155.3540 O   0  0  0  0  0  0  0  0  0  0  0  0
  149.0285  135.4369  155.6733 C   0  0  1  0  0  0  0  0  0  0  0  0
  149.1193  133.9551  155.2497 C   0  0  0  0  0  0  0  0  0  0  0  0
  148.6514  133.7017  153.8622 N   0  3  0  0  0  0  0  0  0  0  0  0
  147.1777  133.6620  153.7259 C   0  0  0  0  0  0  0  0  0  0  0  0
  149.2833  132.4967  153.2798 C   0  0  0  0  0  0  0  0  0  0  0  0
  150.0395  136.3447  154.9365 C   0  0  0  0  0  0  0  0  0  0  0  0
  151.7518  141.4497  157.9139 C   0  0  0  0  0  0  0  0  0  0  0  0
  152.5218  141.2685  159.0599 C   0  0  0  0  0  0  0  0  0  0  0  0
  152.5990  142.3508  159.9651 C   0  0  0  0  0  0  0  0  0  0  0  0
  153.4331  142.1837  161.2237 C   0  0  0  0  0  0  0  0  0  0  0  0
  151.4049  145.5737  160.3625 H   0  0  0  0  0  0  0  0  0  0  0  0
  153.0366  145.0638  160.7879 H   0  0  0  0  0  0  0  0  0  0  0  0
  151.6449  144.4229  161.6743 H   0  0  0  0  0  0  0  0  0  0  0  0
  150.6163  144.6583  158.3382 H   0  0  0  0  0  0  0  0  0  0  0  0
  150.2741  140.8626  155.0145 H   0  0  0  0  0  0  0  0  0  0  0  0
  152.9681  139.2659  157.3278 H   0  0  0  0  0  0  0  0  0  0  0  0
  151.3504  138.6050  157.3272 H   0  0  0  0  0  0  0  0  0  0  0  0
  152.7707  137.8142  155.3775 H   0  0  0  0  0  0  0  0  0  0  0  0
  153.6124  139.2229  154.0758 H   0  0  0  0  0  0  0  0  0  0  0  0
  150.4441  139.5587  154.4164 H   0  0  0  0  0  0  0  0  0  0  0  0
  151.0828  138.1475  153.6273 H   0  0  0  0  0  0  0  0  0  0  0  0
  148.3463  139.1850  155.3595 H   0  0  0  0  0  0  0  0  0  0  0  0
  148.3297  138.1447  153.9533 H   0  0  0  0  0  0  0  0  0  0  0  0
  147.5681  137.3535  156.8161 H   0  0  0  0  0  0  0  0  0  0  0  0
  146.4777  137.5361  155.4539 H   0  0  0  0  0  0  0  0  0  0  0  0
  149.1603  135.5194  156.7541 H   0  0  0  0  0  0  0  0  0  0  0  0
  150.1688  133.6588  155.2899 H   0  0  0  0  0  0  0  0  0  0  0  0
  148.5997  133.3075  155.9579 H   0  0  0  0  0  0  0  0  0  0  0  0
  146.7408  132.9159  154.3909 H   0  0  0  0  0  0  0  0  0  0  0  0
  146.8912  133.4148  152.7031 H   0  0  0  0  0  0  0  0  0  0  0  0
  146.7371  134.6324  153.9512 H   0  0  0  0  0  0  0  0  0  0  0  0
  149.0015  131.6011  153.8351 H   0  0  0  0  0  0  0  0  0  0  0  0
  150.3705  132.5816  153.2960 H   0  0  0  0  0  0  0  0  0  0  0  0
  148.9815  132.3639  152.2403 H   0  0  0  0  0  0  0  0  0  0  0  0
  149.9072  136.2321  153.8591 H   0  0  0  0  0  0  0  0  0  0  0  0
  151.0566  136.0217  155.1530 H   0  0  0  0  0  0  0  0  0  0  0  0
  153.0420  140.3418  159.2529 H   0  0  0  0  0  0  0  0  0  0  0  0
  153.9270  141.2119  161.2496 H   0  0  0  0  0  0  0  0  0  0  0  0
  152.8050  142.2623  162.1112 H   0  0  0  0  0  0  0  0  0  0  0  0
  154.2066  142.9498  161.2771 H   0  0  0  0  0  0  0  0  0  0  0  0
  148.9715  134.4799  153.3034 H   0  0  0  0  0  0  0  0  0  0  0  0
  149.8368  143.2020  155.9811 H   0  0  0  0  0  0  0  0  0  0  0  0
  1  2  1  0  0  0  0
  1 26  1  0  0  0  0
  1 27  1  0  0  0  0
  1 28  1  0  0  0  0
  2 24  1  0  0  0  0
  2  3  2  0  0  0  0
  3  4  1  0  0  0  0
  3 29  1  0  0  0  0
  4 22  2  0  0  0  0
  4  5  1  0  0  0  0
  5  6  2  0  0  0  0
  5 57  1  0  0  0  0
  6  7  1  0  0  0  0
  6 30  1  0  0  0  0
  7  8  1  0  0  0  0
  7 22  1  0  0  0  0
  8  9  1  0  0  0  0
  8 31  1  0  0  0  0
  8 32  1  0  0  0  0
  9 10  1  0  0  0  0
  9 11  1  0  0  0  0
  9 33  1  0  0  0  0
 10 34  1  0  0  0  0
 11 12  1  0  0  0  0
 11 35  1  0  0  0  0
 11 36  1  0  0  0  0
 12 21  1  0  0  0  0
 12 13  1  0  0  0  0
 13 14  1  0  0  0  0
 13 37  1  0  0  0  0
 13 38  1  0  0  0  0
 14 15  1  0  0  0  0
 14 39  1  0  0  0  0
 14 40  1  0  0  0  0
 15 16  1  0  0  0  0
 16 17  1  0  0  0  0
 16 21  1  0  0  0  0
 16 41  1  0  0  0  0
 17 18  1  0  0  0  0
 17 42  1  0  0  0  0
 17 43  1  0  0  0  0
 18 19  1  0  0  0  0
 18 20  1  0  0  0  0
 18 56  1  0  0  0  0
 19 44  1  0  0  0  0
 19 45  1  0  0  0  0
 19 46  1  0  0  0  0
 20 47  1  0  0  0  0
 20 48  1  0  0  0  0
 20 49  1  0  0  0  0
 21 50  1  0  0  0  0
 21 51  1  0  0  0  0
 22 23  1  0  0  0  0
 23 24  2  0  0  0  0
 23 52  1  0  0  0  0
 24 25  1  0  0  0  0
 25 53  1  0  0  0  0
 25 54  1  0  0  0  0
 25 55  1  0  0  0  0
M  CHG  1   5   1
M  CHG  1  18   1
M  END
> <s_m_source_file>
AV-unprocessed.smi

> <i_m_source_file_index>
1005

> <i_lp_mmshare_version>
43012

> <i_f3d_flags>
0

> <s_epik_input>
W0NIM11jKFtjSF0xKWMoW0NIM10pW2NIXWMoYzEyKW4oW2NIXW4yKVtDSDJdW0NASF0oW09IXSlbQ0gyXU4zW0NIMl1bQ0gyXU9bQ0BIXShbQ0gyXTMpW0NIMl1OKFtDSDNdKVtDSDNd

> <s_epik_cmdline>
J2VwaWtfcHl0aG9uJywgJy1waCcsICc3LjAnLCAnLXRuJywgJzgnLCAnLW1hJywgJzIwMCcsICctbWV0YWxfYmluZGluZycsICctaW1hZScsICc8aW5maWxlLm1hZT4nLCAnLW9tYWUnLCAnPG91dGZpbGUubWFlPic=

> <r_epik_Ionization_Penalty>
1.3281

> <r_epik_Ionization_Penalty_Charging>
1.21988

> <r_epik_Ionization_Penalty_Neutral>
0.10822

> <r_epik_State_Penalty>
1.32886

> <r_epik_Charging_Adjusted_Penalty>
2.54875

> <i_epik_Tot_Q>
2

> <i_epik_Tot_abs_Q>
2

> <r_epik_Metal_State_Penalty>
5.33912

> <b_epik_Metal_Only>
0

> <s_lp_Force_Field>
OPLS_2005

> <r_lp_Energy>
44.7977

> <b_lp_Chiralities_Consistent>
1

> <s_lp_Variant>
AV-unprocessed.smi:1005-13

> <Gold.Version>
5.8.1

> <Gold.Id.Protein>
6NUR|6NUR_protein|mol2

> <Gold.PLP.Fitness>
61.9128

> <Gold.PLP.PLP>
-48.6722

> <Gold.PLP.part.hbond>
-4.0000

> <Gold.PLP.part.metal>
0.0000

> <Gold.PLP.part.buried>
-6.4139

> <Gold.PLP.part.nonpolar>
-38.7360

> <Gold.PLP.part.repulsive>
0.2678

> <Gold.PLP.ligand.clash>
0.0000

> <Gold.PLP.ligand.torsion>
1.0683

> <Gold.PLP.Chemscore.Hbond>
5.0570

> <Gold.PLP.Chemscore.CHOScore>
0.0000

> <Gold.PLP.Chemscore.Metal>
0.0000

> <Gold.Chemscore.Hbonds>
donor molecule, donor type, donor heavy atom, donor atom, acceptor molecule, acceptor atom, score
      L1  H     5    57       P1  8028  2.00
      L1  H    18    56       P1  7948  0.73
      P1  H  7989  7998       L1    10  0.30
      P1  H  7997  8010       L1    10  0.59

> <Gold.PLP.Chemscore.Internal.Correction>
0.2064

> <Gold.Rescore>
     Score         DG    S(hbond)    S(metal)    S(lipo)     H(rot)  DE(clash)    DE(int)     intcor
     16.45     -20.67       2.20        0.00     121.53       2.49       0.72       3.49       ----

> <Gold.Chemscore.Fitness>
16.4518

> <Gold.Chemscore.DG>
-20.6685

> <Gold.Chemscore.ZeroCoef>
-5.4800

> <Gold.Chemscore.Hbond>
2.1985

> <Gold.Chemscore.Metal>
0.0000

> <Gold.Chemscore.Lipo>
121.5304

> <Gold.Chemscore.Internal_Hbond>
0.0000

> <Gold.Chemscore.DEClash>
0.7234

> <Gold.Chemscore.DEInternal>
3.4933

> <Gold.Chemscore.Rot>
2.4897

> <Gold.Chemscore.Internal.Correction>
   9.000000E+99

> <Gold.Chemscore.Hbonds>
donor molecule, donor type, donor heavy atom, donor atom, acceptor molecule, acceptor atom, score
      L1  H     5    57       P1  8028  1.00
      L1  H    18    56       P1  7948  0.04
      P1  H  7989  7998       L1    10  0.15
      P1  H  7997  8010       L1    10  0.02

> <Gold.Chemscore.Hbond.Weighted>
-7.3431

> <Gold.Chemscore.Metal.Weighted>
-0.0000

> <Gold.Chemscore.Lipo.Weighted>
-14.2191

> <Gold.Chemscore.Internal_Hbond.Weighted>
0.0000

> <Gold.Chemscore.DEClash.Weighted>
0.7234

> <Gold.Chemscore.DEInternal.Weighted>
3.4933

> <Gold.Chemscore.Rot.Weighted>
6.3737

> <Gold.Chemscore.Internal.Correction.Weighted>
   9.000000E+99

> <Gold.Protein.RotatedTorsions>
[ 6907 6896 6895 6894 ] final  173.17 input  -60.11 | X-H torsion
[ 7974 7965 7964 7962 ] final   90.64 input  175.53 | X-H torsion
[ 8008 7997 7996 7995 ] final   87.15 input   59.86 | X-H torsion
[ 10167 10162 10161 10158 ] final  128.66 input  -65.29 | X-H torsion
[ 10718 10713 10712 10709 ] final -100.78 input   66.30 | X-H torsion
[ 10763 10752 10751 10750 ] final -111.20 input  -60.55 | X-H torsion
[ 11005 11000 10999 10996 ] final -129.93 input  -57.11 | X-H torsion

> <Gold.Protein.ActiveResidues>
 VAL166  LYS551  ARG553  GLY616  TRP617  ASP618  TYR619  PRO620  LYS621  CYS622 
 ASP623  PHE694  ASN695  SER759  ASP760  ASP761  ALA762  ILE779  LEU786  VAL792 
 PHE793  MET794  SER795  GLU796  ALA797  LYS798  CYS799  TRP800  GLU811  SER814 

> <Gold.Protein.RotatedAtoms>
  151.7726  133.3342  159.3448 H   0  0  0  0  0  0  0  0  0  0  0  0  # atno 6907 bound_to 6896
  150.7456  134.6005  159.6043 H   0  0  0  0  0  0  0  0  0  0  0  0  # atno 6908 bound_to 6896
  152.3331  134.7235  160.0335 H   0  0  0  0  0  0  0  0  0  0  0  0  # atno 6909 bound_to 6896
  145.5163  139.2278  143.2696 H   0  0  0  0  0  0  0  0  0  0  0  0  # atno 7974 bound_to 7965
  155.9717  140.3385  155.6582 H   0  0  0  0  0  0  0  0  0  0  0  0  # atno 8008 bound_to 7997
  155.6665  140.0722  157.2553 H   0  0  0  0  0  0  0  0  0  0  0  0  # atno 8009 bound_to 7997
  154.4168  140.1699  156.1821 H   0  0  0  0  0  0  0  0  0  0  0  0  # atno 8010 bound_to 7997
  139.5516  144.6817  151.4307 H   0  0  0  0  0  0  0  0  0  0  0  0  # atno 10167 bound_to 10162
  156.0174  130.5343  150.6867 H   0  0  0  0  0  0  0  0  0  0  0  0  # atno 10718 bound_to 10713
  154.8288  135.4536  154.1003 H   0  0  0  0  0  0  0  0  0  0  0  0  # atno 10763 bound_to 10752
  153.2294  135.6903  153.7914 H   0  0  0  0  0  0  0  0  0  0  0  0  # atno 10764 bound_to 10752
  153.7302  135.3328  155.3260 H   0  0  0  0  0  0  0  0  0  0  0  0  # atno 10765 bound_to 10752
  140.9389  134.1219  157.4168 H   0  0  0  0  0  0  0  0  0  0  0  0  # atno 11005 bound_to 11000
  146.2134  140.5973  142.9049 LP  0  0  0  0  0  0  0  0  0  0  0  0  # atno 17320 bound_to 7965
  144.7700  140.5616  143.6677 LP  0  0  0  0  0  0  0  0  0  0  0  0  # atno 17321 bound_to 7965
  140.6780  143.8147  150.7083 LP  0  0  0  0  0  0  0  0  0  0  0  0  # atno 17342 bound_to 10162
  140.1591  143.4291  152.2079 LP  0  0  0  0  0  0  0  0  0  0  0  0  # atno 17343 bound_to 10162
  157.4558  131.0877  151.0798 LP  0  0  0  0  0  0  0  0  0  0  0  0  # atno 17370 bound_to 10713
  157.1301  130.6098  149.5527 LP  0  0  0  0  0  0  0  0  0  0  0  0  # atno 17371 bound_to 10713
  139.8815  135.0030  156.6161 LP  0  0  0  0  0  0  0  0  0  0  0  0  # atno 17394 bound_to 11000
  140.7761  133.8698  155.8530 LP  0  0  0  0  0  0  0  0  0  0  0  0  # atno 17395 bound_to 11000

$$$$
