AV-unprocessed.smi:842|AV-procd|sdf|3919|dock3
  -GOLD-   22720 1383D 1   1.00000     0.00000
 Structure written by MMmdl.
 43 44  0  0  0  0  0  0  0  0  2 V2000
  143.1835  137.1978  152.8818 C   0  0  0  0  0  0  0  0  0  0  0  0
  144.6852  137.1987  153.2054 C   0  0  0  0  0  0  0  0  0  0  0  0
  145.5877  137.4109  151.9731 C   0  0  2  0  0  0  0  0  0  0  0  0
  145.5673  136.1778  151.0439 C   0  0  0  0  0  0  0  0  0  0  0  0
  146.2952  135.1123  151.6175 O   0  0  0  0  0  0  0  0  0  0  0  0
  146.9547  137.6746  152.4215 N   0  0  0  0  0  0  0  0  0  0  0  0
  147.3064  138.5949  153.3306 C   0  0  0  0  0  0  0  0  0  0  0  0
  146.5015  139.3361  153.8932 O   0  0  0  0  0  0  0  0  0  0  0  0
  148.6366  138.6019  153.5253 N   0  0  0  0  0  0  0  0  0  0  0  0
  149.4013  139.4173  154.4038 C   0  0  0  0  0  0  0  0  0  0  0  0
  148.7694  140.5472  154.9669 C   0  0  0  0  0  0  0  0  0  0  0  0
  149.4884  141.3922  155.8372 C   0  0  0  0  0  0  0  0  0  0  0  0
  150.8414  141.0993  156.1271 C   0  0  0  0  0  0  0  0  0  0  0  0
  151.6433  141.8678  156.9825 N   0  0  0  0  0  0  0  0  0  0  0  0
  151.0139  143.0579  157.5286 C   0  0  0  0  0  0  0  0  0  0  0  0
  151.9134  143.4902  158.6872 C   0  0  0  0  0  0  0  0  0  0  0  0
  152.6219  142.2047  159.1297 C   0  0  0  0  0  0  0  0  0  0  0  0
  152.1826  141.1393  158.1190 C   0  0  0  0  0  0  0  0  0  0  0  0
  151.4137  140.0152  155.5608 N   0  3  0  0  0  0  0  0  0  0  0  0
  150.7611  139.1805  154.7233 C   0  0  0  0  0  0  0  0  0  0  0  0
  142.5964  136.9864  153.7757 H   0  0  0  0  0  0  0  0  0  0  0  0
  142.9425  136.4365  152.1394 H   0  0  0  0  0  0  0  0  0  0  0  0
  142.8541  138.1617  152.4937 H   0  0  0  0  0  0  0  0  0  0  0  0
  144.8932  137.9643  153.9540 H   0  0  0  0  0  0  0  0  0  0  0  0
  144.9340  136.2445  153.6714 H   0  0  0  0  0  0  0  0  0  0  0  0
  145.1926  138.2765  151.4369 H   0  0  0  0  0  0  0  0  0  0  0  0
  144.5502  135.8596  150.8114 H   0  0  0  0  0  0  0  0  0  0  0  0
  146.0492  136.4079  150.0932 H   0  0  0  0  0  0  0  0  0  0  0  0
  147.2146  135.3304  151.6004 H   0  0  0  0  0  0  0  0  0  0  0  0
  147.6823  137.1098  152.0084 H   0  0  0  0  0  0  0  0  0  0  0  0
  149.1707  137.9748  152.9416 H   0  0  0  0  0  0  0  0  0  0  0  0
  147.7359  140.7655  154.7402 H   0  0  0  0  0  0  0  0  0  0  0  0
  149.0000  142.2502  156.2753 H   0  0  0  0  0  0  0  0  0  0  0  0
  150.9289  143.8400  156.7733 H   0  0  0  0  0  0  0  0  0  0  0  0
  150.0125  142.8325  157.8965 H   0  0  0  0  0  0  0  0  0  0  0  0
  152.6505  144.2146  158.3384 H   0  0  0  0  0  0  0  0  0  0  0  0
  151.3458  143.9554  159.4935 H   0  0  0  0  0  0  0  0  0  0  0  0
  153.7033  142.3430  159.1005 H   0  0  0  0  0  0  0  0  0  0  0  0
  152.3518  141.9176  160.1464 H   0  0  0  0  0  0  0  0  0  0  0  0
  151.4193  140.4954  158.5586 H   0  0  0  0  0  0  0  0  0  0  0  0
  153.0188  140.5087  157.8154 H   0  0  0  0  0  0  0  0  0  0  0  0
  151.3612  138.3686  154.3415 H   0  0  0  0  0  0  0  0  0  0  0  0
  152.3916  139.8168  155.7743 H   0  0  0  0  0  0  0  0  0  0  0  0
  1  2  1  0  0  0  0
  1 21  1  0  0  0  0
  1 22  1  0  0  0  0
  1 23  1  0  0  0  0
  2  3  1  0  0  0  0
  2 24  1  0  0  0  0
  2 25  1  0  0  0  0
  3  4  1  0  0  0  0
  3  6  1  0  0  0  0
  3 26  1  0  0  0  0
  4  5  1  0  0  0  0
  4 27  1  0  0  0  0
  4 28  1  0  0  0  0
  5 29  1  0  0  0  0
  6  7  1  0  0  0  0
  6 30  1  0  0  0  0
  7  8  2  0  0  0  0
  7  9  1  0  0  0  0
  9 10  1  0  0  0  0
  9 31  1  0  0  0  0
 10 20  1  0  0  0  0
 10 11  2  0  0  0  0
 11 12  1  0  0  0  0
 11 32  1  0  0  0  0
 12 13  2  0  0  0  0
 12 33  1  0  0  0  0
 13 14  1  0  0  0  0
 13 19  1  0  0  0  0
 14 18  1  0  0  0  0
 14 15  1  0  0  0  0
 15 16  1  0  0  0  0
 15 34  1  0  0  0  0
 15 35  1  0  0  0  0
 16 17  1  0  0  0  0
 16 36  1  0  0  0  0
 16 37  1  0  0  0  0
 17 18  1  0  0  0  0
 17 38  1  0  0  0  0
 17 39  1  0  0  0  0
 18 40  1  0  0  0  0
 18 41  1  0  0  0  0
 19 20  2  0  0  0  0
 19 43  1  0  0  0  0
 20 42  1  0  0  0  0
M  CHG  1  19   1
M  END
> <s_m_source_file>
AV-unprocessed.smi

> <i_m_source_file_index>
842

> <i_lp_mmshare_version>
43012

> <i_f3d_flags>
0

> <s_epik_input>
W0NIM11bQ0gyXVtDQEhdKFtDSDJdW09IXSlbTkhdQyg9TylbTkhdYzFbY0hdW2NIXWMobltjSF0xKU4yW0NIMl1bQ0gyXVtDSDJdW0NIMl0y

> <s_epik_cmdline>
J2VwaWtfcHl0aG9uJywgJy1waCcsICc3LjAnLCAnLXRuJywgJzgnLCAnLW1hJywgJzIwMCcsICctbWV0YWxfYmluZGluZycsICctaW1hZScsICc8aW5maWxlLm1hZT4nLCAnLW9tYWUnLCAnPG91dGZpbGUubWFlPic=

> <r_lp_tautomer_probability>
0.999994

> <r_epik_Ionization_Penalty>
1.10848

> <r_epik_Ionization_Penalty_Charging>
1.10846

> <r_epik_Ionization_Penalty_Neutral>
2.01032e-05

> <r_epik_State_Penalty>
1.16624

> <r_epik_Charging_Adjusted_Penalty>
2.2747

> <i_epik_Tot_Q>
1

> <i_epik_Tot_abs_Q>
1

> <r_epik_Metal_State_Penalty>
1.25257

> <b_epik_Metal_Only>
0

> <s_lp_Force_Field>
OPLS_2005

> <r_lp_Energy>
41.2931

> <b_lp_Chiralities_Consistent>
1

> <s_lp_Variant>
AV-unprocessed.smi:842-3

> <Gold.Version>
5.8.1

> <Gold.Id.Protein>
6NUR|6NUR_protein|mol2

> <Gold.PLP.Fitness>
42.5496

> <Gold.PLP.PLP>
-34.4502

> <Gold.PLP.part.hbond>
-3.9422

> <Gold.PLP.part.metal>
0.0000

> <Gold.PLP.part.buried>
-0.7173

> <Gold.PLP.part.nonpolar>
-31.5721

> <Gold.PLP.part.repulsive>
0.4630

> <Gold.PLP.ligand.clash>
0.0000

> <Gold.PLP.ligand.torsion>
0.2445

> <Gold.PLP.Chemscore.Hbond>
2.8480

> <Gold.PLP.Chemscore.CHOScore>
0.0000

> <Gold.PLP.Chemscore.Metal>
0.0000

> <Gold.Chemscore.Hbonds>
donor molecule, donor type, donor heavy atom, donor atom, acceptor molecule, acceptor atom, score
      L1  H     5    29       P1  7948  1.00
      L1  H     6    30       P1  7948  1.00
      L1  H     9    31       P1  7948  0.85

> <Gold.PLP.Chemscore.Internal.Correction>
0.0444

> <Gold.Rescore>
     Score         DG    S(hbond)    S(metal)    S(lipo)     H(rot)  DE(clash)    DE(int)     intcor
     16.25     -18.42       2.73        0.00      82.16       2.27       0.59       1.59       ----

> <Gold.Chemscore.Fitness>
16.2453

> <Gold.Chemscore.DG>
-18.4171

> <Gold.Chemscore.ZeroCoef>
-5.4800

> <Gold.Chemscore.Hbond>
2.7341

> <Gold.Chemscore.Metal>
0.0000

> <Gold.Chemscore.Lipo>
82.1613

> <Gold.Chemscore.Internal_Hbond>
0.0000

> <Gold.Chemscore.DEClash>
0.5864

> <Gold.Chemscore.DEInternal>
1.5855

> <Gold.Chemscore.Rot>
2.2687

> <Gold.Chemscore.Internal.Correction>
   9.000000E+99

> <Gold.Chemscore.Hbonds>
donor molecule, donor type, donor heavy atom, donor atom, acceptor molecule, acceptor atom, score
      L1  H     5    29       P1  7948  0.95
      L1  H     6    30       P1  7948  0.93
      L1  H     9    31       P1  7948  0.76

> <Gold.Chemscore.Hbond.Weighted>
-9.1321

> <Gold.Chemscore.Metal.Weighted>
-0.0000

> <Gold.Chemscore.Lipo.Weighted>
-9.6129

> <Gold.Chemscore.Internal_Hbond.Weighted>
0.0000

> <Gold.Chemscore.DEClash.Weighted>
0.5864

> <Gold.Chemscore.DEInternal.Weighted>
1.5855

> <Gold.Chemscore.Rot.Weighted>
5.8078

> <Gold.Chemscore.Internal.Correction.Weighted>
   9.000000E+99

> <Gold.Protein.RotatedTorsions>
[ 6907 6896 6895 6894 ] final   89.11 input  -60.11 | X-H torsion
[ 7974 7965 7964 7962 ] final  102.61 input  175.53 | X-H torsion
[ 8008 7997 7996 7995 ] final  147.88 input   59.86 | X-H torsion
[ 10167 10162 10161 10158 ] final -131.75 input  -65.29 | X-H torsion
[ 10718 10713 10712 10709 ] final    9.73 input   66.30 | X-H torsion
[ 10763 10752 10751 10750 ] final   56.03 input  -60.55 | X-H torsion
[ 11005 11000 10999 10996 ] final -105.20 input  -57.11 | X-H torsion

> <Gold.Protein.ActiveResidues>
 VAL166  LYS551  ARG553  GLY616  TRP617  ASP618  TYR619  PRO620  LYS621  CYS622 
 ASP623  PHE694  ASN695  SER759  ASP760  ASP761  ALA762  ILE779  LEU786  VAL792 
 PHE793  MET794  SER795  GLU796  ALA797  LYS798  CYS799  TRP800  GLU811  SER814 

> <Gold.Protein.RotatedAtoms>
  152.5433  134.2017  159.8714 H   0  0  0  0  0  0  0  0  0  0  0  0  # atno 6907 bound_to 6896
  151.2005  133.4607  159.2604 H   0  0  0  0  0  0  0  0  0  0  0  0  # atno 6908 bound_to 6896
  151.0994  134.9975  159.8497 H   0  0  0  0  0  0  0  0  0  0  0  0  # atno 6909 bound_to 6896
  145.3568  139.2427  143.3528 H   0  0  0  0  0  0  0  0  0  0  0  0  # atno 7974 bound_to 7965
  156.2810  140.2143  156.5609 H   0  0  0  0  0  0  0  0  0  0  0  0  # atno 8008 bound_to 7997
  154.7213  140.0503  157.0665 H   0  0  0  0  0  0  0  0  0  0  0  0  # atno 8009 bound_to 7997
  155.0474  140.3152  155.4706 H   0  0  0  0  0  0  0  0  0  0  0  0  # atno 8010 bound_to 7997
  139.9156  143.6442  152.2565 H   0  0  0  0  0  0  0  0  0  0  0  0  # atno 10167 bound_to 10162
  156.9705  130.5967  149.5668 H   0  0  0  0  0  0  0  0  0  0  0  0  # atno 10718 bound_to 10713
  152.9825  135.5690  154.5163 H   0  0  0  0  0  0  0  0  0  0  0  0  # atno 10763 bound_to 10752
  154.4659  135.2783  155.1681 H   0  0  0  0  0  0  0  0  0  0  0  0  # atno 10764 bound_to 10752
  154.3249  135.6261  153.5578 H   0  0  0  0  0  0  0  0  0  0  0  0  # atno 10765 bound_to 10752
  141.1065  133.8787  157.1705 H   0  0  0  0  0  0  0  0  0  0  0  0  # atno 11005 bound_to 11000
  146.2944  140.4194  142.8727 LP  0  0  0  0  0  0  0  0  0  0  0  0  # atno 17320 bound_to 7965
  144.8676  140.7228  143.6067 LP  0  0  0  0  0  0  0  0  0  0  0  0  # atno 17321 bound_to 7965
  139.6905  144.7647  151.1447 LP  0  0  0  0  0  0  0  0  0  0  0  0  # atno 17342 bound_to 10162
  140.7675  143.5596  150.9113 LP  0  0  0  0  0  0  0  0  0  0  0  0  # atno 17343 bound_to 10162
  156.0284  130.5377  150.8470 LP  0  0  0  0  0  0  0  0  0  0  0  0  # atno 17370 bound_to 10713
  157.5595  131.0945  150.9579 LP  0  0  0  0  0  0  0  0  0  0  0  0  # atno 17371 bound_to 10713
  139.9937  135.0055  157.0034 LP  0  0  0  0  0  0  0  0  0  0  0  0  # atno 17394 bound_to 11000
  140.4889  134.1213  155.7229 LP  0  0  0  0  0  0  0  0  0  0  0  0  # atno 17395 bound_to 11000

$$$$
