AV-unprocessed.smi:185|AV-procd|sdf|1465|dock6
  -GOLD-   2262019273D 1   1.00000     0.00000
 Structure written by MMmdl.
 53 56  0  0  0  0  0  0  0  0  1 V2000
  148.1095  136.2652  156.0007 C   0  0  0  0  0  0  0  0  0  0  0  0
  149.0944  136.8095  156.9323 N   0  0  0  0  0  0  0  0  0  0  0  0
  148.7442  136.7748  158.3516 C   0  0  0  0  0  0  0  0  0  0  0  0
  147.4636  135.9631  158.6286 C   0  0  0  0  0  0  0  0  0  0  0  0
  147.4385  135.4653  159.9999 N   0  0  0  0  0  0  0  0  0  0  0  0
  147.5829  134.0471  160.2817 C   0  0  0  0  0  0  0  0  0  0  0  0
  147.2821  133.9049  161.7811 C   0  0  0  0  0  0  0  0  0  0  0  0
  147.2939  135.3290  162.3479 C   0  0  0  0  0  0  0  0  0  0  0  0
  147.2723  136.2023  161.1051 C   0  0  0  0  0  0  0  0  0  0  0  0
  147.1184  137.4226  161.1491 O   0  0  0  0  0  0  0  0  0  0  0  0
  149.8894  137.8316  156.5030 C   0  0  0  0  0  0  0  0  0  0  0  0
  150.7677  137.6031  155.4884 N   0  0  0  0  0  0  0  0  0  0  0  0
  151.5317  138.5883  155.0096 C   0  0  0  0  0  0  0  0  0  0  0  0
  151.5789  139.8650  155.3889 N   0  0  0  0  0  0  0  0  0  0  0  0
  150.7142  140.1062  156.4146 C   0  0  0  0  0  0  0  0  0  0  0  0
  149.8513  139.1564  157.0355 C   0  0  0  0  0  0  0  0  0  0  0  0
  149.1494  139.7755  158.0647 N   0  0  0  0  0  0  0  0  0  0  0  0
  149.5477  141.0164  158.0333 C   0  0  0  0  0  0  0  0  0  0  0  0
  150.4760  141.3065  157.0613 N   0  0  0  0  0  0  0  0  0  0  0  0
  151.0741  142.6047  156.7906 C   0  0  0  0  0  0  0  0  0  0  0  0
  151.5224  143.3652  158.0645 C   0  0  0  0  0  0  0  0  0  0  0  0
  152.3227  144.4610  157.6562 O   0  0  0  0  0  0  0  0  0  0  0  0
  150.3317  143.9132  158.8828 C   0  0  0  0  0  0  0  0  0  0  0  0
  150.7742  144.4771  160.2448 C   0  0  0  0  0  0  0  0  0  0  0  0
  151.4987  143.4921  160.9714 O   0  0  0  0  0  0  0  0  0  0  0  0
  152.7009  143.1023  160.3189 C   0  0  0  0  0  0  0  0  0  0  0  0
  152.3769  142.4489  158.9635 C   0  0  0  0  0  0  0  0  0  0  0  0
  148.5772  135.9974  155.0524 H   0  0  0  0  0  0  0  0  0  0  0  0
  147.3163  136.9885  155.8073 H   0  0  0  0  0  0  0  0  0  0  0  0
  147.6516  135.3632  156.4074 H   0  0  0  0  0  0  0  0  0  0  0  0
  149.5713  136.3287  158.9047 H   0  0  0  0  0  0  0  0  0  0  0  0
  148.6604  137.7829  158.7495 H   0  0  0  0  0  0  0  0  0  0  0  0
  146.5755  136.5773  158.4719 H   0  0  0  0  0  0  0  0  0  0  0  0
  147.3866  135.1315  157.9271 H   0  0  0  0  0  0  0  0  0  0  0  0
  146.9014  133.4482  159.6764 H   0  0  0  0  0  0  0  0  0  0  0  0
  148.6041  133.7377  160.0550 H   0  0  0  0  0  0  0  0  0  0  0  0
  146.2975  133.4578  161.9248 H   0  0  0  0  0  0  0  0  0  0  0  0
  148.0091  133.2619  162.2785 H   0  0  0  0  0  0  0  0  0  0  0  0
  146.4342  135.5257  162.9893 H   0  0  0  0  0  0  0  0  0  0  0  0
  148.2058  135.5254  162.9124 H   0  0  0  0  0  0  0  0  0  0  0  0
  152.1946  138.3158  154.2018 H   0  0  0  0  0  0  0  0  0  0  0  0
  149.1636  141.7607  158.7154 H   0  0  0  0  0  0  0  0  0  0  0  0
  151.9288  142.4462  156.1317 H   0  0  0  0  0  0  0  0  0  0  0  0
  150.3602  143.2018  156.2212 H   0  0  0  0  0  0  0  0  0  0  0  0
  152.0154  145.2386  158.0963 H   0  0  0  0  0  0  0  0  0  0  0  0
  149.7982  144.6858  158.3273 H   0  0  0  0  0  0  0  0  0  0  0  0
  149.6151  143.1093  159.0564 H   0  0  0  0  0  0  0  0  0  0  0  0
  151.3827  145.3740  160.1194 H   0  0  0  0  0  0  0  0  0  0  0  0
  149.9005  144.7696  160.8271 H   0  0  0  0  0  0  0  0  0  0  0  0
  153.3581  143.9643  160.1945 H   0  0  0  0  0  0  0  0  0  0  0  0
  153.2301  142.3934  160.9561 H   0  0  0  0  0  0  0  0  0  0  0  0
  151.8353  141.5206  159.1507 H   0  0  0  0  0  0  0  0  0  0  0  0
  153.2996  142.1662  158.4548 H   0  0  0  0  0  0  0  0  0  0  0  0
  1  2  1  0  0  0  0
  1 28  1  0  0  0  0
  1 29  1  0  0  0  0
  1 30  1  0  0  0  0
  2  3  1  0  0  0  0
  2 11  1  0  0  0  0
  3  4  1  0  0  0  0
  3 31  1  0  0  0  0
  3 32  1  0  0  0  0
  4  5  1  0  0  0  0
  4 33  1  0  0  0  0
  4 34  1  0  0  0  0
  5  9  1  0  0  0  0
  5  6  1  0  0  0  0
  6  7  1  0  0  0  0
  6 35  1  0  0  0  0
  6 36  1  0  0  0  0
  7  8  1  0  0  0  0
  7 37  1  0  0  0  0
  7 38  1  0  0  0  0
  8  9  1  0  0  0  0
  8 39  1  0  0  0  0
  8 40  1  0  0  0  0
  9 10  2  0  0  0  0
 11 16  1  0  0  0  0
 11 12  2  0  0  0  0
 12 13  1  0  0  0  0
 13 14  2  0  0  0  0
 13 41  1  0  0  0  0
 14 15  1  0  0  0  0
 15 19  1  0  0  0  0
 15 16  2  0  0  0  0
 16 17  1  0  0  0  0
 17 18  2  0  0  0  0
 18 19  1  0  0  0  0
 18 42  1  0  0  0  0
 19 20  1  0  0  0  0
 20 21  1  0  0  0  0
 20 43  1  0  0  0  0
 20 44  1  0  0  0  0
 21 27  1  0  0  0  0
 21 22  1  0  0  0  0
 21 23  1  0  0  0  0
 22 45  1  0  0  0  0
 23 24  1  0  0  0  0
 23 46  1  0  0  0  0
 23 47  1  0  0  0  0
 24 25  1  0  0  0  0
 24 48  1  0  0  0  0
 24 49  1  0  0  0  0
 25 26  1  0  0  0  0
 26 27  1  0  0  0  0
 26 50  1  0  0  0  0
 26 51  1  0  0  0  0
 27 52  1  0  0  0  0
 27 53  1  0  0  0  0
M  END
> <s_m_source_file>
AV-unprocessed.smi

> <i_m_source_file_index>
185

> <i_lp_mmshare_version>
43012

> <i_f3d_flags>
0

> <s_epik_input>
Tz1DMVtDSDJdW0NIMl1bQ0gyXU4xW0NIMl1bQ0gyXU4oW0NIM10pYyhuW2NIXW4yKWMoYzIzKW5bY0hdbjNbQ0gyXUM0KFtPSF0pW0NIMl1bQ0gyXU9bQ0gyXVtDSDJdNA==

> <s_epik_cmdline>
J2VwaWtfcHl0aG9uJywgJy1waCcsICc3LjAnLCAnLXRuJywgJzgnLCAnLW1hJywgJzIwMCcsICctbWV0YWxfYmluZGluZycsICctaW1hZScsICc8aW5maWxlLm1hZT4nLCAnLW9tYWUnLCAnPG91dGZpbGUubWFlPic=

> <r_lp_tautomer_probability>
1

> <r_epik_Ionization_Penalty>
0.00150291

> <r_epik_Ionization_Penalty_Charging>
0

> <r_epik_Ionization_Penalty_Neutral>
0.00150291

> <r_epik_State_Penalty>
0.000836254

> <r_epik_Charging_Adjusted_Penalty>
0.000836254

> <i_epik_Tot_Q>
0

> <i_epik_Tot_abs_Q>
0

> <r_epik_Metal_State_Penalty>
-0

> <b_epik_Metal_Only>
0

> <s_lp_Force_Field>
OPLS_2005

> <r_lp_Energy>
31.6945

> <b_lp_Chiralities_Consistent>
1

> <s_lp_Variant>
AV-unprocessed.smi:185-1

> <Gold.Version>
5.8.1

> <Gold.Id.Protein>
6NUR|6NUR_protein|mol2

> <Gold.PLP.Fitness>
49.2349

> <Gold.PLP.PLP>
-44.2374

> <Gold.PLP.part.hbond>
-3.5326

> <Gold.PLP.part.metal>
0.0000

> <Gold.PLP.part.buried>
-7.4474

> <Gold.PLP.part.nonpolar>
-33.0875

> <Gold.PLP.part.repulsive>
0.2186

> <Gold.PLP.ligand.clash>
0.9805

> <Gold.PLP.ligand.torsion>
1.5587

> <Gold.PLP.Chemscore.Hbond>
2.8148

> <Gold.PLP.Chemscore.CHOScore>
0.0000

> <Gold.PLP.Chemscore.Metal>
0.0000

> <Gold.Chemscore.Hbonds>
donor molecule, donor type, donor heavy atom, donor atom, acceptor molecule, acceptor atom, score
      P1  H  6931  6943       L1    10  0.39
      P1  H  6934  6947       L1    10  1.00
      P1  H  7989  7998       L1    14  0.75

> <Gold.PLP.Chemscore.Internal.Correction>
0.6511

> <Gold.Rescore>
     Score         DG    S(hbond)    S(metal)    S(lipo)     H(rot)  DE(clash)    DE(int)     intcor
     14.31     -16.88       2.36        0.00      89.88       2.73       0.08       2.49       ----

> <Gold.Chemscore.Fitness>
14.3116

> <Gold.Chemscore.DG>
-16.8839

> <Gold.Chemscore.ZeroCoef>
-5.4800

> <Gold.Chemscore.Hbond>
2.3598

> <Gold.Chemscore.Metal>
0.0000

> <Gold.Chemscore.Lipo>
89.8759

> <Gold.Chemscore.Internal_Hbond>
0.0000

> <Gold.Chemscore.DEClash>
0.0789

> <Gold.Chemscore.DEInternal>
2.4934

> <Gold.Chemscore.Rot>
2.7318

> <Gold.Chemscore.Internal.Correction>
   9.000000E+99

> <Gold.Chemscore.Hbonds>
donor molecule, donor type, donor heavy atom, donor atom, acceptor molecule, acceptor atom, score
      P1  H  6931  6943       L1    10  0.23
      P1  H  6934  6947       L1    10  0.98
      P1  H  7989  7998       L1    14  0.24

> <Gold.Chemscore.Hbond.Weighted>
-7.8817

> <Gold.Chemscore.Metal.Weighted>
-0.0000

> <Gold.Chemscore.Lipo.Weighted>
-10.5155

> <Gold.Chemscore.Internal_Hbond.Weighted>
0.0000

> <Gold.Chemscore.DEClash.Weighted>
0.0789

> <Gold.Chemscore.DEInternal.Weighted>
2.4934

> <Gold.Chemscore.Rot.Weighted>
6.9933

> <Gold.Chemscore.Internal.Correction.Weighted>
   9.000000E+99

> <Gold.Protein.RotatedTorsions>
[ 6907 6896 6895 6894 ] final  -90.44 input  -60.11 | X-H torsion
[ 7974 7965 7964 7962 ] final  -32.33 input  175.53 | X-H torsion
[ 8008 7997 7996 7995 ] final   52.25 input   59.86 | X-H torsion
[ 10167 10162 10161 10158 ] final  -66.58 input  -65.29 | X-H torsion
[ 10718 10713 10712 10709 ] final  154.71 input   66.30 | X-H torsion
[ 10763 10752 10751 10750 ] final   42.72 input  -60.55 | X-H torsion
[ 11005 11000 10999 10996 ] final   12.16 input  -57.11 | X-H torsion

> <Gold.Protein.ActiveResidues>
 VAL166  LYS551  ARG553  GLY616  TRP617  ASP618  TYR619  PRO620  LYS621  CYS622 
 ASP623  PHE694  ASN695  SER759  ASP760  ASP761  ALA762  ILE779  LEU786  VAL792 
 PHE793  MET794  SER795  GLU796  ALA797  LYS798  CYS799  TRP800  GLU811  SER814 

> <Gold.Protein.RotatedAtoms>
  150.6882  134.2432  159.4480 H   0  0  0  0  0  0  0  0  0  0  0  0  # atno 6907 bound_to 6896
  152.0374  134.9729  160.0582 H   0  0  0  0  0  0  0  0  0  0  0  0  # atno 6908 bound_to 6896
  152.1244  133.4337  159.4728 H   0  0  0  0  0  0  0  0  0  0  0  0  # atno 6909 bound_to 6896
  146.0998  140.5779  142.8826 H   0  0  0  0  0  0  0  0  0  0  0  0  # atno 7974 bound_to 7965
  155.4487  140.3457  155.4298 H   0  0  0  0  0  0  0  0  0  0  0  0  # atno 8008 bound_to 7997
  156.1234  140.1493  156.9201 H   0  0  0  0  0  0  0  0  0  0  0  0  # atno 8009 bound_to 7997
  154.4840  140.0861  156.7423 H   0  0  0  0  0  0  0  0  0  0  0  0  # atno 8010 bound_to 7997
  140.5646  143.2314  151.6659 H   0  0  0  0  0  0  0  0  0  0  0  0  # atno 10167 bound_to 10162
  157.2280  131.0733  151.1871 H   0  0  0  0  0  0  0  0  0  0  0  0  # atno 10718 bound_to 10713
  152.9876  135.6123  154.2995 H   0  0  0  0  0  0  0  0  0  0  0  0  # atno 10763 bound_to 10752
  154.2716  135.2779  155.2737 H   0  0  0  0  0  0  0  0  0  0  0  0  # atno 10764 bound_to 10752
  154.5117  135.5839  153.6667 H   0  0  0  0  0  0  0  0  0  0  0  0  # atno 10765 bound_to 10752
  140.4951  134.0801  155.7780 H   0  0  0  0  0  0  0  0  0  0  0  0  # atno 11005 bound_to 11000
  144.7424  140.4977  143.6860 LP  0  0  0  0  0  0  0  0  0  0  0  0  # atno 17320 bound_to 7965
  145.5877  139.1493  143.3200 LP  0  0  0  0  0  0  0  0  0  0  0  0  # atno 17321 bound_to 7965
  139.5087  144.3603  152.0569 LP  0  0  0  0  0  0  0  0  0  0  0  0  # atno 17342 bound_to 10162
  140.2733  144.3940  150.6144 LP  0  0  0  0  0  0  0  0  0  0  0  0  # atno 17343 bound_to 10162
  157.3507  130.7081  149.6439 LP  0  0  0  0  0  0  0  0  0  0  0  0  # atno 17370 bound_to 10713
  155.9677  130.4253  150.4648 LP  0  0  0  0  0  0  0  0  0  0  0  0  # atno 17371 bound_to 10713
  141.1464  133.9047  157.2205 LP  0  0  0  0  0  0  0  0  0  0  0  0  # atno 17394 bound_to 11000
  139.9746  135.0118  156.9598 LP  0  0  0  0  0  0  0  0  0  0  0  0  # atno 17395 bound_to 11000

$$$$
