#       Name:                AV-unprocessed.smi:1007
#       Creating user name   scv26
#       Creation time:       Fri Mar 27 02:33:40 2020


#       File generated by GOLD software.
#

@<TRIPOS>MOLECULE
AV-unprocessed.smi:1007
    62    64     1
SMALL
NO_CHARGES


@<TRIPOS>ATOM
      1 ****        -7.8885   2.0534   1.4736 C.3            1 S1                 0.0000
      2 ****        -6.6119   1.5414   1.8145 O.3            1 S1                 0.0000
      3 ****        -6.4234   0.2093   1.3665 C.3            1 S1                 0.0000
      4 ****        -5.0242  -0.2661   1.7874 C.3            1 S1                 0.0000
      5 ****        -3.9367   0.5269   1.1604 N.4            1 S1                 1.0000
      6 ****        -3.7366   0.2345  -0.2847 C.3            1 S1                 0.0000
      7 ****        -2.6207   1.1277  -0.8673 C.3            1 S1                 0.0000
      8 ****        -1.3476   1.0026  -0.1580 N.3            1 S1                 0.0000
      9 ****        -0.6810  -0.2824  -0.4145 C.3            1 S1                 0.0000
     10 ****         0.7787  -0.4197   0.0727 C.3            1 S1                 0.0000
     11 ****         0.8096  -0.7987   1.4350 O.3            1 S1                 0.0000
     12 ****         1.6582   0.8201  -0.1923 C.3            1 S1                 0.0000
     13 ****         3.0423   0.6084   0.1899 N.pl3          1 S1                 0.0000
     14 ****         3.6571   1.0558   1.3018 C.2            1 S1                 0.0000
     15 ****         4.9412   0.7454   1.4540 N.2            1 S1                 0.0000
     16 ****         5.1900   0.0152   0.3045 C.ar           1 S1                 0.0000
     17 ****         6.3742  -0.6058  -0.1494 C.ar           1 S1                 0.0000
     18 ****         6.3993  -1.3111  -1.3737 C.ar           1 S1                 0.0000
     19 ****         7.6945  -1.9637  -1.8234 C.3            1 S1                 0.0000
     20 ****         5.2259  -1.4036  -2.1648 C.ar           1 S1                 0.0000
     21 ****         5.2283  -2.1593  -3.4819 C.3            1 S1                 0.0000
     22 ****         4.0347  -0.7881  -1.7268 C.ar           1 S1                 0.0000
     23 ****         4.0226  -0.0889  -0.5071 C.ar           1 S1                 0.0000
     24 ****        -1.5786   1.3043   1.2567 C.3            1 S1                 0.0000
     25 ****        -2.6544   0.4087   1.9018 C.3            1 S1                 0.0000
     26 ****        -7.9833   3.0754   1.8407 H              1 S1                 0.0000
     27 ****        -8.6857   1.4593   1.9226 H              1 S1                 0.0000
     28 ****        -8.0307   2.0699   0.3921 H              1 S1                 0.0000
     29 ****        -7.1747  -0.4361   1.8242 H              1 S1                 0.0000
     30 ****        -6.5627   0.1401   0.2875 H              1 S1                 0.0000
     31 ****        -4.9526  -0.1878   2.8731 H              1 S1                 0.0000
     32 ****        -4.8925  -1.3218   1.5460 H              1 S1                 0.0000
     33 ****        -3.5009  -0.8213  -0.4225 H              1 S1                 0.0000
     34 ****        -4.6560   0.4230  -0.8371 H              1 S1                 0.0000
     35 ****        -2.4799   0.9020  -1.9250 H              1 S1                 0.0000
     36 ****        -2.9469   2.1681  -0.8289 H              1 S1                 0.0000
     37 ****        -1.2720  -1.1135  -0.0301 H              1 S1                 0.0000
     38 ****        -0.6569  -0.4282  -1.4953 H              1 S1                 0.0000
     39 ****         1.2131  -1.2617  -0.4677 H              1 S1                 0.0000
     40 ****         1.7069  -0.9739   1.6756 H              1 S1                 0.0000
     41 ****         1.6327   1.0790  -1.2514 H              1 S1                 0.0000
     42 ****         1.2816   1.6883   0.3500 H              1 S1                 0.0000
     43 ****         3.1312   1.6401   2.0429 H              1 S1                 0.0000
     44 ****         7.2675  -0.5354   0.4537 H              1 S1                 0.0000
     45 ****         8.0136  -1.5581  -2.7836 H              1 S1                 0.0000
     46 ****         7.5632  -3.0408  -1.9283 H              1 S1                 0.0000
     47 ****         8.4973  -1.7924  -1.1056 H              1 S1                 0.0000
     48 ****         4.2535  -2.1141  -3.9684 H              1 S1                 0.0000
     49 ****         5.4722  -3.2092  -3.3182 H              1 S1                 0.0000
     50 ****         5.9632  -1.7347  -4.1661 H              1 S1                 0.0000
     51 ****         3.1341  -0.8505  -2.3194 H              1 S1                 0.0000
     52 ****        -0.6491   1.2387   1.8200 H              1 S1                 0.0000
     53 ****        -1.8927   2.3451   1.3468 H              1 S1                 0.0000
     54 ****        -2.8029   0.7183   2.9370 H              1 S1                 0.0000
     55 ****        -2.3312  -0.6327   1.9295 H              1 S1                 0.0000
     56 ****        -4.2114   1.4968   1.2292 H              1 S1                 0.0000
     57 ****        -6.5134   1.5621   2.8095 LP             1 S1                 0.0000
     58 ****        -5.9121   2.1218   1.3982 LP             1 S1                 0.0000
     59 ****        -0.6900   1.6694  -0.5086 LP             1 S1                 0.0000
     60 ****         0.2571  -1.6213   1.5694 LP             1 S1                 0.0000
     61 ****         0.4469  -0.0576   2.0001 LP             1 S1                 0.0000
     62 ****         5.5631   0.9781   2.2017 LP             1 S1                 0.0000
@<TRIPOS>BOND
    1    1    2 1     
    2    1   26 1     
    3    1   27 1     
    4    1   28 1     
    5    2    3 1     
    6    3    4 1     
    7    3   29 1     
    8    3   30 1     
    9    4    5 1     
   10    4   31 1     
   11    4   32 1     
   12    5   25 1     
   13    5    6 1     
   14    5   56 1     
   15    6    7 1     
   16    6   33 1     
   17    6   34 1     
   18    7    8 1     
   19    7   35 1     
   20    7   36 1     
   21    8    9 1     
   22    8   24 1     
   23    9   10 1     
   24    9   37 1     
   25    9   38 1     
   26   10   11 1     
   27   10   12 1     
   28   10   39 1     
   29   11   40 1     
   30   12   13 1     
   31   12   41 1     
   32   12   42 1     
   33   13   23 1     
   34   13   14 1     
   35   14   15 2     
   36   14   43 1     
   37   15   16 1     
   38   16   23 ar    
   39   16   17 ar    
   40   17   18 ar    
   41   17   44 1     
   42   18   19 1     
   43   18   20 ar    
   44   19   45 1     
   45   19   46 1     
   46   19   47 1     
   47   20   21 1     
   48   20   22 ar    
   49   21   48 1     
   50   21   49 1     
   51   21   50 1     
   52   22   23 ar    
   53   22   51 1     
   54   24   25 1     
   55   24   52 1     
   56   24   53 1     
   57   25   54 1     
   58   25   55 1     
   59    2   57 1     
   60    2   58 1     
   61    8   59 1     
   62   11   60 1     
   63   11   61 1     
   64   15   62 1     
@<TRIPOS>SUBSTRUCTURE
      1 S1             1
@<TRIPOS>SET
LONE_PAIRS      STATIC     ATOMS    <user>   **** ""
6 57 58 59 60 61 62
DONOR_HYDROGENS      STATIC     ATOMS    <user>   **** ""
2 56 40
ATOM$BLUE        STATIC     ATOMS    COLORGROUP SYSTEM
6 57 58 59 60 61 62
ATOM$RED        STATIC     ATOMS    COLORGROUP SYSTEM
2 56 40
