AV-unprocessed.smi:37|AV-procd|sdf|314|dock1
  -GOLD-   2262016133D 1   1.00000     0.00000
 Structure written by MMmdl.
 44 45  0  0  0  0  0  0  0  0  1 V2000
  152.7302  142.6855  159.2092 C   0  0  0  0  0  0  0  0  0  0  0  0
  152.9731  141.5720  160.2384 C   0  0  0  0  0  0  0  0  0  0  0  0
  153.0798  140.1771  159.6185 C   0  0  0  0  0  0  0  0  0  0  0  0
  153.9682  139.8729  158.8206 O   0  0  0  0  0  0  0  0  0  0  0  0
  152.1069  139.3636  160.0533 O   0  0  0  0  0  0  0  0  0  0  0  0
  151.9099  138.1027  159.4351 C   0  0  0  0  0  0  0  0  0  0  0  0
  150.5459  138.0874  158.7346 C   0  0  1  0  0  0  0  0  0  0  0  0
  150.5949  138.9013  157.5645 O   0  0  0  0  0  0  0  0  0  0  0  0
  149.8111  138.3385  156.5552 C   0  0  2  0  0  0  0  0  0  0  0  0
  148.7843  139.3614  156.1275 N   0  0  0  0  0  0  0  0  0  0  0  0
  147.4522  139.2139  156.4890 C   0  0  0  0  0  0  0  0  0  0  0  0
  146.4941  140.1126  156.1620 C   0  0  0  0  0  0  0  0  0  0  0  0
  145.2247  139.8983  156.5468 F   0  0  0  0  0  0  0  0  0  0  0  0
  146.8286  141.3111  155.3986 C   0  0  0  0  0  0  0  0  0  0  0  0
  146.0321  142.1809  155.0524 O   0  0  0  0  0  0  0  0  0  0  0  0
  148.1813  141.4224  155.0637 N   0  0  0  0  0  0  0  0  0  0  0  0
  149.1793  140.5039  155.3955 C   0  0  0  0  0  0  0  0  0  0  0  0
  150.3390  140.7083  155.0402 O   0  0  0  0  0  0  0  0  0  0  0  0
  149.1467  137.0841  157.1237 C   0  0  1  0  0  0  0  0  0  0  0  0
  148.9976  135.6431  155.7588 Br  0  0  0  0  0  0  0  0  0  0  0  0
  150.1014  136.7075  158.2360 C   0  0  2  0  0  0  0  0  0  0  0  0
  149.4059  135.9635  159.2289 O   0  0  0  0  0  0  0  0  0  0  0  0
  148.2843  136.4513  159.7881 C   0  0  0  0  0  0  0  0  0  0  0  0
  147.7453  137.5224  159.5044 O   0  0  0  0  0  0  0  0  0  0  0  0
  147.7148  135.5034  160.8453 C   0  0  0  0  0  0  0  0  0  0  0  0
  147.5942  136.1390  162.2386 C   0  0  0  0  0  0  0  0  0  0  0  0
  148.4600  142.2368  154.5359 H   0  0  0  0  0  0  0  0  0  0  0  0
  152.6688  143.6558  159.7017 H   0  0  0  0  0  0  0  0  0  0  0  0
  151.7961  142.5312  158.6679 H   0  0  0  0  0  0  0  0  0  0  0  0
  153.5400  142.7366  158.4805 H   0  0  0  0  0  0  0  0  0  0  0  0
  153.8922  141.7760  160.7880 H   0  0  0  0  0  0  0  0  0  0  0  0
  152.1640  141.5642  160.9690 H   0  0  0  0  0  0  0  0  0  0  0  0
  152.7052  137.9478  158.7050 H   0  0  0  0  0  0  0  0  0  0  0  0
  151.9702  137.2917  160.1626 H   0  0  0  0  0  0  0  0  0  0  0  0
  149.7826  138.5140  159.3876 H   0  0  0  0  0  0  0  0  0  0  0  0
  150.4734  138.1242  155.7160 H   0  0  0  0  0  0  0  0  0  0  0  0
  147.1568  138.3444  157.0574 H   0  0  0  0  0  0  0  0  0  0  0  0
  148.1524  137.3116  157.5101 H   0  0  0  0  0  0  0  0  0  0  0  0
  150.9502  136.1688  157.8117 H   0  0  0  0  0  0  0  0  0  0  0  0
  146.7336  135.1642  160.5124 H   0  0  0  0  0  0  0  0  0  0  0  0
  148.3527  134.6209  160.8976 H   0  0  0  0  0  0  0  0  0  0  0  0
  147.1740  135.4273  162.9492 H   0  0  0  0  0  0  0  0  0  0  0  0
  146.9414  137.0124  162.2224 H   0  0  0  0  0  0  0  0  0  0  0  0
  148.5672  136.4497  162.6209 H   0  0  0  0  0  0  0  0  0  0  0  0
  1  2  1  0  0  0  0
  1 28  1  0  0  0  0
  1 29  1  0  0  0  0
  1 30  1  0  0  0  0
  2  3  1  0  0  0  0
  2 31  1  0  0  0  0
  2 32  1  0  0  0  0
  3  4  2  0  0  0  0
  3  5  1  0  0  0  0
  5  6  1  0  0  0  0
  6  7  1  0  0  0  0
  6 33  1  0  0  0  0
  6 34  1  0  0  0  0
  7 21  1  0  0  0  0
  7  8  1  0  0  0  0
  7 35  1  0  0  0  0
  8  9  1  0  0  0  0
  9 10  1  0  0  0  0
  9 19  1  0  0  0  0
  9 36  1  0  0  0  0
 10 17  1  0  0  0  0
 10 11  1  0  0  0  0
 11 12  2  0  0  0  0
 11 37  1  0  0  0  0
 12 13  1  0  0  0  0
 12 14  1  0  0  0  0
 14 15  2  0  0  0  0
 14 16  1  0  0  0  0
 16 27  1  0  0  0  0
 16 17  1  0  0  0  0
 17 18  2  0  0  0  0
 19 20  1  0  0  0  0
 19 21  1  0  0  0  0
 19 38  1  0  0  0  0
 21 22  1  0  0  0  0
 21 39  1  0  0  0  0
 22 23  1  0  0  0  0
 23 24  2  0  0  0  0
 23 25  1  0  0  0  0
 25 26  1  0  0  0  0
 25 40  1  0  0  0  0
 25 41  1  0  0  0  0
 26 42  1  0  0  0  0
 26 43  1  0  0  0  0
 26 44  1  0  0  0  0
M  END
> <s_m_source_file>
AV-unprocessed.smi

> <i_m_source_file_index>
37

> <i_lp_mmshare_version>
43012

> <i_f3d_flags>
0

> <s_epik_input>
W0NIM11bQ0gyXUMoPU8pT1tDSDJdW0NAQEhdMU9bQ0BASF0objJbY0hdYyhGKWMoPU8pW25IXWMyPU8pW0NAQEhdKEJyKVtDQEhdMU9DKD1PKVtDSDJdW0NIM10=

> <s_epik_cmdline>
J2VwaWtfcHl0aG9uJywgJy1waCcsICc3LjAnLCAnLXRuJywgJzgnLCAnLW1hJywgJzIwMCcsICctbWV0YWxfYmluZGluZycsICctaW1hZScsICc8aW5maWxlLm1hZT4nLCAnLW9tYWUnLCAnPG91dGZpbGUubWFlPic=

> <r_lp_tautomer_probability>
0.999537

> <r_epik_Ionization_Penalty>
0.104106

> <r_epik_Ionization_Penalty_Charging>
0.104106

> <r_epik_Ionization_Penalty_Neutral>
3.94675e-16

> <r_epik_State_Penalty>
0.0940182

> <r_epik_Charging_Adjusted_Penalty>
0.198124

> <i_epik_Tot_Q>
0

> <i_epik_Tot_abs_Q>
0

> <r_epik_Metal_State_Penalty>
3.05314

> <b_epik_Metal_Only>
0

> <s_epik_Chemistry_Notes>
This compound has an ester and may undergo hydrolysis at high or low pH. This compound contains an acetal/aminal-like group ( X-CH(R)-Y where X, Y are N, S, or O) that may be acid/base labile, releasing an aldehyde.

> <s_lp_Force_Field>
OPLS_2005

> <r_lp_Energy>
22.7414

> <b_lp_Chiralities_Consistent>
1

> <s_lp_Variant>
AV-unprocessed.smi:37-12

> <Gold.Version>
5.8.1

> <Gold.Id.Protein>
6NUR|6NUR_protein|mol2

> <Gold.PLP.Fitness>
36.6952

> <Gold.PLP.PLP>
-30.0945

> <Gold.PLP.part.hbond>
-5.7747

> <Gold.PLP.part.metal>
0.0000

> <Gold.PLP.part.buried>
-1.9435

> <Gold.PLP.part.nonpolar>
-22.7433

> <Gold.PLP.part.repulsive>
0.3526

> <Gold.PLP.ligand.clash>
0.0000

> <Gold.PLP.ligand.torsion>
0.7823

> <Gold.PLP.Chemscore.Hbond>
2.6142

> <Gold.PLP.Chemscore.CHOScore>
0.0000

> <Gold.PLP.Chemscore.Metal>
0.0000

> <Gold.Chemscore.Hbonds>
donor molecule, donor type, donor heavy atom, donor atom, acceptor molecule, acceptor atom, score
      P1  H  6934  6947       L1    24  0.49
      P1  H  7989  7998       L1    18  0.88
      P1  H  7997  8009       L1     4  1.00

> <Gold.PLP.Chemscore.Internal.Correction>
0.3227

> <Gold.Rescore>
     Score         DG    S(hbond)    S(metal)    S(lipo)     H(rot)  DE(clash)    DE(int)     intcor
      8.86     -12.15       2.63        0.00      54.86       3.33       0.85       2.44       ----

> <Gold.Chemscore.Fitness>
8.8586

> <Gold.Chemscore.DG>
-12.1500

> <Gold.Chemscore.ZeroCoef>
-5.4800

> <Gold.Chemscore.Hbond>
2.6277

> <Gold.Chemscore.Metal>
0.0000

> <Gold.Chemscore.Lipo>
54.8631

> <Gold.Chemscore.Internal_Hbond>
0.0000

> <Gold.Chemscore.DEClash>
0.8479

> <Gold.Chemscore.DEInternal>
2.4435

> <Gold.Chemscore.Rot>
3.3303

> <Gold.Chemscore.Internal.Correction>
   9.000000E+99

> <Gold.Chemscore.Hbonds>
donor molecule, donor type, donor heavy atom, donor atom, acceptor molecule, acceptor atom, score
      P1  H  6934  6947       L1    24  0.48
      P1  H  7989  7998       L1    18  0.82
      P1  H  7997  8009       L1     4  0.98

> <Gold.Chemscore.Hbond.Weighted>
-8.7766

> <Gold.Chemscore.Metal.Weighted>
-0.0000

> <Gold.Chemscore.Lipo.Weighted>
-6.4190

> <Gold.Chemscore.Internal_Hbond.Weighted>
0.0000

> <Gold.Chemscore.DEClash.Weighted>
0.8479

> <Gold.Chemscore.DEInternal.Weighted>
2.4435

> <Gold.Chemscore.Rot.Weighted>
8.5256

> <Gold.Chemscore.Internal.Correction.Weighted>
   9.000000E+99

> <Gold.Protein.RotatedTorsions>
[ 6907 6896 6895 6894 ] final  121.84 input  -60.11 | X-H torsion
[ 7974 7965 7964 7962 ] final  -95.56 input  175.53 | X-H torsion
[ 8008 7997 7996 7995 ] final  128.39 input   59.86 | X-H torsion
[ 10167 10162 10161 10158 ] final   94.32 input  -65.29 | X-H torsion
[ 10718 10713 10712 10709 ] final  -86.70 input   66.30 | X-H torsion
[ 10763 10752 10751 10750 ] final   41.04 input  -60.55 | X-H torsion
[ 11005 11000 10999 10996 ] final   -8.09 input  -57.11 | X-H torsion

> <Gold.Protein.ActiveResidues>
 VAL166  LYS551  ARG553  GLY616  TRP617  ASP618  TYR619  PRO620  LYS621  CYS622 
 ASP623  PHE694  ASN695  SER759  ASP760  ASP761  ALA762  ILE779  LEU786  VAL792 
 PHE793  MET794  SER795  GLU796  ALA797  LYS798  CYS799  TRP800  GLU811  SER814 

> <Gold.Protein.RotatedAtoms>
  152.4290  133.7244  159.6551 H   0  0  0  0  0  0  0  0  0  0  0  0  # atno 6907 bound_to 6896
  150.8168  133.8312  159.3163 H   0  0  0  0  0  0  0  0  0  0  0  0  # atno 6908 bound_to 6896
  151.6007  135.1049  160.0111 H   0  0  0  0  0  0  0  0  0  0  0  0  # atno 6909 bound_to 6896
  145.3585  140.9488  143.2514 H   0  0  0  0  0  0  0  0  0  0  0  0  # atno 7974 bound_to 7965
  156.2914  140.2646  156.2428 H   0  0  0  0  0  0  0  0  0  0  0  0  # atno 8008 bound_to 7997
  154.9960  140.0388  157.2358 H   0  0  0  0  0  0  0  0  0  0  0  0  # atno 8009 bound_to 7997
  154.7644  140.2766  155.6193 H   0  0  0  0  0  0  0  0  0  0  0  0  # atno 8010 bound_to 7997
  139.8095  144.6780  150.9659 H   0  0  0  0  0  0  0  0  0  0  0  0  # atno 10167 bound_to 10162
  155.9988  130.4774  150.4754 H   0  0  0  0  0  0  0  0  0  0  0  0  # atno 10718 bound_to 10713
  152.9919  135.6173  154.2723 H   0  0  0  0  0  0  0  0  0  0  0  0  # atno 10763 bound_to 10752
  154.2455  135.2787  155.2839 H   0  0  0  0  0  0  0  0  0  0  0  0  # atno 10764 bound_to 10752
  154.5333  135.5782  153.6834 H   0  0  0  0  0  0  0  0  0  0  0  0  # atno 10765 bound_to 10752
  140.7197  133.8838  155.8812 H   0  0  0  0  0  0  0  0  0  0  0  0  # atno 11005 bound_to 11000
  144.8664  139.5101  143.6788 LP  0  0  0  0  0  0  0  0  0  0  0  0  # atno 17320 bound_to 7965
  146.2937  139.7216  142.9142 LP  0  0  0  0  0  0  0  0  0  0  0  0  # atno 17321 bound_to 7965
  140.7818  143.4200  151.0857 LP  0  0  0  0  0  0  0  0  0  0  0  0  # atno 17342 bound_to 10162
  139.7867  143.8277  152.3146 LP  0  0  0  0  0  0  0  0  0  0  0  0  # atno 17343 bound_to 10162
  157.2765  131.0598  151.2226 LP  0  0  0  0  0  0  0  0  0  0  0  0  # atno 17370 bound_to 10713
  157.3287  130.6974  149.6312 LP  0  0  0  0  0  0  0  0  0  0  0  0  # atno 17371 bound_to 10713
  141.0014  134.1145  157.4314 LP  0  0  0  0  0  0  0  0  0  0  0  0  # atno 17394 bound_to 11000
  139.8851  135.0069  156.6413 LP  0  0  0  0  0  0  0  0  0  0  0  0  # atno 17395 bound_to 11000

$$$$
