AV-unprocessed.smi:543|AV-procd|sdf|2876|dock7
  -GOLD-   2262023373D 1   1.00000     0.00000
 Structure written by MMmdl.
 45 47  0  0  0  0  0  0  0  0  2 V2000
  147.9830  139.1818  154.4121 C   0  0  0  0  0  0  0  0  0  0  0  0
  147.1576  139.5351  155.5071 O   0  0  0  0  0  0  0  0  0  0  0  0
  147.8212  139.4063  156.7548 C   0  0  0  0  0  0  0  0  0  0  0  0
  148.1118  137.9245  157.0317 C   0  0  0  0  0  0  0  0  0  0  0  0
  149.1814  137.7574  158.0158 N   0  0  0  0  0  0  0  0  0  0  0  0
  149.1571  137.0815  159.2001 C   0  0  0  0  0  0  0  0  0  0  0  0
  148.0057  136.4467  159.6831 N   0  0  0  0  0  0  0  0  0  0  0  0
  146.7117  136.4182  159.0123 C   0  0  0  0  0  0  0  0  0  0  0  0
  147.8830  135.8781  161.0253 C   0  0  0  0  0  0  0  0  0  0  0  0
  146.5889  136.2052  161.7523 C   0  0  0  0  0  0  0  0  0  0  0  0
  146.1619  137.5454  161.8643 C   0  0  0  0  0  0  0  0  0  0  0  0
  144.9565  137.8520  162.5251 C   0  0  0  0  0  0  0  0  0  0  0  0
  144.1751  136.8207  163.0803 C   0  0  0  0  0  0  0  0  0  0  0  0
  144.5991  135.4819  162.9738 C   0  0  0  0  0  0  0  0  0  0  0  0
  145.8034  135.1745  162.3112 C   0  0  0  0  0  0  0  0  0  0  0  0
  150.3320  137.0429  159.8327 N   0  0  0  0  0  0  0  0  0  0  0  0
  151.1674  137.7692  159.0017 C   0  0  0  0  0  0  0  0  0  0  0  0
  150.5029  138.2045  157.8990 C   0  0  0  0  0  0  0  0  0  0  0  0
  151.1421  138.9745  156.8076 C   0  0  0  0  0  0  0  0  0  0  0  0
  150.5021  139.3298  155.8200 O   0  0  0  0  0  0  0  0  0  0  0  0
  152.4709  139.2092  157.0487 N   0  5  0  0  0  0  0  0  0  0  0  0
  153.1804  138.7895  158.1534 C   0  0  0  0  0  0  0  0  0  0  0  0
  154.3792  139.0382  158.2892 O   0  0  0  0  0  0  0  0  0  0  0  0
  152.5492  138.0729  159.1358 N   0  0  0  0  0  0  0  0  0  0  0  0
  153.2784  137.6052  160.3183 C   0  0  0  0  0  0  0  0  0  0  0  0
  147.4272  139.3015  153.4822 H   0  0  0  0  0  0  0  0  0  0  0  0
  148.3042  138.1416  154.4810 H   0  0  0  0  0  0  0  0  0  0  0  0
  148.8666  139.8195  154.3615 H   0  0  0  0  0  0  0  0  0  0  0  0
  148.7528  139.9741  156.7434 H   0  0  0  0  0  0  0  0  0  0  0  0
  147.1994  139.8177  157.5511 H   0  0  0  0  0  0  0  0  0  0  0  0
  147.2158  137.4161  157.3840 H   0  0  0  0  0  0  0  0  0  0  0  0
  148.3623  137.4252  156.1018 H   0  0  0  0  0  0  0  0  0  0  0  0
  146.7047  137.0967  158.1588 H   0  0  0  0  0  0  0  0  0  0  0  0
  145.9094  136.7325  159.6805 H   0  0  0  0  0  0  0  0  0  0  0  0
  146.4871  135.4116  158.6581 H   0  0  0  0  0  0  0  0  0  0  0  0
  148.0010  134.7935  161.0089 H   0  0  0  0  0  0  0  0  0  0  0  0
  148.7212  136.2529  161.6138 H   0  0  0  0  0  0  0  0  0  0  0  0
  146.7530  138.3417  161.4365 H   0  0  0  0  0  0  0  0  0  0  0  0
  144.6307  138.8787  162.6048 H   0  0  0  0  0  0  0  0  0  0  0  0
  143.2506  137.0561  163.5865 H   0  0  0  0  0  0  0  0  0  0  0  0
  143.9997  134.6904  163.3990 H   0  0  0  0  0  0  0  0  0  0  0  0
  146.1193  134.1451  162.2299 H   0  0  0  0  0  0  0  0  0  0  0  0
  154.0503  136.8908  160.0295 H   0  0  0  0  0  0  0  0  0  0  0  0
  152.6316  137.1125  161.0442 H   0  0  0  0  0  0  0  0  0  0  0  0
  153.7595  138.4402  160.8296 H   0  0  0  0  0  0  0  0  0  0  0  0
  1  2  1  0  0  0  0
  1 26  1  0  0  0  0
  1 27  1  0  0  0  0
  1 28  1  0  0  0  0
  2  3  1  0  0  0  0
  3  4  1  0  0  0  0
  3 29  1  0  0  0  0
  3 30  1  0  0  0  0
  4  5  1  0  0  0  0
  4 31  1  0  0  0  0
  4 32  1  0  0  0  0
  5 18  1  0  0  0  0
  5  6  1  0  0  0  0
  6  7  1  0  0  0  0
  6 16  2  0  0  0  0
  7  8  1  0  0  0  0
  7  9  1  0  0  0  0
  8 33  1  0  0  0  0
  8 34  1  0  0  0  0
  8 35  1  0  0  0  0
  9 10  1  0  0  0  0
  9 36  1  0  0  0  0
  9 37  1  0  0  0  0
 10 15  1  0  0  0  0
 10 11  2  0  0  0  0
 11 12  1  0  0  0  0
 11 38  1  0  0  0  0
 12 13  2  0  0  0  0
 12 39  1  0  0  0  0
 13 14  1  0  0  0  0
 13 40  1  0  0  0  0
 14 15  2  0  0  0  0
 14 41  1  0  0  0  0
 15 42  1  0  0  0  0
 16 17  1  0  0  0  0
 17 24  1  0  0  0  0
 17 18  2  0  0  0  0
 18 19  1  0  0  0  0
 19 20  2  0  0  0  0
 19 21  1  0  0  0  0
 21 22  1  0  0  0  0
 22 23  2  0  0  0  0
 22 24  1  0  0  0  0
 24 25  1  0  0  0  0
 25 43  1  0  0  0  0
 25 44  1  0  0  0  0
 25 45  1  0  0  0  0
M  CHG  1  21  -1
M  END
> <s_m_source_file>
AV-unprocessed.smi

> <i_m_source_file_index>
543

> <i_lp_mmshare_version>
43012

> <i_f3d_flags>
0

> <s_epik_input>
W0NIM11uMWMoPU8pW25IXWMoPU8pYyhjMTIpbihbQ0gyXVtDSDJdT1tDSDNdKWMobjIpTihbQ0gzXSlbQ0gyXWMzW2NIXVtjSF1bY0hdW2NIXVtjSF0z

> <s_epik_cmdline>
J2VwaWtfcHl0aG9uJywgJy1waCcsICc3LjAnLCAnLXRuJywgJzgnLCAnLW1hJywgJzIwMCcsICctbWV0YWxfYmluZGluZycsICctaW1hZScsICc8aW5maWxlLm1hZT4nLCAnLW9tYWUnLCAnPG91dGZpbGUubWFlPic=

> <r_lp_tautomer_probability>
1

> <r_epik_Ionization_Penalty>
6.27073

> <r_epik_Ionization_Penalty_Charging>
0.0750099

> <r_epik_Ionization_Penalty_Neutral>
6.19572

> <r_epik_State_Penalty>
6.19553

> <r_epik_Charging_Adjusted_Penalty>
6.27054

> <i_epik_Tot_Q>
-1

> <i_epik_Tot_abs_Q>
1

> <r_epik_Metal_State_Penalty>
2.13591

> <b_epik_Metal_Only>
1

> <s_lp_Force_Field>
OPLS_2005

> <r_lp_Energy>
36.8514

> <b_lp_Chiralities_Consistent>
1

> <s_lp_Variant>
AV-unprocessed.smi:543-2

> <Gold.Version>
5.8.1

> <Gold.Id.Protein>
6NUR|6NUR_protein|mol2

> <Gold.PLP.Fitness>
41.1520

> <Gold.PLP.PLP>
-32.6202

> <Gold.PLP.part.hbond>
-3.7187

> <Gold.PLP.part.metal>
0.0000

> <Gold.PLP.part.buried>
-4.4306

> <Gold.PLP.part.nonpolar>
-24.8775

> <Gold.PLP.part.repulsive>
0.0110

> <Gold.PLP.ligand.clash>
4.7127

> <Gold.PLP.ligand.torsion>
0.4550

> <Gold.PLP.Chemscore.Hbond>
3.1111

> <Gold.PLP.Chemscore.CHOScore>
0.0000

> <Gold.PLP.Chemscore.Metal>
0.0000

> <Gold.Chemscore.Hbonds>
donor molecule, donor type, donor heavy atom, donor atom, acceptor molecule, acceptor atom, score
      P1  H  6896  6909       L1    16  0.71
      P1  H  7997  8009       L1    23  0.06
      P1  H  7997  8010       L1    21  0.33

> <Gold.PLP.Chemscore.Internal.Correction>
4.8212

> <Gold.Rescore>
     Score         DG    S(hbond)    S(metal)    S(lipo)     H(rot)  DE(clash)    DE(int)     intcor
     10.52     -12.28       1.34        0.00      59.59       1.82       0.00       1.75       ----

> <Gold.Chemscore.Fitness>
10.5246

> <Gold.Chemscore.DG>
-12.2756

> <Gold.Chemscore.ZeroCoef>
-5.4800

> <Gold.Chemscore.Hbond>
1.3428

> <Gold.Chemscore.Metal>
0.0000

> <Gold.Chemscore.Lipo>
59.5881

> <Gold.Chemscore.Internal_Hbond>
0.0000

> <Gold.Chemscore.DEClash>
0.0004

> <Gold.Chemscore.DEInternal>
1.7506

> <Gold.Chemscore.Rot>
1.8207

> <Gold.Chemscore.Internal.Correction>
   9.000000E+99

> <Gold.Chemscore.Hbonds>
donor molecule, donor type, donor heavy atom, donor atom, acceptor molecule, acceptor atom, score
      P1  H  6896  6909       L1    16  0.23
      P1  H  7997  8009       L1    23  0.08

> <Gold.Chemscore.Hbond.Weighted>
-4.4848

> <Gold.Chemscore.Metal.Weighted>
-0.0000

> <Gold.Chemscore.Lipo.Weighted>
-6.9718

> <Gold.Chemscore.Internal_Hbond.Weighted>
0.0000

> <Gold.Chemscore.DEClash.Weighted>
0.0004

> <Gold.Chemscore.DEInternal.Weighted>
1.7506

> <Gold.Chemscore.Rot.Weighted>
4.6610

> <Gold.Chemscore.Internal.Correction.Weighted>
   9.000000E+99

> <Gold.Protein.RotatedTorsions>
[ 6907 6896 6895 6894 ] final  108.32 input  -60.11 | X-H torsion
[ 7974 7965 7964 7962 ] final  -47.38 input  175.53 | X-H torsion
[ 8008 7997 7996 7995 ] final   73.59 input   59.86 | X-H torsion
[ 10167 10162 10161 10158 ] final -175.09 input  -65.29 | X-H torsion
[ 10718 10713 10712 10709 ] final  -88.47 input   66.30 | X-H torsion
[ 10763 10752 10751 10750 ] final   12.08 input  -60.55 | X-H torsion
[ 11005 11000 10999 10996 ] final  176.95 input  -57.11 | X-H torsion

> <Gold.Protein.ActiveResidues>
 VAL166  LYS551  ARG553  GLY616  TRP617  ASP618  TYR619  PRO620  LYS621  CYS622 
 ASP623  PHE694  ASN695  SER759  ASP760  ASP761  ALA762  ILE779  LEU786  VAL792 
 PHE793  MET794  SER795  GLU796  ALA797  LYS798  CYS799  TRP800  GLU811  SER814 

> <Gold.Protein.RotatedAtoms>
  152.5117  133.9106  159.7485 H   0  0  0  0  0  0  0  0  0  0  0  0  # atno 6907 bound_to 6896
  150.9501  133.6551  159.2780 H   0  0  0  0  0  0  0  0  0  0  0  0  # atno 6908 bound_to 6896
  151.3832  135.0948  159.9555 H   0  0  0  0  0  0  0  0  0  0  0  0  # atno 6909 bound_to 6896
  145.9621  140.7468  142.9452 H   0  0  0  0  0  0  0  0  0  0  0  0  # atno 7974 bound_to 7965
  155.7859  140.3480  155.5323 H   0  0  0  0  0  0  0  0  0  0  0  0  # atno 8008 bound_to 7997
  155.8682  140.0982  157.1588 H   0  0  0  0  0  0  0  0  0  0  0  0  # atno 8009 bound_to 7997
  154.4016  140.1345  156.4032 H   0  0  0  0  0  0  0  0  0  0  0  0  # atno 8010 bound_to 7997
  139.5599  144.1895  152.1222 H   0  0  0  0  0  0  0  0  0  0  0  0  # atno 10167 bound_to 10162
  155.9983  130.4837  150.5024 H   0  0  0  0  0  0  0  0  0  0  0  0  # atno 10718 bound_to 10713
  153.1859  135.6835  153.8416 H   0  0  0  0  0  0  0  0  0  0  0  0  # atno 10763 bound_to 10752
  153.7732  135.3193  155.3356 H   0  0  0  0  0  0  0  0  0  0  0  0  # atno 10764 bound_to 10752
  154.8088  135.4731  154.0559 H   0  0  0  0  0  0  0  0  0  0  0  0  # atno 10765 bound_to 10752
  140.3787  134.6965  157.4437 H   0  0  0  0  0  0  0  0  0  0  0  0  # atno 11005 bound_to 11000
  144.6817  140.2609  143.7319 LP  0  0  0  0  0  0  0  0  0  0  0  0  # atno 17320 bound_to 7965
  145.8025  139.1970  143.2040 LP  0  0  0  0  0  0  0  0  0  0  0  0  # atno 17321 bound_to 7965
  140.1407  144.5205  150.6746 LP  0  0  0  0  0  0  0  0  0  0  0  0  # atno 17342 bound_to 10162
  140.6878  143.2359  151.5214 LP  0  0  0  0  0  0  0  0  0  0  0  0  # atno 17343 bound_to 10162
  157.3006  131.0644  151.2070 LP  0  0  0  0  0  0  0  0  0  0  0  0  # atno 17370 bound_to 10713
  157.3051  130.6862  149.6185 LP  0  0  0  0  0  0  0  0  0  0  0  0  # atno 17371 bound_to 10713
  140.0495  134.6151  155.8879 LP  0  0  0  0  0  0  0  0  0  0  0  0  # atno 17394 bound_to 11000
  141.1930  133.6577  156.5530 LP  0  0  0  0  0  0  0  0  0  0  0  0  # atno 17395 bound_to 11000

$$$$
