AV-unprocessed.smi:1708|AV-procd|sdf|6889|dock10
  -GOLD-   22720 8 93D 1   1.00000     0.00000
 Structure written by MMmdl.
 36 38  0  0  0  0  0  0  0  0  1 V2000
  153.7221  140.6475  160.2781 C   0  0  0  0  0  0  0  0  0  0  0  0
  152.8945  141.4051  159.3473 N   0  0  0  0  0  0  0  0  0  0  0  0
  152.4694  141.0086  158.1253 C   0  0  0  0  0  0  0  0  0  0  0  0
  152.7116  139.9277  157.5887 O   0  0  0  0  0  0  0  0  0  0  0  0
  151.7131  142.0019  157.6008 N   0  0  0  0  0  0  0  0  0  0  0  0
  151.0235  141.9712  156.3100 C   0  0  0  0  0  0  0  0  0  0  0  0
  150.6438  140.5377  155.8796 C   0  0  2  0  0  0  0  0  0  0  0  0
  151.7605  139.9528  155.2421 O   0  0  0  0  0  0  0  0  0  0  0  0
  149.3933  140.4957  155.0109 C   0  0  0  0  0  0  0  0  0  0  0  0
  148.9958  139.2954  154.3819 C   0  0  0  0  0  0  0  0  0  0  0  0
  147.8566  139.2711  153.5546 C   0  0  0  0  0  0  0  0  0  0  0  0
  147.1085  140.4465  153.3505 C   0  0  0  0  0  0  0  0  0  0  0  0
  147.5002  141.6462  153.9747 C   0  0  0  0  0  0  0  0  0  0  0  0
  146.7843  142.7780  153.7754 F   0  0  0  0  0  0  0  0  0  0  0  0
  148.6384  141.6705  154.8034 C   0  0  0  0  0  0  0  0  0  0  0  0
  151.6459  143.0616  158.5196 C   0  0  0  0  0  0  0  0  0  0  0  0
  150.9816  144.2999  158.4649 C   0  0  0  0  0  0  0  0  0  0  0  0
  151.1048  145.1510  159.5880 C   0  0  0  0  0  0  0  0  0  0  0  0
  151.8699  144.7594  160.7171 C   0  0  0  0  0  0  0  0  0  0  0  0
  152.5274  143.5072  160.7472 C   0  0  0  0  0  0  0  0  0  0  0  0
  152.3877  142.6819  159.6184 C   0  0  0  0  0  0  0  0  0  0  0  0
  154.0821  139.7150  159.8416 H   0  0  0  0  0  0  0  0  0  0  0  0
  153.1513  140.4031  161.1742 H   0  0  0  0  0  0  0  0  0  0  0  0
  154.5908  141.2354  160.5753 H   0  0  0  0  0  0  0  0  0  0  0  0
  150.1304  142.5944  156.3613 H   0  0  0  0  0  0  0  0  0  0  0  0
  151.6617  142.4305  155.5532 H   0  0  0  0  0  0  0  0  0  0  0  0
  150.4566  139.9430  156.7746 H   0  0  0  0  0  0  0  0  0  0  0  0
  152.3792  139.6881  155.9058 H   0  0  0  0  0  0  0  0  0  0  0  0
  149.5702  138.3916  154.5240 H   0  0  0  0  0  0  0  0  0  0  0  0
  147.5587  138.3512  153.0734 H   0  0  0  0  0  0  0  0  0  0  0  0
  146.2361  140.4278  152.7143 H   0  0  0  0  0  0  0  0  0  0  0  0
  148.9371  142.5976  155.2706 H   0  0  0  0  0  0  0  0  0  0  0  0
  150.3954  144.5940  157.6072 H   0  0  0  0  0  0  0  0  0  0  0  0
  150.6084  146.1102  159.5864 H   0  0  0  0  0  0  0  0  0  0  0  0
  151.9497  145.4242  161.5644 H   0  0  0  0  0  0  0  0  0  0  0  0
  153.1090  143.1998  161.6036 H   0  0  0  0  0  0  0  0  0  0  0  0
  1  2  1  0  0  0  0
  1 22  1  0  0  0  0
  1 23  1  0  0  0  0
  1 24  1  0  0  0  0
  2 21  1  0  0  0  0
  2  3  1  0  0  0  0
  3  4  2  0  0  0  0
  3  5  1  0  0  0  0
  5  6  1  0  0  0  0
  5 16  1  0  0  0  0
  6  7  1  0  0  0  0
  6 25  1  0  0  0  0
  6 26  1  0  0  0  0
  7  8  1  0  0  0  0
  7  9  1  0  0  0  0
  7 27  1  0  0  0  0
  8 28  1  0  0  0  0
  9 15  1  0  0  0  0
  9 10  2  0  0  0  0
 10 11  1  0  0  0  0
 10 29  1  0  0  0  0
 11 12  2  0  0  0  0
 11 30  1  0  0  0  0
 12 13  1  0  0  0  0
 12 31  1  0  0  0  0
 13 14  1  0  0  0  0
 13 15  2  0  0  0  0
 15 32  1  0  0  0  0
 16 21  2  0  0  0  0
 16 17  1  0  0  0  0
 17 18  2  0  0  0  0
 17 33  1  0  0  0  0
 18 19  1  0  0  0  0
 18 34  1  0  0  0  0
 19 20  2  0  0  0  0
 19 35  1  0  0  0  0
 20 21  1  0  0  0  0
 20 36  1  0  0  0  0
M  END
> <s_m_source_file>
AV-unprocessed.smi

> <i_m_source_file_index>
1708

> <i_lp_mmshare_version>
43012

> <i_f3d_flags>
0

> <s_epik_input>
W2NIXTFbY0hdW2NIXVtjSF1jKGMxMiluKFtDSDNdKWMoPU8pbjJbQ0gyXVtDQEhdKFtPSF0pYzNbY0hdW2NIXVtjSF1jKEYpW2NIXTM=

> <s_epik_cmdline>
J2VwaWtfcHl0aG9uJywgJy1waCcsICc3LjAnLCAnLXRuJywgJzgnLCAnLW1hJywgJzIwMCcsICctbWV0YWxfYmluZGluZycsICctaW1hZScsICc8aW5maWxlLm1hZT4nLCAnLW9tYWUnLCAnPG91dGZpbGUubWFlPic=

> <r_lp_tautomer_probability>
1

> <r_epik_Ionization_Penalty>
3.53466e-06

> <r_epik_Ionization_Penalty_Charging>
2.57375e-09

> <r_epik_Ionization_Penalty_Neutral>
3.53208e-06

> <r_epik_State_Penalty>
-0

> <r_epik_Charging_Adjusted_Penalty>
2.57375e-09

> <i_epik_Tot_Q>
0

> <i_epik_Tot_abs_Q>
0

> <r_epik_Metal_State_Penalty>
-0

> <b_epik_Metal_Only>
0

> <s_lp_Force_Field>
OPLS_2005

> <r_lp_Energy>
39.7129

> <b_lp_Chiralities_Consistent>
1

> <s_lp_Variant>
AV-unprocessed.smi:1708-1

> <Gold.Version>
5.8.1

> <Gold.Id.Protein>
6NUR|6NUR_protein|mol2

> <Gold.PLP.Fitness>
56.4032

> <Gold.PLP.PLP>
-52.1455

> <Gold.PLP.part.hbond>
-2.0000

> <Gold.PLP.part.metal>
0.0000

> <Gold.PLP.part.buried>
-6.4067

> <Gold.PLP.part.nonpolar>
-43.0996

> <Gold.PLP.part.repulsive>
0.0000

> <Gold.PLP.ligand.clash>
0.0000

> <Gold.PLP.ligand.torsion>
0.8456

> <Gold.PLP.Chemscore.Hbond>
1.9760

> <Gold.PLP.Chemscore.CHOScore>
0.0000

> <Gold.PLP.Chemscore.Metal>
0.0000

> <Gold.Chemscore.Hbonds>
donor molecule, donor type, donor heavy atom, donor atom, acceptor molecule, acceptor atom, score
      P1  H  7989  7998       L1     8  0.96
      P1  H  7997  8010       L1     4  1.00

> <Gold.PLP.Chemscore.Internal.Correction>
0.0210

> <Gold.Rescore>
     Score         DG    S(hbond)    S(metal)    S(lipo)     H(rot)  DE(clash)    DE(int)     intcor
     18.28     -20.82       1.65        0.00     124.48       1.85       0.10       2.44       ----

> <Gold.Chemscore.Fitness>
18.2768

> <Gold.Chemscore.DG>
-20.8220

> <Gold.Chemscore.ZeroCoef>
-5.4800

> <Gold.Chemscore.Hbond>
1.6483

> <Gold.Chemscore.Metal>
0.0000

> <Gold.Chemscore.Lipo>
124.4768

> <Gold.Chemscore.Internal_Hbond>
0.0000

> <Gold.Chemscore.DEClash>
0.1028

> <Gold.Chemscore.DEInternal>
2.4424

> <Gold.Chemscore.Rot>
1.8465

> <Gold.Chemscore.Internal.Correction>
   9.000000E+99

> <Gold.Chemscore.Hbonds>
donor molecule, donor type, donor heavy atom, donor atom, acceptor molecule, acceptor atom, score
      P1  H  7989  7998       L1     8  0.23
      P1  H  7997  8010       L1     4  0.54

> <Gold.Chemscore.Hbond.Weighted>
-5.5053

> <Gold.Chemscore.Metal.Weighted>
-0.0000

> <Gold.Chemscore.Lipo.Weighted>
-14.5638

> <Gold.Chemscore.Internal_Hbond.Weighted>
0.0000

> <Gold.Chemscore.DEClash.Weighted>
0.1028

> <Gold.Chemscore.DEInternal.Weighted>
2.4424

> <Gold.Chemscore.Rot.Weighted>
4.7270

> <Gold.Chemscore.Internal.Correction.Weighted>
   9.000000E+99

> <Gold.Protein.RotatedTorsions>
[ 6907 6896 6895 6894 ] final   89.33 input  -60.11 | X-H torsion
[ 7974 7965 7964 7962 ] final  136.69 input  175.53 | X-H torsion
[ 8008 7997 7996 7995 ] final   46.03 input   59.86 | X-H torsion
[ 10167 10162 10161 10158 ] final -130.44 input  -65.29 | X-H torsion
[ 10718 10713 10712 10709 ] final -104.31 input   66.30 | X-H torsion
[ 10763 10752 10751 10750 ] final  -97.15 input  -60.55 | X-H torsion
[ 11005 11000 10999 10996 ] final  111.36 input  -57.11 | X-H torsion

> <Gold.Protein.ActiveResidues>
 VAL166  LYS551  ARG553  GLY616  TRP617  ASP618  TYR619  PRO620  LYS621  CYS622 
 ASP623  PHE694  ASN695  SER759  ASP760  ASP761  ALA762  ILE779  LEU786  VAL792 
 PHE793  MET794  SER795  GLU796  ALA797  LYS798  CYS799  TRP800  GLU811  SER814 

> <Gold.Protein.RotatedAtoms>
  152.5435  134.1984  159.8701 H   0  0  0  0  0  0  0  0  0  0  0  0  # atno 6907 bound_to 6896
  151.1974  133.4624  159.2603 H   0  0  0  0  0  0  0  0  0  0  0  0  # atno 6908 bound_to 6896
  151.1023  134.9991  159.8510 H   0  0  0  0  0  0  0  0  0  0  0  0  # atno 6909 bound_to 6896
  144.9540  139.4785  143.5512 H   0  0  0  0  0  0  0  0  0  0  0  0  # atno 7974 bound_to 7965
  155.3457  140.3410  155.4239 H   0  0  0  0  0  0  0  0  0  0  0  0  # atno 8008 bound_to 7997
  156.1790  140.1657  156.8345 H   0  0  0  0  0  0  0  0  0  0  0  0  # atno 8009 bound_to 7997
  154.5313  140.0744  156.8333 H   0  0  0  0  0  0  0  0  0  0  0  0  # atno 8010 bound_to 7997
  139.9293  143.6291  152.2534 H   0  0  0  0  0  0  0  0  0  0  0  0  # atno 10167 bound_to 10162
  156.0299  130.5509  150.7378 H   0  0  0  0  0  0  0  0  0  0  0  0  # atno 10718 bound_to 10713
  154.7303  135.5057  153.8953 H   0  0  0  0  0  0  0  0  0  0  0  0  # atno 10763 bound_to 10752
  153.0943  135.6668  153.9801 H   0  0  0  0  0  0  0  0  0  0  0  0  # atno 10764 bound_to 10752
  153.9604  135.3048  155.3413 H   0  0  0  0  0  0  0  0  0  0  0  0  # atno 10765 bound_to 10752
  139.8902  134.9506  156.6421 H   0  0  0  0  0  0  0  0  0  0  0  0  # atno 11005 bound_to 11000
  146.3331  139.8646  142.8850 LP  0  0  0  0  0  0  0  0  0  0  0  0  # atno 17320 bound_to 7965
  145.2800  141.0135  143.3723 LP  0  0  0  0  0  0  0  0  0  0  0  0  # atno 17321 bound_to 7965
  139.6796  144.7656  151.1633 LP  0  0  0  0  0  0  0  0  0  0  0  0  # atno 17342 bound_to 10162
  140.7642  143.5744  150.8961 LP  0  0  0  0  0  0  0  0  0  0  0  0  # atno 17343 bound_to 10162
  157.4954  131.0914  151.0377 LP  0  0  0  0  0  0  0  0  0  0  0  0  # atno 17370 bound_to 10713
  157.0772  130.5888  149.5413 LP  0  0  0  0  0  0  0  0  0  0  0  0  # atno 17371 bound_to 10713
  140.7586  133.8837  155.8400 LP  0  0  0  0  0  0  0  0  0  0  0  0  # atno 17394 bound_to 11000
  140.9941  134.1239  157.4380 LP  0  0  0  0  0  0  0  0  0  0  0  0  # atno 17395 bound_to 11000

$$$$
