AV-unprocessed.smi:767|AV-procd|sdf|3672|dock4
  -GOLD-   22720 1 83D 1   1.00000     0.00000
 Structure written by MMmdl.
 48 50  0  0  0  0  0  0  0  0  2 V2000
  143.5962  132.6510  147.9949 C   0  0  0  0  0  0  0  0  0  0  0  0
  144.2300  132.7904  149.3622 C   0  0  0  0  0  0  0  0  0  0  0  0
  145.5591  132.3924  149.6175 C   0  0  0  0  0  0  0  0  0  0  0  0
  146.0958  132.5732  150.9086 C   0  0  0  0  0  0  0  0  0  0  0  0
  145.2916  133.1426  151.9206 C   0  0  0  0  0  0  0  0  0  0  0  0
  145.8547  133.3951  153.3094 C   0  0  0  0  0  0  0  0  0  0  0  0
  145.6362  134.8341  153.8205 C   0  0  0  0  0  0  0  0  0  0  0  0
  146.8530  135.6424  153.7620 N   0  0  0  0  0  0  0  0  0  0  0  0
  147.4281  136.2532  154.8085 C   0  0  0  0  0  0  0  0  0  0  0  0
  147.0032  136.1927  155.9627 O   0  0  0  0  0  0  0  0  0  0  0  0
  148.5045  136.9625  154.4468 N   0  0  0  0  0  0  0  0  0  0  0  0
  149.2726  137.7952  155.3646 C   0  0  1  0  0  0  0  0  0  0  0  0
  150.6404  138.1861  154.8076 C   0  0  2  0  0  0  0  0  0  0  0  0
  152.0470  137.8774  155.1788 C   0  0  0  0  0  0  0  0  0  0  0  0
  152.6084  139.3226  155.1048 C   0  0  0  0  0  0  0  0  0  0  0  0
  151.4555  140.1916  154.9856 O   0  0  0  0  0  0  0  0  0  0  0  0
  150.4175  139.4593  155.6032 C   0  0  1  0  0  0  0  0  0  0  0  0
  148.9189  139.3279  155.2669 C   0  0  0  0  0  0  0  0  0  0  0  0
  148.4349  139.9197  153.9276 C   0  0  0  0  0  0  0  0  0  0  0  0
  147.9505  139.8372  156.3351 C   0  0  0  0  0  0  0  0  0  0  0  0
  143.9614  133.5006  151.6120 C   0  0  0  0  0  0  0  0  0  0  0  0
  143.4876  133.3197  150.3601 N   0  3  0  0  0  0  0  0  0  0  0  0
  144.3588  132.5653  147.2200 H   0  0  0  0  0  0  0  0  0  0  0  0
  142.9793  133.5206  147.7659 H   0  0  0  0  0  0  0  0  0  0  0  0
  142.9677  131.7611  147.9585 H   0  0  0  0  0  0  0  0  0  0  0  0
  146.1665  131.9670  148.8321 H   0  0  0  0  0  0  0  0  0  0  0  0
  147.1185  132.2904  151.1117 H   0  0  0  0  0  0  0  0  0  0  0  0
  145.3975  132.6881  154.0022 H   0  0  0  0  0  0  0  0  0  0  0  0
  146.9220  133.1694  153.3091 H   0  0  0  0  0  0  0  0  0  0  0  0
  144.8338  135.3141  153.2576 H   0  0  0  0  0  0  0  0  0  0  0  0
  145.2980  134.8038  154.8563 H   0  0  0  0  0  0  0  0  0  0  0  0
  147.2812  135.7535  152.8544 H   0  0  0  0  0  0  0  0  0  0  0  0
  148.7907  136.9541  153.4787 H   0  0  0  0  0  0  0  0  0  0  0  0
  149.3224  137.4082  156.3867 H   0  0  0  0  0  0  0  0  0  0  0  0
  150.5798  138.3350  153.7271 H   0  0  0  0  0  0  0  0  0  0  0  0
  152.1222  137.4606  156.1842 H   0  0  0  0  0  0  0  0  0  0  0  0
  152.5339  137.2019  154.4747 H   0  0  0  0  0  0  0  0  0  0  0  0
  153.1773  139.5648  156.0032 H   0  0  0  0  0  0  0  0  0  0  0  0
  153.2609  139.4630  154.2425 H   0  0  0  0  0  0  0  0  0  0  0  0
  150.6077  139.3505  156.6773 H   0  0  0  0  0  0  0  0  0  0  0  0
  148.3267  141.0028  153.9917 H   0  0  0  0  0  0  0  0  0  0  0  0
  147.4638  139.5156  153.6454 H   0  0  0  0  0  0  0  0  0  0  0  0
  149.1100  139.7310  153.0952 H   0  0  0  0  0  0  0  0  0  0  0  0
  147.9697  140.9248  156.4095 H   0  0  0  0  0  0  0  0  0  0  0  0
  148.1983  139.4426  157.3209 H   0  0  0  0  0  0  0  0  0  0  0  0
  146.9246  139.5376  156.1193 H   0  0  0  0  0  0  0  0  0  0  0  0
  143.2758  133.9483  152.3167 H   0  0  0  0  0  0  0  0  0  0  0  0
  142.5287  133.6026  150.1570 H   0  0  0  0  0  0  0  0  0  0  0  0
  1  2  1  0  0  0  0
  1 23  1  0  0  0  0
  1 24  1  0  0  0  0
  1 25  1  0  0  0  0
  2 22  1  0  0  0  0
  2  3  2  0  0  0  0
  3  4  1  0  0  0  0
  3 26  1  0  0  0  0
  4  5  2  0  0  0  0
  4 27  1  0  0  0  0
  5  6  1  0  0  0  0
  5 21  1  0  0  0  0
  6  7  1  0  0  0  0
  6 28  1  0  0  0  0
  6 29  1  0  0  0  0
  7  8  1  0  0  0  0
  7 30  1  0  0  0  0
  7 31  1  0  0  0  0
  8  9  1  0  0  0  0
  8 32  1  0  0  0  0
  9 10  2  0  0  0  0
  9 11  1  0  0  0  0
 11 12  1  0  0  0  0
 11 33  1  0  0  0  0
 12 18  1  0  0  0  0
 12 13  1  0  0  0  0
 12 34  1  0  0  0  0
 13 17  1  0  0  0  0
 13 14  1  0  0  0  0
 13 35  1  0  0  0  0
 14 15  1  0  0  0  0
 14 36  1  0  0  0  0
 14 37  1  0  0  0  0
 15 16  1  0  0  0  0
 15 38  1  0  0  0  0
 15 39  1  0  0  0  0
 16 17  1  0  0  0  0
 17 18  1  0  0  0  0
 17 40  1  0  0  0  0
 18 19  1  0  0  0  0
 18 20  1  0  0  0  0
 19 41  1  0  0  0  0
 19 42  1  0  0  0  0
 19 43  1  0  0  0  0
 20 44  1  0  0  0  0
 20 45  1  0  0  0  0
 20 46  1  0  0  0  0
 21 22  2  0  0  0  0
 21 47  1  0  0  0  0
 22 48  1  0  0  0  0
M  CHG  1  22   1
M  END
> <s_m_source_file>
AV-unprocessed.smi

> <i_m_source_file_index>
767

> <i_lp_mmshare_version>
43012

> <i_f3d_flags>
0

> <s_epik_input>
W0NIM11jMVtjSF1bY0hdYyhbY0hdbjEpW0NIMl1bQ0gyXVtOSF1DKD1PKVtOSF1bQ0BIXTJDKFtDSDNdKShbQ0gzXSlbQ0BIXShbQ0BASF0yMylPW0NIMl1bQ0gyXTM=

> <s_epik_cmdline>
J2VwaWtfcHl0aG9uJywgJy1waCcsICc3LjAnLCAnLXRuJywgJzgnLCAnLW1hJywgJzIwMCcsICctbWV0YWxfYmluZGluZycsICctaW1hZScsICc8aW5maWxlLm1hZT4nLCAnLW9tYWUnLCAnPG91dGZpbGUubWFlPic=

> <r_epik_Ionization_Penalty>
1.41853

> <r_epik_Ionization_Penalty_Charging>
1.41848

> <r_epik_Ionization_Penalty_Neutral>
5.17407e-05

> <r_epik_State_Penalty>
1.50205

> <r_epik_Charging_Adjusted_Penalty>
2.92053

> <i_epik_Tot_Q>
1

> <i_epik_Tot_abs_Q>
1

> <r_epik_Metal_State_Penalty>
1.5544

> <b_epik_Metal_Only>
0

> <s_lp_Force_Field>
OPLS_2005

> <r_lp_Energy>
61.237

> <b_lp_Chiralities_Consistent>
1

> <s_lp_Variant>
AV-unprocessed.smi:767-16

> <Gold.Version>
5.8.1

> <Gold.Id.Protein>
6NUR|6NUR_protein|mol2

> <Gold.PLP.Fitness>
48.7464

> <Gold.PLP.PLP>
-35.0072

> <Gold.PLP.part.hbond>
-4.0000

> <Gold.PLP.part.metal>
0.0000

> <Gold.PLP.part.buried>
-1.4167

> <Gold.PLP.part.nonpolar>
-29.1010

> <Gold.PLP.part.repulsive>
0.0957

> <Gold.PLP.ligand.clash>
0.0000

> <Gold.PLP.ligand.torsion>
0.6356

> <Gold.PLP.Chemscore.Hbond>
4.9120

> <Gold.PLP.Chemscore.CHOScore>
0.0000

> <Gold.PLP.Chemscore.Metal>
0.0000

> <Gold.Chemscore.Hbonds>
donor molecule, donor type, donor heavy atom, donor atom, acceptor molecule, acceptor atom, score
      L1  H     8    32       P1  7948  0.93
      L1  H    11    33       P1  7948  1.00
      L1  H    22    48       P1 10186  2.00
      P1  H  7989  7998       L1    16  1.00

> <Gold.PLP.Chemscore.Internal.Correction>
0.2744

> <Gold.Rescore>
     Score         DG    S(hbond)    S(metal)    S(lipo)     H(rot)  DE(clash)    DE(int)     intcor
     24.29     -26.42       3.77        0.00     104.54       1.52       1.34       0.78       ----

> <Gold.Chemscore.Fitness>
24.2949

> <Gold.Chemscore.DG>
-26.4171

> <Gold.Chemscore.ZeroCoef>
-5.4800

> <Gold.Chemscore.Hbond>
3.7740

> <Gold.Chemscore.Metal>
0.0000

> <Gold.Chemscore.Lipo>
104.5434

> <Gold.Chemscore.Internal_Hbond>
0.0000

> <Gold.Chemscore.DEClash>
1.3441

> <Gold.Chemscore.DEInternal>
0.7781

> <Gold.Chemscore.Rot>
1.5233

> <Gold.Chemscore.Internal.Correction>
   9.000000E+99

> <Gold.Chemscore.Hbonds>
donor molecule, donor type, donor heavy atom, donor atom, acceptor molecule, acceptor atom, score
      L1  H     8    32       P1  7948  0.87
      L1  H    11    33       P1  7948  0.98
      L1  H    22    48       P1 10186  1.00
      P1  H  7989  7998       L1    16  0.38

> <Gold.Chemscore.Hbond.Weighted>
-12.6050

> <Gold.Chemscore.Metal.Weighted>
-0.0000

> <Gold.Chemscore.Lipo.Weighted>
-12.2316

> <Gold.Chemscore.Internal_Hbond.Weighted>
0.0000

> <Gold.Chemscore.DEClash.Weighted>
1.3441

> <Gold.Chemscore.DEInternal.Weighted>
0.7781

> <Gold.Chemscore.Rot.Weighted>
3.8995

> <Gold.Chemscore.Internal.Correction.Weighted>
   9.000000E+99

> <Gold.Protein.RotatedTorsions>
[ 6907 6896 6895 6894 ] final   46.03 input  -60.11 | X-H torsion
[ 7974 7965 7964 7962 ] final -179.58 input  175.53 | X-H torsion
[ 8008 7997 7996 7995 ] final  -67.72 input   59.86 | X-H torsion
[ 10167 10162 10161 10158 ] final  163.02 input  -65.29 | X-H torsion
[ 10718 10713 10712 10709 ] final   55.92 input   66.30 | X-H torsion
[ 10763 10752 10751 10750 ] final -137.11 input  -60.55 | X-H torsion
[ 11005 11000 10999 10996 ] final  -61.35 input  -57.11 | X-H torsion

> <Gold.Protein.ActiveResidues>
 VAL166  LYS551  ARG553  GLY616  TRP617  ASP618  TYR619  PRO620  LYS621  CYS622 
 ASP623  PHE694  ASN695  SER759  ASP760  ASP761  ALA762  ILE779  LEU786  VAL792 
 PHE793  MET794  SER795  GLU796  ALA797  LYS798  CYS799  TRP800  GLU811  SER814 

> <Gold.Protein.RotatedAtoms>
  152.2515  134.8127  160.0444 H   0  0  0  0  0  0  0  0  0  0  0  0  # atno 6907 bound_to 6896
  151.8806  133.3489  159.3773 H   0  0  0  0  0  0  0  0  0  0  0  0  # atno 6908 bound_to 6896
  150.7085  134.4949  159.5577 H   0  0  0  0  0  0  0  0  0  0  0  0  # atno 6909 bound_to 6896
  144.7137  140.0696  143.6430 H   0  0  0  0  0  0  0  0  0  0  0  0  # atno 7974 bound_to 7965
  154.4819  140.0887  156.7396 H   0  0  0  0  0  0  0  0  0  0  0  0  # atno 8008 bound_to 7997
  155.4450  140.3455  155.4276 H   0  0  0  0  0  0  0  0  0  0  0  0  # atno 8009 bound_to 7997
  156.1203  140.1472  156.9202 H   0  0  0  0  0  0  0  0  0  0  0  0  # atno 8010 bound_to 7997
  139.4868  144.4379  151.8989 H   0  0  0  0  0  0  0  0  0  0  0  0  # atno 10167 bound_to 10162
  157.5386  130.8681  149.8790 H   0  0  0  0  0  0  0  0  0  0  0  0  # atno 10718 bound_to 10713
  154.8669  135.3652  154.5169 H   0  0  0  0  0  0  0  0  0  0  0  0  # atno 10763 bound_to 10752
  153.5801  135.7018  153.5472 H   0  0  0  0  0  0  0  0  0  0  0  0  # atno 10764 bound_to 10752
  153.3464  135.4084  155.1575 H   0  0  0  0  0  0  0  0  0  0  0  0  # atno 10765 bound_to 10752
  141.1321  133.6629  156.5362 H   0  0  0  0  0  0  0  0  0  0  0  0  # atno 11005 bound_to 11000
  145.9795  139.2930  143.1051 LP  0  0  0  0  0  0  0  0  0  0  0  0  # atno 17320 bound_to 7965
  145.9027  140.9232  143.0495 LP  0  0  0  0  0  0  0  0  0  0  0  0  # atno 17321 bound_to 7965
  140.3829  144.2713  150.5907 LP  0  0  0  0  0  0  0  0  0  0  0  0  # atno 17342 bound_to 10162
  140.5216  143.2264  151.8379 LP  0  0  0  0  0  0  0  0  0  0  0  0  # atno 17343 bound_to 10162
  156.0479  130.3724  150.1273 LP  0  0  0  0  0  0  0  0  0  0  0  0  # atno 17370 bound_to 10713
  156.9454  130.9758  151.3508 LP  0  0  0  0  0  0  0  0  0  0  0  0  # atno 17371 bound_to 10713
  140.4176  134.7216  157.4872 LP  0  0  0  0  0  0  0  0  0  0  0  0  # atno 17394 bound_to 11000
  140.0383  134.6305  155.9015 LP  0  0  0  0  0  0  0  0  0  0  0  0  # atno 17395 bound_to 11000

$$$$
