AV-unprocessed.smi:668|AV-procd|sdf|3259|dock5
  -GOLD-   22720 0213D 1   1.00000     0.00000
 Structure written by MMmdl.
 38 39  0  0  0  0  0  0  0  0  1 V2000
  152.6478  131.0357  158.0890 C   0  0  0  0  0  0  0  0  0  0  0  0
  152.6046  132.4152  157.7413 O   0  0  0  0  0  0  0  0  0  0  0  0
  151.7142  132.8178  156.7671 C   0  0  0  0  0  0  0  0  0  0  0  0
  151.6206  134.1910  156.4655 C   0  0  0  0  0  0  0  0  0  0  0  0
  150.7212  134.6096  155.4667 C   0  0  0  0  0  0  0  0  0  0  0  0
  149.9451  133.6360  154.7942 C   0  0  0  0  0  0  0  0  0  0  0  0
  148.9968  133.9354  153.7798 N   0  0  0  0  0  0  0  0  0  0  0  0
  147.7894  133.3796  153.5828 C   0  0  0  0  0  0  0  0  0  0  0  0
  147.2971  132.4852  154.2704 O   0  0  0  0  0  0  0  0  0  0  0  0
  147.1620  133.9404  152.5397 N   0  0  0  0  0  0  0  0  0  0  0  0
  145.8188  133.5907  152.0840 C   0  0  2  0  0  0  0  0  0  0  0  0
  145.5617  132.0765  152.1345 C   0  0  0  0  0  0  0  0  0  0  0  0
  144.6113  131.8058  150.9727 C   0  0  0  0  0  0  0  0  0  0  0  0
  145.0846  132.7604  149.8787 C   0  0  0  0  0  0  0  0  0  0  0  0
  145.6012  134.0174  150.6082 C   0  0  1  0  0  0  0  0  0  0  0  0
  144.6330  135.2054  150.4857 C   0  0  0  0  0  0  0  0  0  0  0  0
  144.3913  135.6704  149.2573 N   0  0  0  0  0  0  0  0  0  0  0  0
  144.1069  135.6941  151.4838 O   0  0  0  0  0  0  0  0  0  0  0  0
  150.0981  132.2899  155.1847 C   0  0  0  0  0  0  0  0  0  0  0  0
  150.9609  131.8815  156.1388 N   0  0  0  0  0  0  0  0  0  0  0  0
  153.4001  130.8822  158.8625 H   0  0  0  0  0  0  0  0  0  0  0  0
  152.9240  130.4185  157.2328 H   0  0  0  0  0  0  0  0  0  0  0  0
  151.6912  130.6915  158.4852 H   0  0  0  0  0  0  0  0  0  0  0  0
  152.2278  134.9121  156.9927 H   0  0  0  0  0  0  0  0  0  0  0  0
  150.6362  135.6625  155.2465 H   0  0  0  0  0  0  0  0  0  0  0  0
  149.2304  134.7164  153.1845 H   0  0  0  0  0  0  0  0  0  0  0  0
  147.6401  134.6694  152.0313 H   0  0  0  0  0  0  0  0  0  0  0  0
  145.0881  134.0824  152.7306 H   0  0  0  0  0  0  0  0  0  0  0  0
  146.4904  131.5273  151.9708 H   0  0  0  0  0  0  0  0  0  0  0  0
  145.1530  131.7547  153.0929 H   0  0  0  0  0  0  0  0  0  0  0  0
  144.6210  130.7629  150.6548 H   0  0  0  0  0  0  0  0  0  0  0  0
  143.5910  132.0570  151.2659 H   0  0  0  0  0  0  0  0  0  0  0  0
  145.9057  132.3010  149.3265 H   0  0  0  0  0  0  0  0  0  0  0  0
  144.2941  132.9676  149.1555 H   0  0  0  0  0  0  0  0  0  0  0  0
  146.5508  134.3007  150.1493 H   0  0  0  0  0  0  0  0  0  0  0  0
  143.7635  136.4501  149.1259 H   0  0  0  0  0  0  0  0  0  0  0  0
  144.8405  135.2387  148.4626 H   0  0  0  0  0  0  0  0  0  0  0  0
  149.5166  131.5123  154.7110 H   0  0  0  0  0  0  0  0  0  0  0  0
  1  2  1  0  0  0  0
  1 21  1  0  0  0  0
  1 22  1  0  0  0  0
  1 23  1  0  0  0  0
  2  3  1  0  0  0  0
  3 20  1  0  0  0  0
  3  4  2  0  0  0  0
  4  5  1  0  0  0  0
  4 24  1  0  0  0  0
  5  6  2  0  0  0  0
  5 25  1  0  0  0  0
  6  7  1  0  0  0  0
  6 19  1  0  0  0  0
  7  8  1  0  0  0  0
  7 26  1  0  0  0  0
  8  9  2  0  0  0  0
  8 10  1  0  0  0  0
 10 11  1  0  0  0  0
 10 27  1  0  0  0  0
 11 15  1  0  0  0  0
 11 12  1  0  0  0  0
 11 28  1  0  0  0  0
 12 13  1  0  0  0  0
 12 29  1  0  0  0  0
 12 30  1  0  0  0  0
 13 14  1  0  0  0  0
 13 31  1  0  0  0  0
 13 32  1  0  0  0  0
 14 15  1  0  0  0  0
 14 33  1  0  0  0  0
 14 34  1  0  0  0  0
 15 16  1  0  0  0  0
 15 35  1  0  0  0  0
 16 17  1  0  0  0  0
 16 18  2  0  0  0  0
 17 36  1  0  0  0  0
 17 37  1  0  0  0  0
 19 20  2  0  0  0  0
 19 38  1  0  0  0  0
M  END
> <s_m_source_file>
AV-unprocessed.smi

> <i_m_source_file_index>
668

> <i_lp_mmshare_version>
43012

> <i_f3d_flags>
0

> <s_epik_input>
W0NIM11PYzFbY0hdW2NIXWMoW2NIXW4xKVtOSF1DKD1PKVtOSF1bQ0BASF0yW0NIMl1bQ0gyXVtDSDJdW0NASF0yQyg9TylbTkgyXQ==

> <s_epik_cmdline>
J2VwaWtfcHl0aG9uJywgJy1waCcsICc3LjAnLCAnLXRuJywgJzgnLCAnLW1hJywgJzIwMCcsICctbWV0YWxfYmluZGluZycsICctaW1hZScsICc8aW5maWxlLm1hZT4nLCAnLW9tYWUnLCAnPG91dGZpbGUubWFlPic=

> <r_lp_tautomer_probability>
1

> <r_epik_Ionization_Penalty>
9.0916e-05

> <r_epik_Ionization_Penalty_Charging>
0

> <r_epik_Ionization_Penalty_Neutral>
9.0916e-05

> <r_epik_State_Penalty>
-0

> <r_epik_Charging_Adjusted_Penalty>
0

> <i_epik_Tot_Q>
0

> <i_epik_Tot_abs_Q>
0

> <r_epik_Metal_State_Penalty>
-0

> <b_epik_Metal_Only>
0

> <s_lp_Force_Field>
OPLS_2005

> <r_lp_Energy>
16.4016

> <b_lp_Chiralities_Consistent>
1

> <s_lp_Variant>
AV-unprocessed.smi:668-1

> <Gold.Version>
5.8.1

> <Gold.Id.Protein>
6NUR|6NUR_protein|mol2

> <Gold.PLP.Fitness>
39.4225

> <Gold.PLP.PLP>
-30.7925

> <Gold.PLP.part.hbond>
-4.9392

> <Gold.PLP.part.metal>
0.0000

> <Gold.PLP.part.buried>
-2.9463

> <Gold.PLP.part.nonpolar>
-22.0326

> <Gold.PLP.part.repulsive>
0.3970

> <Gold.PLP.ligand.clash>
0.0000

> <Gold.PLP.ligand.torsion>
0.5939

> <Gold.PLP.Chemscore.Hbond>
3.2712

> <Gold.PLP.Chemscore.CHOScore>
0.0000

> <Gold.PLP.Chemscore.Metal>
0.0000

> <Gold.Chemscore.Hbonds>
donor molecule, donor type, donor heavy atom, donor atom, acceptor molecule, acceptor atom, score
      L1  H     7    26       P1  7948  0.50
      L1  H    10    27       P1  7948  1.00
      L1  H    17    36       P1 10171  0.38
      L1  H    17    37       P1  7921  1.00
      P1  H  6896  6907       L1     2  0.26

> <Gold.PLP.Chemscore.Internal.Correction>
0.0042

> <Gold.Rescore>
     Score         DG    S(hbond)    S(metal)    S(lipo)     H(rot)  DE(clash)    DE(int)     intcor
     12.79     -16.13       2.59        0.00      58.05       1.86       0.13       3.21       ----

> <Gold.Chemscore.Fitness>
12.7928

> <Gold.Chemscore.DG>
-16.1329

> <Gold.Chemscore.ZeroCoef>
-5.4800

> <Gold.Chemscore.Hbond>
2.5852

> <Gold.Chemscore.Metal>
0.0000

> <Gold.Chemscore.Lipo>
58.0542

> <Gold.Chemscore.Internal_Hbond>
0.0000

> <Gold.Chemscore.DEClash>
0.1276

> <Gold.Chemscore.DEInternal>
3.2124

> <Gold.Chemscore.Rot>
1.8648

> <Gold.Chemscore.Internal.Correction>
   9.000000E+99

> <Gold.Chemscore.Hbonds>
donor molecule, donor type, donor heavy atom, donor atom, acceptor molecule, acceptor atom, score
      L1  H     7    26       P1  7948  0.02
      L1  H    10    27       P1  7948  0.57
      L1  H    17    36       P1 10171  0.29
      L1  H    17    37       P1  7921  0.95
      P1  H  6896  6907       L1     2  0.15

> <Gold.Chemscore.Hbond.Weighted>
-8.6345

> <Gold.Chemscore.Metal.Weighted>
-0.0000

> <Gold.Chemscore.Lipo.Weighted>
-6.7923

> <Gold.Chemscore.Internal_Hbond.Weighted>
0.0000

> <Gold.Chemscore.DEClash.Weighted>
0.1276

> <Gold.Chemscore.DEInternal.Weighted>
3.2124

> <Gold.Chemscore.Rot.Weighted>
4.7739

> <Gold.Chemscore.Internal.Correction.Weighted>
   9.000000E+99

> <Gold.Protein.RotatedTorsions>
[ 6907 6896 6895 6894 ] final  124.84 input  -60.11 | X-H torsion
[ 7974 7965 7964 7962 ] final   61.84 input  175.53 | X-H torsion
[ 8008 7997 7996 7995 ] final   38.42 input   59.86 | X-H torsion
[ 10167 10162 10161 10158 ] final   27.49 input  -65.29 | X-H torsion
[ 10718 10713 10712 10709 ] final  179.18 input   66.30 | X-H torsion
[ 10763 10752 10751 10750 ] final   81.81 input  -60.55 | X-H torsion
[ 11005 11000 10999 10996 ] final -117.11 input  -57.11 | X-H torsion

> <Gold.Protein.ActiveResidues>
 VAL166  LYS551  ARG553  GLY616  TRP617  ASP618  TYR619  PRO620  LYS621  CYS622 
 ASP623  PHE694  ASN695  SER759  ASP760  ASP761  ALA762  ILE779  LEU786  VAL792 
 PHE793  MET794  SER795  GLU796  ALA797  LYS798  CYS799  TRP800  GLU811  SER814 

> <Gold.Protein.RotatedAtoms>
  152.4044  133.6866  159.6343 H   0  0  0  0  0  0  0  0  0  0  0  0  # atno 6907 bound_to 6896
  150.7931  133.8735  159.3274 H   0  0  0  0  0  0  0  0  0  0  0  0  # atno 6908 bound_to 6896
  151.6493  135.1005  160.0209 H   0  0  0  0  0  0  0  0  0  0  0  0  # atno 6909 bound_to 6896
  145.8802  139.3438  143.0710 H   0  0  0  0  0  0  0  0  0  0  0  0  # atno 7974 bound_to 7965
  155.2199  140.3330  155.4317 H   0  0  0  0  0  0  0  0  0  0  0  0  # atno 8008 bound_to 7997
  156.2337  140.1862  156.7223 H   0  0  0  0  0  0  0  0  0  0  0  0  # atno 8009 bound_to 7997
  154.6022  140.0621  156.9369 H   0  0  0  0  0  0  0  0  0  0  0  0  # atno 8010 bound_to 7997
  140.4934  144.0431  150.6305 H   0  0  0  0  0  0  0  0  0  0  0  0  # atno 10167 bound_to 10162
  156.8796  130.9811  151.3063 H   0  0  0  0  0  0  0  0  0  0  0  0  # atno 10718 bound_to 10713
  153.1148  135.4752  154.9097 H   0  0  0  0  0  0  0  0  0  0  0  0  # atno 10763 bound_to 10752
  154.7517  135.3108  154.8547 H   0  0  0  0  0  0  0  0  0  0  0  0  # atno 10764 bound_to 10752
  153.9126  135.6863  153.4804 H   0  0  0  0  0  0  0  0  0  0  0  0  # atno 10765 bound_to 10752
  141.0377  133.9884  157.3044 H   0  0  0  0  0  0  0  0  0  0  0  0  # atno 11005 bound_to 11000
  145.9032  140.9229  143.0492 LP  0  0  0  0  0  0  0  0  0  0  0  0  # atno 17320 bound_to 7965
  144.6727  140.1061  143.7458 LP  0  0  0  0  0  0  0  0  0  0  0  0  # atno 17321 bound_to 7965
  140.3707  143.2856  152.0282 LP  0  0  0  0  0  0  0  0  0  0  0  0  # atno 17342 bound_to 10162
  139.4856  144.6232  151.7214 LP  0  0  0  0  0  0  0  0  0  0  0  0  # atno 17343 bound_to 10162
  157.6148  130.8610  149.9011 LP  0  0  0  0  0  0  0  0  0  0  0  0  # atno 17370 bound_to 10713
  156.0684  130.3689  150.0828 LP  0  0  0  0  0  0  0  0  0  0  0  0  # atno 17371 bound_to 10713
  139.9253  135.0201  156.8210 LP  0  0  0  0  0  0  0  0  0  0  0  0  # atno 17394 bound_to 11000
  140.6292  133.9922  155.7654 LP  0  0  0  0  0  0  0  0  0  0  0  0  # atno 17395 bound_to 11000

$$$$
