AV-unprocessed.smi:768|AV-procd|sdf|3673|dock5
  -GOLD-   22720 1 83D 1   1.00000     0.00000
 Structure written by MMmdl.
 48 49  0  0  0  0  0  0  0  0  1 V2000
  151.0246  130.8285  156.0890 C   0  0  0  0  0  0  0  0  0  0  0  0
  150.4052  131.9258  155.2415 C   0  0  0  0  0  0  0  0  0  0  0  0
  149.9032  131.6692  154.0140 C   0  0  0  0  0  0  0  0  0  0  0  0
  149.3116  132.7157  153.2163 C   0  0  0  0  0  0  0  0  0  0  0  0
  149.2738  133.9553  153.7251 C   0  0  0  0  0  0  0  0  0  0  0  0
  149.7913  134.2501  155.0000 N   0  0  0  0  0  0  0  0  0  0  0  0
  149.6869  135.6493  155.4556 C   0  0  0  0  0  0  0  0  0  0  0  0
  151.0134  136.4295  155.4591 C   0  0  0  0  0  0  0  0  0  0  0  0
  151.9498  136.0105  156.1379 O   0  0  0  0  0  0  0  0  0  0  0  0
  151.0858  137.5537  154.7267 N   0  0  0  0  0  0  0  0  0  0  0  0
  152.2096  138.4827  154.6883 C   0  0  0  0  0  0  0  0  0  0  0  0
  151.9014  139.7419  155.5145 C   0  0  0  0  0  0  0  0  0  0  0  0
  151.3186  139.4355  156.9023 C   0  0  0  0  0  0  0  0  0  0  0  0
  150.6447  140.5891  157.3823 O   0  0  0  0  0  0  0  0  0  0  0  0
  151.5061  141.6271  157.8334 C   0  0  0  0  0  0  0  0  0  0  0  0
  152.0060  141.3465  159.2669 C   0  0  0  0  0  0  0  0  0  0  0  0
  152.8241  142.5248  159.8190 C   0  0  0  0  0  0  0  0  0  0  0  0
  152.0256  143.8364  159.7614 C   0  0  0  0  0  0  0  0  0  0  0  0
  151.5269  144.1198  158.3357 C   0  0  0  0  0  0  0  0  0  0  0  0
  150.7051  142.9405  157.7906 C   0  0  0  0  0  0  0  0  0  0  0  0
  150.3589  133.2913  155.7970 C   0  0  0  0  0  0  0  0  0  0  0  0
  150.7978  133.5629  156.9160 O   0  0  0  0  0  0  0  0  0  0  0  0
  151.0433  129.8769  155.5569 H   0  0  0  0  0  0  0  0  0  0  0  0
  150.4530  130.6884  157.0061 H   0  0  0  0  0  0  0  0  0  0  0  0
  152.0503  131.0835  156.3576 H   0  0  0  0  0  0  0  0  0  0  0  0
  149.9398  130.6655  153.6165 H   0  0  0  0  0  0  0  0  0  0  0  0
  148.9073  132.5050  152.2372 H   0  0  0  0  0  0  0  0  0  0  0  0
  148.8432  134.7933  153.1962 H   0  0  0  0  0  0  0  0  0  0  0  0
  148.9673  136.1905  154.8384 H   0  0  0  0  0  0  0  0  0  0  0  0
  149.2739  135.6887  156.4644 H   0  0  0  0  0  0  0  0  0  0  0  0
  150.2705  137.8140  154.1908 H   0  0  0  0  0  0  0  0  0  0  0  0
  153.1278  138.0211  155.0549 H   0  0  0  0  0  0  0  0  0  0  0  0
  152.3917  138.7577  153.6494 H   0  0  0  0  0  0  0  0  0  0  0  0
  152.8157  140.3249  155.6308 H   0  0  0  0  0  0  0  0  0  0  0  0
  151.2053  140.3749  154.9629 H   0  0  0  0  0  0  0  0  0  0  0  0
  150.6300  138.5938  156.8394 H   0  0  0  0  0  0  0  0  0  0  0  0
  152.1176  139.1551  157.5901 H   0  0  0  0  0  0  0  0  0  0  0  0
  152.3577  141.7233  157.1569 H   0  0  0  0  0  0  0  0  0  0  0  0
  151.1529  141.1589  159.9203 H   0  0  0  0  0  0  0  0  0  0  0  0
  152.6205  140.4476  159.2943 H   0  0  0  0  0  0  0  0  0  0  0  0
  153.1253  142.3175  160.8463 H   0  0  0  0  0  0  0  0  0  0  0  0
  153.7439  142.6311  159.2425 H   0  0  0  0  0  0  0  0  0  0  0  0
  151.1744  143.7763  160.4411 H   0  0  0  0  0  0  0  0  0  0  0  0
  152.6431  144.6638  160.1117 H   0  0  0  0  0  0  0  0  0  0  0  0
  150.9241  145.0284  158.3263 H   0  0  0  0  0  0  0  0  0  0  0  0
  152.3785  144.3066  157.6800 H   0  0  0  0  0  0  0  0  0  0  0  0
  150.3915  143.1508  156.7677 H   0  0  0  0  0  0  0  0  0  0  0  0
  149.7918  142.8330  158.3773 H   0  0  0  0  0  0  0  0  0  0  0  0
  1  2  1  0  0  0  0
  1 23  1  0  0  0  0
  1 24  1  0  0  0  0
  1 25  1  0  0  0  0
  2 21  1  0  0  0  0
  2  3  2  0  0  0  0
  3  4  1  0  0  0  0
  3 26  1  0  0  0  0
  4  5  2  0  0  0  0
  4 27  1  0  0  0  0
  5  6  1  0  0  0  0
  5 28  1  0  0  0  0
  6  7  1  0  0  0  0
  6 21  1  0  0  0  0
  7  8  1  0  0  0  0
  7 29  1  0  0  0  0
  7 30  1  0  0  0  0
  8  9  2  0  0  0  0
  8 10  1  0  0  0  0
 10 11  1  0  0  0  0
 10 31  1  0  0  0  0
 11 12  1  0  0  0  0
 11 32  1  0  0  0  0
 11 33  1  0  0  0  0
 12 13  1  0  0  0  0
 12 34  1  0  0  0  0
 12 35  1  0  0  0  0
 13 14  1  0  0  0  0
 13 36  1  0  0  0  0
 13 37  1  0  0  0  0
 14 15  1  0  0  0  0
 15 20  1  0  0  0  0
 15 16  1  0  0  0  0
 15 38  1  0  0  0  0
 16 17  1  0  0  0  0
 16 39  1  0  0  0  0
 16 40  1  0  0  0  0
 17 18  1  0  0  0  0
 17 41  1  0  0  0  0
 17 42  1  0  0  0  0
 18 19  1  0  0  0  0
 18 43  1  0  0  0  0
 18 44  1  0  0  0  0
 19 20  1  0  0  0  0
 19 45  1  0  0  0  0
 19 46  1  0  0  0  0
 20 47  1  0  0  0  0
 20 48  1  0  0  0  0
 21 22  2  0  0  0  0
M  END
> <s_m_source_file>
AV-unprocessed.smi

> <i_m_source_file_index>
768

> <i_lp_mmshare_version>
43012

> <i_f3d_flags>
0

> <s_epik_input>
W0NIM11jMVtjSF1bY0hdW2NIXW4oYzE9TylbQ0gyXUMoPU8pW05IXVtDSDJdW0NIMl1bQ0gyXU9bQ0hdMltDSDJdW0NIMl1bQ0gyXVtDSDJdW0NIMl0y

> <s_epik_cmdline>
J2VwaWtfcHl0aG9uJywgJy1waCcsICc3LjAnLCAnLXRuJywgJzgnLCAnLW1hJywgJzIwMCcsICctbWV0YWxfYmluZGluZycsICctaW1hZScsICc8aW5maWxlLm1hZT4nLCAnLW9tYWUnLCAnPG91dGZpbGUubWFlPic=

> <r_lp_tautomer_probability>
1

> <r_epik_Ionization_Penalty>
7.81262e-07

> <r_epik_Ionization_Penalty_Charging>
7.6198e-07

> <r_epik_Ionization_Penalty_Neutral>
1.92812e-08

> <r_epik_State_Penalty>
-0

> <r_epik_Charging_Adjusted_Penalty>
7.6198e-07

> <i_epik_Tot_Q>
0

> <i_epik_Tot_abs_Q>
0

> <r_epik_Metal_State_Penalty>
-0

> <b_epik_Metal_Only>
0

> <s_lp_Force_Field>
OPLS_2005

> <r_lp_Energy>
20.2971

> <b_lp_Chiralities_Consistent>
1

> <s_lp_Variant>
AV-unprocessed.smi:768-1

> <Gold.Version>
5.8.1

> <Gold.Id.Protein>
6NUR|6NUR_protein|mol2

> <Gold.PLP.Fitness>
53.6950

> <Gold.PLP.PLP>
-46.7831

> <Gold.PLP.part.hbond>
-2.0000

> <Gold.PLP.part.metal>
0.0000

> <Gold.PLP.part.buried>
-4.3016

> <Gold.PLP.part.nonpolar>
-40.2151

> <Gold.PLP.part.repulsive>
0.1025

> <Gold.PLP.ligand.clash>
0.0000

> <Gold.PLP.ligand.torsion>
0.6740

> <Gold.PLP.Chemscore.Hbond>
1.7200

> <Gold.PLP.Chemscore.CHOScore>
1.0000

> <Gold.PLP.Chemscore.Metal>
0.0000

> <Gold.Chemscore.Hbonds>
donor molecule, donor type, donor heavy atom, donor atom, acceptor molecule, acceptor atom, score
      P1  H  6896  6909       L1    22  0.26
      P1  H 10752 10763       L1     9  1.00
      L1  C     5    28       P1  7948  0.70

> <Gold.PLP.Chemscore.Internal.Correction>
0.0999

> <Gold.Rescore>
     Score         DG    S(hbond)    S(metal)    S(lipo)     H(rot)  DE(clash)    DE(int)     intcor
     19.15     -19.97       1.88        0.00     113.25       1.97       0.02       0.80       ----

> <Gold.Chemscore.Fitness>
19.1525

> <Gold.Chemscore.DG>
-19.9725

> <Gold.Chemscore.ZeroCoef>
-5.4800

> <Gold.Chemscore.Hbond>
1.8797

> <Gold.Chemscore.Metal>
0.0000

> <Gold.Chemscore.Lipo>
113.2484

> <Gold.Chemscore.Internal_Hbond>
0.0000

> <Gold.Chemscore.DEClash>
0.0222

> <Gold.Chemscore.DEInternal>
0.7979

> <Gold.Chemscore.Rot>
1.9671

> <Gold.Chemscore.Internal.Correction>
   9.000000E+99

> <Gold.Chemscore.Hbonds>
donor molecule, donor type, donor heavy atom, donor atom, acceptor molecule, acceptor atom, score
      P1  H  6896  6909       L1    22  0.25
      P1  H 10752 10763       L1     9  0.60

> <Gold.Chemscore.Hbond.Weighted>
-6.2783

> <Gold.Chemscore.Metal.Weighted>
-0.0000

> <Gold.Chemscore.Lipo.Weighted>
-13.2501

> <Gold.Chemscore.Internal_Hbond.Weighted>
0.0000

> <Gold.Chemscore.DEClash.Weighted>
0.0222

> <Gold.Chemscore.DEInternal.Weighted>
0.7979

> <Gold.Chemscore.Rot.Weighted>
5.0359

> <Gold.Chemscore.Internal.Correction.Weighted>
   9.000000E+99

> <Gold.Protein.RotatedTorsions>
[ 6907 6896 6895 6894 ] final  -19.14 input  -60.11 | X-H torsion
[ 7974 7965 7964 7962 ] final  149.28 input  175.53 | X-H torsion
[ 8008 7997 7996 7995 ] final  -52.51 input   59.86 | X-H torsion
[ 10167 10162 10161 10158 ] final    0.54 input  -65.29 | X-H torsion
[ 10718 10713 10712 10709 ] final  -77.96 input   66.30 | X-H torsion
[ 10763 10752 10751 10750 ] final   89.03 input  -60.55 | X-H torsion
[ 11005 11000 10999 10996 ] final  -74.46 input  -57.11 | X-H torsion

> <Gold.Protein.ActiveResidues>
 VAL166  LYS551  ARG553  GLY616  TRP617  ASP618  TYR619  PRO620  LYS621  CYS622 
 ASP623  PHE694  ASN695  SER759  ASP760  ASP761  ALA762  ILE779  LEU786  VAL792 
 PHE793  MET794  SER795  GLU796  ALA797  LYS798  CYS799  TRP800  GLU811  SER814 

> <Gold.Protein.RotatedAtoms>
  151.2676  135.0674  159.9121 H   0  0  0  0  0  0  0  0  0  0  0  0  # atno 6907 bound_to 6896
  152.5356  134.0165  159.7972 H   0  0  0  0  0  0  0  0  0  0  0  0  # atno 6908 bound_to 6896
  151.0398  133.5666  159.2683 H   0  0  0  0  0  0  0  0  0  0  0  0  # atno 6909 bound_to 6896
  144.8450  139.6261  143.5999 H   0  0  0  0  0  0  0  0  0  0  0  0  # atno 7974 bound_to 7965
  154.4108  140.1222  156.5003 H   0  0  0  0  0  0  0  0  0  0  0  0  # atno 8008 bound_to 7997
  155.6901  140.3495  155.4870 H   0  0  0  0  0  0  0  0  0  0  0  0  # atno 8009 bound_to 7997
  155.9476  140.1099  157.0993 H   0  0  0  0  0  0  0  0  0  0  0  0  # atno 8010 bound_to 7997
  140.6724  143.7012  150.7950 H   0  0  0  0  0  0  0  0  0  0  0  0  # atno 10167 bound_to 10162
  156.0130  130.4505  150.3424 H   0  0  0  0  0  0  0  0  0  0  0  0  # atno 10718 bound_to 10713
  153.1829  135.4485  155.0051 H   0  0  0  0  0  0  0  0  0  0  0  0  # atno 10763 bound_to 10752
  154.8041  135.3267  154.7477 H   0  0  0  0  0  0  0  0  0  0  0  0  # atno 10764 bound_to 10752
  153.7940  135.6968  153.4922 H   0  0  0  0  0  0  0  0  0  0  0  0  # atno 10765 bound_to 10752
  141.1635  133.6912  156.7368 H   0  0  0  0  0  0  0  0  0  0  0  0  # atno 11005 bound_to 11000
  146.2736  139.6696  142.9279 LP  0  0  0  0  0  0  0  0  0  0  0  0  # atno 17320 bound_to 7965
  145.4617  141.0433  143.2748 LP  0  0  0  0  0  0  0  0  0  0  0  0  # atno 17321 bound_to 7965
  140.0699  143.5071  152.2585 LP  0  0  0  0  0  0  0  0  0  0  0  0  # atno 17342 bound_to 10162
  139.5998  144.7579  151.3198 LP  0  0  0  0  0  0  0  0  0  0  0  0  # atno 17343 bound_to 10162
  157.1519  131.0323  151.2881 LP  0  0  0  0  0  0  0  0  0  0  0  0  # atno 17370 bound_to 10713
  157.4384  130.7530  149.7049 LP  0  0  0  0  0  0  0  0  0  0  0  0  # atno 17371 bound_to 10713
  140.2704  134.8396  157.3842 LP  0  0  0  0  0  0  0  0  0  0  0  0  # atno 17394 bound_to 11000
  140.1527  134.4829  155.7950 LP  0  0  0  0  0  0  0  0  0  0  0  0  # atno 17395 bound_to 11000

$$$$
