AV-unprocessed.smi:283|AV-procd|sdf|2133|dock3
  -GOLD-   2262021453D 1   1.00000     0.00000
 Structure written by MMmdl.
 48 51  0  0  0  0  0  0  0  0  1 V2000
  148.4755  142.6792  158.1473 C   0  0  0  0  0  0  0  0  0  0  0  0
  149.5433  141.9979  157.2809 C   0  0  2  0  0  0  0  0  0  0  0  0
  149.0203  140.7430  156.7429 N   0  0  0  0  0  0  0  0  0  0  0  0
  148.3185  140.7181  155.5875 C   0  0  0  0  0  0  0  0  0  0  0  0
  148.1957  141.8286  154.8144 N   0  0  0  0  0  0  0  0  0  0  0  0
  147.4925  141.7770  153.6796 C   0  0  0  0  0  0  0  0  0  0  0  0
  146.8434  140.7397  153.1482 N   0  0  0  0  0  0  0  0  0  0  0  0
  146.9583  139.6216  153.9217 C   0  0  0  0  0  0  0  0  0  0  0  0
  147.6760  139.5321  155.1474 C   0  0  0  0  0  0  0  0  0  0  0  0
  147.5808  138.2440  155.6569 N   0  0  0  0  0  0  0  0  0  0  0  0
  146.8467  137.6125  154.7809 C   0  0  0  0  0  0  0  0  0  0  0  0
  146.4257  138.3650  153.7070 N   0  0  0  0  0  0  0  0  0  0  0  0
  145.5669  137.9142  152.5686 C   0  0  2  0  0  0  0  0  0  0  0  0
  144.5119  137.1559  153.0776 O   0  0  0  0  0  0  0  0  0  0  0  0
  144.3121  136.0338  152.2335 C   0  0  2  0  0  0  0  0  0  0  0  0
  143.4140  134.9471  152.8623 C   0  0  0  0  0  0  0  0  0  0  0  0
  144.0521  134.1979  153.8749 O   0  0  0  0  0  0  0  0  0  0  0  0
  145.7008  135.6720  151.6843 C   0  0  2  0  0  0  0  0  0  0  0  0
  146.4426  134.8309  152.5447 O   0  0  0  0  0  0  0  0  0  0  0  0
  146.3774  137.0371  151.5902 C   0  0  1  0  0  0  0  0  0  0  0  0
  146.2772  137.5283  150.2679 O   0  0  0  0  0  0  0  0  0  0  0  0
  150.8529  141.8552  158.0601 C   0  0  0  0  0  0  0  0  0  0  0  0
  151.5015  143.0070  158.5633 C   0  0  0  0  0  0  0  0  0  0  0  0
  152.7093  142.8966  159.2775 C   0  0  0  0  0  0  0  0  0  0  0  0
  153.2868  141.6322  159.4903 C   0  0  0  0  0  0  0  0  0  0  0  0
  152.6561  140.4804  158.9851 C   0  0  0  0  0  0  0  0  0  0  0  0
  151.4458  140.5847  158.2706 C   0  0  0  0  0  0  0  0  0  0  0  0
  150.7225  139.1368  157.6624 Cl  0  0  0  0  0  0  0  0  0  0  0  0
  145.1934  138.8378  152.1236 H   0  0  0  0  0  0  0  0  0  0  0  0
  143.7462  136.4297  151.3879 H   0  0  0  0  0  0  0  0  0  0  0  0
  145.6262  135.1696  150.7188 H   0  0  0  0  0  0  0  0  0  0  0  0
  147.4325  137.0035  151.8690 H   0  0  0  0  0  0  0  0  0  0  0  0
  148.8149  143.6570  158.4904 H   0  0  0  0  0  0  0  0  0  0  0  0
  148.2375  142.0818  159.0281 H   0  0  0  0  0  0  0  0  0  0  0  0
  147.5522  142.8311  157.5874 H   0  0  0  0  0  0  0  0  0  0  0  0
  149.7168  142.6429  156.4201 H   0  0  0  0  0  0  0  0  0  0  0  0
  149.3369  139.9033  157.2058 H   0  0  0  0  0  0  0  0  0  0  0  0
  147.4416  142.6976  153.1173 H   0  0  0  0  0  0  0  0  0  0  0  0
  146.5843  136.5712  154.8985 H   0  0  0  0  0  0  0  0  0  0  0  0
  142.5135  135.4016  153.2761 H   0  0  0  0  0  0  0  0  0  0  0  0
  143.0884  134.2512  152.0887 H   0  0  0  0  0  0  0  0  0  0  0  0
  143.4716  133.5034  154.1465 H   0  0  0  0  0  0  0  0  0  0  0  0
  147.3628  134.9894  152.3981 H   0  0  0  0  0  0  0  0  0  0  0  0
  145.5174  138.0875  150.2131 H   0  0  0  0  0  0  0  0  0  0  0  0
  151.0752  143.9864  158.4043 H   0  0  0  0  0  0  0  0  0  0  0  0
  153.1929  143.7830  159.6607 H   0  0  0  0  0  0  0  0  0  0  0  0
  154.2141  141.5458  160.0373 H   0  0  0  0  0  0  0  0  0  0  0  0
  153.1050  139.5112  159.1459 H   0  0  0  0  0  0  0  0  0  0  0  0
  1  2  1  0  0  0  0
  1 33  1  0  0  0  0
  1 34  1  0  0  0  0
  1 35  1  0  0  0  0
  2  3  1  0  0  0  0
  2 22  1  0  0  0  0
  2 36  1  0  0  0  0
  3  4  1  0  0  0  0
  3 37  1  0  0  0  0
  4  9  1  0  0  0  0
  4  5  2  0  0  0  0
  5  6  1  0  0  0  0
  6  7  2  0  0  0  0
  6 38  1  0  0  0  0
  7  8  1  0  0  0  0
  8 12  1  0  0  0  0
  8  9  2  0  0  0  0
  9 10  1  0  0  0  0
 10 11  2  0  0  0  0
 11 12  1  0  0  0  0
 11 39  1  0  0  0  0
 12 13  1  0  0  0  0
 13 29  1  0  0  0  0
 13 20  1  0  0  0  0
 13 14  1  0  0  0  0
 14 15  1  0  0  0  0
 15 30  1  0  0  0  0
 15 16  1  0  0  0  0
 15 18  1  0  0  0  0
 16 17  1  0  0  0  0
 16 40  1  0  0  0  0
 16 41  1  0  0  0  0
 17 42  1  0  0  0  0
 18 31  1  0  0  0  0
 18 19  1  0  0  0  0
 18 20  1  0  0  0  0
 19 43  1  0  0  0  0
 20 32  1  0  0  0  0
 20 21  1  0  0  0  0
 21 44  1  0  0  0  0
 22 27  1  0  0  0  0
 22 23  2  0  0  0  0
 23 24  1  0  0  0  0
 23 45  1  0  0  0  0
 24 25  2  0  0  0  0
 24 46  1  0  0  0  0
 25 26  1  0  0  0  0
 25 47  1  0  0  0  0
 26 27  2  0  0  0  0
 26 48  1  0  0  0  0
 27 28  1  0  0  0  0
M  END
> <s_m_source_file>
AV-unprocessed.smi

> <i_m_source_file_index>
283

> <i_lp_mmshare_version>
43012

> <i_f3d_flags>
0

> <s_epik_input>
Q2xjMVtjSF1bY0hdW2NIXVtjSF1jMVtDQEhdKFtDSDNdKVtOSF1jKG5bY0hdbjIpYyhjMjMpbltjSF1uM1tDQEBIXTRPW0NASF0oW0NIMl1bT0hdKVtDQEBIXShbT0hdKVtDQEhdNFtPSF0=

> <s_epik_cmdline>
J2VwaWtfcHl0aG9uJywgJy1waCcsICc3LjAnLCAnLXRuJywgJzgnLCAnLW1hJywgJzIwMCcsICctbWV0YWxfYmluZGluZycsICctaW1hZScsICc8aW5maWxlLm1hZT4nLCAnLW9tYWUnLCAnPG91dGZpbGUubWFlPic=

> <r_lp_tautomer_probability>
1

> <r_epik_Ionization_Penalty>
0.000266407

> <r_epik_Ionization_Penalty_Charging>
0

> <r_epik_Ionization_Penalty_Neutral>
0.000266407

> <r_epik_State_Penalty>
-0

> <r_epik_Charging_Adjusted_Penalty>
0

> <i_epik_Tot_Q>
0

> <i_epik_Tot_abs_Q>
0

> <r_epik_Metal_State_Penalty>
-0

> <b_epik_Metal_Only>
0

> <s_epik_Chemistry_Notes>
This compound contains an acetal/aminal-like group ( X-CH(R)-Y where X, Y are N, S, or O) that may be acid/base labile, releasing an aldehyde.

> <s_lp_Force_Field>
OPLS_2005

> <r_lp_Energy>
46.8878

> <b_lp_Chiralities_Consistent>
1

> <s_lp_Variant>
AV-unprocessed.smi:283-9

> <Gold.Version>
5.8.1

> <Gold.Id.Protein>
6NUR|6NUR_protein|mol2

> <Gold.PLP.Fitness>
46.9078

> <Gold.PLP.PLP>
-37.0813

> <Gold.PLP.part.hbond>
-4.2053

> <Gold.PLP.part.metal>
0.0000

> <Gold.PLP.part.buried>
-4.2337

> <Gold.PLP.part.nonpolar>
-29.8658

> <Gold.PLP.part.repulsive>
1.0997

> <Gold.PLP.ligand.clash>
0.0000

> <Gold.PLP.ligand.torsion>
0.8453

> <Gold.PLP.Chemscore.Hbond>
3.8160

> <Gold.PLP.Chemscore.CHOScore>
0.0000

> <Gold.PLP.Chemscore.Metal>
0.0000

> <Gold.Chemscore.Hbonds>
donor molecule, donor type, donor heavy atom, donor atom, acceptor molecule, acceptor atom, score
      L1  H    17    42       P1 10957  1.00
      L1  H    19    43       P1  7948  0.94
      L1  H    21    44       P1 10171  1.00
      P1  H  7954  7966       L1    21  0.77

> <Gold.PLP.Chemscore.Internal.Correction>
0.0691

> <Gold.Rescore>
     Score         DG    S(hbond)    S(metal)    S(lipo)     H(rot)  DE(clash)    DE(int)     intcor
     12.21     -16.51       3.52        0.00      83.50       4.10       1.81       2.49       ----

> <Gold.Chemscore.Fitness>
12.2129

> <Gold.Chemscore.DG>
-16.5131

> <Gold.Chemscore.ZeroCoef>
-5.4800

> <Gold.Chemscore.Hbond>
3.5185

> <Gold.Chemscore.Metal>
0.0000

> <Gold.Chemscore.Lipo>
83.4985

> <Gold.Chemscore.Internal_Hbond>
0.0000

> <Gold.Chemscore.DEClash>
1.8061

> <Gold.Chemscore.DEInternal>
2.4941

> <Gold.Chemscore.Rot>
4.0968

> <Gold.Chemscore.Internal.Correction>
   9.000000E+99

> <Gold.Chemscore.Hbonds>
donor molecule, donor type, donor heavy atom, donor atom, acceptor molecule, acceptor atom, score
      L1  H    17    42       P1 10957  0.94
      L1  H    19    43       P1  7948  0.86
      L1  H    21    44       P1 10171  0.99
      P1  H  7954  7966       L1    21  0.23

> <Gold.Chemscore.Hbond.Weighted>
-11.7517

> <Gold.Chemscore.Metal.Weighted>
-0.0000

> <Gold.Chemscore.Lipo.Weighted>
-9.7693

> <Gold.Chemscore.Internal_Hbond.Weighted>
0.0000

> <Gold.Chemscore.DEClash.Weighted>
1.8061

> <Gold.Chemscore.DEInternal.Weighted>
2.4941

> <Gold.Chemscore.Rot.Weighted>
10.4879

> <Gold.Chemscore.Internal.Correction.Weighted>
   9.000000E+99

> <Gold.Protein.RotatedTorsions>
[ 6907 6896 6895 6894 ] final   38.78 input  -60.11 | X-H torsion
[ 7974 7965 7964 7962 ] final  150.83 input  175.53 | X-H torsion
[ 8008 7997 7996 7995 ] final    7.00 input   59.86 | X-H torsion
[ 10167 10162 10161 10158 ] final -118.80 input  -65.29 | X-H torsion
[ 10718 10713 10712 10709 ] final  -30.11 input   66.30 | X-H torsion
[ 10763 10752 10751 10750 ] final   13.89 input  -60.55 | X-H torsion
[ 11005 11000 10999 10996 ] final   -1.42 input  -57.11 | X-H torsion

> <Gold.Protein.ActiveResidues>
 VAL166  LYS551  ARG553  GLY616  TRP617  ASP618  TYR619  PRO620  LYS621  CYS622 
 ASP623  PHE694  ASN695  SER759  ASP760  ASP761  ALA762  ILE779  LEU786  VAL792 
 PHE793  MET794  SER795  GLU796  ALA797  LYS798  CYS799  TRP800  GLU811  SER814 

> <Gold.Protein.RotatedAtoms>
  152.1609  134.8913  160.0541 H   0  0  0  0  0  0  0  0  0  0  0  0  # atno 6907 bound_to 6896
  151.9909  133.3785  159.4152 H   0  0  0  0  0  0  0  0  0  0  0  0  # atno 6908 bound_to 6896
  150.6888  134.3860  159.5099 H   0  0  0  0  0  0  0  0  0  0  0  0  # atno 6909 bound_to 6896
  144.8336  139.6459  143.6048 H   0  0  0  0  0  0  0  0  0  0  0  0  # atno 7974 bound_to 7965
  154.7482  140.2762  155.6315 H   0  0  0  0  0  0  0  0  0  0  0  0  # atno 8008 bound_to 7997
  156.2889  140.2683  156.2155 H   0  0  0  0  0  0  0  0  0  0  0  0  # atno 8009 bound_to 7997
  155.0170  140.0372  157.2412 H   0  0  0  0  0  0  0  0  0  0  0  0  # atno 8010 bound_to 7997
  140.0535  143.5036  152.2069 H   0  0  0  0  0  0  0  0  0  0  0  0  # atno 10167 bound_to 10162
  156.4039  130.4395  149.7301 H   0  0  0  0  0  0  0  0  0  0  0  0  # atno 10718 bound_to 10713
  153.1676  135.6807  153.8654 H   0  0  0  0  0  0  0  0  0  0  0  0  # atno 10763 bound_to 10752
  153.8028  135.3153  155.3393 H   0  0  0  0  0  0  0  0  0  0  0  0  # atno 10764 bound_to 10752
  154.7976  135.4798  154.0288 H   0  0  0  0  0  0  0  0  0  0  0  0  # atno 10765 bound_to 10752
  140.6471  133.9437  155.8359 H   0  0  0  0  0  0  0  0  0  0  0  0  # atno 11005 bound_to 11000
  146.2637  139.6469  142.9344 LP  0  0  0  0  0  0  0  0  0  0  0  0  # atno 17320 bound_to 7965
  145.4843  141.0438  143.2628 LP  0  0  0  0  0  0  0  0  0  0  0  0  # atno 17321 bound_to 7965
  139.5938  144.7559  151.3336 LP  0  0  0  0  0  0  0  0  0  0  0  0  # atno 17342 bound_to 10162
  140.7205  143.7148  150.7741 LP  0  0  0  0  0  0  0  0  0  0  0  0  # atno 17343 bound_to 10162
  156.4307  130.7813  151.2833 LP  0  0  0  0  0  0  0  0  0  0  0  0  # atno 17370 bound_to 10713
  157.7505  131.0155  150.3506 LP  0  0  0  0  0  0  0  0  0  0  0  0  # atno 17371 bound_to 10713
  141.0564  134.0410  157.3717 LP  0  0  0  0  0  0  0  0  0  0  0  0  # atno 17394 bound_to 11000
  139.9059  135.0179  156.7483 LP  0  0  0  0  0  0  0  0  0  0  0  0  # atno 17395 bound_to 11000

$$$$
