AV-unprocessed.smi:1288|AV-procd|sdf|5381|dock2
  -GOLD-   22720 4523D 1   1.00000     0.00000
 Structure written by MMmdl.
 42 44  0  0  0  0  0  0  0  0  1 V2000
  150.6785  140.2867  155.6253 C   0  0  0  0  0  0  0  0  0  0  0  0
  151.1546  141.0417  156.8256 C   0  0  0  0  0  0  0  0  0  0  0  0
  150.9208  142.3444  156.9853 N   0  0  0  0  0  0  0  0  0  0  0  0
  151.5318  142.6157  158.1943 C   0  0  0  0  0  0  0  0  0  0  0  0
  151.6376  143.8246  158.9188 C   0  0  0  0  0  0  0  0  0  0  0  0
  152.3202  143.8602  160.1522 C   0  0  0  0  0  0  0  0  0  0  0  0
  152.9066  142.6906  160.6777 C   0  0  0  0  0  0  0  0  0  0  0  0
  152.8124  141.4754  159.9725 C   0  0  0  0  0  0  0  0  0  0  0  0
  152.1295  141.4448  158.7418 C   0  0  0  0  0  0  0  0  0  0  0  0
  151.8563  140.4403  157.8178 N   0  0  0  0  0  0  0  0  0  0  0  0
  152.2541  139.0418  157.9122 C   0  0  0  0  0  0  0  0  0  0  0  0
  151.4701  138.2676  158.9914 C   0  0  2  0  0  0  0  0  0  0  0  0
  152.3300  137.3218  159.5969 O   0  0  0  0  0  0  0  0  0  0  0  0
  150.2651  137.5209  158.3978 C   0  0  0  0  0  0  0  0  0  0  0  0
  149.8611  136.4995  159.2954 O   0  0  0  0  0  0  0  0  0  0  0  0
  148.4880  136.1697  159.1701 C   0  0  0  0  0  0  0  0  0  0  0  0
  147.9502  135.5488  160.4444 C   0  0  0  0  0  0  0  0  0  0  0  0
  147.8204  136.3319  161.6110 C   0  0  0  0  0  0  0  0  0  0  0  0
  147.3220  135.7587  162.7973 C   0  0  0  0  0  0  0  0  0  0  0  0
  146.9501  134.4007  162.8214 C   0  0  0  0  0  0  0  0  0  0  0  0
  147.0755  133.6167  161.6582 C   0  0  0  0  0  0  0  0  0  0  0  0
  147.5736  134.1883  160.4708 C   0  0  0  0  0  0  0  0  0  0  0  0
  147.6881  133.4254  159.3572 F   0  0  0  0  0  0  0  0  0  0  0  0
  150.1192  140.9433  154.9580 H   0  0  0  0  0  0  0  0  0  0  0  0
  150.0251  139.4675  155.9245 H   0  0  0  0  0  0  0  0  0  0  0  0
  151.5263  139.8806  155.0735 H   0  0  0  0  0  0  0  0  0  0  0  0
  151.1920  144.7261  158.5247 H   0  0  0  0  0  0  0  0  0  0  0  0
  152.3943  144.7895  160.6979 H   0  0  0  0  0  0  0  0  0  0  0  0
  153.4281  142.7266  161.6230 H   0  0  0  0  0  0  0  0  0  0  0  0
  153.2578  140.5776  160.3744 H   0  0  0  0  0  0  0  0  0  0  0  0
  152.1188  138.5744  156.9365 H   0  0  0  0  0  0  0  0  0  0  0  0
  153.3243  138.9983  158.1188 H   0  0  0  0  0  0  0  0  0  0  0  0
  151.1238  138.9658  159.7539 H   0  0  0  0  0  0  0  0  0  0  0  0
  151.9367  136.4661  159.5175 H   0  0  0  0  0  0  0  0  0  0  0  0
  149.4302  138.2127  158.2740 H   0  0  0  0  0  0  0  0  0  0  0  0
  150.4983  137.1172  157.4107 H   0  0  0  0  0  0  0  0  0  0  0  0
  147.9070  137.0635  158.9371 H   0  0  0  0  0  0  0  0  0  0  0  0
  148.3473  135.4749  158.3404 H   0  0  0  0  0  0  0  0  0  0  0  0
  148.1014  137.3749  161.5998 H   0  0  0  0  0  0  0  0  0  0  0  0
  147.2249  136.3614  163.6883 H   0  0  0  0  0  0  0  0  0  0  0  0
  146.5677  133.9613  163.7309 H   0  0  0  0  0  0  0  0  0  0  0  0
  146.7889  132.5757  161.6761 H   0  0  0  0  0  0  0  0  0  0  0  0
  1  2  1  0  0  0  0
  1 24  1  0  0  0  0
  1 25  1  0  0  0  0
  1 26  1  0  0  0  0
  2 10  1  0  0  0  0
  2  3  2  0  0  0  0
  3  4  1  0  0  0  0
  4  9  2  0  0  0  0
  4  5  1  0  0  0  0
  5  6  2  0  0  0  0
  5 27  1  0  0  0  0
  6  7  1  0  0  0  0
  6 28  1  0  0  0  0
  7  8  2  0  0  0  0
  7 29  1  0  0  0  0
  8  9  1  0  0  0  0
  8 30  1  0  0  0  0
  9 10  1  0  0  0  0
 10 11  1  0  0  0  0
 11 12  1  0  0  0  0
 11 31  1  0  0  0  0
 11 32  1  0  0  0  0
 12 13  1  0  0  0  0
 12 14  1  0  0  0  0
 12 33  1  0  0  0  0
 13 34  1  0  0  0  0
 14 15  1  0  0  0  0
 14 35  1  0  0  0  0
 14 36  1  0  0  0  0
 15 16  1  0  0  0  0
 16 17  1  0  0  0  0
 16 37  1  0  0  0  0
 16 38  1  0  0  0  0
 17 22  1  0  0  0  0
 17 18  2  0  0  0  0
 18 19  1  0  0  0  0
 18 39  1  0  0  0  0
 19 20  2  0  0  0  0
 19 40  1  0  0  0  0
 20 21  1  0  0  0  0
 20 41  1  0  0  0  0
 21 22  2  0  0  0  0
 21 42  1  0  0  0  0
 22 23  1  0  0  0  0
M  END
> <s_m_source_file>
AV-unprocessed.smi

> <i_m_source_file_index>
1288

> <i_lp_mmshare_version>
43012

> <i_f3d_flags>
0

> <s_epik_input>
W2NIXTFbY0hdW2NIXVtjSF1jKGMxMiluKGMobjIpW0NIM10pW0NIMl1bQ0BIXShbT0hdKVtDSDJdT1tDSDJdYzNbY0hdW2NIXVtjSF1bY0hdYzNG

> <s_epik_cmdline>
J2VwaWtfcHl0aG9uJywgJy1waCcsICc3LjAnLCAnLXRuJywgJzgnLCAnLW1hJywgJzIwMCcsICctbWV0YWxfYmluZGluZycsICctaW1hZScsICc8aW5maWxlLm1hZT4nLCAnLW9tYWUnLCAnPG91dGZpbGUubWFlPic=

> <r_epik_Ionization_Penalty>
0.132603

> <r_epik_Ionization_Penalty_Charging>
0

> <r_epik_Ionization_Penalty_Neutral>
0.132603

> <r_epik_State_Penalty>
0.121982

> <r_epik_Charging_Adjusted_Penalty>
0.121982

> <i_epik_Tot_Q>
0

> <i_epik_Tot_abs_Q>
0

> <r_epik_Metal_State_Penalty>
0.000135431

> <b_epik_Metal_Only>
0

> <s_lp_Force_Field>
OPLS_2005

> <r_lp_Energy>
16.1737

> <b_lp_Chiralities_Consistent>
1

> <s_lp_Variant>
AV-unprocessed.smi:1288-1

> <Gold.Version>
5.8.1

> <Gold.Id.Protein>
6NUR|6NUR_protein|mol2

> <Gold.PLP.Fitness>
53.9948

> <Gold.PLP.PLP>
-52.9526

> <Gold.PLP.part.hbond>
-1.2442

> <Gold.PLP.part.metal>
0.0000

> <Gold.PLP.part.buried>
-6.6542

> <Gold.PLP.part.nonpolar>
-45.9334

> <Gold.PLP.part.repulsive>
0.0876

> <Gold.PLP.ligand.clash>
0.0000

> <Gold.PLP.ligand.torsion>
1.1284

> <Gold.PLP.Chemscore.Hbond>
1.0000

> <Gold.PLP.Chemscore.CHOScore>
0.0000

> <Gold.PLP.Chemscore.Metal>
0.0000

> <Gold.Chemscore.Hbonds>
donor molecule, donor type, donor heavy atom, donor atom, acceptor molecule, acceptor atom, score
      P1  H  6896  6909       L1    15  1.00

> <Gold.PLP.Chemscore.Internal.Correction>
0.2989

> <Gold.Rescore>
     Score         DG    S(hbond)    S(metal)    S(lipo)     H(rot)  DE(clash)    DE(int)     intcor
     17.44     -18.48       0.90        0.00     135.43       2.29       0.01       1.03       ----

> <Gold.Chemscore.Fitness>
17.4399

> <Gold.Chemscore.DG>
-18.4767

> <Gold.Chemscore.ZeroCoef>
-5.4800

> <Gold.Chemscore.Hbond>
0.8996

> <Gold.Chemscore.Metal>
0.0000

> <Gold.Chemscore.Lipo>
135.4280

> <Gold.Chemscore.Internal_Hbond>
0.0000

> <Gold.Chemscore.DEClash>
0.0058

> <Gold.Chemscore.DEInternal>
1.0310

> <Gold.Chemscore.Rot>
2.2863

> <Gold.Chemscore.Internal.Correction>
   9.000000E+99

> <Gold.Chemscore.Hbonds>
donor molecule, donor type, donor heavy atom, donor atom, acceptor molecule, acceptor atom, score
      P1  H  6896  6909       L1    15  0.78

> <Gold.Chemscore.Hbond.Weighted>
-3.0046

> <Gold.Chemscore.Metal.Weighted>
-0.0000

> <Gold.Chemscore.Lipo.Weighted>
-15.8451

> <Gold.Chemscore.Internal_Hbond.Weighted>
0.0000

> <Gold.Chemscore.DEClash.Weighted>
0.0058

> <Gold.Chemscore.DEInternal.Weighted>
1.0310

> <Gold.Chemscore.Rot.Weighted>
5.8530

> <Gold.Chemscore.Internal.Correction.Weighted>
   9.000000E+99

> <Gold.Protein.RotatedTorsions>
[ 6907 6896 6895 6894 ] final   76.49 input  -60.11 | X-H torsion
[ 7974 7965 7964 7962 ] final   77.30 input  175.53 | X-H torsion
[ 8008 7997 7996 7995 ] final  -37.96 input   59.86 | X-H torsion
[ 10167 10162 10161 10158 ] final -134.79 input  -65.29 | X-H torsion
[ 10718 10713 10712 10709 ] final   -2.83 input   66.30 | X-H torsion
[ 10763 10752 10751 10750 ] final  137.20 input  -60.55 | X-H torsion
[ 11005 11000 10999 10996 ] final  -12.79 input  -57.11 | X-H torsion

> <Gold.Protein.ActiveResidues>
 VAL166  LYS551  ARG553  GLY616  TRP617  ASP618  TYR619  PRO620  LYS621  CYS622 
 ASP623  PHE694  ASN695  SER759  ASP760  ASP761  ALA762  ILE779  LEU786  VAL792 
 PHE793  MET794  SER795  GLU796  ALA797  LYS798  CYS799  TRP800  GLU811  SER814 

> <Gold.Protein.RotatedAtoms>
  152.5075  134.3960  159.9400 H   0  0  0  0  0  0  0  0  0  0  0  0  # atno 6907 bound_to 6896
  151.3922  133.3779  159.2730 H   0  0  0  0  0  0  0  0  0  0  0  0  # atno 6908 bound_to 6896
  150.9424  134.8852  159.7679 H   0  0  0  0  0  0  0  0  0  0  0  0  # atno 6909 bound_to 6896
  145.6918  139.2555  143.1755 H   0  0  0  0  0  0  0  0  0  0  0  0  # atno 7974 bound_to 7965
  154.4044  140.1590  156.2622 H   0  0  0  0  0  0  0  0  0  0  0  0  # atno 8008 bound_to 7997
  155.9027  140.3432  155.6016 H   0  0  0  0  0  0  0  0  0  0  0  0  # atno 8009 bound_to 7997
  155.7429  140.0795  157.2228 H   0  0  0  0  0  0  0  0  0  0  0  0  # atno 8010 bound_to 7997
  139.8844  143.6799  152.2622 H   0  0  0  0  0  0  0  0  0  0  0  0  # atno 10167 bound_to 10162
  156.7850  130.5343  149.5745 H   0  0  0  0  0  0  0  0  0  0  0  0  # atno 10718 bound_to 10713
  153.8691  135.3058  155.3441 H   0  0  0  0  0  0  0  0  0  0  0  0  # atno 10763 bound_to 10752
  154.7814  135.4833  153.9855 H   0  0  0  0  0  0  0  0  0  0  0  0  # atno 10764 bound_to 10752
  153.1417  135.6825  153.9113 H   0  0  0  0  0  0  0  0  0  0  0  0  # atno 10765 bound_to 10752
  140.7694  133.8450  155.9194 H   0  0  0  0  0  0  0  0  0  0  0  0  # atno 11005 bound_to 11000
  146.0875  140.7694  142.9611 LP  0  0  0  0  0  0  0  0  0  0  0  0  # atno 17320 bound_to 7965
  144.6994  140.3585  143.7168 LP  0  0  0  0  0  0  0  0  0  0  0  0  # atno 17321 bound_to 7965
  139.7166  144.7610  151.1024 LP  0  0  0  0  0  0  0  0  0  0  0  0  # atno 17342 bound_to 10162
  140.7738  143.5261  150.9478 LP  0  0  0  0  0  0  0  0  0  0  0  0  # atno 17343 bound_to 10162
  156.1194  130.6099  151.0171 LP  0  0  0  0  0  0  0  0  0  0  0  0  # atno 17370 bound_to 10713
  157.6628  131.0877  150.7798 LP  0  0  0  0  0  0  0  0  0  0  0  0  # atno 17371 bound_to 10713
  140.9588  134.1683  157.4670 LP  0  0  0  0  0  0  0  0  0  0  0  0  # atno 17394 bound_to 11000
  139.8758  134.9937  156.5657 LP  0  0  0  0  0  0  0  0  0  0  0  0  # atno 17395 bound_to 11000

$$$$
