AV-unprocessed.smi:2923|AV-procd|sdf|11207|dock10
  -GOLD-   2272016103D 1   1.00000     0.00000
 Structure written by MMmdl.
 47 49  0  0  0  0  0  0  0  0  2 V2000
  144.5134  131.5712  151.1002 C   0  0  0  0  0  0  0  0  0  0  0  0
  144.2518  132.8031  150.3641 N   0  0  0  0  0  0  0  0  0  0  0  0
  143.7916  132.7500  148.9827 C   0  0  0  0  0  0  0  0  0  0  0  0
  144.5445  134.0499  150.9582 C   0  0  0  0  0  0  0  0  0  0  0  0
  145.6928  134.2792  151.7545 C   0  0  0  0  0  0  0  0  0  0  0  0
  145.9141  135.5536  152.3152 C   0  0  0  0  0  0  0  0  0  0  0  0
  144.9932  136.5965  152.0821 C   0  0  0  0  0  0  0  0  0  0  0  0
  145.2693  137.8574  152.6802 N   0  0  0  0  0  0  0  0  0  0  0  0
  146.2626  138.2060  153.5166 C   0  0  0  0  0  0  0  0  0  0  0  0
  147.1386  137.4546  153.9428 O   0  0  0  0  0  0  0  0  0  0  0  0
  146.1812  139.5016  153.8471 N   0  0  0  0  0  0  0  0  0  0  0  0
  147.1136  140.1845  154.7383 C   0  0  1  0  0  0  0  0  0  0  0  0
  148.5071  140.3528  154.1135 C   0  0  2  0  0  0  0  0  0  0  0  0
  149.6897  139.6451  154.7173 C   0  0  0  0  0  0  0  0  0  0  0  0
  150.2965  140.7130  155.6315 C   0  0  0  0  0  0  0  0  0  0  0  0
  149.2256  141.6191  155.8863 O   0  0  0  0  0  0  0  0  0  0  0  0
  148.4922  141.7674  154.6730 C   0  0  2  0  0  0  0  0  0  0  0  0
  146.9533  141.7256  154.7841 C   0  0  0  0  0  0  0  0  0  0  0  0
  146.2205  142.3987  153.6148 C   0  0  0  0  0  0  0  0  0  0  0  0
  146.3577  142.3035  156.0688 C   0  0  0  0  0  0  0  0  0  0  0  0
  143.8616  136.3177  151.2781 C   0  0  0  0  0  0  0  0  0  0  0  0
  143.6890  135.0823  150.7607 N   0  3  0  0  0  0  0  0  0  0  0  0
  143.9453  131.5516  152.0308 H   0  0  0  0  0  0  0  0  0  0  0  0
  145.5740  131.4860  151.3388 H   0  0  0  0  0  0  0  0  0  0  0  0
  144.2299  130.6937  150.5191 H   0  0  0  0  0  0  0  0  0  0  0  0
  144.5271  133.2009  148.3158 H   0  0  0  0  0  0  0  0  0  0  0  0
  142.8469  133.2830  148.8726 H   0  0  0  0  0  0  0  0  0  0  0  0
  143.6324  131.7221  148.6567 H   0  0  0  0  0  0  0  0  0  0  0  0
  146.4118  133.4970  151.9464 H   0  0  0  0  0  0  0  0  0  0  0  0
  146.7906  135.7247  152.9230 H   0  0  0  0  0  0  0  0  0  0  0  0
  144.6250  138.5958  152.4381 H   0  0  0  0  0  0  0  0  0  0  0  0
  145.4307  140.0536  153.4587 H   0  0  0  0  0  0  0  0  0  0  0  0
  147.1707  139.7447  155.7368 H   0  0  0  0  0  0  0  0  0  0  0  0
  148.4837  140.3540  153.0222 H   0  0  0  0  0  0  0  0  0  0  0  0
  149.3707  138.7764  155.2940 H   0  0  0  0  0  0  0  0  0  0  0  0
  150.4041  139.3056  153.9669 H   0  0  0  0  0  0  0  0  0  0  0  0
  150.6996  140.2974  156.5552 H   0  0  0  0  0  0  0  0  0  0  0  0
  151.0978  141.2466  155.1183 H   0  0  0  0  0  0  0  0  0  0  0  0
  148.9082  142.5179  153.9990 H   0  0  0  0  0  0  0  0  0  0  0  0
  146.3575  143.4803  153.6307 H   0  0  0  0  0  0  0  0  0  0  0  0
  145.1476  142.2059  153.6457 H   0  0  0  0  0  0  0  0  0  0  0  0
  146.5867  142.0456  152.6504 H   0  0  0  0  0  0  0  0  0  0  0  0
  146.5257  143.3786  156.1391 H   0  0  0  0  0  0  0  0  0  0  0  0
  146.7986  141.8495  156.9566 H   0  0  0  0  0  0  0  0  0  0  0  0
  145.2823  142.1317  156.1239 H   0  0  0  0  0  0  0  0  0  0  0  0
  143.0823  137.0186  151.0232 H   0  0  0  0  0  0  0  0  0  0  0  0
  142.8620  134.9173  150.1870 H   0  0  0  0  0  0  0  0  0  0  0  0
  1  2  1  0  0  0  0
  1 23  1  0  0  0  0
  1 24  1  0  0  0  0
  1 25  1  0  0  0  0
  2  3  1  0  0  0  0
  2  4  1  0  0  0  0
  3 26  1  0  0  0  0
  3 27  1  0  0  0  0
  3 28  1  0  0  0  0
  4 22  1  0  0  0  0
  4  5  2  0  0  0  0
  5  6  1  0  0  0  0
  5 29  1  0  0  0  0
  6  7  2  0  0  0  0
  6 30  1  0  0  0  0
  7  8  1  0  0  0  0
  7 21  1  0  0  0  0
  8  9  1  0  0  0  0
  8 31  1  0  0  0  0
  9 10  2  0  0  0  0
  9 11  1  0  0  0  0
 11 12  1  0  0  0  0
 11 32  1  0  0  0  0
 12 18  1  0  0  0  0
 12 13  1  0  0  0  0
 12 33  1  0  0  0  0
 13 17  1  0  0  0  0
 13 14  1  0  0  0  0
 13 34  1  0  0  0  0
 14 15  1  0  0  0  0
 14 35  1  0  0  0  0
 14 36  1  0  0  0  0
 15 16  1  0  0  0  0
 15 37  1  0  0  0  0
 15 38  1  0  0  0  0
 16 17  1  0  0  0  0
 17 18  1  0  0  0  0
 17 39  1  0  0  0  0
 18 19  1  0  0  0  0
 18 20  1  0  0  0  0
 19 40  1  0  0  0  0
 19 41  1  0  0  0  0
 19 42  1  0  0  0  0
 20 43  1  0  0  0  0
 20 44  1  0  0  0  0
 20 45  1  0  0  0  0
 21 22  2  0  0  0  0
 21 46  1  0  0  0  0
 22 47  1  0  0  0  0
M  CHG  1  22   1
M  END
> <s_m_source_file>
AV-unprocessed.smi

> <i_m_source_file_index>
2923

> <i_lp_mmshare_version>
43012

> <i_f3d_flags>
0

> <s_epik_input>
W0NIM11OKFtDSDNdKWMxW2NIXVtjSF1jKFtjSF1uMSlbTkhdQyg9TylbTkhdW0NASF0yQyhbQ0gzXSkoW0NIM10pW0NAQEhdKFtDQEhdMjMpT1tDSDJdW0NIMl0z

> <s_epik_cmdline>
J2VwaWtfcHl0aG9uJywgJy1waCcsICc3LjAnLCAnLXRuJywgJzgnLCAnLW1hJywgJzIwMCcsICctbWV0YWxfYmluZGluZycsICctaW1hZScsICc8aW5maWxlLm1hZT4nLCAnLW9tYWUnLCAnPG91dGZpbGUubWFlPic=

> <r_lp_tautomer_probability>
0.999994

> <r_epik_Ionization_Penalty>
0.252205

> <r_epik_Ionization_Penalty_Charging>
0.252185

> <r_epik_Ionization_Penalty_Neutral>
1.99479e-05

> <r_epik_State_Penalty>
0.243573

> <r_epik_Charging_Adjusted_Penalty>
0.495758

> <i_epik_Tot_Q>
1

> <i_epik_Tot_abs_Q>
1

> <r_epik_Metal_State_Penalty>
0.534372

> <b_epik_Metal_Only>
0

> <s_lp_Force_Field>
OPLS_2005

> <r_lp_Energy>
44.3361

> <b_lp_Chiralities_Consistent>
1

> <s_lp_Variant>
AV-unprocessed.smi:2923-6

> <Gold.Version>
5.8.1

> <Gold.Id.Protein>
6NUR|6NUR_protein|mol2

> <Gold.PLP.Fitness>
45.4083

> <Gold.PLP.PLP>
-35.0748

> <Gold.PLP.part.hbond>
-3.1012

> <Gold.PLP.part.metal>
0.0000

> <Gold.PLP.part.buried>
-1.1112

> <Gold.PLP.part.nonpolar>
-32.7250

> <Gold.PLP.part.repulsive>
1.2299

> <Gold.PLP.ligand.clash>
0.0000

> <Gold.PLP.ligand.torsion>
0.7517

> <Gold.PLP.Chemscore.Hbond>
3.8850

> <Gold.PLP.Chemscore.CHOScore>
0.0000

> <Gold.PLP.Chemscore.Metal>
0.0000

> <Gold.Chemscore.Hbonds>
donor molecule, donor type, donor heavy atom, donor atom, acceptor molecule, acceptor atom, score
      L1  H     8    31       P1 10175  0.88
      L1  H    11    32       P1 10175  0.94
      L1  H    22    47       P1 10186  2.00

> <Gold.PLP.Chemscore.Internal.Correction>
0.1820

> <Gold.Rescore>
     Score         DG    S(hbond)    S(metal)    S(lipo)     H(rot)  DE(clash)    DE(int)     intcor
     16.18     -18.81       1.86        0.00      82.71       1.00       0.53       2.09       ----

> <Gold.Chemscore.Fitness>
16.1841

> <Gold.Chemscore.DG>
-18.8096

> <Gold.Chemscore.ZeroCoef>
-5.4800

> <Gold.Chemscore.Hbond>
1.8600

> <Gold.Chemscore.Metal>
0.0000

> <Gold.Chemscore.Lipo>
82.7117

> <Gold.Chemscore.Internal_Hbond>
0.0000

> <Gold.Chemscore.DEClash>
0.5332

> <Gold.Chemscore.DEInternal>
2.0922

> <Gold.Chemscore.Rot>
1.0000

> <Gold.Chemscore.Internal.Correction>
   9.000000E+99

> <Gold.Chemscore.Hbonds>
donor molecule, donor type, donor heavy atom, donor atom, acceptor molecule, acceptor atom, score
      L1  H     8    31       P1 10175  0.85
      L1  H    11    32       P1 10175  0.89
      L1  H    22    47       P1 10186  0.29

> <Gold.Chemscore.Hbond.Weighted>
-6.2123

> <Gold.Chemscore.Metal.Weighted>
-0.0000

> <Gold.Chemscore.Lipo.Weighted>
-9.6773

> <Gold.Chemscore.Internal_Hbond.Weighted>
0.0000

> <Gold.Chemscore.DEClash.Weighted>
0.5332

> <Gold.Chemscore.DEInternal.Weighted>
2.0922

> <Gold.Chemscore.Rot.Weighted>
2.5600

> <Gold.Chemscore.Internal.Correction.Weighted>
   9.000000E+99

> <Gold.Protein.RotatedTorsions>
[ 6907 6896 6895 6894 ] final -175.48 input  -60.11 | X-H torsion
[ 7974 7965 7964 7962 ] final   82.20 input  175.53 | X-H torsion
[ 8008 7997 7996 7995 ] final  -10.66 input   59.86 | X-H torsion
[ 10167 10162 10161 10158 ] final  -10.13 input  -65.29 | X-H torsion
[ 10718 10713 10712 10709 ] final  -84.87 input   66.30 | X-H torsion
[ 10763 10752 10751 10750 ] final   81.85 input  -60.55 | X-H torsion
[ 11005 11000 10999 10996 ] final  179.09 input  -57.11 | X-H torsion

> <Gold.Protein.ActiveResidues>
 VAL166  LYS551  ARG553  GLY616  TRP617  ASP618  TYR619  PRO620  LYS621  CYS622 
 ASP623  PHE694  ASN695  SER759  ASP760  ASP761  ALA762  ILE779  LEU786  VAL792 
 PHE793  MET794  SER795  GLU796  ALA797  LYS798  CYS799  TRP800  GLU811  SER814 

> <Gold.Protein.RotatedAtoms>
  151.5893  133.3368  159.3024 H   0  0  0  0  0  0  0  0  0  0  0  0  # atno 6907 bound_to 6896
  150.8269  134.7507  159.6832 H   0  0  0  0  0  0  0  0  0  0  0  0  # atno 6908 bound_to 6896
  152.4357  134.5697  159.9969 H   0  0  0  0  0  0  0  0  0  0  0  0  # atno 6909 bound_to 6896
  145.6281  139.2399  143.2100 H   0  0  0  0  0  0  0  0  0  0  0  0  # atno 7974 bound_to 7965
  154.5534  140.2323  155.8449 H   0  0  0  0  0  0  0  0  0  0  0  0  # atno 8008 bound_to 7997
  156.1967  140.3063  155.9402 H   0  0  0  0  0  0  0  0  0  0  0  0  # atno 8009 bound_to 7997
  155.3027  140.0432  157.3021 H   0  0  0  0  0  0  0  0  0  0  0  0  # atno 8010 bound_to 7997
  140.7106  143.5782  150.9020 H   0  0  0  0  0  0  0  0  0  0  0  0  # atno 10167 bound_to 10162
  156.0002  130.4712  150.4475 H   0  0  0  0  0  0  0  0  0  0  0  0  # atno 10718 bound_to 10713
  153.1152  135.4750  154.9103 H   0  0  0  0  0  0  0  0  0  0  0  0  # atno 10763 bound_to 10752
  154.7521  135.3109  154.8541 H   0  0  0  0  0  0  0  0  0  0  0  0  # atno 10764 bound_to 10752
  153.9119  135.6864  153.4804 H   0  0  0  0  0  0  0  0  0  0  0  0  # atno 10765 bound_to 10752
  140.4024  134.6766  157.4569 H   0  0  0  0  0  0  0  0  0  0  0  0  # atno 11005 bound_to 11000
  146.1378  140.7099  142.9381 LP  0  0  0  0  0  0  0  0  0  0  0  0  # atno 17320 bound_to 7965
  144.7204  140.4354  143.7012 LP  0  0  0  0  0  0  0  0  0  0  0  0  # atno 17321 bound_to 7965
  139.9508  143.6275  152.3029 LP  0  0  0  0  0  0  0  0  0  0  0  0  # atno 17342 bound_to 10162
  139.6792  144.7656  151.1639 LP  0  0  0  0  0  0  0  0  0  0  0  0  # atno 17343 bound_to 10162
  157.2511  131.0546  151.2378 LP  0  0  0  0  0  0  0  0  0  0  0  0  # atno 17370 bound_to 10713
  157.3527  130.7090  149.6451 LP  0  0  0  0  0  0  0  0  0  0  0  0  # atno 17371 bound_to 10713
  140.0327  134.6383  155.9085 LP  0  0  0  0  0  0  0  0  0  0  0  0  # atno 17394 bound_to 11000
  141.1852  133.6554  156.5187 LP  0  0  0  0  0  0  0  0  0  0  0  0  # atno 17395 bound_to 11000

$$$$
