AV-unprocessed.smi:33|AV-procd|sdf|200|dock3
  -GOLD-   2262015473D 1   1.00000     0.00000
 Structure written by MMmdl.
 67 72  0  0  0  0  0  0  0  0  1 V2000
  153.3303  140.3273  158.6869 O   0  0  0  0  0  0  0  0  0  0  0  0
  152.3892  141.0996  158.4943 C   0  0  0  0  0  0  0  0  0  0  0  0
  151.3661  140.8346  157.6585 O   0  0  0  0  0  0  0  0  0  0  0  0
  151.2923  139.5810  156.9998 C   0  0  0  0  0  0  0  0  0  0  0  0
  150.4144  139.7189  155.7452 C   0  0  1  0  0  0  0  0  0  0  0  0
  149.8224  138.4639  155.4165 O   0  0  0  0  0  0  0  0  0  0  0  0
  148.5573  138.3350  156.0007 C   0  0  1  0  0  0  0  0  0  0  0  0
  148.6147  137.2613  157.0463 N   0  0  0  0  0  0  0  0  0  0  0  0
  149.7024  136.5586  157.5222 C   0  0  0  0  0  0  0  0  0  0  0  0
  149.4323  135.6560  158.4270 N   0  0  0  0  0  0  0  0  0  0  0  0
  148.0529  135.7278  158.5733 C   0  0  0  0  0  0  0  0  0  0  0  0
  147.1021  135.0390  159.3755 C   0  0  0  0  0  0  0  0  0  0  0  0
  147.4422  134.0682  160.2579 N   0  0  0  0  0  0  0  0  0  0  0  0
  147.0135  134.2496  161.6529 C   0  0  0  0  0  0  0  0  0  0  0  0
  147.6454  133.7033  162.5592 O   0  0  0  0  0  0  0  0  0  0  0  0
  145.8440  135.1340  161.9812 C   0  0  0  0  0  0  0  0  0  0  0  0
  144.6258  134.5648  162.4128 C   0  0  0  0  0  0  0  0  0  0  0  0
  143.5228  135.3886  162.7102 C   0  0  0  0  0  0  0  0  0  0  0  0
  143.6247  136.7847  162.5594 C   0  0  0  0  0  0  0  0  0  0  0  0
  144.8269  137.3564  162.1016 C   0  0  0  0  0  0  0  0  0  0  0  0
  145.9305  136.5335  161.8051 C   0  0  0  0  0  0  0  0  0  0  0  0
  148.1969  132.9157  159.7404 C   0  0  0  0  0  0  0  0  0  0  0  0
  148.8869  133.0471  158.7279 O   0  0  0  0  0  0  0  0  0  0  0  0
  148.1787  131.6005  160.4678 C   0  0  0  0  0  0  0  0  0  0  0  0
  149.3337  130.7879  160.4862 C   0  0  0  0  0  0  0  0  0  0  0  0
  149.3196  129.5480  161.1542 C   0  0  0  0  0  0  0  0  0  0  0  0
  148.1460  129.1043  161.7926 C   0  0  0  0  0  0  0  0  0  0  0  0
  146.9826  129.8961  161.7537 C   0  0  0  0  0  0  0  0  0  0  0  0
  146.9954  131.1355  161.0853 C   0  0  0  0  0  0  0  0  0  0  0  0
  145.7932  135.3797  159.2412 N   0  0  0  0  0  0  0  0  0  0  0  0
  145.4380  136.3315  158.3730 C   0  0  0  0  0  0  0  0  0  0  0  0
  146.2142  137.0561  157.5635 N   0  0  0  0  0  0  0  0  0  0  0  0
  147.5295  136.7197  157.7003 C   0  0  0  0  0  0  0  0  0  0  0  0
  148.1627  139.7183  156.5695 C   0  0  1  0  0  0  0  0  0  0  0  0
  148.1890  139.8133  157.9835 O   0  0  0  0  0  0  0  0  0  0  0  0
  149.2094  140.6344  155.9590 C   0  0  2  0  0  0  0  0  0  0  0  0
  148.7775  141.0792  154.7775 F   0  0  0  0  0  0  0  0  0  0  0  0
  152.2638  142.4270  159.1624 C   0  0  0  0  0  0  0  0  0  0  0  0
  152.4293  142.5157  160.5643 C   0  0  0  0  0  0  0  0  0  0  0  0
  152.3113  143.7545  161.2240 C   0  0  0  0  0  0  0  0  0  0  0  0
  152.0257  144.9201  160.4897 C   0  0  0  0  0  0  0  0  0  0  0  0
  151.8594  144.8455  159.0946 C   0  0  0  0  0  0  0  0  0  0  0  0
  151.9780  143.6076  158.4330 C   0  0  0  0  0  0  0  0  0  0  0  0
  152.2865  139.2152  156.7418 H   0  0  0  0  0  0  0  0  0  0  0  0
  150.8502  138.8579  157.6863 H   0  0  0  0  0  0  0  0  0  0  0  0
  151.0254  140.0776  154.9158 H   0  0  0  0  0  0  0  0  0  0  0  0
  147.8497  137.9541  155.2631 H   0  0  0  0  0  0  0  0  0  0  0  0
  150.7119  136.7309  157.1789 H   0  0  0  0  0  0  0  0  0  0  0  0
  144.5363  133.4945  162.5324 H   0  0  0  0  0  0  0  0  0  0  0  0
  142.5982  134.9488  163.0535 H   0  0  0  0  0  0  0  0  0  0  0  0
  142.7787  137.4159  162.7882 H   0  0  0  0  0  0  0  0  0  0  0  0
  144.9029  138.4264  161.9765 H   0  0  0  0  0  0  0  0  0  0  0  0
  146.8466  136.9831  161.4497 H   0  0  0  0  0  0  0  0  0  0  0  0
  150.2403  131.1183  160.0001 H   0  0  0  0  0  0  0  0  0  0  0  0
  150.2099  128.9369  161.1763 H   0  0  0  0  0  0  0  0  0  0  0  0
  148.1361  128.1539  162.3055 H   0  0  0  0  0  0  0  0  0  0  0  0
  146.0792  129.5523  162.2358 H   0  0  0  0  0  0  0  0  0  0  0  0
  146.0946  131.7317  161.0578 H   0  0  0  0  0  0  0  0  0  0  0  0
  144.3805  136.5443  158.3208 H   0  0  0  0  0  0  0  0  0  0  0  0
  147.1573  139.9745  156.2333 H   0  0  0  0  0  0  0  0  0  0  0  0
  147.5828  139.1786  158.3351 H   0  0  0  0  0  0  0  0  0  0  0  0
  149.4319  141.5155  156.5625 H   0  0  0  0  0  0  0  0  0  0  0  0
  152.6475  141.6340  161.1496 H   0  0  0  0  0  0  0  0  0  0  0  0
  152.4391  143.8095  162.2950 H   0  0  0  0  0  0  0  0  0  0  0  0
  151.9342  145.8700  160.9957 H   0  0  0  0  0  0  0  0  0  0  0  0
  151.6391  145.7396  158.5299 H   0  0  0  0  0  0  0  0  0  0  0  0
  151.8430  143.5859  157.3615 H   0  0  0  0  0  0  0  0  0  0  0  0
  1  2  2  0  0  0  0
  2  3  1  0  0  0  0
  2 38  1  0  0  0  0
  3  4  1  0  0  0  0
  4  5  1  0  0  0  0
  4 44  1  0  0  0  0
  4 45  1  0  0  0  0
  5 36  1  0  0  0  0
  5  6  1  0  0  0  0
  5 46  1  0  0  0  0
  6  7  1  0  0  0  0
  7  8  1  0  0  0  0
  7 34  1  0  0  0  0
  7 47  1  0  0  0  0
  8 33  1  0  0  0  0
  8  9  1  0  0  0  0
  9 10  2  0  0  0  0
  9 48  1  0  0  0  0
 10 11  1  0  0  0  0
 11 33  2  0  0  0  0
 11 12  1  0  0  0  0
 12 13  1  0  0  0  0
 12 30  2  0  0  0  0
 13 14  1  0  0  0  0
 13 22  1  0  0  0  0
 14 15  2  0  0  0  0
 14 16  1  0  0  0  0
 16 21  1  0  0  0  0
 16 17  2  0  0  0  0
 17 18  1  0  0  0  0
 17 49  1  0  0  0  0
 18 19  2  0  0  0  0
 18 50  1  0  0  0  0
 19 20  1  0  0  0  0
 19 51  1  0  0  0  0
 20 21  2  0  0  0  0
 20 52  1  0  0  0  0
 21 53  1  0  0  0  0
 22 23  2  0  0  0  0
 22 24  1  0  0  0  0
 24 29  1  0  0  0  0
 24 25  2  0  0  0  0
 25 26  1  0  0  0  0
 25 54  1  0  0  0  0
 26 27  2  0  0  0  0
 26 55  1  0  0  0  0
 27 28  1  0  0  0  0
 27 56  1  0  0  0  0
 28 29  2  0  0  0  0
 28 57  1  0  0  0  0
 29 58  1  0  0  0  0
 30 31  1  0  0  0  0
 31 32  2  0  0  0  0
 31 59  1  0  0  0  0
 32 33  1  0  0  0  0
 34 35  1  0  0  0  0
 34 36  1  0  0  0  0
 34 60  1  0  0  0  0
 35 61  1  0  0  0  0
 36 37  1  0  0  0  0
 36 62  1  0  0  0  0
 38 43  1  0  0  0  0
 38 39  2  0  0  0  0
 39 40  1  0  0  0  0
 39 63  1  0  0  0  0
 40 41  2  0  0  0  0
 40 64  1  0  0  0  0
 41 42  1  0  0  0  0
 41 65  1  0  0  0  0
 42 43  2  0  0  0  0
 42 66  1  0  0  0  0
 43 67  1  0  0  0  0
M  END
> <s_m_source_file>
AV-unprocessed.smi

> <i_m_source_file_index>
33

> <i_lp_mmshare_version>
43012

> <i_f3d_flags>
0

> <s_epik_input>
W2NIXTFbY0hdW2NIXVtjSF1bY0hdYzFDKD1PKU9bQ0gyXVtDQEBIXTJPW0NASF0oW0NAQEhdKFtPSF0pW0NAQEhdMkYpbihbY0hdbjMpYyhjMzQpbltjSF1uYzROKEMoPU8pYzVbY0hdW2NIXVtjSF1bY0hdW2NIXTUpQyg9TyljNltjSF1bY0hdW2NIXVtjSF1bY0hdNg==

> <s_epik_cmdline>
J2VwaWtfcHl0aG9uJywgJy1waCcsICc3LjAnLCAnLXRuJywgJzgnLCAnLW1hJywgJzIwMCcsICctbWV0YWxfYmluZGluZycsICctaW1hZScsICc8aW5maWxlLm1hZT4nLCAnLW9tYWUnLCAnPG91dGZpbGUubWFlPic=

> <r_lp_tautomer_probability>
1

> <r_epik_Ionization_Penalty>
0.00067664

> <r_epik_Ionization_Penalty_Charging>
0

> <r_epik_Ionization_Penalty_Neutral>
0.00067664

> <r_epik_State_Penalty>
0.000428095

> <r_epik_Charging_Adjusted_Penalty>
0.000428095

> <i_epik_Tot_Q>
0

> <i_epik_Tot_abs_Q>
0

> <r_epik_Metal_State_Penalty>
-0

> <b_epik_Metal_Only>
0

> <s_epik_Chemistry_Notes>
This compound has an ester and may undergo hydrolysis at high or low pH. This compound contains an acetal/aminal-like group ( X-CH(R)-Y where X, Y are N, S, or O) that may be acid/base labile, releasing an aldehyde.

> <s_lp_Force_Field>
OPLS_2005

> <r_lp_Energy>
73.7321

> <b_lp_Chiralities_Consistent>
1

> <s_lp_Variant>
AV-unprocessed.smi:33-2

> <Gold.Version>
5.8.1

> <Gold.Id.Protein>
6NUR|6NUR_protein|mol2

> <Gold.PLP.Fitness>
61.2507

> <Gold.PLP.PLP>
-61.3690

> <Gold.PLP.part.hbond>
-3.8468

> <Gold.PLP.part.metal>
0.0000

> <Gold.PLP.part.buried>
-7.9714

> <Gold.PLP.part.nonpolar>
-48.8785

> <Gold.PLP.part.repulsive>
0.0785

> <Gold.PLP.ligand.clash>
0.0000

> <Gold.PLP.ligand.torsion>
4.7510

> <Gold.PLP.Chemscore.Hbond>
1.8800

> <Gold.PLP.Chemscore.CHOScore>
0.0000

> <Gold.PLP.Chemscore.Metal>
0.0000

> <Gold.Chemscore.Hbonds>
donor molecule, donor type, donor heavy atom, donor atom, acceptor molecule, acceptor atom, score
      P1  H  6896  6908       L1    10  1.00
      P1  H  7997  8010       L1     1  0.76

> <Gold.PLP.Chemscore.Internal.Correction>
3.7436

> <Gold.Rescore>
     Score         DG    S(hbond)    S(metal)    S(lipo)     H(rot)  DE(clash)    DE(int)     intcor
     11.24     -22.84       1.85        0.00     150.77       2.52       0.09      11.51       ----

> <Gold.Chemscore.Fitness>
11.2433

> <Gold.Chemscore.DG>
-22.8444

> <Gold.Chemscore.ZeroCoef>
-5.4800

> <Gold.Chemscore.Hbond>
1.8525

> <Gold.Chemscore.Metal>
0.0000

> <Gold.Chemscore.Lipo>
150.7728

> <Gold.Chemscore.Internal_Hbond>
0.0000

> <Gold.Chemscore.DEClash>
0.0899

> <Gold.Chemscore.DEInternal>
11.5112

> <Gold.Chemscore.Rot>
2.5247

> <Gold.Chemscore.Internal.Correction>
   9.000000E+99

> <Gold.Chemscore.Hbonds>
donor molecule, donor type, donor heavy atom, donor atom, acceptor molecule, acceptor atom, score
      P1  H  6896  6908       L1    10  0.95
      P1  H  7997  8010       L1     1  0.67

> <Gold.Chemscore.Hbond.Weighted>
-6.1872

> <Gold.Chemscore.Metal.Weighted>
-0.0000

> <Gold.Chemscore.Lipo.Weighted>
-17.6404

> <Gold.Chemscore.Internal_Hbond.Weighted>
0.0000

> <Gold.Chemscore.DEClash.Weighted>
0.0899

> <Gold.Chemscore.DEInternal.Weighted>
11.5112

> <Gold.Chemscore.Rot.Weighted>
6.4633

> <Gold.Chemscore.Internal.Correction.Weighted>
   9.000000E+99

> <Gold.Protein.RotatedTorsions>
[ 6907 6896 6895 6894 ] final  162.74 input  -60.11 | X-H torsion
[ 7974 7965 7964 7962 ] final  -99.60 input  175.53 | X-H torsion
[ 8008 7997 7996 7995 ] final   30.70 input   59.86 | X-H torsion
[ 10167 10162 10161 10158 ] final  162.05 input  -65.29 | X-H torsion
[ 10718 10713 10712 10709 ] final   36.40 input   66.30 | X-H torsion
[ 10763 10752 10751 10750 ] final   46.91 input  -60.55 | X-H torsion
[ 11005 11000 10999 10996 ] final -141.83 input  -57.11 | X-H torsion

> <Gold.Protein.ActiveResidues>
 VAL166  LYS551  ARG553  GLY616  TRP617  ASP618  TYR619  PRO620  LYS621  CYS622 
 ASP623  PHE694  ASN695  SER759  ASP760  ASP761  ALA762  ILE779  LEU786  VAL792 
 PHE793  MET794  SER795  GLU796  ALA797  LYS798  CYS799  TRP800  GLU811  SER814 

> <Gold.Protein.RotatedAtoms>
  151.9359  133.3624  159.3947 H   0  0  0  0  0  0  0  0  0  0  0  0  # atno 6907 bound_to 6896
  150.7008  134.4490  159.5336 H   0  0  0  0  0  0  0  0  0  0  0  0  # atno 6908 bound_to 6896
  152.2138  134.8477  160.0545 H   0  0  0  0  0  0  0  0  0  0  0  0  # atno 6909 bound_to 6896
  145.3054  140.9387  143.2799 H   0  0  0  0  0  0  0  0  0  0  0  0  # atno 7974 bound_to 7965
  155.0946  140.3223  155.4564 H   0  0  0  0  0  0  0  0  0  0  0  0  # atno 8008 bound_to 7997
  156.2733  140.2072  156.6019 H   0  0  0  0  0  0  0  0  0  0  0  0  # atno 8009 bound_to 7997
  154.6876  140.0519  157.0318 H   0  0  0  0  0  0  0  0  0  0  0  0  # atno 8010 bound_to 7997
  139.4856  144.4476  151.8872 H   0  0  0  0  0  0  0  0  0  0  0  0  # atno 10167 bound_to 10162
  157.3344  130.7515  149.6869 H   0  0  0  0  0  0  0  0  0  0  0  0  # atno 10718 bound_to 10713
  152.9805  135.5993  154.3677 H   0  0  0  0  0  0  0  0  0  0  0  0  # atno 10763 bound_to 10752
  154.3353  135.2768  155.2452 H   0  0  0  0  0  0  0  0  0  0  0  0  # atno 10764 bound_to 10752
  154.4558  135.5978  153.6277 H   0  0  0  0  0  0  0  0  0  0  0  0  # atno 10765 bound_to 10752
  140.8285  134.2545  157.4868 H   0  0  0  0  0  0  0  0  0  0  0  0  # atno 11005 bound_to 11000
  144.9059  139.4590  143.6610 LP  0  0  0  0  0  0  0  0  0  0  0  0  # atno 17320 bound_to 7965
  146.3137  139.7839  142.9000 LP  0  0  0  0  0  0  0  0  0  0  0  0  # atno 17321 bound_to 7965
  140.3931  144.2590  150.5898 LP  0  0  0  0  0  0  0  0  0  0  0  0  # atno 17342 bound_to 10162
  140.5128  143.2286  151.8509 LP  0  0  0  0  0  0  0  0  0  0  0  0  # atno 17343 bound_to 10162
  155.9699  130.4186  150.4334 LP  0  0  0  0  0  0  0  0  0  0  0  0  # atno 17370 bound_to 10713
  157.2371  131.0517  151.2458 LP  0  0  0  0  0  0  0  0  0  0  0  0  # atno 17371 bound_to 10713
  139.8705  134.9573  156.4266 LP  0  0  0  0  0  0  0  0  0  0  0  0  # atno 17394 bound_to 11000
  140.9023  133.7770  155.9694 LP  0  0  0  0  0  0  0  0  0  0  0  0  # atno 17395 bound_to 11000

$$$$
