#       Name:                AV-unprocessed.smi:103
#       Creating user name   scv26
#       Creation time:       Thu Mar 26 17:55:32 2020


#       File generated by GOLD software.
#

@<TRIPOS>MOLECULE
AV-unprocessed.smi:103
    64    66     1
SMALL
NO_CHARGES


@<TRIPOS>ATOM
      1 ****        -0.1237   5.6888  -0.5744 C.3            1 S1                 0.0000
      2 ****        -1.0045   4.4511  -0.4645 C.2            1 S1                 0.0000
      3 ****        -1.6530   4.0371  -1.4257 O.2            1 S1                 0.0000
      4 ****        -0.9730   3.9079   0.7660 O.3            1 S1                 0.0000
      5 ****        -1.7204   2.7339   1.0558 C.3            1 S1                 0.0000
      6 ****        -0.8869   1.4689   0.7797 C.3            1 S1                 0.0000
      7 ****        -0.7994   1.2197  -0.6169 O.3            1 S1                 0.0000
      8 ****        -0.5314  -0.1259  -0.8314 C.3            1 S1                 0.0000
      9 ****         0.9722  -0.3156  -0.8870 N.pl3          1 S1                 0.0000
     10 ****         1.7690  -0.3376  -2.0181 C.2            1 S1                 0.0000
     11 ****         1.2184  -0.2159  -3.7181 S.o2           1 S1                 0.0000
     12 ****         0.6026  -1.9185  -4.0413 C.3            1 S1                 0.0000
     13 ****         0.0898   0.7270  -3.7469 O.2            1 S1                 0.0000
     14 ****         2.4146   0.0294  -4.5393 O.2            1 S1                 0.0000
     15 ****         3.0410  -0.5654  -1.8453 N.2            1 S1                 0.0000
     16 ****         3.1660  -0.6131  -0.4679 C.ar           1 S1                 0.0000
     17 ****         4.2678  -0.7937   0.4060 C.ar           1 S1                 0.0000
     18 ****         5.5230  -0.9748  -0.0282 N.pl3          1 S1                 0.0000
     19 ****         4.0461  -0.7798   1.7398 N.ar           1 S1                 0.0000
     20 ****         2.8044  -0.5971   2.1953 C.ar           1 S1                 0.0000
     21 ****         1.6796  -0.4203   1.4991 N.ar           1 S1                 0.0000
     22 ****         1.8923  -0.4362   0.1492 C.ar           1 S1                 0.0000
     23 ****        -1.2767  -0.8889   0.2772 C.3            1 S1                 0.0000
     24 ****        -0.5998  -2.0536   0.7344 O.3            1 S1                 0.0000
     25 ****        -0.6654  -3.1958   0.0310 C.2            1 S1                 0.0000
     26 ****         0.1258  -4.3225   0.6805 C.3            1 S1                 0.0000
     27 ****        -1.2679  -3.3596  -1.0299 O.2            1 S1                 0.0000
     28 ****        -1.4481   0.1604   1.3794 C.3            1 S1                 0.0000
     29 ****        -2.8264   0.2760   1.7206 O.3            1 S1                 0.0000
     30 ****        -3.3785  -0.5686   2.6110 C.2            1 S1                 0.0000
     31 ****        -4.8531  -0.2763   2.8543 C.3            1 S1                 0.0000
     32 ****        -2.8038  -1.4931   3.1859 O.2            1 S1                 0.0000
     33 ****        -0.3945   6.4169   0.1903 H              1 S1                 0.0000
     34 ****        -0.2397   6.1561  -1.5525 H              1 S1                 0.0000
     35 ****         0.9244   5.4195  -0.4427 H              1 S1                 0.0000
     36 ****        -1.9684   2.7735   2.1166 H              1 S1                 0.0000
     37 ****        -2.6681   2.7119   0.5154 H              1 S1                 0.0000
     38 ****         0.1198   1.6299   1.1627 H              1 S1                 0.0000
     39 ****        -0.8806  -0.4395  -1.8115 H              1 S1                 0.0000
     40 ****         0.2512  -1.9874  -5.0705 H              1 S1                 0.0000
     41 ****        -0.2169  -2.1505  -3.3626 H              1 S1                 0.0000
     42 ****         1.4123  -2.6313  -3.8864 H              1 S1                 0.0000
     43 ****         5.7150  -0.9866  -1.0197 H              1 S1                 0.0000
     44 ****         6.2744  -1.0941   0.6356 H              1 S1                 0.0000
     45 ****         2.6949  -0.5950   3.2698 H              1 S1                 0.0000
     46 ****        -2.2612  -1.1518  -0.1146 H              1 S1                 0.0000
     47 ****        -0.0133  -4.3130   1.7619 H              1 S1                 0.0000
     48 ****         1.1886  -4.2077   0.4663 H              1 S1                 0.0000
     49 ****        -0.2029  -5.2896   0.2991 H              1 S1                 0.0000
     50 ****        -0.8691  -0.0941   2.2684 H              1 S1                 0.0000
     51 ****        -5.0412   0.7972   2.8281 H              1 S1                 0.0000
     52 ****        -5.1610  -0.6559   3.8288 H              1 S1                 0.0000
     53 ****        -5.4633  -0.7548   2.0883 H              1 S1                 0.0000
     54 ****        -1.6082   4.5158  -2.3026 LP             1 S1                 0.0000
     55 ****        -2.2245   3.2221  -1.3296 LP             1 S1                 0.0000
     56 ****        -0.0640   1.7726  -1.0087 LP             1 S1                 0.0000
     57 ****        -1.6663   1.4606  -1.0534 LP             1 S1                 0.0000
     58 ****         3.7526  -0.6782  -2.5388 LP             1 S1                 0.0000
     59 ****         4.8049  -0.9052   2.3789 LP             1 S1                 0.0000
     60 ****         0.7811  -0.2907   1.9185 LP             1 S1                 0.0000
     61 ****        -1.7688  -2.5991  -1.4430 LP             1 S1                 0.0000
     62 ****        -1.2565  -4.2532  -1.4786 LP             1 S1                 0.0000
     63 ****        -1.8363  -1.6699   3.0051 LP             1 S1                 0.0000
     64 ****        -3.3045  -2.0673   3.8337 LP             1 S1                 0.0000
@<TRIPOS>BOND
    1    1    2 1     
    2    1   33 1     
    3    1   34 1     
    4    1   35 1     
    5    2    3 2     
    6    2    4 1     
    7    4    5 1     
    8    5    6 1     
    9    5   36 1     
   10    5   37 1     
   11    6   28 1     
   12    6    7 1     
   13    6   38 1     
   14    7    8 1     
   15    8    9 1     
   16    8   23 1     
   17    8   39 1     
   18    9   22 1     
   19    9   10 1     
   20   10   11 1     
   21   10   15 2     
   22   11   12 1     
   23   11   13 2     
   24   11   14 2     
   25   12   40 1     
   26   12   41 1     
   27   12   42 1     
   28   15   16 1     
   29   16   22 ar    
   30   16   17 ar    
   31   17   18 1     
   32   17   19 ar    
   33   18   43 1     
   34   18   44 1     
   35   19   20 ar    
   36   20   21 ar    
   37   20   45 1     
   38   21   22 ar    
   39   23   24 1     
   40   23   28 1     
   41   23   46 1     
   42   24   25 1     
   43   25   26 1     
   44   25   27 2     
   45   26   47 1     
   46   26   48 1     
   47   26   49 1     
   48   28   29 1     
   49   28   50 1     
   50   29   30 1     
   51   30   31 1     
   52   30   32 2     
   53   31   51 1     
   54   31   52 1     
   55   31   53 1     
   56    3   54 1     
   57    3   55 1     
   58    7   56 1     
   59    7   57 1     
   60   15   58 1     
   61   19   59 1     
   62   21   60 1     
   63   27   61 1     
   64   27   62 1     
   65   32   63 1     
   66   32   64 1     
@<TRIPOS>SUBSTRUCTURE
      1 S1             1
@<TRIPOS>SET
LONE_PAIRS      STATIC     ATOMS    <user>   **** ""
13 54 55 56 57 13 14 58 59 60 61 62 63 64
DONOR_HYDROGENS      STATIC     ATOMS    <user>   **** ""
2 43 44
ATOM$BLUE        STATIC     ATOMS    COLORGROUP SYSTEM
13 54 55 56 57 13 14 58 59 60 61 62 63 64
ATOM$RED        STATIC     ATOMS    COLORGROUP SYSTEM
2 43 44
