AV-unprocessed.smi:943|AV-procd|sdf|4230|dock3
  -GOLD-   22720 2133D 1   1.00000     0.00000
 Structure written by MMmdl.
 43 44  0  0  0  0  0  0  0  0  1 V2000
  154.6486  140.7845  161.8200 C   0  0  0  0  0  0  0  0  0  0  0  0
  153.6209  140.4510  160.7251 C   0  0  1  0  0  0  0  0  0  0  0  0
  153.7738  141.4096  159.5191 C   0  0  0  0  0  0  0  0  0  0  0  0
  153.3453  142.8795  159.7473 C   0  0  0  0  0  0  0  0  0  0  0  0
  152.5319  143.0046  161.0525 C   0  0  0  0  0  0  0  0  0  0  0  0
  152.0958  144.4538  161.3212 C   0  0  0  0  0  0  0  0  0  0  0  0
  151.2995  145.0224  160.1377 C   0  0  0  0  0  0  0  0  0  0  0  0
  152.0999  144.9105  158.8320 C   0  0  0  0  0  0  0  0  0  0  0  0
  152.5376  143.4607  158.5654 C   0  0  0  0  0  0  0  0  0  0  0  0
  153.7510  138.9771  160.3137 C   0  0  0  0  0  0  0  0  0  0  0  0
  154.5945  138.2549  160.8461 O   0  0  0  0  0  0  0  0  0  0  0  0
  152.9153  138.5480  159.3575 N   0  0  0  0  0  0  0  0  0  0  0  0
  152.9019  137.1939  158.8230 C   0  0  0  0  0  0  0  0  0  0  0  0
  153.2653  137.1979  157.3321 C   0  0  0  0  0  0  0  0  0  0  0  0
  152.3006  138.0036  156.5152 C   0  0  0  0  0  0  0  0  0  0  0  0
  151.4229  137.5267  155.5712 C   0  0  0  0  0  0  0  0  0  0  0  0
  150.4729  138.8020  154.8559 S   0  0  0  0  0  0  0  0  0  0  0  0
  151.3202  139.9446  155.8848 C   0  0  0  0  0  0  0  0  0  0  0  0
  152.2318  139.3909  156.6851 N   0  0  0  0  0  0  0  0  0  0  0  0
  154.5516  140.1134  162.6743 H   0  0  0  0  0  0  0  0  0  0  0  0
  154.5091  141.8013  162.1881 H   0  0  0  0  0  0  0  0  0  0  0  0
  155.6714  140.7063  161.4493 H   0  0  0  0  0  0  0  0  0  0  0  0
  152.6335  140.6000  161.1634 H   0  0  0  0  0  0  0  0  0  0  0  0
  154.8152  141.3971  159.1947 H   0  0  0  0  0  0  0  0  0  0  0  0
  153.2043  141.0066  158.6800 H   0  0  0  0  0  0  0  0  0  0  0  0
  154.2423  143.4871  159.8720 H   0  0  0  0  0  0  0  0  0  0  0  0
  151.6496  142.3652  161.0000 H   0  0  0  0  0  0  0  0  0  0  0  0
  153.1221  142.6439  161.8955 H   0  0  0  0  0  0  0  0  0  0  0  0
  151.4939  144.4979  162.2293 H   0  0  0  0  0  0  0  0  0  0  0  0
  152.9752  145.0730  161.5025 H   0  0  0  0  0  0  0  0  0  0  0  0
  150.3570  144.4825  160.0369 H   0  0  0  0  0  0  0  0  0  0  0  0
  151.0413  146.0643  160.3288 H   0  0  0  0  0  0  0  0  0  0  0  0
  151.5024  145.2781  157.9974 H   0  0  0  0  0  0  0  0  0  0  0  0
  152.9800  145.5525  158.8875 H   0  0  0  0  0  0  0  0  0  0  0  0
  153.1304  143.4398  157.6513 H   0  0  0  0  0  0  0  0  0  0  0  0
  151.6585  142.8423  158.3790 H   0  0  0  0  0  0  0  0  0  0  0  0
  152.2512  139.2035  158.9719 H   0  0  0  0  0  0  0  0  0  0  0  0
  153.6121  136.5793  159.3787 H   0  0  0  0  0  0  0  0  0  0  0  0
  151.9122  136.7579  158.9684 H   0  0  0  0  0  0  0  0  0  0  0  0
  154.2751  137.5904  157.2047 H   0  0  0  0  0  0  0  0  0  0  0  0
  153.2953  136.1715  156.9637 H   0  0  0  0  0  0  0  0  0  0  0  0
  151.2767  136.5041  155.2557 H   0  0  0  0  0  0  0  0  0  0  0  0
  151.1486  141.0108  155.8995 H   0  0  0  0  0  0  0  0  0  0  0  0
  1  2  1  0  0  0  0
  1 20  1  0  0  0  0
  1 21  1  0  0  0  0
  1 22  1  0  0  0  0
  2  3  1  0  0  0  0
  2 10  1  0  0  0  0
  2 23  1  0  0  0  0
  3  4  1  0  0  0  0
  3 24  1  0  0  0  0
  3 25  1  0  0  0  0
  4  9  1  0  0  0  0
  4  5  1  0  0  0  0
  4 26  1  0  0  0  0
  5  6  1  0  0  0  0
  5 27  1  0  0  0  0
  5 28  1  0  0  0  0
  6  7  1  0  0  0  0
  6 29  1  0  0  0  0
  6 30  1  0  0  0  0
  7  8  1  0  0  0  0
  7 31  1  0  0  0  0
  7 32  1  0  0  0  0
  8  9  1  0  0  0  0
  8 33  1  0  0  0  0
  8 34  1  0  0  0  0
  9 35  1  0  0  0  0
  9 36  1  0  0  0  0
 10 11  2  0  0  0  0
 10 12  1  0  0  0  0
 12 13  1  0  0  0  0
 12 37  1  0  0  0  0
 13 14  1  0  0  0  0
 13 38  1  0  0  0  0
 13 39  1  0  0  0  0
 14 15  1  0  0  0  0
 14 40  1  0  0  0  0
 14 41  1  0  0  0  0
 15 19  1  0  0  0  0
 15 16  2  0  0  0  0
 16 17  1  0  0  0  0
 16 42  1  0  0  0  0
 17 18  1  0  0  0  0
 18 19  2  0  0  0  0
 18 43  1  0  0  0  0
M  END
> <s_m_source_file>
AV-unprocessed.smi

> <i_m_source_file_index>
943

> <i_lp_mmshare_version>
43012

> <i_f3d_flags>
0

> <s_epik_input>
W0NIMl0xW0NIMl1bQ0gyXVtDSDJdW0NIMl1bQ0hdMVtDSDJdW0NAQEhdKFtDSDNdKUMoPU8pW05IXVtDSDJdW0NIMl1jMltjSF1zW2NIXW4y

> <s_epik_cmdline>
J2VwaWtfcHl0aG9uJywgJy1waCcsICc3LjAnLCAnLXRuJywgJzgnLCAnLW1hJywgJzIwMCcsICctbWV0YWxfYmluZGluZycsICctaW1hZScsICc8aW5maWxlLm1hZT4nLCAnLW9tYWUnLCAnPG91dGZpbGUubWFlPic=

> <r_lp_tautomer_probability>
1

> <r_epik_Ionization_Penalty>
0.000194757

> <r_epik_Ionization_Penalty_Charging>
0

> <r_epik_Ionization_Penalty_Neutral>
0.000194757

> <r_epik_State_Penalty>
-0

> <r_epik_Charging_Adjusted_Penalty>
0

> <i_epik_Tot_Q>
0

> <i_epik_Tot_abs_Q>
0

> <r_epik_Metal_State_Penalty>
-0

> <b_epik_Metal_Only>
0

> <s_lp_Force_Field>
OPLS_2005

> <r_lp_Energy>
6.44142

> <b_lp_Chiralities_Consistent>
1

> <s_lp_Variant>
AV-unprocessed.smi:943-2

> <Gold.Version>
5.8.1

> <Gold.Id.Protein>
6NUR|6NUR_protein|mol2

> <Gold.PLP.Fitness>
46.8387

> <Gold.PLP.PLP>
-45.1658

> <Gold.PLP.part.hbond>
-1.0000

> <Gold.PLP.part.metal>
0.0000

> <Gold.PLP.part.buried>
-2.8089

> <Gold.PLP.part.nonpolar>
-40.7192

> <Gold.PLP.part.repulsive>
0.0835

> <Gold.PLP.ligand.clash>
0.0000

> <Gold.PLP.ligand.torsion>
0.7713

> <Gold.PLP.Chemscore.Hbond>
1.0000

> <Gold.PLP.Chemscore.CHOScore>
0.0000

> <Gold.PLP.Chemscore.Metal>
0.0000

> <Gold.Chemscore.Hbonds>
donor molecule, donor type, donor heavy atom, donor atom, acceptor molecule, acceptor atom, score
      P1  H  7997  8009       L1    19  0.46

> <Gold.PLP.Chemscore.Internal.Correction>
0.2155

> <Gold.Rescore>
     Score         DG    S(hbond)    S(metal)    S(lipo)     H(rot)  DE(clash)    DE(int)     intcor
     19.56     -20.90       0.94        0.00     139.46       1.58       0.29       1.05       ----

> <Gold.Chemscore.Fitness>
19.5612

> <Gold.Chemscore.DG>
-20.9022

> <Gold.Chemscore.ZeroCoef>
-5.4800

> <Gold.Chemscore.Hbond>
0.9424

> <Gold.Chemscore.Metal>
0.0000

> <Gold.Chemscore.Lipo>
139.4562

> <Gold.Chemscore.Internal_Hbond>
0.0000

> <Gold.Chemscore.DEClash>
0.2940

> <Gold.Chemscore.DEInternal>
1.0469

> <Gold.Chemscore.Rot>
1.5789

> <Gold.Chemscore.Internal.Correction>
   9.000000E+99

> <Gold.Chemscore.Hbonds>
donor molecule, donor type, donor heavy atom, donor atom, acceptor molecule, acceptor atom, score
      P1  H  7997  8009       L1    19  0.20

> <Gold.Chemscore.Hbond.Weighted>
-3.1476

> <Gold.Chemscore.Metal.Weighted>
-0.0000

> <Gold.Chemscore.Lipo.Weighted>
-16.3164

> <Gold.Chemscore.Internal_Hbond.Weighted>
0.0000

> <Gold.Chemscore.DEClash.Weighted>
0.2940

> <Gold.Chemscore.DEInternal.Weighted>
1.0469

> <Gold.Chemscore.Rot.Weighted>
4.0419

> <Gold.Chemscore.Internal.Correction.Weighted>
   9.000000E+99

> <Gold.Protein.RotatedTorsions>
[ 6907 6896 6895 6894 ] final   40.57 input  -60.11 | X-H torsion
[ 7974 7965 7964 7962 ] final  -16.29 input  175.53 | X-H torsion
[ 8008 7997 7996 7995 ] final -162.14 input   59.86 | X-H torsion
[ 10167 10162 10161 10158 ] final  127.32 input  -65.29 | X-H torsion
[ 10718 10713 10712 10709 ] final  166.14 input   66.30 | X-H torsion
[ 10763 10752 10751 10750 ] final   -0.90 input  -60.55 | X-H torsion
[ 11005 11000 10999 10996 ] final  -12.23 input  -57.11 | X-H torsion

> <Gold.Protein.ActiveResidues>
 VAL166  LYS551  ARG553  GLY616  TRP617  ASP618  TYR619  PRO620  LYS621  CYS622 
 ASP623  PHE694  ASN695  SER759  ASP760  ASP761  ALA762  ILE779  LEU786  VAL792 
 PHE793  MET794  SER795  GLU796  ALA797  LYS798  CYS799  TRP800  GLU811  SER814 

> <Gold.Protein.RotatedAtoms>
  152.1842  134.8728  160.0523 H   0  0  0  0  0  0  0  0  0  0  0  0  # atno 6907 bound_to 6896
  151.9641  133.3699  159.4054 H   0  0  0  0  0  0  0  0  0  0  0  0  # atno 6908 bound_to 6896
  150.6923  134.4133  159.5215 H   0  0  0  0  0  0  0  0  0  0  0  0  # atno 6909 bound_to 6896
  146.1994  140.3615  142.8429 H   0  0  0  0  0  0  0  0  0  0  0  0  # atno 7974 bound_to 7965
  155.8025  140.0894  157.1949 H   0  0  0  0  0  0  0  0  0  0  0  0  # atno 8008 bound_to 7997
  154.3981  140.1470  156.3350 H   0  0  0  0  0  0  0  0  0  0  0  0  # atno 8009 bound_to 7997
  155.8448  140.3437  155.5658 H   0  0  0  0  0  0  0  0  0  0  0  0  # atno 8010 bound_to 7997
  139.5584  144.6865  151.4114 H   0  0  0  0  0  0  0  0  0  0  0  0  # atno 10167 bound_to 10162
  157.0701  131.0364  151.2615 H   0  0  0  0  0  0  0  0  0  0  0  0  # atno 10718 bound_to 10713
  153.3379  135.6979  153.6892 H   0  0  0  0  0  0  0  0  0  0  0  0  # atno 10763 bound_to 10752
  153.5669  135.3524  155.2822 H   0  0  0  0  0  0  0  0  0  0  0  0  # atno 10764 bound_to 10752
  154.8631  135.4263  154.2584 H   0  0  0  0  0  0  0  0  0  0  0  0  # atno 10765 bound_to 10752
  140.7635  133.8496  155.9145 H   0  0  0  0  0  0  0  0  0  0  0  0  # atno 11005 bound_to 11000
  144.8650  140.7193  143.6083 LP  0  0  0  0  0  0  0  0  0  0  0  0  # atno 17320 bound_to 7965
  145.3535  139.1700  143.4422 LP  0  0  0  0  0  0  0  0  0  0  0  0  # atno 17321 bound_to 7965
  140.6861  143.7971  150.7188 LP  0  0  0  0  0  0  0  0  0  0  0  0  # atno 17342 bound_to 10162
  140.1439  143.4417  152.2175 LP  0  0  0  0  0  0  0  0  0  0  0  0  # atno 17343 bound_to 10162
  157.4885  130.7808  149.7484 LP  0  0  0  0  0  0  0  0  0  0  0  0  # atno 17370 bound_to 10713
  155.9953  130.3913  150.2824 LP  0  0  0  0  0  0  0  0  0  0  0  0  # atno 17371 bound_to 10713
  140.9641  134.1617  157.4630 LP  0  0  0  0  0  0  0  0  0  0  0  0  # atno 17394 bound_to 11000
  139.8767  134.9955  156.5748 LP  0  0  0  0  0  0  0  0  0  0  0  0  # atno 17395 bound_to 11000

$$$$
