AV-unprocessed.smi:245|AV-procd|sdf|1877|dock5
  -GOLD-   2262020523D 1   1.00000     0.00000
 Structure written by MMmdl.
 54 58  0  0  0  0  0  0  0  0  1 V2000
  145.7409  142.5516  155.0389 O   0  0  0  0  0  0  0  0  0  0  0  0
  146.5638  141.6445  155.1385 C   0  0  0  0  0  0  0  0  0  0  0  0
  146.0926  140.1817  155.0514 C   0  0  0  0  0  0  0  0  0  0  0  0
  147.1577  139.1678  155.1361 N   0  0  0  0  0  0  0  0  0  0  0  0
  146.7053  137.9617  154.7156 C   0  0  0  0  0  0  0  0  0  0  0  0
  146.6098  136.9260  155.5911 N   0  0  0  0  0  0  0  0  0  0  0  0
  146.1826  135.7320  155.1699 C   0  0  0  0  0  0  0  0  0  0  0  0
  145.8182  135.3616  153.9404 N   0  0  0  0  0  0  0  0  0  0  0  0
  145.9285  136.3951  153.0565 C   0  0  0  0  0  0  0  0  0  0  0  0
  146.3609  137.7164  153.3597 C   0  0  0  0  0  0  0  0  0  0  0  0
  146.3376  138.5010  152.2144 N   0  0  0  0  0  0  0  0  0  0  0  0
  145.9094  137.6900  151.2854 C   0  0  0  0  0  0  0  0  0  0  0  0
  145.6532  136.4003  151.6992 N   0  0  0  0  0  0  0  0  0  0  0  0
  145.1552  135.3158  150.9001 C   0  0  0  0  0  0  0  0  0  0  0  0
  144.1165  134.3251  151.4363 C   0  0  0  0  0  0  0  0  0  0  0  0
  144.8223  133.1676  150.6934 C   0  0  0  0  0  0  0  0  0  0  0  0
  145.0679  131.9049  151.5337 C   0  0  0  0  0  0  0  0  0  0  0  0
  146.1593  131.1570  151.0373 O   0  0  0  0  0  0  0  0  0  0  0  0
  144.2000  132.7091  149.3555 C   0  0  0  0  0  0  0  0  0  0  0  0
  142.9488  132.0707  149.5112 O   0  0  0  0  0  0  0  0  0  0  0  0
  146.0439  134.1097  150.5927 C   0  0  0  0  0  0  0  0  0  0  0  0
  148.5166  139.5677  154.7499 C   0  0  2  0  0  0  0  0  0  0  0  0
  149.5941  138.4960  155.0509 C   0  0  0  0  0  0  0  0  0  0  0  0
  150.9932  138.9847  154.6384 C   0  0  0  0  0  0  0  0  0  0  0  0
  151.3510  140.3171  155.3155 C   0  0  0  0  0  0  0  0  0  0  0  0
  150.2726  141.3823  155.0606 C   0  0  0  0  0  0  0  0  0  0  0  0
  148.8878  140.8704  155.4929 C   0  0  1  0  0  0  0  0  0  0  0  0
  147.8713  141.8974  155.3038 N   0  0  0  0  0  0  0  0  0  0  0  0
  145.3794  140.0105  155.8587 H   0  0  0  0  0  0  0  0  0  0  0  0
  145.5415  140.0702  154.1153 H   0  0  0  0  0  0  0  0  0  0  0  0
  146.1268  134.9625  155.9257 H   0  0  0  0  0  0  0  0  0  0  0  0
  145.7662  138.0190  150.2668 H   0  0  0  0  0  0  0  0  0  0  0  0
  144.7882  135.7595  149.9737 H   0  0  0  0  0  0  0  0  0  0  0  0
  144.1496  134.2082  152.5200 H   0  0  0  0  0  0  0  0  0  0  0  0
  143.0975  134.5237  151.1028 H   0  0  0  0  0  0  0  0  0  0  0  0
  145.2561  132.1555  152.5783 H   0  0  0  0  0  0  0  0  0  0  0  0
  144.1916  131.2558  151.5258 H   0  0  0  0  0  0  0  0  0  0  0  0
  145.9452  130.2383  151.0952 H   0  0  0  0  0  0  0  0  0  0  0  0
  144.0566  133.5576  148.6858 H   0  0  0  0  0  0  0  0  0  0  0  0
  144.8580  132.0107  148.8375 H   0  0  0  0  0  0  0  0  0  0  0  0
  142.2695  132.7264  149.4672 H   0  0  0  0  0  0  0  0  0  0  0  0
  146.5186  134.1436  149.6116 H   0  0  0  0  0  0  0  0  0  0  0  0
  146.7849  133.9339  151.3741 H   0  0  0  0  0  0  0  0  0  0  0  0
  148.5133  139.7679  153.6763 H   0  0  0  0  0  0  0  0  0  0  0  0
  149.5883  138.2552  156.1150 H   0  0  0  0  0  0  0  0  0  0  0  0
  149.3871  137.5641  154.5260 H   0  0  0  0  0  0  0  0  0  0  0  0
  151.7389  138.2298  154.8887 H   0  0  0  0  0  0  0  0  0  0  0  0
  151.0295  139.1062  153.5549 H   0  0  0  0  0  0  0  0  0  0  0  0
  151.4609  140.1608  156.3894 H   0  0  0  0  0  0  0  0  0  0  0  0
  152.3172  140.6709  154.9548 H   0  0  0  0  0  0  0  0  0  0  0  0
  150.5240  142.2941  155.6038 H   0  0  0  0  0  0  0  0  0  0  0  0
  150.2584  141.6446  154.0018 H   0  0  0  0  0  0  0  0  0  0  0  0
  148.9183  140.6650  156.5647 H   0  0  0  0  0  0  0  0  0  0  0  0
  148.1721  142.8606  155.3408 H   0  0  0  0  0  0  0  0  0  0  0  0
  1  2  2  0  0  0  0
  2 28  1  0  0  0  0
  2  3  1  0  0  0  0
  3  4  1  0  0  0  0
  3 29  1  0  0  0  0
  3 30  1  0  0  0  0
  4  5  1  0  0  0  0
  4 22  1  0  0  0  0
  5 10  1  0  0  0  0
  5  6  2  0  0  0  0
  6  7  1  0  0  0  0
  7  8  2  0  0  0  0
  7 31  1  0  0  0  0
  8  9  1  0  0  0  0
  9 13  1  0  0  0  0
  9 10  2  0  0  0  0
 10 11  1  0  0  0  0
 11 12  2  0  0  0  0
 12 13  1  0  0  0  0
 12 32  1  0  0  0  0
 13 14  1  0  0  0  0
 14 21  1  0  0  0  0
 14 15  1  0  0  0  0
 14 33  1  0  0  0  0
 15 16  1  0  0  0  0
 15 34  1  0  0  0  0
 15 35  1  0  0  0  0
 16 17  1  0  0  0  0
 16 19  1  0  0  0  0
 16 21  1  0  0  0  0
 17 18  1  0  0  0  0
 17 36  1  0  0  0  0
 17 37  1  0  0  0  0
 18 38  1  0  0  0  0
 19 20  1  0  0  0  0
 19 39  1  0  0  0  0
 19 40  1  0  0  0  0
 20 41  1  0  0  0  0
 21 42  1  0  0  0  0
 21 43  1  0  0  0  0
 22 27  1  0  0  0  0
 22 23  1  0  0  0  0
 22 44  1  0  0  0  0
 23 24  1  0  0  0  0
 23 45  1  0  0  0  0
 23 46  1  0  0  0  0
 24 25  1  0  0  0  0
 24 47  1  0  0  0  0
 24 48  1  0  0  0  0
 25 26  1  0  0  0  0
 25 49  1  0  0  0  0
 25 50  1  0  0  0  0
 26 27  1  0  0  0  0
 26 51  1  0  0  0  0
 26 52  1  0  0  0  0
 27 28  1  0  0  0  0
 27 53  1  0  0  0  0
 28 54  1  0  0  0  0
M  END
> <s_m_source_file>
AV-unprocessed.smi

> <i_m_source_file_index>
245

> <i_lp_mmshare_version>
43012

> <i_f3d_flags>
0

> <s_epik_input>
W0NIMl0xW0NIMl1bQ0gyXVtDSDJdW0NASF0oW0NASF0xMilbTkhdQyg9TylbQ0gyXU4yYyhuW2NIXW4zKWMoYzM0KW5bY0hdbjRbQ0hdKFtDSDJdNSlbQ0gyXUM1KFtDSDJdW09IXSlbQ0gyXVtPSF0=

> <s_epik_cmdline>
J2VwaWtfcHl0aG9uJywgJy1waCcsICc3LjAnLCAnLXRuJywgJzgnLCAnLW1hJywgJzIwMCcsICctbWV0YWxfYmluZGluZycsICctaW1hZScsICc8aW5maWxlLm1hZT4nLCAnLW9tYWUnLCAnPG91dGZpbGUubWFlPic=

> <r_lp_tautomer_probability>
1

> <r_epik_Ionization_Penalty>
0.000702616

> <r_epik_Ionization_Penalty_Charging>
0

> <r_epik_Ionization_Penalty_Neutral>
0.000702616

> <r_epik_State_Penalty>
0.000343985

> <r_epik_Charging_Adjusted_Penalty>
0.000343985

> <i_epik_Tot_Q>
0

> <i_epik_Tot_abs_Q>
0

> <r_epik_Metal_State_Penalty>
-0

> <b_epik_Metal_Only>
0

> <s_lp_Force_Field>
OPLS_2005

> <r_lp_Energy>
50.1647

> <b_lp_Chiralities_Consistent>
1

> <s_lp_Variant>
AV-unprocessed.smi:245-2

> <Gold.Version>
5.8.1

> <Gold.Id.Protein>
6NUR|6NUR_protein|mol2

> <Gold.PLP.Fitness>
48.3783

> <Gold.PLP.PLP>
-39.1096

> <Gold.PLP.part.hbond>
-4.2882

> <Gold.PLP.part.metal>
0.0000

> <Gold.PLP.part.buried>
-3.8230

> <Gold.PLP.part.nonpolar>
-32.4502

> <Gold.PLP.part.repulsive>
0.6969

> <Gold.PLP.ligand.clash>
0.0000

> <Gold.PLP.ligand.torsion>
0.8139

> <Gold.PLP.Chemscore.Hbond>
2.7550

> <Gold.PLP.Chemscore.CHOScore>
0.6129

> <Gold.PLP.Chemscore.Metal>
0.0000

> <Gold.Chemscore.Hbonds>
donor molecule, donor type, donor heavy atom, donor atom, acceptor molecule, acceptor atom, score
      L1  H    20    41       P1 10186  0.81
      L1  H    28    54       P1  8028  1.00
      P1  H 10785 10796       L1    20  0.84
      L1  C    12    32       P1 10171  0.69

> <Gold.PLP.Chemscore.Internal.Correction>
0.7928

> <Gold.Rescore>
     Score         DG    S(hbond)    S(metal)    S(lipo)     H(rot)  DE(clash)    DE(int)     intcor
     12.02     -15.06       2.43        0.00      84.23       3.28       2.15       0.89       ----

> <Gold.Chemscore.Fitness>
12.0193

> <Gold.Chemscore.DG>
-15.0553

> <Gold.Chemscore.ZeroCoef>
-5.4800

> <Gold.Chemscore.Hbond>
2.4272

> <Gold.Chemscore.Metal>
0.0000

> <Gold.Chemscore.Lipo>
84.2269

> <Gold.Chemscore.Internal_Hbond>
0.0000

> <Gold.Chemscore.DEClash>
2.1473

> <Gold.Chemscore.DEInternal>
0.8887

> <Gold.Chemscore.Rot>
3.2758

> <Gold.Chemscore.Internal.Correction>
   9.000000E+99

> <Gold.Chemscore.Hbonds>
donor molecule, donor type, donor heavy atom, donor atom, acceptor molecule, acceptor atom, score
      L1  H    20    41       P1 10186  0.80
      L1  H    28    54       P1  8028  0.94
      P1  H 10785 10796       L1    20  0.45

> <Gold.Chemscore.Hbond.Weighted>
-8.1067

> <Gold.Chemscore.Metal.Weighted>
-0.0000

> <Gold.Chemscore.Lipo.Weighted>
-9.8545

> <Gold.Chemscore.Internal_Hbond.Weighted>
0.0000

> <Gold.Chemscore.DEClash.Weighted>
2.1473

> <Gold.Chemscore.DEInternal.Weighted>
0.8887

> <Gold.Chemscore.Rot.Weighted>
8.3859

> <Gold.Chemscore.Internal.Correction.Weighted>
   9.000000E+99

> <Gold.Protein.RotatedTorsions>
[ 6907 6896 6895 6894 ] final  102.38 input  -60.11 | X-H torsion
[ 7974 7965 7964 7962 ] final  178.08 input  175.53 | X-H torsion
[ 8008 7997 7996 7995 ] final   91.37 input   59.86 | X-H torsion
[ 10167 10162 10161 10158 ] final  -53.34 input  -65.29 | X-H torsion
[ 10718 10713 10712 10709 ] final  116.63 input   66.30 | X-H torsion
[ 10763 10752 10751 10750 ] final  -39.06 input  -60.55 | X-H torsion
[ 11005 11000 10999 10996 ] final  168.15 input  -57.11 | X-H torsion

> <Gold.Protein.ActiveResidues>
 VAL166  LYS551  ARG553  GLY616  TRP617  ASP618  TYR619  PRO620  LYS621  CYS622 
 ASP623  PHE694  ASN695  SER759  ASP760  ASP761  ALA762  ILE779  LEU786  VAL792 
 PHE793  MET794  SER795  GLU796  ALA797  LYS798  CYS799  TRP800  GLU811  SER814 

> <Gold.Protein.RotatedAtoms>
  152.5325  133.9983  159.7882 H   0  0  0  0  0  0  0  0  0  0  0  0  # atno 6907 bound_to 6896
  151.0207  133.5872  159.2679 H   0  0  0  0  0  0  0  0  0  0  0  0  # atno 6908 bound_to 6896
  151.2912  135.0749  159.9258 H   0  0  0  0  0  0  0  0  0  0  0  0  # atno 6909 bound_to 6896
  144.7160  140.0343  143.6438 H   0  0  0  0  0  0  0  0  0  0  0  0  # atno 7974 bound_to 7965
  156.0230  140.3338  155.7059 H   0  0  0  0  0  0  0  0  0  0  0  0  # atno 8008 bound_to 7997
  155.5995  140.0654  157.2754 H   0  0  0  0  0  0  0  0  0  0  0  0  # atno 8009 bound_to 7997
  154.4323  140.1813  156.1146 H   0  0  0  0  0  0  0  0  0  0  0  0  # atno 8010 bound_to 7997
  140.6490  143.2553  151.4778 H   0  0  0  0  0  0  0  0  0  0  0  0  # atno 10167 bound_to 10162
  157.6148  131.1027  150.7500 H   0  0  0  0  0  0  0  0  0  0  0  0  # atno 10718 bound_to 10713
  153.9231  135.6780  153.4747 H   0  0  0  0  0  0  0  0  0  0  0  0  # atno 10763 bound_to 10752
  153.1018  135.4824  154.8877 H   0  0  0  0  0  0  0  0  0  0  0  0  # atno 10764 bound_to 10752
  154.7467  135.3174  154.8588 H   0  0  0  0  0  0  0  0  0  0  0  0  # atno 10765 bound_to 10752
  140.2842  134.7725  157.3784 H   0  0  0  0  0  0  0  0  0  0  0  0  # atno 11005 bound_to 11000
  146.0076  139.3143  143.0890 LP  0  0  0  0  0  0  0  0  0  0  0  0  # atno 17320 bound_to 7965
  145.8720  140.9414  143.0646 LP  0  0  0  0  0  0  0  0  0  0  0  0  # atno 17321 bound_to 7965
  139.5703  144.1944  152.1826 LP  0  0  0  0  0  0  0  0  0  0  0  0  # atno 17342 bound_to 10162
  140.1238  144.5349  150.6845 LP  0  0  0  0  0  0  0  0  0  0  0  0  # atno 17343 bound_to 10162
  156.7869  130.4877  149.5391 LP  0  0  0  0  0  0  0  0  0  0  0  0  # atno 17370 bound_to 10713
  156.1266  130.6148  151.0272 LP  0  0  0  0  0  0  0  0  0  0  0  0  # atno 17371 bound_to 10713
  140.1255  134.5164  155.8148 LP  0  0  0  0  0  0  0  0  0  0  0  0  # atno 17394 bound_to 11000
  141.2157  133.6771  156.6943 LP  0  0  0  0  0  0  0  0  0  0  0  0  # atno 17395 bound_to 11000

$$$$
