#       Name:                AV-unprocessed.smi:2538
#       Creating user name   scv26
#       Creation time:       Fri Mar 27 14:02:56 2020


#       File generated by GOLD software.
#

@<TRIPOS>MOLECULE
AV-unprocessed.smi:2538
    51    52     1
SMALL
NO_CHARGES


@<TRIPOS>ATOM
      1 ****        -5.8522   2.5548  -2.0742 C.3            1 S1                 0.0000
      2 ****        -4.5063   2.1961  -1.4690 C.ar           1 S1                 0.0000
      3 ****        -4.4624   1.3141  -0.3658 C.ar           1 S1                 0.0000
      4 ****        -3.2319   0.9540   0.2254 C.ar           1 S1                 0.0000
      5 ****        -2.9596   0.1163   1.2936 N.2            1 S1                 0.0000
      6 ****        -1.6337   0.1904   1.3605 C.2            1 S1                 0.0000
      7 ****        -1.0141   0.9766   0.4594 N.pl3          1 S1                 0.0000
      8 ****         0.4143   1.2057   0.3466 C.3            1 S1                 0.0000
      9 ****         1.1278   0.0664  -0.4095 C.3            1 S1                 0.0000
     10 ****         0.6938   0.1033  -1.7555 O.3            1 S1                 0.0000
     11 ****         2.6679   0.2018  -0.3732 C.3            1 S1                 0.0000
     12 ****         3.3011  -1.0113   0.1727 N.pl3          1 S1                 0.0000
     13 ****         4.4465  -1.5185  -0.5899 C.3            1 S1                 0.0000
     14 ****         3.2322  -1.3509   1.8732 S.o2           1 S1                 0.0000
     15 ****         4.5988  -1.2093   2.3998 O.2            1 S1                 0.0000
     16 ****         2.1389  -0.5574   2.4549 O.2            1 S1                 0.0000
     17 ****         2.7367  -3.1412   1.8893 C.3            1 S1                 0.0000
     18 ****         1.3446  -3.3169   2.5129 C.3            1 S1                 0.0000
     19 ****         3.7948  -3.9897   2.6084 C.3            1 S1                 0.0000
     20 ****        -2.0362   1.5067  -0.3201 C.ar           1 S1                 0.0000
     21 ****        -2.0665   2.3841  -1.4185 C.ar           1 S1                 0.0000
     22 ****        -3.3046   2.7314  -1.9987 C.ar           1 S1                 0.0000
     23 ****        -3.3266   3.6753  -3.1880 C.3            1 S1                 0.0000
     24 ****        -6.6720   2.0931  -1.5233 H              1 S1                 0.0000
     25 ****        -5.9082   2.2124  -3.1077 H              1 S1                 0.0000
     26 ****        -6.0056   3.6341  -2.0571 H              1 S1                 0.0000
     27 ****        -5.3769   0.9041   0.0365 H              1 S1                 0.0000
     28 ****        -1.0779  -0.3606   2.1057 H              1 S1                 0.0000
     29 ****         0.5843   2.1634  -0.1473 H              1 S1                 0.0000
     30 ****         0.8125   1.3114   1.3552 H              1 S1                 0.0000
     31 ****         0.8210  -0.8931   0.0099 H              1 S1                 0.0000
     32 ****        -0.2459   0.0027  -1.7696 H              1 S1                 0.0000
     33 ****         3.0590   0.4125  -1.3703 H              1 S1                 0.0000
     34 ****         2.9715   1.0503   0.2411 H              1 S1                 0.0000
     35 ****         4.1945  -1.6104  -1.6467 H              1 S1                 0.0000
     36 ****         4.7408  -2.5027  -0.2256 H              1 S1                 0.0000
     37 ****         5.2964  -0.8435  -0.4853 H              1 S1                 0.0000
     38 ****         2.6851  -3.4694   0.8511 H              1 S1                 0.0000
     39 ****         1.0350  -4.3621   2.4905 H              1 S1                 0.0000
     40 ****         0.5948  -2.7418   1.9686 H              1 S1                 0.0000
     41 ****         1.3315  -2.9879   3.5524 H              1 S1                 0.0000
     42 ****         3.5215  -5.0450   2.6041 H              1 S1                 0.0000
     43 ****         3.9107  -3.6798   3.6475 H              1 S1                 0.0000
     44 ****         4.7666  -3.9016   2.1220 H              1 S1                 0.0000
     45 ****        -1.1437   2.7842  -1.8124 H              1 S1                 0.0000
     46 ****        -2.3189   3.9788  -3.4731 H              1 S1                 0.0000
     47 ****        -3.8934   4.5761  -2.9513 H              1 S1                 0.0000
     48 ****        -3.7866   3.1925  -4.0506 H              1 S1                 0.0000
     49 ****        -3.5929  -0.4065   1.8642 LP             1 S1                 0.0000
     50 ****         1.1207  -0.6415  -2.2683 LP             1 S1                 0.0000
     51 ****         0.9458   0.9790  -2.1675 LP             1 S1                 0.0000
@<TRIPOS>BOND
    1    1    2 1     
    2    1   24 1     
    3    1   25 1     
    4    1   26 1     
    5    2   22 ar    
    6    2    3 ar    
    7    3    4 ar    
    8    3   27 1     
    9    4   20 ar    
   10    4    5 1     
   11    5    6 2     
   12    6    7 1     
   13    6   28 1     
   14    7    8 1     
   15    7   20 1     
   16    8    9 1     
   17    8   29 1     
   18    8   30 1     
   19    9   10 1     
   20    9   11 1     
   21    9   31 1     
   22   10   32 1     
   23   11   12 1     
   24   11   33 1     
   25   11   34 1     
   26   12   13 1     
   27   12   14 1     
   28   13   35 1     
   29   13   36 1     
   30   13   37 1     
   31   14   15 2     
   32   14   16 2     
   33   14   17 1     
   34   17   18 1     
   35   17   19 1     
   36   17   38 1     
   37   18   39 1     
   38   18   40 1     
   39   18   41 1     
   40   19   42 1     
   41   19   43 1     
   42   19   44 1     
   43   20   21 ar    
   44   21   22 ar    
   45   21   45 1     
   46   22   23 1     
   47   23   46 1     
   48   23   47 1     
   49   23   48 1     
   50    5   49 1     
   51   10   50 1     
   52   10   51 1     
@<TRIPOS>SUBSTRUCTURE
      1 S1             1
@<TRIPOS>SET
LONE_PAIRS      STATIC     ATOMS    <user>   **** ""
5 49 50 51 15 16
DONOR_HYDROGENS      STATIC     ATOMS    <user>   **** ""
1 32
ATOM$BLUE        STATIC     ATOMS    COLORGROUP SYSTEM
5 49 50 51 15 16
ATOM$RED        STATIC     ATOMS    COLORGROUP SYSTEM
1 32
