AV-unprocessed.smi:99|AV-procd|sdf|870|dock1
  -GOLD-   2262017323D 1   1.00000     0.00000
 Structure written by MMmdl.
 53 56  0  0  0  0  0  0  0  0  1 V2000
  152.3954  138.8245  159.5446 O   0  0  0  0  0  0  0  0  0  0  0  0
  151.7298  139.5649  158.8176 C   0  0  0  0  0  0  0  0  0  0  0  0
  150.8988  139.1155  157.8570 O   0  0  0  0  0  0  0  0  0  0  0  0
  150.3173  137.8275  157.9704 C   0  0  0  0  0  0  0  0  0  0  0  0
  149.4516  137.5502  156.7340 C   0  0  1  0  0  0  0  0  0  0  0  0
  149.9565  136.4508  155.9917 O   0  0  0  0  0  0  0  0  0  0  0  0
  148.9432  135.9735  155.1644 C   0  0  1  0  0  0  0  0  0  0  0  0
  149.1011  134.4723  155.0735 N   0  0  0  0  0  0  0  0  0  0  0  0
  150.1153  133.8323  155.7724 C   0  0  0  0  0  0  0  0  0  0  0  0
  150.3348  132.4983  155.7069 C   0  0  0  0  0  0  0  0  0  0  0  0
  149.4953  131.6521  154.8661 C   0  0  0  0  0  0  0  0  0  0  0  0
  149.6116  130.4346  154.7449 O   0  0  0  0  0  0  0  0  0  0  0  0
  148.4993  132.3382  154.1653 N   0  0  0  0  0  0  0  0  0  0  0  0
  148.2665  133.7137  154.2216 C   0  0  0  0  0  0  0  0  0  0  0  0
  147.3594  134.2054  153.5519 O   0  0  0  0  0  0  0  0  0  0  0  0
  147.5911  136.3673  155.7886 C   0  0  2  0  0  0  0  0  0  0  0  0
  146.8290  137.2012  154.9392 O   0  0  0  0  0  0  0  0  0  0  0  0
  148.0024  137.1495  157.0352 C   0  0  1  0  0  0  0  0  0  0  0  0
  147.9484  136.3194  158.1904 O   0  0  0  0  0  0  0  0  0  0  0  0
  147.8676  136.8485  159.4286 C   0  0  0  0  0  0  0  0  0  0  0  0
  148.0088  138.0486  159.6701 O   0  0  0  0  0  0  0  0  0  0  0  0
  147.5772  135.8242  160.4722 C   0  0  0  0  0  0  0  0  0  0  0  0
  147.3950  136.2334  161.8137 C   0  0  0  0  0  0  0  0  0  0  0  0
  147.1154  135.2882  162.8199 C   0  0  0  0  0  0  0  0  0  0  0  0
  147.0143  133.9226  162.4966 C   0  0  0  0  0  0  0  0  0  0  0  0
  147.1934  133.5027  161.1657 C   0  0  0  0  0  0  0  0  0  0  0  0
  147.4735  134.4460  160.1581 C   0  0  0  0  0  0  0  0  0  0  0  0
  151.7591  141.0532  158.9111 C   0  0  0  0  0  0  0  0  0  0  0  0
  151.0088  141.8201  157.9892 C   0  0  0  0  0  0  0  0  0  0  0  0
  151.0172  143.2271  158.0517 C   0  0  0  0  0  0  0  0  0  0  0  0
  151.7763  143.8846  159.0371 C   0  0  0  0  0  0  0  0  0  0  0  0
  152.5264  143.1332  159.9605 C   0  0  0  0  0  0  0  0  0  0  0  0
  152.5189  141.7258  159.8997 C   0  0  0  0  0  0  0  0  0  0  0  0
  147.8986  131.7923  153.5650 H   0  0  0  0  0  0  0  0  0  0  0  0
  151.0903  137.0648  158.0762 H   0  0  0  0  0  0  0  0  0  0  0  0
  149.6996  137.7988  158.8692 H   0  0  0  0  0  0  0  0  0  0  0  0
  149.4400  138.4271  156.0837 H   0  0  0  0  0  0  0  0  0  0  0  0
  149.0867  136.3996  154.1708 H   0  0  0  0  0  0  0  0  0  0  0  0
  150.7719  134.4170  156.3971 H   0  0  0  0  0  0  0  0  0  0  0  0
  151.1396  132.0558  156.2762 H   0  0  0  0  0  0  0  0  0  0  0  0
  146.9951  135.4854  156.0273 H   0  0  0  0  0  0  0  0  0  0  0  0
  145.9821  136.8038  154.8059 H   0  0  0  0  0  0  0  0  0  0  0  0
  147.3878  138.0377  157.1929 H   0  0  0  0  0  0  0  0  0  0  0  0
  147.4677  137.2765  162.0858 H   0  0  0  0  0  0  0  0  0  0  0  0
  146.9783  135.6123  163.8409 H   0  0  0  0  0  0  0  0  0  0  0  0
  146.8009  133.1979  163.2686 H   0  0  0  0  0  0  0  0  0  0  0  0
  147.1165  132.4546  160.9164 H   0  0  0  0  0  0  0  0  0  0  0  0
  147.6057  134.0885  159.1473 H   0  0  0  0  0  0  0  0  0  0  0  0
  150.4187  141.3377  157.2233 H   0  0  0  0  0  0  0  0  0  0  0  0
  150.4404  143.8019  157.3421 H   0  0  0  0  0  0  0  0  0  0  0  0
  151.7833  144.9636  159.0848 H   0  0  0  0  0  0  0  0  0  0  0  0
  153.1090  143.6367  160.7176 H   0  0  0  0  0  0  0  0  0  0  0  0
  153.1057  141.1800  160.6239 H   0  0  0  0  0  0  0  0  0  0  0  0
  1  2  2  0  0  0  0
  2  3  1  0  0  0  0
  2 28  1  0  0  0  0
  3  4  1  0  0  0  0
  4  5  1  0  0  0  0
  4 35  1  0  0  0  0
  4 36  1  0  0  0  0
  5 18  1  0  0  0  0
  5  6  1  0  0  0  0
  5 37  1  0  0  0  0
  6  7  1  0  0  0  0
  7  8  1  0  0  0  0
  7 16  1  0  0  0  0
  7 38  1  0  0  0  0
  8 14  1  0  0  0  0
  8  9  1  0  0  0  0
  9 10  2  0  0  0  0
  9 39  1  0  0  0  0
 10 11  1  0  0  0  0
 10 40  1  0  0  0  0
 11 12  2  0  0  0  0
 11 13  1  0  0  0  0
 13 34  1  0  0  0  0
 13 14  1  0  0  0  0
 14 15  2  0  0  0  0
 16 17  1  0  0  0  0
 16 18  1  0  0  0  0
 16 41  1  0  0  0  0
 17 42  1  0  0  0  0
 18 19  1  0  0  0  0
 18 43  1  0  0  0  0
 19 20  1  0  0  0  0
 20 21  2  0  0  0  0
 20 22  1  0  0  0  0
 22 27  1  0  0  0  0
 22 23  2  0  0  0  0
 23 24  1  0  0  0  0
 23 44  1  0  0  0  0
 24 25  2  0  0  0  0
 24 45  1  0  0  0  0
 25 26  1  0  0  0  0
 25 46  1  0  0  0  0
 26 27  2  0  0  0  0
 26 47  1  0  0  0  0
 27 48  1  0  0  0  0
 28 33  1  0  0  0  0
 28 29  2  0  0  0  0
 29 30  1  0  0  0  0
 29 49  1  0  0  0  0
 30 31  2  0  0  0  0
 30 50  1  0  0  0  0
 31 32  1  0  0  0  0
 31 51  1  0  0  0  0
 32 33  2  0  0  0  0
 32 52  1  0  0  0  0
 33 53  1  0  0  0  0
M  END
> <s_m_source_file>
AV-unprocessed.smi

> <i_m_source_file_index>
99

> <i_lp_mmshare_version>
43012

> <i_f3d_flags>
0

> <s_epik_input>
W2NIXTFbY0hdW2NIXVtjSF1bY0hdYzFDKD1PKU9bQ0gyXVtDQEBIXTJPW0NAQEhdKG4zW2NIXVtjSF1jKD1PKVtuSF1jMz1PKVtDQEBIXShbT0hdKVtDQEhdMk9DKD1PKWM0W2NIXVtjSF1bY0hdW2NIXVtjSF00

> <s_epik_cmdline>
J2VwaWtfcHl0aG9uJywgJy1waCcsICc3LjAnLCAnLXRuJywgJzgnLCAnLW1hJywgJzIwMCcsICctbWV0YWxfYmluZGluZycsICctaW1hZScsICc8aW5maWxlLm1hZT4nLCAnLW9tYWUnLCAnPG91dGZpbGUubWFlPic=

> <r_lp_tautomer_probability>
1

> <r_epik_Ionization_Penalty>
0.00454555

> <r_epik_Ionization_Penalty_Charging>
0.0045191

> <r_epik_Ionization_Penalty_Neutral>
2.64449e-05

> <r_epik_State_Penalty>
-0

> <r_epik_Charging_Adjusted_Penalty>
0.0045191

> <i_epik_Tot_Q>
0

> <i_epik_Tot_abs_Q>
0

> <r_epik_Metal_State_Penalty>
1.27877

> <b_epik_Metal_Only>
0

> <s_epik_Chemistry_Notes>
This compound has an ester and may undergo hydrolysis at high or low pH. This compound contains an acetal/aminal-like group ( X-CH(R)-Y where X, Y are N, S, or O) that may be acid/base labile, releasing an aldehyde.

> <s_lp_Force_Field>
OPLS_2005

> <r_lp_Energy>
31.5911

> <b_lp_Chiralities_Consistent>
1

> <s_lp_Variant>
AV-unprocessed.smi:99-6

> <Gold.Version>
5.8.1

> <Gold.Id.Protein>
6NUR|6NUR_protein|mol2

> <Gold.PLP.Fitness>
55.0580

> <Gold.PLP.PLP>
-56.8647

> <Gold.PLP.part.hbond>
-2.8968

> <Gold.PLP.part.metal>
0.0000

> <Gold.PLP.part.buried>
-8.1813

> <Gold.PLP.part.nonpolar>
-46.7035

> <Gold.PLP.part.repulsive>
0.2310

> <Gold.PLP.ligand.clash>
0.0000

> <Gold.PLP.ligand.torsion>
1.4871

> <Gold.PLP.Chemscore.Hbond>
0.1331

> <Gold.PLP.Chemscore.CHOScore>
0.0000

> <Gold.PLP.Chemscore.Metal>
0.0000

> <Gold.Chemscore.Hbonds>
donor molecule, donor type, donor heavy atom, donor atom, acceptor molecule, acceptor atom, score
      P1  H  6934  6947       L1    21  0.37

> <Gold.PLP.Chemscore.Internal.Correction>
0.7680

> <Gold.Rescore>
     Score         DG    S(hbond)    S(metal)    S(lipo)     H(rot)  DE(clash)    DE(int)     intcor
     11.70     -13.69       0.67        0.00     120.99       3.19       0.02       1.97       ----

> <Gold.Chemscore.Fitness>
11.7024

> <Gold.Chemscore.DG>
-13.6949

> <Gold.Chemscore.ZeroCoef>
-5.4800

> <Gold.Chemscore.Hbond>
0.6665

> <Gold.Chemscore.Metal>
0.0000

> <Gold.Chemscore.Lipo>
120.9919

> <Gold.Chemscore.Internal_Hbond>
0.0000

> <Gold.Chemscore.DEClash>
0.0186

> <Gold.Chemscore.DEInternal>
1.9738

> <Gold.Chemscore.Rot>
3.1903

> <Gold.Chemscore.Internal.Correction>
   9.000000E+99

> <Gold.Chemscore.Hbonds>
donor molecule, donor type, donor heavy atom, donor atom, acceptor molecule, acceptor atom, score
      P1  H  6931  6943       L1    21  0.01
      P1  H  6934  6947       L1    21  0.38

> <Gold.Chemscore.Hbond.Weighted>
-2.2260

> <Gold.Chemscore.Metal.Weighted>
-0.0000

> <Gold.Chemscore.Lipo.Weighted>
-14.1560

> <Gold.Chemscore.Internal_Hbond.Weighted>
0.0000

> <Gold.Chemscore.DEClash.Weighted>
0.0186

> <Gold.Chemscore.DEInternal.Weighted>
1.9738

> <Gold.Chemscore.Rot.Weighted>
8.1671

> <Gold.Chemscore.Internal.Correction.Weighted>
   9.000000E+99

> <Gold.Protein.RotatedTorsions>
[ 6907 6896 6895 6894 ] final  -58.93 input  -60.11 | X-H torsion
[ 7974 7965 7964 7962 ] final   85.03 input  175.53 | X-H torsion
[ 8008 7997 7996 7995 ] final  -31.57 input   59.86 | X-H torsion
[ 10167 10162 10161 10158 ] final  119.09 input  -65.29 | X-H torsion
[ 10718 10713 10712 10709 ] final  177.52 input   66.30 | X-H torsion
[ 10763 10752 10751 10750 ] final   35.28 input  -60.55 | X-H torsion
[ 11005 11000 10999 10996 ] final   65.97 input  -57.11 | X-H torsion

> <Gold.Protein.ActiveResidues>
 VAL166  LYS551  ARG553  GLY616  TRP617  ASP618  TYR619  PRO620  LYS621  CYS622 
 ASP623  PHE694  ASN695  SER759  ASP760  ASP761  ALA762  ILE779  LEU786  VAL792 
 PHE793  MET794  SER795  GLU796  ALA797  LYS798  CYS799  TRP800  GLU811  SER814 

> <Gold.Protein.RotatedAtoms>
  150.7969  134.7034  159.6562 H   0  0  0  0  0  0  0  0  0  0  0  0  # atno 6907 bound_to 6896
  152.4082  134.6167  160.0050 H   0  0  0  0  0  0  0  0  0  0  0  0  # atno 6908 bound_to 6896
  151.6418  133.3288  159.3168 H   0  0  0  0  0  0  0  0  0  0  0  0  # atno 6909 bound_to 6896
  145.5908  139.2338  143.2300 H   0  0  0  0  0  0  0  0  0  0  0  0  # atno 7974 bound_to 7965
  154.4209  140.1761  156.1588 H   0  0  0  0  0  0  0  0  0  0  0  0  # atno 8008 bound_to 7997
  155.9855  140.3373  155.6679 H   0  0  0  0  0  0  0  0  0  0  0  0  # atno 8009 bound_to 7997
  155.6443  140.0683  157.2599 H   0  0  0  0  0  0  0  0  0  0  0  0  # atno 8010 bound_to 7997
  139.6068  144.7072  151.2934 H   0  0  0  0  0  0  0  0  0  0  0  0  # atno 10167 bound_to 10162
  156.9042  130.9888  151.3031 H   0  0  0  0  0  0  0  0  0  0  0  0  # atno 10718 bound_to 10713
  153.0126  135.6337  154.1801 H   0  0  0  0  0  0  0  0  0  0  0  0  # atno 10763 bound_to 10752
  154.1543  135.2827  155.3128 H   0  0  0  0  0  0  0  0  0  0  0  0  # atno 10764 bound_to 10752
  154.6030  135.5581  153.7455 H   0  0  0  0  0  0  0  0  0  0  0  0  # atno 10765 bound_to 10752
  139.9861  134.6666  156.0174 H   0  0  0  0  0  0  0  0  0  0  0  0  # atno 11005 bound_to 11000
  146.1648  140.6735  142.9261 LP  0  0  0  0  0  0  0  0  0  0  0  0  # atno 17320 bound_to 7965
  144.7352  140.4787  143.6909 LP  0  0  0  0  0  0  0  0  0  0  0  0  # atno 17321 bound_to 7965
  140.7291  143.6918  150.7916 LP  0  0  0  0  0  0  0  0  0  0  0  0  # atno 17342 bound_to 10162
  140.0505  143.5255  152.2676 LP  0  0  0  0  0  0  0  0  0  0  0  0  # atno 17343 bound_to 10162
  157.6007  130.8511  149.8798 LP  0  0  0  0  0  0  0  0  0  0  0  0  # atno 17370 bound_to 10713
  156.0567  130.3707  150.1075 LP  0  0  0  0  0  0  0  0  0  0  0  0  # atno 17371 bound_to 10713
  141.1526  133.6546  156.4060 LP  0  0  0  0  0  0  0  0  0  0  0  0  # atno 17394 bound_to 11000
  140.5000  134.6495  157.5244 LP  0  0  0  0  0  0  0  0  0  0  0  0  # atno 17395 bound_to 11000

$$$$
