AV-unprocessed.smi:2124|AV-procd|sdf|8663|dock4
  -GOLD-   2272011413D 1   1.00000     0.00000
 Structure written by MMmdl.
 47 49  0  0  0  0  0  0  0  0  1 V2000
  157.1633  137.3747  163.7486 C   0  0  0  0  0  0  0  0  0  0  0  0
  156.0153  137.4649  162.7670 C   0  0  0  0  0  0  0  0  0  0  0  0
  155.5244  138.7498  162.6023 N   0  0  0  0  0  0  0  0  0  0  0  0
  154.4731  138.9332  161.7218 C   0  0  0  0  0  0  0  0  0  0  0  0
  153.9936  140.3693  161.6019 C   0  0  0  0  0  0  0  0  0  0  0  0
  153.9363  137.8886  161.0413 C   0  0  0  0  0  0  0  0  0  0  0  0
  152.7695  138.0466  160.0669 C   0  0  0  0  0  0  0  0  0  0  0  0
  152.9449  139.0955  158.9652 C   0  0  0  0  0  0  0  0  0  0  0  0
  153.8363  138.9800  158.1235 O   0  0  0  0  0  0  0  0  0  0  0  0
  152.0775  140.1187  158.9855 N   0  0  0  0  0  0  0  0  0  0  0  0
  152.0620  141.2364  158.0440 C   0  0  1  0  0  0  0  0  0  0  0  0
  151.2309  140.8428  156.8090 C   0  0  0  0  0  0  0  0  0  0  0  0
  151.5121  142.5055  158.7398 C   0  0  2  0  0  0  0  0  0  0  0  0
  151.4166  143.7336  157.8015 C   0  0  0  0  0  0  0  0  0  0  0  0
  152.2033  144.8206  158.5558 C   0  0  1  0  0  0  0  0  0  0  0  0
  151.4177  145.2514  159.8073 C   0  0  0  0  0  0  0  0  0  0  0  0
  151.5727  144.0342  160.7378 C   0  0  0  0  0  0  0  0  0  0  0  0
  152.4032  143.0564  159.8838 C   0  0  2  0  0  0  0  0  0  0  0  0
  153.3444  144.0120  159.1576 C   0  0  0  0  0  0  0  0  0  0  0  0
  154.5007  136.5364  161.2633 C   0  0  0  0  0  0  0  0  0  0  0  0
  154.0500  135.5481  160.6857 O   0  0  0  0  0  0  0  0  0  0  0  0
  155.5710  136.4050  162.1627 N   0  0  0  0  0  0  0  0  0  0  0  0
  155.8914  139.5537  163.0908 H   0  0  0  0  0  0  0  0  0  0  0  0
  157.4790  136.3397  163.8858 H   0  0  0  0  0  0  0  0  0  0  0  0
  156.8653  137.7705  164.7200 H   0  0  0  0  0  0  0  0  0  0  0  0
  158.0177  137.9473  163.3868 H   0  0  0  0  0  0  0  0  0  0  0  0
  152.9347  140.4405  161.8515 H   0  0  0  0  0  0  0  0  0  0  0  0
  154.1335  140.7335  160.5839 H   0  0  0  0  0  0  0  0  0  0  0  0
  154.5409  141.0330  162.2728 H   0  0  0  0  0  0  0  0  0  0  0  0
  151.8475  138.2639  160.6077 H   0  0  0  0  0  0  0  0  0  0  0  0
  152.5887  137.0848  159.5865 H   0  0  0  0  0  0  0  0  0  0  0  0
  151.3791  140.1310  159.7147 H   0  0  0  0  0  0  0  0  0  0  0  0
  153.0847  141.4382  157.7206 H   0  0  0  0  0  0  0  0  0  0  0  0
  151.2246  141.6331  156.0590 H   0  0  0  0  0  0  0  0  0  0  0  0
  150.1952  140.6339  157.0787 H   0  0  0  0  0  0  0  0  0  0  0  0
  151.6347  139.9497  156.3310 H   0  0  0  0  0  0  0  0  0  0  0  0
  150.5235  142.2684  159.1368 H   0  0  0  0  0  0  0  0  0  0  0  0
  151.8900  143.5410  156.8380 H   0  0  0  0  0  0  0  0  0  0  0  0
  150.3844  144.0276  157.6079 H   0  0  0  0  0  0  0  0  0  0  0  0
  152.5120  145.6539  157.9240 H   0  0  0  0  0  0  0  0  0  0  0  0
  151.8622  146.1387  160.2598 H   0  0  0  0  0  0  0  0  0  0  0  0
  150.3742  145.4757  159.5833 H   0  0  0  0  0  0  0  0  0  0  0  0
  152.1134  144.3117  161.6436 H   0  0  0  0  0  0  0  0  0  0  0  0
  150.6123  143.6150  161.0400 H   0  0  0  0  0  0  0  0  0  0  0  0
  152.9025  142.2946  160.4824 H   0  0  0  0  0  0  0  0  0  0  0  0
  153.9726  143.5242  158.4106 H   0  0  0  0  0  0  0  0  0  0  0  0
  153.9771  144.5922  159.8319 H   0  0  0  0  0  0  0  0  0  0  0  0
  1 24  1  0  0  0  0
  1 25  1  0  0  0  0
  1 26  1  0  0  0  0
  1  2  1  0  0  0  0
  2  3  1  0  0  0  0
  2 22  2  0  0  0  0
  3  4  1  0  0  0  0
  3 23  1  0  0  0  0
  4  6  2  0  0  0  0
  4  5  1  0  0  0  0
  5 27  1  0  0  0  0
  5 28  1  0  0  0  0
  5 29  1  0  0  0  0
  6 20  1  0  0  0  0
  6  7  1  0  0  0  0
  7  8  1  0  0  0  0
  7 30  1  0  0  0  0
  7 31  1  0  0  0  0
  8  9  2  0  0  0  0
  8 10  1  0  0  0  0
 10 11  1  0  0  0  0
 10 32  1  0  0  0  0
 11 12  1  0  0  0  0
 11 13  1  0  0  0  0
 11 33  1  0  0  0  0
 12 34  1  0  0  0  0
 12 35  1  0  0  0  0
 12 36  1  0  0  0  0
 13 18  1  0  0  0  0
 13 14  1  0  0  0  0
 13 37  1  0  0  0  0
 14 15  1  0  0  0  0
 14 38  1  0  0  0  0
 14 39  1  0  0  0  0
 15 19  1  0  0  0  0
 15 16  1  0  0  0  0
 15 40  1  0  0  0  0
 16 17  1  0  0  0  0
 16 41  1  0  0  0  0
 16 42  1  0  0  0  0
 17 18  1  0  0  0  0
 17 43  1  0  0  0  0
 17 44  1  0  0  0  0
 18 19  1  0  0  0  0
 18 45  1  0  0  0  0
 19 46  1  0  0  0  0
 19 47  1  0  0  0  0
 20 21  2  0  0  0  0
 20 22  1  0  0  0  0
M  END
> <s_m_source_file>
AV-unprocessed.smi

> <i_m_source_file_index>
2124

> <i_lp_mmshare_version>
43012

> <i_f3d_flags>
0

> <s_epik_input>
W0NIM11jMW5jKFtDSDNdKWMoYyg9TylbbkhdMSlbQ0gyXUMoPU8pW05IXVtDQEhdKFtDSDNdKVtDQEhdKFtDSDJdW0NASF0yMylbQ0BIXShbQ0gyXTMpW0NIMl1bQ0gyXTI=

> <s_epik_cmdline>
J2VwaWtfcHl0aG9uJywgJy1waCcsICc3LjAnLCAnLXRuJywgJzgnLCAnLW1hJywgJzIwMCcsICctbWV0YWxfYmluZGluZycsICctaW1hZScsICc8aW5maWxlLm1hZT4nLCAnLW9tYWUnLCAnPG91dGZpbGUubWFlPic=

> <r_lp_tautomer_probability>
0.156392

> <r_epik_Ionization_Penalty>
0.0139374

> <r_epik_Ionization_Penalty_Charging>
0.0138122

> <r_epik_Ionization_Penalty_Neutral>
0.000125146

> <r_epik_State_Penalty>
1.15342

> <r_epik_Charging_Adjusted_Penalty>
1.16723

> <i_epik_Tot_Q>
0

> <i_epik_Tot_abs_Q>
0

> <r_epik_Metal_State_Penalty>
1.3173

> <b_epik_Metal_Only>
0

> <s_lp_Force_Field>
OPLS_2005

> <r_lp_Energy>
55.952

> <b_lp_Chiralities_Consistent>
1

> <s_lp_Variant>
AV-unprocessed.smi:2124-14

> <Gold.Version>
5.8.1

> <Gold.Id.Protein>
6NUR|6NUR_protein|mol2

> <Gold.PLP.Fitness>
44.7016

> <Gold.PLP.PLP>
-39.5742

> <Gold.PLP.part.hbond>
-2.0000

> <Gold.PLP.part.metal>
0.0000

> <Gold.PLP.part.buried>
-5.0791

> <Gold.PLP.part.nonpolar>
-31.8634

> <Gold.PLP.part.repulsive>
0.1291

> <Gold.PLP.ligand.clash>
0.0000

> <Gold.PLP.ligand.torsion>
0.4489

> <Gold.PLP.Chemscore.Hbond>
2.0000

> <Gold.PLP.Chemscore.CHOScore>
0.0000

> <Gold.PLP.Chemscore.Metal>
0.0000

> <Gold.Chemscore.Hbonds>
donor molecule, donor type, donor heavy atom, donor atom, acceptor molecule, acceptor atom, score
      P1  H  6896  6907       L1    21  1.00
      P1  H  7997  8010       L1     9  1.00

> <Gold.PLP.Chemscore.Internal.Correction>
0.0252

> <Gold.Rescore>
     Score         DG    S(hbond)    S(metal)    S(lipo)     H(rot)  DE(clash)    DE(int)     intcor
     22.01     -22.46       1.99        0.00     124.58       1.65       0.04       0.41       ----

> <Gold.Chemscore.Fitness>
22.0090

> <Gold.Chemscore.DG>
-22.4621

> <Gold.Chemscore.ZeroCoef>
-5.4800

> <Gold.Chemscore.Hbond>
1.9878

> <Gold.Chemscore.Metal>
0.0000

> <Gold.Chemscore.Lipo>
124.5775

> <Gold.Chemscore.Internal_Hbond>
0.0000

> <Gold.Chemscore.DEClash>
0.0383

> <Gold.Chemscore.DEInternal>
0.4148

> <Gold.Chemscore.Rot>
1.6534

> <Gold.Chemscore.Internal.Correction>
   9.000000E+99

> <Gold.Chemscore.Hbonds>
donor molecule, donor type, donor heavy atom, donor atom, acceptor molecule, acceptor atom, score
      P1  H  6896  6907       L1    21  0.99
      P1  H  7997  8010       L1     9  1.00

> <Gold.Chemscore.Hbond.Weighted>
-6.6391

> <Gold.Chemscore.Metal.Weighted>
-0.0000

> <Gold.Chemscore.Lipo.Weighted>
-14.5756

> <Gold.Chemscore.Internal_Hbond.Weighted>
0.0000

> <Gold.Chemscore.DEClash.Weighted>
0.0383

> <Gold.Chemscore.DEInternal.Weighted>
0.4148

> <Gold.Chemscore.Rot.Weighted>
4.2326

> <Gold.Chemscore.Internal.Correction.Weighted>
   9.000000E+99

> <Gold.Protein.RotatedTorsions>
[ 6907 6896 6895 6894 ] final   59.78 input  -60.11 | X-H torsion
[ 7974 7965 7964 7962 ] final  -74.10 input  175.53 | X-H torsion
[ 8008 7997 7996 7995 ] final   16.19 input   59.86 | X-H torsion
[ 10167 10162 10161 10158 ] final  -48.94 input  -65.29 | X-H torsion
[ 10718 10713 10712 10709 ] final   46.40 input   66.30 | X-H torsion
[ 10763 10752 10751 10750 ] final -168.66 input  -60.55 | X-H torsion
[ 11005 11000 10999 10996 ] final  -46.68 input  -57.11 | X-H torsion

> <Gold.Protein.ActiveResidues>
 VAL166  LYS551  ARG553  GLY616  TRP617  ASP618  TYR619  PRO620  LYS621  CYS622 
 ASP623  PHE694  ASN695  SER759  ASP760  ASP761  ALA762  ILE779  LEU786  VAL792 
 PHE793  MET794  SER795  GLU796  ALA797  LYS798  CYS799  TRP800  GLU811  SER814 

> <Gold.Protein.RotatedAtoms>
  152.3945  134.6388  160.0094 H   0  0  0  0  0  0  0  0  0  0  0  0  # atno 6907 bound_to 6896
  151.6612  133.3311  159.3182 H   0  0  0  0  0  0  0  0  0  0  0  0  # atno 6908 bound_to 6896
  150.7855  134.6879  159.6525 H   0  0  0  0  0  0  0  0  0  0  0  0  # atno 6909 bound_to 6896
  145.6435  140.9304  143.1023 H   0  0  0  0  0  0  0  0  0  0  0  0  # atno 7974 bound_to 7965
  154.8734  140.2962  155.5468 H   0  0  0  0  0  0  0  0  0  0  0  0  # atno 8008 bound_to 7997
  156.3021  140.2456  156.3659 H   0  0  0  0  0  0  0  0  0  0  0  0  # atno 8009 bound_to 7997
  154.8793  140.0398  157.1761 H   0  0  0  0  0  0  0  0  0  0  0  0  # atno 8010 bound_to 7997
  140.6708  143.2719  151.4143 H   0  0  0  0  0  0  0  0  0  0  0  0  # atno 10167 bound_to 10162
  157.4477  130.8119  149.7757 H   0  0  0  0  0  0  0  0  0  0  0  0  # atno 10718 bound_to 10713
  154.6605  135.2924  154.9872 H   0  0  0  0  0  0  0  0  0  0  0  0  # atno 10763 bound_to 10752
  154.0933  135.6587  153.4860 H   0  0  0  0  0  0  0  0  0  0  0  0  # atno 10764 bound_to 10752
  153.0427  135.5225  154.7554 H   0  0  0  0  0  0  0  0  0  0  0  0  # atno 10765 bound_to 10752
  141.0594  133.6714  156.3190 H   0  0  0  0  0  0  0  0  0  0  0  0  # atno 11005 bound_to 11000
  144.7149  139.8234  143.7402 LP  0  0  0  0  0  0  0  0  0  0  0  0  # atno 17320 bound_to 7965
  146.1262  139.4288  143.0197 LP  0  0  0  0  0  0  0  0  0  0  0  0  # atno 17321 bound_to 7965
  139.5976  144.1364  152.2161 LP  0  0  0  0  0  0  0  0  0  0  0  0  # atno 17342 bound_to 10162
  140.0738  144.5757  150.7172 LP  0  0  0  0  0  0  0  0  0  0  0  0  # atno 17343 bound_to 10162
  155.9974  130.3900  150.2742 LP  0  0  0  0  0  0  0  0  0  0  0  0  # atno 17370 bound_to 10713
  157.0911  131.0170  151.3121 LP  0  0  0  0  0  0  0  0  0  0  0  0  # atno 17371 bound_to 10713
  140.5899  134.5661  157.5497 LP  0  0  0  0  0  0  0  0  0  0  0  0  # atno 17394 bound_to 11000
  139.9419  134.7772  156.0657 LP  0  0  0  0  0  0  0  0  0  0  0  0  # atno 17395 bound_to 11000

$$$$
