AV-unprocessed.smi:3067|AV-procd|sdf|11697|dock8
  -GOLD-   2272017103D 1   1.00000     0.00000
 Structure written by MMmdl.
 34 35  0  0  0  0  0  0  0  0  1 V2000
  145.6593  129.0917  151.7957 C   0  0  0  0  0  0  0  0  0  0  0  0
  146.0876  130.3452  152.3044 O   0  0  0  0  0  0  0  0  0  0  0  0
  145.9129  131.4342  151.4045 C   0  0  1  0  0  0  0  0  0  0  0  0
  144.4119  131.7833  151.3071 C   0  0  0  0  0  0  0  0  0  0  0  0
  144.1746  133.0490  150.4707 C   0  0  0  0  0  0  0  0  0  0  0  0
  144.9765  134.2335  151.0264 C   0  0  0  0  0  0  0  0  0  0  0  0
  146.4714  133.8938  151.1078 C   0  0  0  0  0  0  0  0  0  0  0  0
  146.7229  132.6285  151.9566 C   0  0  2  0  0  0  0  0  0  0  0  0
  148.1447  132.3036  151.9831 N   0  0  0  0  0  0  0  0  0  0  0  0
  148.8696  132.1889  153.1793 C   0  0  0  0  0  0  0  0  0  0  0  0
  149.3222  130.9587  153.7111 C   0  0  0  0  0  0  0  0  0  0  0  0
  150.0465  130.9604  154.9186 C   0  0  0  0  0  0  0  0  0  0  0  0
  150.2971  132.1929  155.5568 C   0  0  0  0  0  0  0  0  0  0  0  0
  151.0445  132.2163  156.8026 C   0  0  0  0  0  0  0  0  0  0  0  0
  151.6396  132.2344  157.7949 N   0  0  0  0  0  0  0  0  0  0  0  0
  149.8695  133.3727  155.0579 N   0  0  0  0  0  0  0  0  0  0  0  0
  149.1754  133.3626  153.9001 C   0  0  0  0  0  0  0  0  0  0  0  0
  145.8570  128.3154  152.5345 H   0  0  0  0  0  0  0  0  0  0  0  0
  146.1996  128.8302  150.8852 H   0  0  0  0  0  0  0  0  0  0  0  0
  144.5905  129.0818  151.5838 H   0  0  0  0  0  0  0  0  0  0  0  0
  146.2966  131.1763  150.4151 H   0  0  0  0  0  0  0  0  0  0  0  0
  143.8524  130.9573  150.8690 H   0  0  0  0  0  0  0  0  0  0  0  0
  144.0075  131.9320  152.3091 H   0  0  0  0  0  0  0  0  0  0  0  0
  144.4626  132.8638  149.4351 H   0  0  0  0  0  0  0  0  0  0  0  0
  143.1119  133.2927  150.4585 H   0  0  0  0  0  0  0  0  0  0  0  0
  144.8279  135.1109  150.3966 H   0  0  0  0  0  0  0  0  0  0  0  0
  144.6056  134.4961  152.0179 H   0  0  0  0  0  0  0  0  0  0  0  0
  146.8620  133.7444  150.1001 H   0  0  0  0  0  0  0  0  0  0  0  0
  147.0114  134.7467  151.5191 H   0  0  0  0  0  0  0  0  0  0  0  0
  146.3817  132.8099  152.9762 H   0  0  0  0  0  0  0  0  0  0  0  0
  148.5896  132.0504  151.1124 H   0  0  0  0  0  0  0  0  0  0  0  0
  149.1275  130.0179  153.2190 H   0  0  0  0  0  0  0  0  0  0  0  0
  150.4007  130.0311  155.3414 H   0  0  0  0  0  0  0  0  0  0  0  0
  148.8544  134.3281  153.5368 H   0  0  0  0  0  0  0  0  0  0  0  0
  1  2  1  0  0  0  0
  1 18  1  0  0  0  0
  1 19  1  0  0  0  0
  1 20  1  0  0  0  0
  2  3  1  0  0  0  0
  3  8  1  0  0  0  0
  3  4  1  0  0  0  0
  3 21  1  0  0  0  0
  4  5  1  0  0  0  0
  4 22  1  0  0  0  0
  4 23  1  0  0  0  0
  5  6  1  0  0  0  0
  5 24  1  0  0  0  0
  5 25  1  0  0  0  0
  6  7  1  0  0  0  0
  6 26  1  0  0  0  0
  6 27  1  0  0  0  0
  7  8  1  0  0  0  0
  7 28  1  0  0  0  0
  7 29  1  0  0  0  0
  8  9  1  0  0  0  0
  8 30  1  0  0  0  0
  9 10  1  0  0  0  0
  9 31  1  0  0  0  0
 10 17  1  0  0  0  0
 10 11  2  0  0  0  0
 11 12  1  0  0  0  0
 11 32  1  0  0  0  0
 12 13  2  0  0  0  0
 12 33  1  0  0  0  0
 13 14  1  0  0  0  0
 13 16  1  0  0  0  0
 14 15  3  0  0  0  0
 16 17  2  0  0  0  0
 17 34  1  0  0  0  0
M  END
> <s_m_source_file>
AV-unprocessed.smi

> <i_m_source_file_index>
3067

> <i_lp_mmshare_version>
43012

> <i_f3d_flags>
0

> <s_epik_input>
W0NIM11PW0NAQEhdMVtDSDJdW0NIMl1bQ0gyXVtDSDJdW0NASF0xW05IXWMyW2NIXVtjSF1jKEMjTiluW2NIXTI=

> <s_epik_cmdline>
J2VwaWtfcHl0aG9uJywgJy1waCcsICc3LjAnLCAnLXRuJywgJzgnLCAnLW1hJywgJzIwMCcsICctbWV0YWxfYmluZGluZycsICctaW1hZScsICc8aW5maWxlLm1hZT4nLCAnLW9tYWUnLCAnPG91dGZpbGUubWFlPic=

> <r_lp_tautomer_probability>
1

> <r_epik_Ionization_Penalty>
2.01011e-07

> <r_epik_Ionization_Penalty_Charging>
0

> <r_epik_Ionization_Penalty_Neutral>
2.01011e-07

> <r_epik_State_Penalty>
-0

> <r_epik_Charging_Adjusted_Penalty>
0

> <i_epik_Tot_Q>
0

> <i_epik_Tot_abs_Q>
0

> <r_epik_Metal_State_Penalty>
-0

> <b_epik_Metal_Only>
0

> <s_lp_Force_Field>
OPLS_2005

> <r_lp_Energy>
16.9027

> <b_lp_Chiralities_Consistent>
1

> <s_lp_Variant>
AV-unprocessed.smi:3067-4

> <Gold.Version>
5.8.1

> <Gold.Id.Protein>
6NUR|6NUR_protein|mol2

> <Gold.PLP.Fitness>
42.1162

> <Gold.PLP.PLP>
-34.9060

> <Gold.PLP.part.hbond>
-1.7658

> <Gold.PLP.part.metal>
0.0000

> <Gold.PLP.part.buried>
-6.0922

> <Gold.PLP.part.nonpolar>
-27.7923

> <Gold.PLP.part.repulsive>
0.2662

> <Gold.PLP.ligand.clash>
0.0000

> <Gold.PLP.ligand.torsion>
0.7889

> <Gold.PLP.Chemscore.Hbond>
1.9280

> <Gold.PLP.Chemscore.CHOScore>
1.0000

> <Gold.PLP.Chemscore.Metal>
0.0000

> <Gold.Chemscore.Hbonds>
donor molecule, donor type, donor heavy atom, donor atom, acceptor molecule, acceptor atom, score
      L1  H     9    31       P1 10747  0.79
      P1  H  6896  6909       L1    15  1.00
      L1  C    17    34       P1  7948  0.86

> <Gold.PLP.Chemscore.Internal.Correction>
0.0039

> <Gold.Rescore>
     Score         DG    S(hbond)    S(metal)    S(lipo)     H(rot)  DE(clash)    DE(int)     intcor
     17.50     -18.30       1.91        0.00      81.32       1.20       0.01       0.79       ----

> <Gold.Chemscore.Fitness>
17.5012

> <Gold.Chemscore.DG>
-18.2951

> <Gold.Chemscore.ZeroCoef>
-5.4800

> <Gold.Chemscore.Hbond>
1.9088

> <Gold.Chemscore.Metal>
0.0000

> <Gold.Chemscore.Lipo>
81.3224

> <Gold.Chemscore.Internal_Hbond>
0.0000

> <Gold.Chemscore.DEClash>
0.0060

> <Gold.Chemscore.DEInternal>
0.7880

> <Gold.Chemscore.Rot>
1.2012

> <Gold.Chemscore.Internal.Correction>
   9.000000E+99

> <Gold.Chemscore.Hbonds>
donor molecule, donor type, donor heavy atom, donor atom, acceptor molecule, acceptor atom, score
      L1  H     9    31       P1 10747  0.74
      P1  H  6896  6909       L1    15  1.00

> <Gold.Chemscore.Hbond.Weighted>
-6.3754

> <Gold.Chemscore.Metal.Weighted>
-0.0000

> <Gold.Chemscore.Lipo.Weighted>
-9.5147

> <Gold.Chemscore.Internal_Hbond.Weighted>
0.0000

> <Gold.Chemscore.DEClash.Weighted>
0.0060

> <Gold.Chemscore.DEInternal.Weighted>
0.7880

> <Gold.Chemscore.Rot.Weighted>
3.0750

> <Gold.Chemscore.Internal.Correction.Weighted>
   9.000000E+99

> <Gold.Protein.RotatedTorsions>
[ 6907 6896 6895 6894 ] final  -56.53 input  -60.11 | X-H torsion
[ 7974 7965 7964 7962 ] final -112.02 input  175.53 | X-H torsion
[ 8008 7997 7996 7995 ] final   65.22 input   59.86 | X-H torsion
[ 10167 10162 10161 10158 ] final  169.87 input  -65.29 | X-H torsion
[ 10718 10713 10712 10709 ] final  -85.71 input   66.30 | X-H torsion
[ 10763 10752 10751 10750 ] final  113.09 input  -60.55 | X-H torsion
[ 11005 11000 10999 10996 ] final  -77.07 input  -57.11 | X-H torsion

> <Gold.Protein.ActiveResidues>
 VAL166  LYS551  ARG553  GLY616  TRP617  ASP618  TYR619  PRO620  LYS621  CYS622 
 ASP623  PHE694  ASN695  SER759  ASP760  ASP761  ALA762  ILE779  LEU786  VAL792 
 PHE793  MET794  SER795  GLU796  ALA797  LYS798  CYS799  TRP800  GLU811  SER814 

> <Gold.Protein.RotatedAtoms>
  150.8160  134.7342  159.6730 H   0  0  0  0  0  0  0  0  0  0  0  0  # atno 6907 bound_to 6896
  152.4279  134.5831  159.9963 H   0  0  0  0  0  0  0  0  0  0  0  0  # atno 6908 bound_to 6896
  151.6027  133.3317  159.3087 H   0  0  0  0  0  0  0  0  0  0  0  0  # atno 6909 bound_to 6896
  145.1490  140.8819  143.3657 H   0  0  0  0  0  0  0  0  0  0  0  0  # atno 7974 bound_to 7965
  155.6584  140.3497  155.4773 H   0  0  0  0  0  0  0  0  0  0  0  0  # atno 8008 bound_to 7997
  155.9789  140.1170  157.0767 H   0  0  0  0  0  0  0  0  0  0  0  0  # atno 8009 bound_to 7997
  154.4186  140.1142  156.5394 H   0  0  0  0  0  0  0  0  0  0  0  0  # atno 8010 bound_to 7997
  139.5003  144.3658  151.9777 H   0  0  0  0  0  0  0  0  0  0  0  0  # atno 10167 bound_to 10162
  155.9994  130.4740  150.4604 H   0  0  0  0  0  0  0  0  0  0  0  0  # atno 10718 bound_to 10713
  153.4874  135.3666  155.2474 H   0  0  0  0  0  0  0  0  0  0  0  0  # atno 10763 bound_to 10752
  154.8753  135.3969  154.3628 H   0  0  0  0  0  0  0  0  0  0  0  0  # atno 10764 bound_to 10752
  153.4242  135.7081  153.6339 H   0  0  0  0  0  0  0  0  0  0  0  0  # atno 10765 bound_to 10752
  141.1658  133.7008  156.7765 H   0  0  0  0  0  0  0  0  0  0  0  0  # atno 11005 bound_to 11000
  145.0451  139.3228  143.5957 LP  0  0  0  0  0  0  0  0  0  0  0  0  # atno 17320 bound_to 7965
  146.3497  139.9838  142.8693 LP  0  0  0  0  0  0  0  0  0  0  0  0  # atno 17321 bound_to 7965
  140.3094  144.3555  150.6038 LP  0  0  0  0  0  0  0  0  0  0  0  0  # atno 17342 bound_to 10162
  140.5810  143.2173  151.7428 LP  0  0  0  0  0  0  0  0  0  0  0  0  # atno 17343 bound_to 10162
  157.2629  131.0570  151.2309 LP  0  0  0  0  0  0  0  0  0  0  0  0  # atno 17370 bound_to 10713
  157.3417  130.7037  149.6386 LP  0  0  0  0  0  0  0  0  0  0  0  0  # atno 17371 bound_to 10713
  140.2426  134.8602  157.3588 LP  0  0  0  0  0  0  0  0  0  0  0  0  # atno 17394 bound_to 11000
  140.1781  134.4524  155.7789 LP  0  0  0  0  0  0  0  0  0  0  0  0  # atno 17395 bound_to 11000

$$$$
