AV-unprocessed.smi:215|AV-procd|sdf|1650|dock7
  -GOLD-   2262020 33D 1   1.00000     0.00000
 Structure written by MMmdl.
 59 62  0  0  0  0  0  0  0  0  2 V2000
  144.4417  136.2515  152.0146 C   0  0  0  0  0  0  0  0  0  0  0  0
  145.7317  135.4048  152.0502 C   0  0  2  0  0  0  0  0  0  0  0  0
  145.8006  134.1611  151.1298 C   0  0  2  0  0  0  0  0  0  0  0  0
  144.4936  133.7237  150.5503 N   0  3  2  0  0  0  0  0  0  0  0  0
  143.4574  133.3527  151.5504 C   0  0  0  0  0  0  0  0  0  0  0  0
  144.6529  132.7069  149.4764 C   0  0  0  0  0  0  0  0  0  0  0  0
  143.4912  132.7086  148.4672 C   0  0  0  0  0  0  0  0  0  0  0  0
  143.7378  133.6498  147.4441 O   0  0  0  0  0  0  0  0  0  0  0  0
  146.5516  133.0923  151.9515 C   0  0  0  0  0  0  0  0  0  0  0  0
  147.1000  133.8763  153.1427 C   0  0  0  0  0  0  0  0  0  0  0  0
  146.1201  134.9285  153.3735 N   0  0  0  0  0  0  0  0  0  0  0  0
  146.4520  135.8864  154.2708 C   0  0  0  0  0  0  0  0  0  0  0  0
  146.5564  135.5874  155.5926 N   0  0  0  0  0  0  0  0  0  0  0  0
  146.9048  136.5369  156.4664 C   0  0  0  0  0  0  0  0  0  0  0  0
  147.1866  137.8212  156.2355 N   0  0  0  0  0  0  0  0  0  0  0  0
  147.0787  138.1246  154.9097 C   0  0  0  0  0  0  0  0  0  0  0  0
  146.7258  137.2206  153.8698 C   0  0  0  0  0  0  0  0  0  0  0  0
  146.7376  137.8735  152.6449 N   0  0  0  0  0  0  0  0  0  0  0  0
  147.0882  139.0950  152.9428 C   0  0  0  0  0  0  0  0  0  0  0  0
  147.2806  139.3445  154.2854 N   0  0  0  0  0  0  0  0  0  0  0  0
  147.6987  140.5795  154.8943 C   0  0  0  0  0  0  0  0  0  0  0  0
  149.0028  141.2546  154.4517 C   0  0  0  0  0  0  0  0  0  0  0  0
  149.7130  140.7324  155.7184 C   0  0  0  0  0  0  0  0  0  0  0  0
  150.4624  139.3959  155.5427 C   0  0  0  0  0  0  0  0  0  0  0  0
  151.6471  139.5622  154.7897 O   0  0  0  0  0  0  0  0  0  0  0  0
  150.6405  141.7417  156.4157 C   0  0  0  0  0  0  0  0  0  0  0  0
  149.9026  142.7831  157.0231 O   0  0  0  0  0  0  0  0  0  0  0  0
  148.2911  140.6177  156.3096 C   0  0  0  0  0  0  0  0  0  0  0  0
  146.5343  136.0703  151.7255 H   0  0  0  0  0  0  0  0  0  0  0  0
  146.4420  134.4598  150.2994 H   0  0  0  0  0  0  0  0  0  0  0  0
  144.1794  136.5202  150.9911 H   0  0  0  0  0  0  0  0  0  0  0  0
  144.5720  137.1844  152.5634 H   0  0  0  0  0  0  0  0  0  0  0  0
  143.5906  135.7362  152.4569 H   0  0  0  0  0  0  0  0  0  0  0  0
  143.5556  132.3124  151.8620 H   0  0  0  0  0  0  0  0  0  0  0  0
  142.4602  133.4815  151.1305 H   0  0  0  0  0  0  0  0  0  0  0  0
  143.5107  133.9714  152.4457 H   0  0  0  0  0  0  0  0  0  0  0  0
  145.5780  132.8852  148.9267 H   0  0  0  0  0  0  0  0  0  0  0  0
  144.7526  131.7196  149.9297 H   0  0  0  0  0  0  0  0  0  0  0  0
  143.4022  131.7234  148.0085 H   0  0  0  0  0  0  0  0  0  0  0  0
  142.5333  132.9178  148.9423 H   0  0  0  0  0  0  0  0  0  0  0  0
  142.9706  133.7062  146.8940 H   0  0  0  0  0  0  0  0  0  0  0  0
  145.8973  132.3062  152.3238 H   0  0  0  0  0  0  0  0  0  0  0  0
  147.3430  132.6073  151.3795 H   0  0  0  0  0  0  0  0  0  0  0  0
  147.2211  133.2432  154.0224 H   0  0  0  0  0  0  0  0  0  0  0  0
  148.0737  134.2984  152.8895 H   0  0  0  0  0  0  0  0  0  0  0  0
  146.9663  136.2236  157.4981 H   0  0  0  0  0  0  0  0  0  0  0  0
  147.2092  139.8478  152.1782 H   0  0  0  0  0  0  0  0  0  0  0  0
  146.8491  141.2571  154.8015 H   0  0  0  0  0  0  0  0  0  0  0  0
  149.4275  140.8844  153.5183 H   0  0  0  0  0  0  0  0  0  0  0  0
  148.9169  142.3426  154.4309 H   0  0  0  0  0  0  0  0  0  0  0  0
  150.7393  138.9683  156.5060 H   0  0  0  0  0  0  0  0  0  0  0  0
  149.8373  138.6489  155.0530 H   0  0  0  0  0  0  0  0  0  0  0  0
  152.3759  139.2524  155.3054 H   0  0  0  0  0  0  0  0  0  0  0  0
  151.2278  141.2541  157.1943 H   0  0  0  0  0  0  0  0  0  0  0  0
  151.3585  142.1751  155.7191 H   0  0  0  0  0  0  0  0  0  0  0  0
  149.4434  143.2588  156.3479 H   0  0  0  0  0  0  0  0  0  0  0  0
  147.9863  141.5134  156.8539 H   0  0  0  0  0  0  0  0  0  0  0  0
  148.1251  139.7312  156.9204 H   0  0  0  0  0  0  0  0  0  0  0  0
  144.1410  134.5452  150.0794 H   0  0  0  0  0  0  0  0  0  0  0  0
  1  2  1  0  0  0  0
  1 31  1  0  0  0  0
  1 32  1  0  0  0  0
  1 33  1  0  0  0  0
  2 29  1  0  0  0  0
  2 11  1  0  0  0  0
  2  3  1  0  0  0  0
  3 30  1  0  0  0  0
  3  4  1  0  0  0  0
  3  9  1  0  0  0  0
  4  5  1  0  0  0  0
  4  6  1  0  0  0  0
  4 59  1  0  0  0  0
  5 34  1  0  0  0  0
  5 35  1  0  0  0  0
  5 36  1  0  0  0  0
  6  7  1  0  0  0  0
  6 37  1  0  0  0  0
  6 38  1  0  0  0  0
  7  8  1  0  0  0  0
  7 39  1  0  0  0  0
  7 40  1  0  0  0  0
  8 41  1  0  0  0  0
  9 10  1  0  0  0  0
  9 42  1  0  0  0  0
  9 43  1  0  0  0  0
 10 11  1  0  0  0  0
 10 44  1  0  0  0  0
 10 45  1  0  0  0  0
 11 12  1  0  0  0  0
 12 17  1  0  0  0  0
 12 13  2  0  0  0  0
 13 14  1  0  0  0  0
 14 15  2  0  0  0  0
 14 46  1  0  0  0  0
 15 16  1  0  0  0  0
 16 20  1  0  0  0  0
 16 17  2  0  0  0  0
 17 18  1  0  0  0  0
 18 19  2  0  0  0  0
 19 20  1  0  0  0  0
 19 47  1  0  0  0  0
 20 21  1  0  0  0  0
 21 28  1  0  0  0  0
 21 22  1  0  0  0  0
 21 48  1  0  0  0  0
 22 23  1  0  0  0  0
 22 49  1  0  0  0  0
 22 50  1  0  0  0  0
 23 24  1  0  0  0  0
 23 26  1  0  0  0  0
 23 28  1  0  0  0  0
 24 25  1  0  0  0  0
 24 51  1  0  0  0  0
 24 52  1  0  0  0  0
 25 53  1  0  0  0  0
 26 27  1  0  0  0  0
 26 54  1  0  0  0  0
 26 55  1  0  0  0  0
 27 56  1  0  0  0  0
 28 57  1  0  0  0  0
 28 58  1  0  0  0  0
M  CHG  1   4   1
M  END
> <s_m_source_file>
AV-unprocessed.smi

> <i_m_source_file_index>
215

> <i_lp_mmshare_version>
43012

> <i_f3d_flags>
0

> <s_epik_input>
W09IXVtDSDJdW0NIMl1OKFtDSDNdKVtDQEBIXShbQ0BIXTFbQ0gzXSlbQ0gyXVtDSDJdTjFjKG5bY0hdbjIpYyhjMjMpbltjSF1uM1tDSF0oW0NIMl00KVtDSDJdQzQoW0NIMl1bT0hdKVtDSDJdW09IXQ==

> <s_epik_cmdline>
J2VwaWtfcHl0aG9uJywgJy1waCcsICc3LjAnLCAnLXRuJywgJzgnLCAnLW1hJywgJzIwMCcsICctbWV0YWxfYmluZGluZycsICctaW1hZScsICc8aW5maWxlLm1hZT4nLCAnLW9tYWUnLCAnPG91dGZpbGUubWFlPic=

> <r_lp_tautomer_probability>
1

> <r_epik_Ionization_Penalty>
0.0036237

> <r_epik_Ionization_Penalty_Charging>
0.0032725

> <r_epik_Ionization_Penalty_Neutral>
0.000351196

> <r_epik_State_Penalty>
-0

> <r_epik_Charging_Adjusted_Penalty>
0.0032725

> <i_epik_Tot_Q>
1

> <i_epik_Tot_abs_Q>
1

> <r_epik_Metal_State_Penalty>
-0

> <b_epik_Metal_Only>
0

> <s_lp_Force_Field>
OPLS_2005

> <r_lp_Energy>
76.3744

> <b_lp_Chiralities_Consistent>
1

> <s_lp_Variant>
AV-unprocessed.smi:215-1

> <Gold.Version>
5.8.1

> <Gold.Id.Protein>
6NUR|6NUR_protein|mol2

> <Gold.PLP.Fitness>
51.8196

> <Gold.PLP.PLP>
-40.4299

> <Gold.PLP.part.hbond>
-4.9028

> <Gold.PLP.part.metal>
0.0000

> <Gold.PLP.part.buried>
-3.7868

> <Gold.PLP.part.nonpolar>
-32.3863

> <Gold.PLP.part.repulsive>
2.1864

> <Gold.PLP.ligand.clash>
0.6765

> <Gold.PLP.ligand.torsion>
1.2890

> <Gold.PLP.Chemscore.Hbond>
3.9200

> <Gold.PLP.Chemscore.CHOScore>
0.6984

> <Gold.PLP.Chemscore.Metal>
0.0000

> <Gold.Chemscore.Hbonds>
donor molecule, donor type, donor heavy atom, donor atom, acceptor molecule, acceptor atom, score
      L1  H     8    41       P1 10195  1.00
      L1  H    27    56       P1  8028  1.00
      P1  H  7918  7932       L1     8  0.94
      P1  H  7989  7998       L1    25  1.00
      L1  C    19    47       P1  7957  0.63

> <Gold.PLP.Chemscore.Internal.Correction>
0.7891

> <Gold.Rescore>
     Score         DG    S(hbond)    S(metal)    S(lipo)     H(rot)  DE(clash)    DE(int)     intcor
     10.01     -16.06       3.65        0.00      91.48       4.81       0.90       5.16       ----

> <Gold.Chemscore.Fitness>
10.0069

> <Gold.Chemscore.DG>
-16.0637

> <Gold.Chemscore.ZeroCoef>
-5.4800

> <Gold.Chemscore.Hbond>
3.6507

> <Gold.Chemscore.Metal>
0.0000

> <Gold.Chemscore.Lipo>
91.4827

> <Gold.Chemscore.Internal_Hbond>
0.0000

> <Gold.Chemscore.DEClash>
0.8954

> <Gold.Chemscore.DEInternal>
5.1614

> <Gold.Chemscore.Rot>
4.8098

> <Gold.Chemscore.Internal.Correction>
   9.000000E+99

> <Gold.Chemscore.Hbonds>
donor molecule, donor type, donor heavy atom, donor atom, acceptor molecule, acceptor atom, score
      L1  H     8    41       P1 10195  0.98
      L1  H    27    56       P1  8028  0.95
      P1  H  7918  7932       L1     8  0.25
      P1  H  7989  7998       L1    25  0.94

> <Gold.Chemscore.Hbond.Weighted>
-12.1933

> <Gold.Chemscore.Metal.Weighted>
-0.0000

> <Gold.Chemscore.Lipo.Weighted>
-10.7035

> <Gold.Chemscore.Internal_Hbond.Weighted>
0.0000

> <Gold.Chemscore.DEClash.Weighted>
0.8954

> <Gold.Chemscore.DEInternal.Weighted>
5.1614

> <Gold.Chemscore.Rot.Weighted>
12.3130

> <Gold.Chemscore.Internal.Correction.Weighted>
   9.000000E+99

> <Gold.Protein.RotatedTorsions>
[ 6907 6896 6895 6894 ] final  -45.90 input  -60.11 | X-H torsion
[ 7974 7965 7964 7962 ] final  139.09 input  175.53 | X-H torsion
[ 8008 7997 7996 7995 ] final  -24.56 input   59.86 | X-H torsion
[ 10167 10162 10161 10158 ] final   15.84 input  -65.29 | X-H torsion
[ 10718 10713 10712 10709 ] final  -68.45 input   66.30 | X-H torsion
[ 10763 10752 10751 10750 ] final  -24.33 input  -60.55 | X-H torsion
[ 11005 11000 10999 10996 ] final   35.61 input  -57.11 | X-H torsion

> <Gold.Protein.ActiveResidues>
 VAL166  LYS551  ARG553  GLY616  TRP617  ASP618  TYR619  PRO620  LYS621  CYS622 
 ASP623  PHE694  ASN695  SER759  ASP760  ASP761  ALA762  ILE779  LEU786  VAL792 
 PHE793  MET794  SER795  GLU796  ALA797  LYS798  CYS799  TRP800  GLU811  SER814 

> <Gold.Protein.RotatedAtoms>
  150.9170  134.8587  159.7463 H   0  0  0  0  0  0  0  0  0  0  0  0  # atno 6907 bound_to 6896
  152.4973  134.4274  159.9511 H   0  0  0  0  0  0  0  0  0  0  0  0  # atno 6908 bound_to 6896
  151.4312  133.3630  159.2804 H   0  0  0  0  0  0  0  0  0  0  0  0  # atno 6909 bound_to 6896
  144.9311  139.5046  143.5617 H   0  0  0  0  0  0  0  0  0  0  0  0  # atno 7974 bound_to 7965
  154.4523  140.1950  156.0483 H   0  0  0  0  0  0  0  0  0  0  0  0  # atno 8008 bound_to 7997
  156.0673  140.3289  155.7506 H   0  0  0  0  0  0  0  0  0  0  0  0  # atno 8009 bound_to 7997
  155.5318  140.0578  157.2878 H   0  0  0  0  0  0  0  0  0  0  0  0  # atno 8010 bound_to 7997
  140.5839  143.8927  150.6813 H   0  0  0  0  0  0  0  0  0  0  0  0  # atno 10167 bound_to 10162
  156.0505  130.4295  150.2002 H   0  0  0  0  0  0  0  0  0  0  0  0  # atno 10718 bound_to 10713
  153.6820  135.6966  153.5115 H   0  0  0  0  0  0  0  0  0  0  0  0  # atno 10763 bound_to 10752
  153.2478  135.4285  155.0765 H   0  0  0  0  0  0  0  0  0  0  0  0  # atno 10764 bound_to 10752
  154.8397  135.3524  154.6363 H   0  0  0  0  0  0  0  0  0  0  0  0  # atno 10765 bound_to 10752
  140.2409  134.3416  155.7926 H   0  0  0  0  0  0  0  0  0  0  0  0  # atno 11005 bound_to 11000
  146.3247  139.8262  142.8917 LP  0  0  0  0  0  0  0  0  0  0  0  0  # atno 17320 bound_to 7965
  145.3141  141.0227  143.3538 LP  0  0  0  0  0  0  0  0  0  0  0  0  # atno 17321 bound_to 7965
  140.2433  143.3647  152.1468 LP  0  0  0  0  0  0  0  0  0  0  0  0  # atno 17342 bound_to 10162
  139.5186  144.7008  151.5499 LP  0  0  0  0  0  0  0  0  0  0  0  0  # atno 17343 bound_to 10162
  157.0086  130.9944  151.3372 LP  0  0  0  0  0  0  0  0  0  0  0  0  # atno 17370 bound_to 10713
  157.5426  130.8130  149.8047 LP  0  0  0  0  0  0  0  0  0  0  0  0  # atno 17371 bound_to 10713
  141.2210  133.7298  156.8883 LP  0  0  0  0  0  0  0  0  0  0  0  0  # atno 17394 bound_to 11000
  140.1654  134.9136  157.2768 LP  0  0  0  0  0  0  0  0  0  0  0  0  # atno 17395 bound_to 11000

$$$$
