AV-unprocessed.smi:2591|AV-procd|sdf|10154|dock7
  -GOLD-   2272014163D 1   1.00000     0.00000
 Structure written by MMmdl.
 35 36  0  0  0  0  0  0  0  0  2 V2000
  147.1369  137.8809  155.5487 C   0  0  0  0  0  0  0  0  0  0  0  0
  148.1979  138.8966  155.3828 N   0  3  2  0  0  0  0  0  0  0  0  0
  148.0172  139.7205  154.1664 C   0  0  0  0  0  0  0  0  0  0  0  0
  149.1045  140.8043  154.0895 C   0  0  0  0  0  0  0  0  0  0  0  0
  150.3958  140.1969  154.1355 O   0  0  0  0  0  0  0  0  0  0  0  0
  150.6459  139.4107  155.3051 C   0  0  1  0  0  0  0  0  0  0  0  0
  150.7957  140.3126  156.5457 C   0  0  0  0  0  0  0  0  0  0  0  0
  149.8702  141.0469  156.8943 O   0  0  0  0  0  0  0  0  0  0  0  0
  151.9801  140.2238  157.1804 N   0  0  0  0  0  0  0  0  0  0  0  0
  152.4167  140.9300  158.3324 C   0  0  0  0  0  0  0  0  0  0  0  0
  151.9002  142.2382  158.4638 C   0  0  0  0  0  0  0  0  0  0  0  0
  152.2659  143.0271  159.5755 C   0  0  0  0  0  0  0  0  0  0  0  0
  151.7243  144.4401  159.7271 C   0  0  0  0  0  0  0  0  0  0  0  0
  152.1601  145.0122  160.8499 F   0  0  0  0  0  0  0  0  0  0  0  0
  152.1205  145.1761  158.6893 F   0  0  0  0  0  0  0  0  0  0  0  0
  150.3916  144.4199  159.7562 F   0  0  0  0  0  0  0  0  0  0  0  0
  153.1522  142.4752  160.5233 C   0  0  0  0  0  0  0  0  0  0  0  0
  153.6204  141.1649  160.3163 C   0  0  0  0  0  0  0  0  0  0  0  0
  153.2637  140.4116  159.2552 N   0  0  0  0  0  0  0  0  0  0  0  0
  149.5602  138.3138  155.4264 C   0  0  0  0  0  0  0  0  0  0  0  0
  147.1491  137.1626  154.7279 H   0  0  0  0  0  0  0  0  0  0  0  0
  146.1544  138.3532  155.5766 H   0  0  0  0  0  0  0  0  0  0  0  0
  147.2709  137.3354  156.4836 H   0  0  0  0  0  0  0  0  0  0  0  0
  148.0615  139.0832  153.2817 H   0  0  0  0  0  0  0  0  0  0  0  0
  147.0311  140.1863  154.1779 H   0  0  0  0  0  0  0  0  0  0  0  0
  149.0136  141.3569  153.1543 H   0  0  0  0  0  0  0  0  0  0  0  0
  148.9840  141.5331  154.8920 H   0  0  0  0  0  0  0  0  0  0  0  0
  151.6087  138.9185  155.1621 H   0  0  0  0  0  0  0  0  0  0  0  0
  152.6493  139.5772  156.7886 H   0  0  0  0  0  0  0  0  0  0  0  0
  151.2287  142.6394  157.7184 H   0  0  0  0  0  0  0  0  0  0  0  0
  153.4717  143.0364  161.3889 H   0  0  0  0  0  0  0  0  0  0  0  0
  154.3005  140.7093  161.0206 H   0  0  0  0  0  0  0  0  0  0  0  0
  149.6914  137.7474  156.3497 H   0  0  0  0  0  0  0  0  0  0  0  0
  149.6710  137.6003  154.6084 H   0  0  0  0  0  0  0  0  0  0  0  0
  148.1257  139.5218  156.1736 H   0  0  0  0  0  0  0  0  0  0  0  0
  1  2  1  0  0  0  0
  1 21  1  0  0  0  0
  1 22  1  0  0  0  0
  1 23  1  0  0  0  0
  2 20  1  0  0  0  0
  2  3  1  0  0  0  0
  2 35  1  0  0  0  0
  3  4  1  0  0  0  0
  3 24  1  0  0  0  0
  3 25  1  0  0  0  0
  4  5  1  0  0  0  0
  4 26  1  0  0  0  0
  4 27  1  0  0  0  0
  5  6  1  0  0  0  0
  6  7  1  0  0  0  0
  6 20  1  0  0  0  0
  6 28  1  0  0  0  0
  7  8  2  0  0  0  0
  7  9  1  0  0  0  0
  9 10  1  0  0  0  0
  9 29  1  0  0  0  0
 10 19  1  0  0  0  0
 10 11  2  0  0  0  0
 11 12  1  0  0  0  0
 11 30  1  0  0  0  0
 12 13  1  0  0  0  0
 12 17  2  0  0  0  0
 13 14  1  0  0  0  0
 13 15  1  0  0  0  0
 13 16  1  0  0  0  0
 17 18  1  0  0  0  0
 17 31  1  0  0  0  0
 18 19  2  0  0  0  0
 18 32  1  0  0  0  0
 20 33  1  0  0  0  0
 20 34  1  0  0  0  0
M  CHG  1   2   1
M  END
> <s_m_source_file>
AV-unprocessed.smi

> <i_m_source_file_index>
2591

> <i_lp_mmshare_version>
43012

> <i_f3d_flags>
0

> <s_epik_input>
W0NIM11OMVtDSDJdW0NIMl1PW0NASF0oW0NIMl0xKUMoPU8pW05IXWMyW2NIXWMoQyhGKShGKUYpW2NIXVtjSF1uMg==

> <s_epik_cmdline>
J2VwaWtfcHl0aG9uJywgJy1waCcsICc3LjAnLCAnLXRuJywgJzgnLCAnLW1hJywgJzIwMCcsICctbWV0YWxfYmluZGluZycsICctaW1hZScsICc8aW5maWxlLm1hZT4nLCAnLW9tYWUnLCAnPG91dGZpbGUubWFlPic=

> <r_epik_Ionization_Penalty>
0.314028

> <r_epik_Ionization_Penalty_Charging>
0.314023

> <r_epik_Ionization_Penalty_Neutral>
5.2303e-06

> <r_epik_State_Penalty>
0.308208

> <r_epik_Charging_Adjusted_Penalty>
0.62223

> <i_epik_Tot_Q>
1

> <i_epik_Tot_abs_Q>
1

> <r_epik_Metal_State_Penalty>
0.308209

> <b_epik_Metal_Only>
0

> <s_lp_Force_Field>
OPLS_2005

> <r_lp_Energy>
16.4571

> <b_lp_Chiralities_Consistent>
1

> <s_lp_Variant>
AV-unprocessed.smi:2591-2

> <Gold.Version>
5.8.1

> <Gold.Id.Protein>
6NUR|6NUR_protein|mol2

> <Gold.PLP.Fitness>
41.1681

> <Gold.PLP.PLP>
-38.6231

> <Gold.PLP.part.hbond>
-0.8750

> <Gold.PLP.part.metal>
0.0000

> <Gold.PLP.part.buried>
-4.8746

> <Gold.PLP.part.nonpolar>
-33.1992

> <Gold.PLP.part.repulsive>
0.5772

> <Gold.PLP.ligand.clash>
0.2319

> <Gold.PLP.ligand.torsion>
0.2440

> <Gold.PLP.Chemscore.Hbond>
1.0000

> <Gold.PLP.Chemscore.CHOScore>
0.0000

> <Gold.PLP.Chemscore.Metal>
0.0000

> <Gold.Chemscore.Hbonds>
donor molecule, donor type, donor heavy atom, donor atom, acceptor molecule, acceptor atom, score
      P1  H  7989  7998       L1     5  1.00

> <Gold.PLP.Chemscore.Internal.Correction>
0.2650

> <Gold.Rescore>
     Score         DG    S(hbond)    S(metal)    S(lipo)     H(rot)  DE(clash)    DE(int)     intcor
     11.92     -14.84       0.91        0.00      75.77       1.00       0.08       2.83       ----

> <Gold.Chemscore.Fitness>
11.9232

> <Gold.Chemscore.DG>
-14.8375

> <Gold.Chemscore.ZeroCoef>
-5.4800

> <Gold.Chemscore.Hbond>
0.9137

> <Gold.Chemscore.Metal>
0.0000

> <Gold.Chemscore.Lipo>
75.7745

> <Gold.Chemscore.Internal_Hbond>
0.0000

> <Gold.Chemscore.DEClash>
0.0823

> <Gold.Chemscore.DEInternal>
2.8320

> <Gold.Chemscore.Rot>
1.0000

> <Gold.Chemscore.Internal.Correction>
   9.000000E+99

> <Gold.Chemscore.Hbonds>
donor molecule, donor type, donor heavy atom, donor atom, acceptor molecule, acceptor atom, score
      P1  H  7989  7998       L1     5  0.84

> <Gold.Chemscore.Hbond.Weighted>
-3.0519

> <Gold.Chemscore.Metal.Weighted>
-0.0000

> <Gold.Chemscore.Lipo.Weighted>
-8.8656

> <Gold.Chemscore.Internal_Hbond.Weighted>
0.0000

> <Gold.Chemscore.DEClash.Weighted>
0.0823

> <Gold.Chemscore.DEInternal.Weighted>
2.8320

> <Gold.Chemscore.Rot.Weighted>
2.5600

> <Gold.Chemscore.Internal.Correction.Weighted>
   9.000000E+99

> <Gold.Protein.RotatedTorsions>
[ 6907 6896 6895 6894 ] final   45.42 input  -60.11 | X-H torsion
[ 7974 7965 7964 7962 ] final  -93.66 input  175.53 | X-H torsion
[ 8008 7997 7996 7995 ] final  140.87 input   59.86 | X-H torsion
[ 10167 10162 10161 10158 ] final  157.24 input  -65.29 | X-H torsion
[ 10718 10713 10712 10709 ] final -110.84 input   66.30 | X-H torsion
[ 10763 10752 10751 10750 ] final -133.04 input  -60.55 | X-H torsion
[ 11005 11000 10999 10996 ] final  -82.80 input  -57.11 | X-H torsion

> <Gold.Protein.ActiveResidues>
 VAL166  LYS551  ARG553  GLY616  TRP617  ASP618  TYR619  PRO620  LYS621  CYS622 
 ASP623  PHE694  ASN695  SER759  ASP760  ASP761  ALA762  ILE779  LEU786  VAL792 
 PHE793  MET794  SER795  GLU796  ALA797  LYS798  CYS799  TRP800  GLU811  SER814 

> <Gold.Protein.RotatedAtoms>
  152.2443  134.8197  160.0455 H   0  0  0  0  0  0  0  0  0  0  0  0  # atno 6907 bound_to 6896
  151.8900  133.3509  159.3803 H   0  0  0  0  0  0  0  0  0  0  0  0  # atno 6908 bound_to 6896
  150.7063  134.4860  159.5537 H   0  0  0  0  0  0  0  0  0  0  0  0  # atno 6909 bound_to 6896
  145.3836  140.9520  143.2379 H   0  0  0  0  0  0  0  0  0  0  0  0  # atno 7974 bound_to 7965
  156.2973  140.2330  156.4472 H   0  0  0  0  0  0  0  0  0  0  0  0  # atno 8008 bound_to 7997
  154.8133  140.0442  157.1379 H   0  0  0  0  0  0  0  0  0  0  0  0  # atno 8009 bound_to 7997
  154.9398  140.3028  155.5130 H   0  0  0  0  0  0  0  0  0  0  0  0  # atno 8010 bound_to 7997
  139.4822  144.4935  151.8273 H   0  0  0  0  0  0  0  0  0  0  0  0  # atno 10167 bound_to 10162
  156.0613  130.5836  150.8292 H   0  0  0  0  0  0  0  0  0  0  0  0  # atno 10718 bound_to 10713
  154.8737  135.3779  154.4508 H   0  0  0  0  0  0  0  0  0  0  0  0  # atno 10763 bound_to 10752
  153.5184  135.7029  153.5749 H   0  0  0  0  0  0  0  0  0  0  0  0  # atno 10764 bound_to 10752
  153.4007  135.3949  155.1951 H   0  0  0  0  0  0  0  0  0  0  0  0  # atno 10765 bound_to 10752
  141.1661  133.7262  156.8625 H   0  0  0  0  0  0  0  0  0  0  0  0  # atno 11005 bound_to 11000
  144.8490  139.5352  143.6865 LP  0  0  0  0  0  0  0  0  0  0  0  0  # atno 17320 bound_to 7965
  146.2830  139.6929  142.9215 LP  0  0  0  0  0  0  0  0  0  0  0  0  # atno 17321 bound_to 7965
  140.4422  144.1971  150.5892 LP  0  0  0  0  0  0  0  0  0  0  0  0  # atno 17342 bound_to 10162
  140.4672  143.2426  151.9139 LP  0  0  0  0  0  0  0  0  0  0  0  0  # atno 17343 bound_to 10162
  157.5624  131.0946  150.9540 LP  0  0  0  0  0  0  0  0  0  0  0  0  # atno 17370 bound_to 10713
  156.9774  130.5514  149.5294 LP  0  0  0  0  0  0  0  0  0  0  0  0  # atno 17371 bound_to 10713
  140.1838  134.9014  157.2980 LP  0  0  0  0  0  0  0  0  0  0  0  0  # atno 17394 bound_to 11000
  140.2365  134.3847  155.7499 LP  0  0  0  0  0  0  0  0  0  0  0  0  # atno 17395 bound_to 11000

$$$$
