AV-unprocessed.smi:2919|AV-procd|sdf|11194|dock7
  -GOLD-   2272016 83D 1   1.00000     0.00000
 Structure written by MMmdl.
 34 36  0  0  0  0  0  0  0  0  1 V2000
  153.0458  138.1067  155.5802 C   0  0  0  0  0  0  0  0  0  0  0  0
  152.2217  139.3087  156.0066 C   0  0  0  0  0  0  0  0  0  0  0  0
  152.6886  139.9639  157.0919 N   0  0  0  0  0  0  0  0  0  0  0  0
  152.0483  141.0350  157.5625 N   0  0  0  0  0  0  0  0  0  0  0  0
  150.9210  141.4911  156.9652 C   0  0  0  0  0  0  0  0  0  0  0  0
  150.3018  142.6256  157.5209 N   0  0  0  0  0  0  0  0  0  0  0  0
  150.5684  143.0245  158.8998 C   0  0  2  0  0  0  0  0  0  0  0  0
  149.9935  144.4004  159.2440 C   0  0  0  0  0  0  0  0  0  0  0  0
  151.2282  145.1314  159.7897 C   0  0  2  0  0  0  0  0  0  0  0  0
  152.1896  145.5318  158.6631 C   0  0  0  0  0  0  0  0  0  0  0  0
  152.7886  144.1822  158.2726 C   0  0  0  0  0  0  0  0  0  0  0  0
  152.0619  143.2221  159.2302 C   0  0  1  0  0  0  0  0  0  0  0  0
  151.9452  144.0551  160.3713 O   0  0  0  0  0  0  0  0  0  0  0  0
  150.3733  140.8507  155.8234 C   0  0  0  0  0  0  0  0  0  0  0  0
  149.1571  141.3482  155.1833 C   0  0  0  0  0  0  0  0  0  0  0  0
  148.1942  141.7417  154.6763 N   0  0  0  0  0  0  0  0  0  0  0  0
  151.0512  139.7123  155.3193 C   0  0  0  0  0  0  0  0  0  0  0  0
  150.5369  138.9619  154.0932 C   0  0  0  0  0  0  0  0  0  0  0  0
  152.4393  137.2010  155.6027 H   0  0  0  0  0  0  0  0  0  0  0  0
  153.8998  137.9519  156.2410 H   0  0  0  0  0  0  0  0  0  0  0  0
  153.4289  138.2465  154.5690 H   0  0  0  0  0  0  0  0  0  0  0  0
  149.9602  143.3367  156.8904 H   0  0  0  0  0  0  0  0  0  0  0  0
  150.1365  142.2900  159.5812 H   0  0  0  0  0  0  0  0  0  0  0  0
  149.5550  144.9215  158.3917 H   0  0  0  0  0  0  0  0  0  0  0  0
  149.2255  144.3063  160.0127 H   0  0  0  0  0  0  0  0  0  0  0  0
  150.9938  145.9424  160.4798 H   0  0  0  0  0  0  0  0  0  0  0  0
  151.6782  146.0245  157.8355 H   0  0  0  0  0  0  0  0  0  0  0  0
  152.9662  146.2021  159.0333 H   0  0  0  0  0  0  0  0  0  0  0  0
  152.6379  143.9367  157.2212 H   0  0  0  0  0  0  0  0  0  0  0  0
  153.8617  144.1752  158.4669 H   0  0  0  0  0  0  0  0  0  0  0  0
  152.6018  142.2927  159.4137 H   0  0  0  0  0  0  0  0  0  0  0  0
  150.4673  139.6368  153.2395 H   0  0  0  0  0  0  0  0  0  0  0  0
  149.5438  138.5568  154.2901 H   0  0  0  0  0  0  0  0  0  0  0  0
  151.1745  138.1315  153.7957 H   0  0  0  0  0  0  0  0  0  0  0  0
  1  2  1  0  0  0  0
  1 19  1  0  0  0  0
  1 20  1  0  0  0  0
  1 21  1  0  0  0  0
  2 17  1  0  0  0  0
  2  3  2  0  0  0  0
  3  4  1  0  0  0  0
  4  5  2  0  0  0  0
  5  6  1  0  0  0  0
  5 14  1  0  0  0  0
  6  7  1  0  0  0  0
  6 22  1  0  0  0  0
  7 12  1  0  0  0  0
  7  8  1  0  0  0  0
  7 23  1  0  0  0  0
  8  9  1  0  0  0  0
  8 24  1  0  0  0  0
  8 25  1  0  0  0  0
  9 13  1  0  0  0  0
  9 10  1  0  0  0  0
  9 26  1  0  0  0  0
 10 11  1  0  0  0  0
 10 27  1  0  0  0  0
 10 28  1  0  0  0  0
 11 12  1  0  0  0  0
 11 29  1  0  0  0  0
 11 30  1  0  0  0  0
 12 13  1  0  0  0  0
 12 31  1  0  0  0  0
 14 15  1  0  0  0  0
 14 17  2  0  0  0  0
 15 16  3  0  0  0  0
 17 18  1  0  0  0  0
 18 32  1  0  0  0  0
 18 33  1  0  0  0  0
 18 34  1  0  0  0  0
M  END
> <s_m_source_file>
AV-unprocessed.smi

> <i_m_source_file_index>
2919

> <i_lp_mmshare_version>
43012

> <i_f3d_flags>
0

> <s_epik_input>
W0NIM11jMW5uYyhjKEMjTiljMVtDSDNdKVtOSF1bQ0BIXShbQ0gyXVtDQEBIXTIzKVtDQEBIXShPMylbQ0gyXVtDSDJdMg==

> <s_epik_cmdline>
J2VwaWtfcHl0aG9uJywgJy1waCcsICc3LjAnLCAnLXRuJywgJzgnLCAnLW1hJywgJzIwMCcsICctbWV0YWxfYmluZGluZycsICctaW1hZScsICc8aW5maWxlLm1hZT4nLCAnLW9tYWUnLCAnPG91dGZpbGUubWFlPic=

> <r_lp_tautomer_probability>
1

> <r_epik_Ionization_Penalty>
0.00143865

> <r_epik_Ionization_Penalty_Charging>
0

> <r_epik_Ionization_Penalty_Neutral>
0.00143865

> <r_epik_State_Penalty>
-0

> <r_epik_Charging_Adjusted_Penalty>
0

> <i_epik_Tot_Q>
0

> <i_epik_Tot_abs_Q>
0

> <r_epik_Metal_State_Penalty>
-0

> <b_epik_Metal_Only>
0

> <s_lp_Force_Field>
OPLS_2005

> <r_lp_Energy>
49.1594

> <b_lp_Chiralities_Consistent>
1

> <s_lp_Variant>
AV-unprocessed.smi:2919-3

> <Gold.Version>
5.8.1

> <Gold.Id.Protein>
6NUR|6NUR_protein|mol2

> <Gold.PLP.Fitness>
42.0697

> <Gold.PLP.PLP>
-37.1141

> <Gold.PLP.part.hbond>
-1.6560

> <Gold.PLP.part.metal>
0.0000

> <Gold.PLP.part.buried>
-1.9835

> <Gold.PLP.part.nonpolar>
-31.9233

> <Gold.PLP.part.repulsive>
0.2419

> <Gold.PLP.ligand.clash>
0.0000

> <Gold.PLP.ligand.torsion>
0.1485

> <Gold.PLP.Chemscore.Hbond>
1.7475

> <Gold.PLP.Chemscore.CHOScore>
0.0000

> <Gold.PLP.Chemscore.Metal>
0.0000

> <Gold.Chemscore.Hbonds>
donor molecule, donor type, donor heavy atom, donor atom, acceptor molecule, acceptor atom, score
      L1  H     6    22       P1  8028  0.75
      P1  H  7997  8008       L1     3  1.00

> <Gold.PLP.Chemscore.Internal.Correction>
0.0102

> <Gold.Rescore>
     Score         DG    S(hbond)    S(metal)    S(lipo)     H(rot)  DE(clash)    DE(int)     intcor
     16.27     -18.03       0.82        0.00     105.67       1.00       0.33       1.43       ----

> <Gold.Chemscore.Fitness>
16.2736

> <Gold.Chemscore.DG>
-18.0328

> <Gold.Chemscore.ZeroCoef>
-5.4800

> <Gold.Chemscore.Hbond>
0.8233

> <Gold.Chemscore.Metal>
0.0000

> <Gold.Chemscore.Lipo>
105.6673

> <Gold.Chemscore.Internal_Hbond>
0.0000

> <Gold.Chemscore.DEClash>
0.3291

> <Gold.Chemscore.DEInternal>
1.4301

> <Gold.Chemscore.Rot>
1.0000

> <Gold.Chemscore.Internal.Correction>
   9.000000E+99

> <Gold.Chemscore.Hbonds>
donor molecule, donor type, donor heavy atom, donor atom, acceptor molecule, acceptor atom, score
      L1  H     6    22       P1  8028  0.73
      P1  H  7997  8008       L1     3  0.25

> <Gold.Chemscore.Hbond.Weighted>
-2.7498

> <Gold.Chemscore.Metal.Weighted>
-0.0000

> <Gold.Chemscore.Lipo.Weighted>
-12.3631

> <Gold.Chemscore.Internal_Hbond.Weighted>
0.0000

> <Gold.Chemscore.DEClash.Weighted>
0.3291

> <Gold.Chemscore.DEInternal.Weighted>
1.4301

> <Gold.Chemscore.Rot.Weighted>
2.5600

> <Gold.Chemscore.Internal.Correction.Weighted>
   9.000000E+99

> <Gold.Protein.RotatedTorsions>
[ 6907 6896 6895 6894 ] final -169.29 input  -60.11 | X-H torsion
[ 7974 7965 7964 7962 ] final   29.17 input  175.53 | X-H torsion
[ 8008 7997 7996 7995 ] final  -61.95 input   59.86 | X-H torsion
[ 10167 10162 10161 10158 ] final -111.44 input  -65.29 | X-H torsion
[ 10718 10713 10712 10709 ] final  162.50 input   66.30 | X-H torsion
[ 10763 10752 10751 10750 ] final  -55.47 input  -60.55 | X-H torsion
[ 11005 11000 10999 10996 ] final -176.80 input  -57.11 | X-H torsion

> <Gold.Protein.ActiveResidues>
 VAL166  LYS551  ARG553  GLY616  TRP617  ASP618  TYR619  PRO620  LYS621  CYS622 
 ASP623  PHE694  ASN695  SER759  ASP760  ASP761  ALA762  ILE779  LEU786  VAL792 
 PHE793  MET794  SER795  GLU796  ALA797  LYS798  CYS799  TRP800  GLU811  SER814 

> <Gold.Protein.RotatedAtoms>
  151.4892  133.3528  159.2850 H   0  0  0  0  0  0  0  0  0  0  0  0  # atno 6907 bound_to 6896
  150.8846  134.8243  159.7260 H   0  0  0  0  0  0  0  0  0  0  0  0  # atno 6908 bound_to 6896
  152.4784  134.4794  159.9713 H   0  0  0  0  0  0  0  0  0  0  0  0  # atno 6909 bound_to 6896
  146.1687  139.6957  142.8983 H   0  0  0  0  0  0  0  0  0  0  0  0  # atno 7974 bound_to 7965
  154.4474  140.1006  156.6511 H   0  0  0  0  0  0  0  0  0  0  0  0  # atno 8008 bound_to 7997
  155.5396  140.3483  155.4425 H   0  0  0  0  0  0  0  0  0  0  0  0  # atno 8009 bound_to 7997
  156.0606  140.1325  156.9934 H   0  0  0  0  0  0  0  0  0  0  0  0  # atno 8010 bound_to 7997
  140.1335  143.4340  152.1611 H   0  0  0  0  0  0  0  0  0  0  0  0  # atno 10167 bound_to 10162
  157.1217  131.0494  151.2412 H   0  0  0  0  0  0  0  0  0  0  0  0  # atno 10718 bound_to 10713
  154.1913  135.6427  153.5061 H   0  0  0  0  0  0  0  0  0  0  0  0  # atno 10763 bound_to 10752
  153.0034  135.5429  154.6412 H   0  0  0  0  0  0  0  0  0  0  0  0  # atno 10764 bound_to 10752
  154.5802  135.2924  155.0713 H   0  0  0  0  0  0  0  0  0  0  0  0  # atno 10765 bound_to 10752
  140.4480  134.6369  157.4788 H   0  0  0  0  0  0  0  0  0  0  0  0  # atno 11005 bound_to 11000
  145.4399  141.0421  143.2863 LP  0  0  0  0  0  0  0  0  0  0  0  0  # atno 17320 bound_to 7965
  144.8130  139.5927  143.7021 LP  0  0  0  0  0  0  0  0  0  0  0  0  # atno 17321 bound_to 7965
  139.5507  144.7335  151.4443 LP  0  0  0  0  0  0  0  0  0  0  0  0  # atno 17342 bound_to 10162
  140.6803  143.8097  150.7112 LP  0  0  0  0  0  0  0  0  0  0  0  0  # atno 17343 bound_to 10162
  157.4470  130.7577  149.7118 LP  0  0  0  0  0  0  0  0  0  0  0  0  # atno 17370 bound_to 10713
  155.9827  130.4007  150.3402 LP  0  0  0  0  0  0  0  0  0  0  0  0  # atno 17371 bound_to 10713
  140.0025  134.6814  155.9507 LP  0  0  0  0  0  0  0  0  0  0  0  0  # atno 17394 bound_to 11000
  141.1676  133.6537  156.4536 LP  0  0  0  0  0  0  0  0  0  0  0  0  # atno 17395 bound_to 11000

$$$$
