AV-unprocessed.smi:1959|AV-procd|sdf|7912|dock5
  -GOLD-   2272010 73D 1   1.00000     0.00000
 Structure written by MMmdl.
 44 45  0  0  0  0  0  0  0  0  1 V2000
  154.0106  141.3817  160.8356 C   0  0  0  0  0  0  0  0  0  0  0  0
  153.1103  142.4060  160.2110 C   0  0  0  0  0  0  0  0  0  0  0  0
  152.5995  143.6011  160.7896 C   0  0  0  0  0  0  0  0  0  0  0  0
  151.8306  144.1518  159.8033 C   0  0  0  0  0  0  0  0  0  0  0  0
  151.0223  145.4076  159.8072 C   0  0  0  0  0  0  0  0  0  0  0  0
  151.9059  143.3023  158.7124 N   0  0  0  0  0  0  0  0  0  0  0  0
  151.2539  143.4057  157.4134 C   0  0  0  0  0  0  0  0  0  0  0  0
  150.7196  142.0474  156.9531 C   0  0  0  0  0  0  0  0  0  0  0  0
  150.9793  141.0309  157.5961 O   0  0  0  0  0  0  0  0  0  0  0  0
  149.9560  142.0519  155.8498 N   0  0  0  0  0  0  0  0  0  0  0  0
  149.1932  140.9180  155.3381 C   0  0  2  0  0  0  0  0  0  0  0  0
  150.1180  140.0263  154.4946 C   0  0  0  0  0  0  0  0  0  0  0  0
  147.9945  141.4325  154.5106 C   0  0  0  0  0  0  0  0  0  0  0  0
  147.1012  142.3714  155.1953 N   0  0  0  0  0  0  0  0  0  0  0  0
  145.9653  142.7839  154.3718 C   0  0  0  0  0  0  0  0  0  0  0  0
  145.0085  143.7246  155.1237 C   0  0  0  0  0  0  0  0  0  0  0  0
  144.5700  143.1036  156.3266 O   0  0  0  0  0  0  0  0  0  0  0  0
  145.6511  142.7484  157.1816 C   0  0  0  0  0  0  0  0  0  0  0  0
  146.5986  141.7923  156.4371 C   0  0  0  0  0  0  0  0  0  0  0  0
  152.6950  142.2352  158.9673 N   0  0  0  0  0  0  0  0  0  0  0  0
  154.9097  141.2302  160.2378 H   0  0  0  0  0  0  0  0  0  0  0  0
  153.5041  140.4208  160.9281 H   0  0  0  0  0  0  0  0  0  0  0  0
  154.3237  141.6886  161.8336 H   0  0  0  0  0  0  0  0  0  0  0  0
  152.7675  143.9916  161.7823 H   0  0  0  0  0  0  0  0  0  0  0  0
  151.1104  145.9226  160.7640 H   0  0  0  0  0  0  0  0  0  0  0  0
  149.9669  145.1935  159.6402 H   0  0  0  0  0  0  0  0  0  0  0  0
  151.3602  146.0908  159.0281 H   0  0  0  0  0  0  0  0  0  0  0  0
  150.4368  144.1248  157.4686 H   0  0  0  0  0  0  0  0  0  0  0  0
  151.9694  143.7929  156.6862 H   0  0  0  0  0  0  0  0  0  0  0  0
  149.8126  142.9362  155.3845 H   0  0  0  0  0  0  0  0  0  0  0  0
  148.8124  140.3181  156.1670 H   0  0  0  0  0  0  0  0  0  0  0  0
  149.5831  139.1561  154.1131 H   0  0  0  0  0  0  0  0  0  0  0  0
  150.9578  139.6582  155.0852 H   0  0  0  0  0  0  0  0  0  0  0  0
  150.5237  140.5692  153.6402 H   0  0  0  0  0  0  0  0  0  0  0  0
  148.3428  141.8603  153.5689 H   0  0  0  0  0  0  0  0  0  0  0  0
  147.4003  140.5625  154.2282 H   0  0  0  0  0  0  0  0  0  0  0  0
  146.3142  143.3038  153.4812 H   0  0  0  0  0  0  0  0  0  0  0  0
  145.4155  141.9050  154.0318 H   0  0  0  0  0  0  0  0  0  0  0  0
  145.4999  144.6715  155.3523 H   0  0  0  0  0  0  0  0  0  0  0  0
  144.1415  143.9549  154.5043 H   0  0  0  0  0  0  0  0  0  0  0  0
  146.1805  143.6459  157.5053 H   0  0  0  0  0  0  0  0  0  0  0  0
  145.2549  142.2689  158.0766 H   0  0  0  0  0  0  0  0  0  0  0  0
  146.0721  140.8605  156.2240 H   0  0  0  0  0  0  0  0  0  0  0  0
  147.4334  141.5356  157.0902 H   0  0  0  0  0  0  0  0  0  0  0  0
  1  2  1  0  0  0  0
  1 21  1  0  0  0  0
  1 22  1  0  0  0  0
  1 23  1  0  0  0  0
  2 20  2  0  0  0  0
  2  3  1  0  0  0  0
  3  4  2  0  0  0  0
  3 24  1  0  0  0  0
  4  5  1  0  0  0  0
  4  6  1  0  0  0  0
  5 25  1  0  0  0  0
  5 26  1  0  0  0  0
  5 27  1  0  0  0  0
  6  7  1  0  0  0  0
  6 20  1  0  0  0  0
  7  8  1  0  0  0  0
  7 28  1  0  0  0  0
  7 29  1  0  0  0  0
  8  9  2  0  0  0  0
  8 10  1  0  0  0  0
 10 11  1  0  0  0  0
 10 30  1  0  0  0  0
 11 12  1  0  0  0  0
 11 13  1  0  0  0  0
 11 31  1  0  0  0  0
 12 32  1  0  0  0  0
 12 33  1  0  0  0  0
 12 34  1  0  0  0  0
 13 14  1  0  0  0  0
 13 35  1  0  0  0  0
 13 36  1  0  0  0  0
 14 19  1  0  0  0  0
 14 15  1  0  0  0  0
 15 16  1  0  0  0  0
 15 37  1  0  0  0  0
 15 38  1  0  0  0  0
 16 17  1  0  0  0  0
 16 39  1  0  0  0  0
 16 40  1  0  0  0  0
 17 18  1  0  0  0  0
 18 19  1  0  0  0  0
 18 41  1  0  0  0  0
 18 42  1  0  0  0  0
 19 43  1  0  0  0  0
 19 44  1  0  0  0  0
M  END
> <s_m_source_file>
AV-unprocessed.smi

> <i_m_source_file_index>
1959

> <i_lp_mmshare_version>
43012

> <i_f3d_flags>
0

> <s_epik_input>
W0NIM11jMVtjSF1jKFtDSDNdKW4objEpW0NIMl1DKD1PKVtOSF1bQ0BIXShbQ0gzXSlbQ0gyXU4yW0NIMl1bQ0gyXU9bQ0gyXVtDSDJdMg==

> <s_epik_cmdline>
J2VwaWtfcHl0aG9uJywgJy1waCcsICc3LjAnLCAnLXRuJywgJzgnLCAnLW1hJywgJzIwMCcsICctbWV0YWxfYmluZGluZycsICctaW1hZScsICc8aW5maWxlLm1hZT4nLCAnLW9tYWUnLCAnPG91dGZpbGUubWFlPic=

> <r_lp_tautomer_probability>
1

> <r_epik_Ionization_Penalty>
0.197284

> <r_epik_Ionization_Penalty_Charging>
0

> <r_epik_Ionization_Penalty_Neutral>
0.197284

> <r_epik_State_Penalty>
0.186684

> <r_epik_Charging_Adjusted_Penalty>
0.186684

> <i_epik_Tot_Q>
0

> <i_epik_Tot_abs_Q>
0

> <r_epik_Metal_State_Penalty>
0.186639

> <b_epik_Metal_Only>
0

> <s_lp_Force_Field>
OPLS_2005

> <r_lp_Energy>
23.1408

> <b_lp_Chiralities_Consistent>
1

> <s_lp_Variant>
AV-unprocessed.smi:1959-1

> <Gold.Version>
5.8.1

> <Gold.Id.Protein>
6NUR|6NUR_protein|mol2

> <Gold.PLP.Fitness>
44.1378

> <Gold.PLP.PLP>
-42.8474

> <Gold.PLP.part.hbond>
-1.0000

> <Gold.PLP.part.metal>
0.0000

> <Gold.PLP.part.buried>
-5.1397

> <Gold.PLP.part.nonpolar>
-38.0785

> <Gold.PLP.part.repulsive>
1.4735

> <Gold.PLP.ligand.clash>
0.0000

> <Gold.PLP.ligand.torsion>
0.6683

> <Gold.PLP.Chemscore.Hbond>
0.8564

> <Gold.PLP.Chemscore.CHOScore>
0.0000

> <Gold.PLP.Chemscore.Metal>
0.0000

> <Gold.Chemscore.Hbonds>
donor molecule, donor type, donor heavy atom, donor atom, acceptor molecule, acceptor atom, score
      L1  H    10    30       P1  8028  0.83

> <Gold.PLP.Chemscore.Internal.Correction>
0.0577

> <Gold.Rescore>
     Score         DG    S(hbond)    S(metal)    S(lipo)     H(rot)  DE(clash)    DE(int)     intcor
     12.68     -15.33       0.97        0.00      93.68       1.70       0.25       2.40       ----

> <Gold.Chemscore.Fitness>
12.6826

> <Gold.Chemscore.DG>
-15.3326

> <Gold.Chemscore.ZeroCoef>
-5.4800

> <Gold.Chemscore.Hbond>
0.9676

> <Gold.Chemscore.Metal>
0.0000

> <Gold.Chemscore.Lipo>
93.6810

> <Gold.Chemscore.Internal_Hbond>
0.0000

> <Gold.Chemscore.DEClash>
0.2475

> <Gold.Chemscore.DEInternal>
2.4025

> <Gold.Chemscore.Rot>
1.6952

> <Gold.Chemscore.Internal.Correction>
   9.000000E+99

> <Gold.Chemscore.Hbonds>
donor molecule, donor type, donor heavy atom, donor atom, acceptor molecule, acceptor atom, score
      L1  H    10    30       P1  8028  0.76

> <Gold.Chemscore.Hbond.Weighted>
-3.2318

> <Gold.Chemscore.Metal.Weighted>
-0.0000

> <Gold.Chemscore.Lipo.Weighted>
-10.9607

> <Gold.Chemscore.Internal_Hbond.Weighted>
0.0000

> <Gold.Chemscore.DEClash.Weighted>
0.2475

> <Gold.Chemscore.DEInternal.Weighted>
2.4025

> <Gold.Chemscore.Rot.Weighted>
4.3398

> <Gold.Chemscore.Internal.Correction.Weighted>
   9.000000E+99

> <Gold.Protein.RotatedTorsions>
[ 6907 6896 6895 6894 ] final -131.78 input  -60.11 | X-H torsion
[ 7974 7965 7964 7962 ] final  -58.42 input  175.53 | X-H torsion
[ 8008 7997 7996 7995 ] final -175.53 input   59.86 | X-H torsion
[ 10167 10162 10161 10158 ] final  -85.09 input  -65.29 | X-H torsion
[ 10718 10713 10712 10709 ] final  -36.19 input   66.30 | X-H torsion
[ 10763 10752 10751 10750 ] final   54.87 input  -60.55 | X-H torsion
[ 11005 11000 10999 10996 ] final  -61.30 input  -57.11 | X-H torsion

> <Gold.Protein.ActiveResidues>
 VAL166  LYS551  ARG553  GLY616  TRP617  ASP618  TYR619  PRO620  LYS621  CYS622 
 ASP623  PHE694  ASN695  SER759  ASP760  ASP761  ALA762  ILE779  LEU786  VAL792 
 PHE793  MET794  SER795  GLU796  ALA797  LYS798  CYS799  TRP800  GLU811  SER814 

> <Gold.Protein.RotatedAtoms>
  150.9549  133.6508  159.2764 H   0  0  0  0  0  0  0  0  0  0  0  0  # atno 6907 bound_to 6896
  151.3851  135.0945  159.9518 H   0  0  0  0  0  0  0  0  0  0  0  0  # atno 6908 bound_to 6896
  152.5125  133.9075  159.7526 H   0  0  0  0  0  0  0  0  0  0  0  0  # atno 6909 bound_to 6896
  145.8395  140.8426  143.0042 H   0  0  0  0  0  0  0  0  0  0  0  0  # atno 7974 bound_to 7965
  155.9837  140.1187  157.0703 H   0  0  0  0  0  0  0  0  0  0  0  0  # atno 8008 bound_to 7997
  154.4190  140.1139  156.5538 H   0  0  0  0  0  0  0  0  0  0  0  0  # atno 8009 bound_to 7997
  155.6437  140.3473  155.4726 H   0  0  0  0  0  0  0  0  0  0  0  0  # atno 8010 bound_to 7997
  140.4070  143.2638  151.9068 H   0  0  0  0  0  0  0  0  0  0  0  0  # atno 10167 bound_to 10162
  156.3297  130.4277  149.7883 H   0  0  0  0  0  0  0  0  0  0  0  0  # atno 10718 bound_to 10713
  152.9810  135.5730  154.4975 H   0  0  0  0  0  0  0  0  0  0  0  0  # atno 10763 bound_to 10752
  154.4499  135.2778  155.1790 H   0  0  0  0  0  0  0  0  0  0  0  0  # atno 10764 bound_to 10752
  154.3422  135.6227  153.5655 H   0  0  0  0  0  0  0  0  0  0  0  0  # atno 10765 bound_to 10752
  141.1319  133.6629  156.5354 H   0  0  0  0  0  0  0  0  0  0  0  0  # atno 11005 bound_to 11000
  144.6734  140.0791  143.7470 LP  0  0  0  0  0  0  0  0  0  0  0  0  # atno 17320 bound_to 7965
  145.9481  139.2714  143.1228 LP  0  0  0  0  0  0  0  0  0  0  0  0  # atno 17321 bound_to 7965
  139.4783  144.5576  151.8290 LP  0  0  0  0  0  0  0  0  0  0  0  0  # atno 17342 bound_to 10162
  140.4679  144.1629  150.5914 LP  0  0  0  0  0  0  0  0  0  0  0  0  # atno 17343 bound_to 10162
  156.5160  130.8193  151.3186 LP  0  0  0  0  0  0  0  0  0  0  0  0  # atno 17370 bound_to 10713
  157.7428  130.9898  150.2544 LP  0  0  0  0  0  0  0  0  0  0  0  0  # atno 17371 bound_to 10713
  140.4182  134.7211  157.4875 LP  0  0  0  0  0  0  0  0  0  0  0  0  # atno 17394 bound_to 11000
  140.0379  134.6311  155.9019 LP  0  0  0  0  0  0  0  0  0  0  0  0  # atno 17395 bound_to 11000

$$$$
