AV-unprocessed.smi:2418|AV-procd|sdf|9551|dock10
  -GOLD-   2272013183D 1   1.00000     0.00000
 Structure written by MMmdl.
 34 35  0  0  0  0  0  0  0  0  1 V2000
  152.5633  143.5470  161.5340 C   0  0  0  0  0  0  0  0  0  0  0  0
  152.1832  142.9959  160.1713 C   0  0  0  0  0  0  0  0  0  0  0  0
  151.2221  143.7294  159.4694 N   0  0  0  0  0  0  0  0  0  0  0  0
  150.8323  143.3312  158.3026 C   0  0  0  0  0  0  0  0  0  0  0  0
  151.3547  142.1720  157.7061 N   0  0  0  0  0  0  0  0  0  0  0  0
  150.8206  141.8231  156.3788 C   0  0  0  0  0  0  0  0  0  0  0  0
  149.8963  140.5862  156.4278 C   0  0  1  0  0  0  0  0  0  0  0  0
  149.2244  140.5741  157.6731 O   0  0  0  0  0  0  0  0  0  0  0  0
  148.9148  140.5941  155.2626 C   0  0  0  0  0  0  0  0  0  0  0  0
  148.0160  141.6714  155.0905 C   0  0  0  0  0  0  0  0  0  0  0  0
  147.1135  141.6809  154.0096 C   0  0  0  0  0  0  0  0  0  0  0  0
  146.2540  142.7154  153.8545 F   0  0  0  0  0  0  0  0  0  0  0  0
  147.1057  140.6162  153.0892 C   0  0  0  0  0  0  0  0  0  0  0  0
  148.0037  139.5439  153.2489 C   0  0  0  0  0  0  0  0  0  0  0  0
  148.9074  139.5319  154.3295 C   0  0  0  0  0  0  0  0  0  0  0  0
  149.7690  138.4948  154.4618 F   0  0  0  0  0  0  0  0  0  0  0  0
  152.2951  141.3985  158.3219 C   0  0  0  0  0  0  0  0  0  0  0  0
  152.7423  140.3793  157.7920 O   0  0  0  0  0  0  0  0  0  0  0  0
  152.7261  141.8616  159.6507 C   0  0  0  0  0  0  0  0  0  0  0  0
  153.7715  141.0189  160.3707 C   0  0  0  0  0  0  0  0  0  0  0  0
  153.6309  143.7643  161.5752 H   0  0  0  0  0  0  0  0  0  0  0  0
  152.3228  142.8266  162.3165 H   0  0  0  0  0  0  0  0  0  0  0  0
  152.0265  144.4710  161.7534 H   0  0  0  0  0  0  0  0  0  0  0  0
  150.0788  143.8619  157.7182 H   0  0  0  0  0  0  0  0  0  0  0  0
  150.3139  142.6628  155.8982 H   0  0  0  0  0  0  0  0  0  0  0  0
  151.6677  141.6113  155.7231 H   0  0  0  0  0  0  0  0  0  0  0  0
  150.4873  139.6714  156.3759 H   0  0  0  0  0  0  0  0  0  0  0  0
  149.6562  141.1839  158.2519 H   0  0  0  0  0  0  0  0  0  0  0  0
  148.0165  142.4971  155.7870 H   0  0  0  0  0  0  0  0  0  0  0  0
  146.4140  140.6226  152.2598 H   0  0  0  0  0  0  0  0  0  0  0  0
  148.0012  138.7290  152.5400 H   0  0  0  0  0  0  0  0  0  0  0  0
  153.4003  140.0037  160.5160 H   0  0  0  0  0  0  0  0  0  0  0  0
  154.0407  141.4119  161.3498 H   0  0  0  0  0  0  0  0  0  0  0  0
  154.6843  140.9636  159.7766 H   0  0  0  0  0  0  0  0  0  0  0  0
  1  2  1  0  0  0  0
  1 21  1  0  0  0  0
  1 22  1  0  0  0  0
  1 23  1  0  0  0  0
  2 19  2  0  0  0  0
  2  3  1  0  0  0  0
  3  4  2  0  0  0  0
  4  5  1  0  0  0  0
  4 24  1  0  0  0  0
  5  6  1  0  0  0  0
  5 17  1  0  0  0  0
  6  7  1  0  0  0  0
  6 25  1  0  0  0  0
  6 26  1  0  0  0  0
  7  8  1  0  0  0  0
  7  9  1  0  0  0  0
  7 27  1  0  0  0  0
  8 28  1  0  0  0  0
  9 15  1  0  0  0  0
  9 10  2  0  0  0  0
 10 11  1  0  0  0  0
 10 29  1  0  0  0  0
 11 12  1  0  0  0  0
 11 13  2  0  0  0  0
 13 14  1  0  0  0  0
 13 30  1  0  0  0  0
 14 15  2  0  0  0  0
 14 31  1  0  0  0  0
 15 16  1  0  0  0  0
 17 18  2  0  0  0  0
 17 19  1  0  0  0  0
 19 20  1  0  0  0  0
 20 32  1  0  0  0  0
 20 33  1  0  0  0  0
 20 34  1  0  0  0  0
M  END
> <s_m_source_file>
AV-unprocessed.smi

> <i_m_source_file_index>
2418

> <i_lp_mmshare_version>
43012

> <i_f3d_flags>
0

> <s_epik_input>
W0NIM11jMW5bY0hdbihjKD1PKWMxW0NIM10pW0NIMl1bQ0BIXShbT0hdKWMyW2NIXWMoRilbY0hdW2NIXWMyRg==

> <s_epik_cmdline>
J2VwaWtfcHl0aG9uJywgJy1waCcsICc3LjAnLCAnLXRuJywgJzgnLCAnLW1hJywgJzIwMCcsICctbWV0YWxfYmluZGluZycsICctaW1hZScsICc8aW5maWxlLm1hZT4nLCAnLW9tYWUnLCAnPG91dGZpbGUubWFlPic=

> <r_lp_tautomer_probability>
1

> <r_epik_Ionization_Penalty>
5.08222e-05

> <r_epik_Ionization_Penalty_Charging>
7.56727e-08

> <r_epik_Ionization_Penalty_Neutral>
5.07465e-05

> <r_epik_State_Penalty>
-0

> <r_epik_Charging_Adjusted_Penalty>
7.56727e-08

> <i_epik_Tot_Q>
0

> <i_epik_Tot_abs_Q>
0

> <r_epik_Metal_State_Penalty>
-0

> <b_epik_Metal_Only>
0

> <s_lp_Force_Field>
OPLS_2005

> <r_lp_Energy>
18.8119

> <b_lp_Chiralities_Consistent>
1

> <s_lp_Variant>
AV-unprocessed.smi:2418-2

> <Gold.Version>
5.8.1

> <Gold.Id.Protein>
6NUR|6NUR_protein|mol2

> <Gold.PLP.Fitness>
47.0454

> <Gold.PLP.PLP>
-42.0993

> <Gold.PLP.part.hbond>
-1.0000

> <Gold.PLP.part.metal>
0.0000

> <Gold.PLP.part.buried>
-1.6062

> <Gold.PLP.part.nonpolar>
-39.0290

> <Gold.PLP.part.repulsive>
0.0501

> <Gold.PLP.ligand.clash>
0.0000

> <Gold.PLP.ligand.torsion>
0.4229

> <Gold.PLP.Chemscore.Hbond>
0.9280

> <Gold.PLP.Chemscore.CHOScore>
1.0000

> <Gold.PLP.Chemscore.Metal>
0.0000

> <Gold.Chemscore.Hbonds>
donor molecule, donor type, donor heavy atom, donor atom, acceptor molecule, acceptor atom, score
      P1  H  7997  8010       L1    18  0.90
      L1  C     4    24       P1  8028  1.00

> <Gold.PLP.Chemscore.Internal.Correction>
0.0080

> <Gold.Rescore>
     Score         DG    S(hbond)    S(metal)    S(lipo)     H(rot)  DE(clash)    DE(int)     intcor
     12.88     -13.47       0.94        0.00      87.60       2.11       0.14       0.45       ----

> <Gold.Chemscore.Fitness>
12.8839

> <Gold.Chemscore.DG>
-13.4708

> <Gold.Chemscore.ZeroCoef>
-5.4800

> <Gold.Chemscore.Hbond>
0.9409

> <Gold.Chemscore.Metal>
0.0000

> <Gold.Chemscore.Lipo>
87.5988

> <Gold.Chemscore.Internal_Hbond>
0.0000

> <Gold.Chemscore.DEClash>
0.1416

> <Gold.Chemscore.DEInternal>
0.4452

> <Gold.Chemscore.Rot>
2.1097

> <Gold.Chemscore.Internal.Correction>
   9.000000E+99

> <Gold.Chemscore.Hbonds>
donor molecule, donor type, donor heavy atom, donor atom, acceptor molecule, acceptor atom, score
      P1  H  7997  8010       L1    18  0.86

> <Gold.Chemscore.Hbond.Weighted>
-3.1427

> <Gold.Chemscore.Metal.Weighted>
-0.0000

> <Gold.Chemscore.Lipo.Weighted>
-10.2491

> <Gold.Chemscore.Internal_Hbond.Weighted>
0.0000

> <Gold.Chemscore.DEClash.Weighted>
0.1416

> <Gold.Chemscore.DEInternal.Weighted>
0.4452

> <Gold.Chemscore.Rot.Weighted>
5.4009

> <Gold.Chemscore.Internal.Correction.Weighted>
   9.000000E+99

> <Gold.Protein.RotatedTorsions>
[ 6907 6896 6895 6894 ] final   90.76 input  -60.11 | X-H torsion
[ 7974 7965 7964 7962 ] final   62.66 input  175.53 | X-H torsion
[ 8008 7997 7996 7995 ] final   50.04 input   59.86 | X-H torsion
[ 10167 10162 10161 10158 ] final   76.35 input  -65.29 | X-H torsion
[ 10718 10713 10712 10709 ] final  -94.46 input   66.30 | X-H torsion
[ 10763 10752 10751 10750 ] final   84.94 input  -60.55 | X-H torsion
[ 11005 11000 10999 10996 ] final -137.15 input  -57.11 | X-H torsion

> <Gold.Protein.ActiveResidues>
 VAL166  LYS551  ARG553  GLY616  TRP617  ASP618  TYR619  PRO620  LYS621  CYS622 
 ASP623  PHE694  ASN695  SER759  ASP760  ASP761  ALA762  ILE779  LEU786  VAL792 
 PHE793  MET794  SER795  GLU796  ALA797  LYS798  CYS799  TRP800  GLU811  SER814 

> <Gold.Protein.RotatedAtoms>
  152.5446  134.1762  159.8616 H   0  0  0  0  0  0  0  0  0  0  0  0  # atno 6907 bound_to 6896
  151.1768  133.4742  159.2601 H   0  0  0  0  0  0  0  0  0  0  0  0  # atno 6908 bound_to 6896
  151.1219  135.0095  159.8597 H   0  0  0  0  0  0  0  0  0  0  0  0  # atno 6909 bound_to 6896
  145.8707  139.3376  143.0764 H   0  0  0  0  0  0  0  0  0  0  0  0  # atno 7974 bound_to 7965
  155.4122  140.3443  155.4264 H   0  0  0  0  0  0  0  0  0  0  0  0  # atno 8008 bound_to 7997
  156.1442  140.1551  156.8904 H   0  0  0  0  0  0  0  0  0  0  0  0  # atno 8009 bound_to 7997
  154.4996  140.0818  156.7751 H   0  0  0  0  0  0  0  0  0  0  0  0  # atno 8010 bound_to 7997
  139.9931  144.5742  150.7800 H   0  0  0  0  0  0  0  0  0  0  0  0  # atno 10167 bound_to 10162
  156.0027  130.5069  150.5930 H   0  0  0  0  0  0  0  0  0  0  0  0  # atno 10718 bound_to 10713
  153.1428  135.4635  154.9522 H   0  0  0  0  0  0  0  0  0  0  0  0  # atno 10763 bound_to 10752
  154.7762  135.3174  154.8090 H   0  0  0  0  0  0  0  0  0  0  0  0  # atno 10764 bound_to 10752
  153.8610  135.6912  153.4837 H   0  0  0  0  0  0  0  0  0  0  0  0  # atno 10765 bound_to 10752
  140.8738  134.2017  157.4634 H   0  0  0  0  0  0  0  0  0  0  0  0  # atno 11005 bound_to 11000
  145.9140  140.9161  143.0439 LP  0  0  0  0  0  0  0  0  0  0  0  0  # atno 17320 bound_to 7965
  144.6726  140.1198  143.7450 LP  0  0  0  0  0  0  0  0  0  0  0  0  # atno 17321 bound_to 7965
  140.7447  143.2865  151.3450 LP  0  0  0  0  0  0  0  0  0  0  0  0  # atno 17342 bound_to 10162
  139.6325  144.0693  152.2488 LP  0  0  0  0  0  0  0  0  0  0  0  0  # atno 17343 bound_to 10162
  157.3792  131.0778  151.1491 LP  0  0  0  0  0  0  0  0  0  0  0  0  # atno 17370 bound_to 10713
  157.2219  130.6485  149.5815 LP  0  0  0  0  0  0  0  0  0  0  0  0  # atno 17371 bound_to 10713
  139.8714  134.9786  156.5005 LP  0  0  0  0  0  0  0  0  0  0  0  0  # atno 17394 bound_to 11000
  140.8542  133.8109  155.9199 LP  0  0  0  0  0  0  0  0  0  0  0  0  # atno 17395 bound_to 11000

$$$$
