AV-unprocessed.smi:2644|AV-procd|sdf|10277|dock5
  -GOLD-   2272014283D 1   1.00000     0.00000
 Structure written by MMmdl.
 42 44  0  0  0  0  0  0  0  0  1 V2000
  157.2737  137.1781  157.9853 C   0  0  0  0  0  0  0  0  0  0  0  0
  156.6181  137.2551  159.2428 O   0  0  0  0  0  0  0  0  0  0  0  0
  155.2451  137.3749  159.2502 C   0  0  0  0  0  0  0  0  0  0  0  0
  154.6137  137.4498  160.5082 C   0  0  0  0  0  0  0  0  0  0  0  0
  153.2135  137.5514  160.6055 C   0  0  0  0  0  0  0  0  0  0  0  0
  152.4264  137.5775  159.4399 C   0  0  0  0  0  0  0  0  0  0  0  0
  153.0394  137.5112  158.1708 C   0  0  0  0  0  0  0  0  0  0  0  0
  152.1966  137.4741  156.9011 C   0  0  2  0  0  0  0  0  0  0  0  0
  152.3219  136.2513  156.2036 O   0  0  0  0  0  0  0  0  0  0  0  0
  152.5350  138.6312  155.9313 C   0  0  0  0  0  0  0  0  0  0  0  0
  152.0456  139.9300  156.4138 N   0  0  0  0  0  0  0  0  0  0  0  0
  152.5461  140.2995  157.6501 N   0  0  0  0  0  0  0  0  0  0  0  0
  152.1326  141.3679  158.2487 C   0  0  0  0  0  0  0  0  0  0  0  0
  152.6782  141.6211  159.5700 C   0  0  0  0  0  0  0  0  0  0  0  0
  153.6642  140.8272  160.1010 C   0  0  0  0  0  0  0  0  0  0  0  0
  154.0570  141.2694  161.3998 C   0  0  0  0  0  0  0  0  0  0  0  0
  153.3754  142.3822  161.8293 C   0  0  0  0  0  0  0  0  0  0  0  0
  153.5331  143.1039  163.1244 C   0  0  0  0  0  0  0  0  0  0  0  0
  152.2206  142.9239  160.6365 S   0  0  0  0  0  0  0  0  0  0  0  0
  151.1613  142.2262  157.5858 C   0  0  0  0  0  0  0  0  0  0  0  0
  150.6869  141.8676  156.3732 C   0  0  0  0  0  0  0  0  0  0  0  0
  151.1178  140.6396  155.7084 C   0  0  0  0  0  0  0  0  0  0  0  0
  150.6739  140.2682  154.6223 O   0  0  0  0  0  0  0  0  0  0  0  0
  154.4452  137.4170  158.0810 C   0  0  0  0  0  0  0  0  0  0  0  0
  158.3438  137.0466  158.1445 H   0  0  0  0  0  0  0  0  0  0  0  0
  157.1366  138.0933  157.4077 H   0  0  0  0  0  0  0  0  0  0  0  0
  156.9201  136.3257  157.4030 H   0  0  0  0  0  0  0  0  0  0  0  0
  155.2090  137.4204  161.4090 H   0  0  0  0  0  0  0  0  0  0  0  0
  152.7424  137.5987  161.5761 H   0  0  0  0  0  0  0  0  0  0  0  0
  151.3511  137.6342  159.5243 H   0  0  0  0  0  0  0  0  0  0  0  0
  151.1476  137.5542  157.1886 H   0  0  0  0  0  0  0  0  0  0  0  0
  151.4654  135.8576  156.1354 H   0  0  0  0  0  0  0  0  0  0  0  0
  153.6172  138.6855  155.7966 H   0  0  0  0  0  0  0  0  0  0  0  0
  152.1335  138.4211  154.9381 H   0  0  0  0  0  0  0  0  0  0  0  0
  154.1207  139.9642  159.6409 H   0  0  0  0  0  0  0  0  0  0  0  0
  154.8208  140.7605  161.9695 H   0  0  0  0  0  0  0  0  0  0  0  0
  154.2235  142.5792  163.7853 H   0  0  0  0  0  0  0  0  0  0  0  0
  152.5759  143.1901  163.6387 H   0  0  0  0  0  0  0  0  0  0  0  0
  153.9214  144.1094  162.9613 H   0  0  0  0  0  0  0  0  0  0  0  0
  150.8149  143.1383  158.0455 H   0  0  0  0  0  0  0  0  0  0  0  0
  149.9654  142.5030  155.8809 H   0  0  0  0  0  0  0  0  0  0  0  0
  154.8892  137.3513  157.0994 H   0  0  0  0  0  0  0  0  0  0  0  0
  1  2  1  0  0  0  0
  1 25  1  0  0  0  0
  1 26  1  0  0  0  0
  1 27  1  0  0  0  0
  2  3  1  0  0  0  0
  3 24  1  0  0  0  0
  3  4  2  0  0  0  0
  4  5  1  0  0  0  0
  4 28  1  0  0  0  0
  5  6  2  0  0  0  0
  5 29  1  0  0  0  0
  6  7  1  0  0  0  0
  6 30  1  0  0  0  0
  7  8  1  0  0  0  0
  7 24  2  0  0  0  0
  8  9  1  0  0  0  0
  8 10  1  0  0  0  0
  8 31  1  0  0  0  0
  9 32  1  0  0  0  0
 10 11  1  0  0  0  0
 10 33  1  0  0  0  0
 10 34  1  0  0  0  0
 11 22  1  0  0  0  0
 11 12  1  0  0  0  0
 12 13  2  0  0  0  0
 13 14  1  0  0  0  0
 13 20  1  0  0  0  0
 14 19  1  0  0  0  0
 14 15  2  0  0  0  0
 15 16  1  0  0  0  0
 15 35  1  0  0  0  0
 16 17  2  0  0  0  0
 16 36  1  0  0  0  0
 17 18  1  0  0  0  0
 17 19  1  0  0  0  0
 18 37  1  0  0  0  0
 18 38  1  0  0  0  0
 18 39  1  0  0  0  0
 20 21  2  0  0  0  0
 20 40  1  0  0  0  0
 21 22  1  0  0  0  0
 21 41  1  0  0  0  0
 22 23  2  0  0  0  0
 24 42  1  0  0  0  0
M  END
> <s_m_source_file>
AV-unprocessed.smi

> <i_m_source_file_index>
2644

> <i_lp_mmshare_version>
43012

> <i_f3d_flags>
0

> <s_epik_input>
W0NIM11PYzFbY0hdW2NIXVtjSF1jKFtjSF0xKVtDQEhdKFtPSF0pW0NIMl1uMm5jKFtjSF1bY0hdYzI9TyktYzNbY0hdW2NIXWMoczMpW0NIM10=

> <s_epik_cmdline>
J2VwaWtfcHl0aG9uJywgJy1waCcsICc3LjAnLCAnLXRuJywgJzgnLCAnLW1hJywgJzIwMCcsICctbWV0YWxfYmluZGluZycsICctaW1hZScsICc8aW5maWxlLm1hZT4nLCAnLW9tYWUnLCAnPG91dGZpbGUubWFlPic=

> <r_lp_tautomer_probability>
1

> <r_epik_Ionization_Penalty>
1.30631e-07

> <r_epik_Ionization_Penalty_Charging>
5.89185e-08

> <r_epik_Ionization_Penalty_Neutral>
7.1713e-08

> <r_epik_State_Penalty>
-0

> <r_epik_Charging_Adjusted_Penalty>
5.89185e-08

> <i_epik_Tot_Q>
0

> <i_epik_Tot_abs_Q>
0

> <r_epik_Metal_State_Penalty>
-0

> <b_epik_Metal_Only>
0

> <s_lp_Force_Field>
OPLS_2005

> <r_lp_Energy>
28.4714

> <b_lp_Chiralities_Consistent>
1

> <s_lp_Variant>
AV-unprocessed.smi:2644-1

> <Gold.Version>
5.8.1

> <Gold.Id.Protein>
6NUR|6NUR_protein|mol2

> <Gold.PLP.Fitness>
52.3810

> <Gold.PLP.PLP>
-45.6300

> <Gold.PLP.part.hbond>
-3.0000

> <Gold.PLP.part.metal>
0.0000

> <Gold.PLP.part.buried>
-4.6645

> <Gold.PLP.part.nonpolar>
-37.3005

> <Gold.PLP.part.repulsive>
0.1203

> <Gold.PLP.ligand.clash>
0.0000

> <Gold.PLP.ligand.torsion>
0.1491

> <Gold.PLP.Chemscore.Hbond>
2.3276

> <Gold.PLP.Chemscore.CHOScore>
0.0000

> <Gold.PLP.Chemscore.Metal>
0.0000

> <Gold.Chemscore.Hbonds>
donor molecule, donor type, donor heavy atom, donor atom, acceptor molecule, acceptor atom, score
      P1  H  7989  7998       L1    23  1.00
      P1  H  7997  8010       L1    12  0.35
      P1  H 10752 10765       L1     9  1.00

> <Gold.PLP.Chemscore.Internal.Correction>
0.0664

> <Gold.Rescore>
     Score         DG    S(hbond)    S(metal)    S(lipo)     H(rot)  DE(clash)    DE(int)     intcor
     20.87     -21.28       1.90        0.00     124.00       1.98       0.01       0.40       ----

> <Gold.Chemscore.Fitness>
20.8693

> <Gold.Chemscore.DG>
-21.2775

> <Gold.Chemscore.ZeroCoef>
-5.4800

> <Gold.Chemscore.Hbond>
1.9019

> <Gold.Chemscore.Metal>
0.0000

> <Gold.Chemscore.Lipo>
123.9993

> <Gold.Chemscore.Internal_Hbond>
0.0000

> <Gold.Chemscore.DEClash>
0.0093

> <Gold.Chemscore.DEInternal>
0.3989

> <Gold.Chemscore.Rot>
1.9777

> <Gold.Chemscore.Internal.Correction>
   9.000000E+99

> <Gold.Chemscore.Hbonds>
donor molecule, donor type, donor heavy atom, donor atom, acceptor molecule, acceptor atom, score
      P1  H  7989  7998       L1    23  0.59
      P1  H  7997  8010       L1    12  0.02
      P1  H 10752 10765       L1     9  0.55

> <Gold.Chemscore.Hbond.Weighted>
-6.3524

> <Gold.Chemscore.Metal.Weighted>
-0.0000

> <Gold.Chemscore.Lipo.Weighted>
-14.5079

> <Gold.Chemscore.Internal_Hbond.Weighted>
0.0000

> <Gold.Chemscore.DEClash.Weighted>
0.0093

> <Gold.Chemscore.DEInternal.Weighted>
0.3989

> <Gold.Chemscore.Rot.Weighted>
5.0629

> <Gold.Chemscore.Internal.Correction.Weighted>
   9.000000E+99

> <Gold.Protein.RotatedTorsions>
[ 6907 6896 6895 6894 ] final -103.54 input  -60.11 | X-H torsion
[ 7974 7965 7964 7962 ] final   59.92 input  175.53 | X-H torsion
[ 8008 7997 7996 7995 ] final   40.08 input   59.86 | X-H torsion
[ 10167 10162 10161 10158 ] final  -49.96 input  -65.29 | X-H torsion
[ 10718 10713 10712 10709 ] final -100.88 input   66.30 | X-H torsion
[ 10763 10752 10751 10750 ] final -139.57 input  -60.55 | X-H torsion
[ 11005 11000 10999 10996 ] final -137.22 input  -57.11 | X-H torsion

> <Gold.Protein.ActiveResidues>
 VAL166  LYS551  ARG553  GLY616  TRP617  ASP618  TYR619  PRO620  LYS621  CYS622 
 ASP623  PHE694  ASN695  SER759  ASP760  ASP761  ALA762  ILE779  LEU786  VAL792 
 PHE793  MET794  SER795  GLU796  ALA797  LYS798  CYS799  TRP800  GLU811  SER814 

> <Gold.Protein.RotatedAtoms>
  150.7245  134.0414  159.3766 H   0  0  0  0  0  0  0  0  0  0  0  0  # atno 6907 bound_to 6896
  151.8387  135.0595  160.0455 H   0  0  0  0  0  0  0  0  0  0  0  0  # atno 6908 bound_to 6896
  152.2879  133.5496  159.5575 H   0  0  0  0  0  0  0  0  0  0  0  0  # atno 6909 bound_to 6896
  145.9018  139.3587  143.0588 H   0  0  0  0  0  0  0  0  0  0  0  0  # atno 7974 bound_to 7965
  155.2472  140.3350  155.4286 H   0  0  0  0  0  0  0  0  0  0  0  0  # atno 8008 bound_to 7997
  156.2231  140.1817  156.7474 H   0  0  0  0  0  0  0  0  0  0  0  0  # atno 8009 bound_to 7997
  154.5856  140.0646  156.9151 H   0  0  0  0  0  0  0  0  0  0  0  0  # atno 8010 bound_to 7997
  140.6661  143.2677  151.4290 H   0  0  0  0  0  0  0  0  0  0  0  0  # atno 10167 bound_to 10162
  156.0177  130.5348  150.6881 H   0  0  0  0  0  0  0  0  0  0  0  0  # atno 10718 bound_to 10713
  154.8605  135.3578  154.5568 H   0  0  0  0  0  0  0  0  0  0  0  0  # atno 10763 bound_to 10752
  153.6184  135.7007  153.5324 H   0  0  0  0  0  0  0  0  0  0  0  0  # atno 10764 bound_to 10752
  153.3149  135.4168  155.1328 H   0  0  0  0  0  0  0  0  0  0  0  0  # atno 10765 bound_to 10752
  140.8732  134.2025  157.4638 H   0  0  0  0  0  0  0  0  0  0  0  0  # atno 11005 bound_to 11000
  145.8782  140.9379  143.0615 LP  0  0  0  0  0  0  0  0  0  0  0  0  # atno 17320 bound_to 7965
  144.6736  140.0744  143.7471 LP  0  0  0  0  0  0  0  0  0  0  0  0  # atno 17321 bound_to 7965
  139.5910  144.1500  152.2088 LP  0  0  0  0  0  0  0  0  0  0  0  0  # atno 17342 bound_to 10162
  140.0854  144.5665  150.7092 LP  0  0  0  0  0  0  0  0  0  0  0  0  # atno 17343 bound_to 10162
  157.4569  131.0879  151.0787 LP  0  0  0  0  0  0  0  0  0  0  0  0  # atno 17370 bound_to 10713
  157.1286  130.6093  149.5523 LP  0  0  0  0  0  0  0  0  0  0  0  0  # atno 17371 bound_to 10713
  139.8713  134.9784  156.4995 LP  0  0  0  0  0  0  0  0  0  0  0  0  # atno 17394 bound_to 11000
  140.8549  133.8104  155.9206 LP  0  0  0  0  0  0  0  0  0  0  0  0  # atno 17395 bound_to 11000

$$$$
