AV-unprocessed.smi:3029|AV-procd|sdf|11525|dock8
  -GOLD-   2272016463D 1   1.00000     0.00000
 Structure written by MMmdl.
 42 43  0  0  0  0  0  0  0  0  4 V2000
  150.5716  140.3985  154.5382 O   0  0  0  0  0  0  0  0  0  0  0  0
  149.5540  140.7982  155.1033 C   0  0  0  0  0  0  0  0  0  0  0  0
  148.4507  141.4267  154.3698 C   0  0  0  0  0  0  0  0  0  0  0  0
  147.3494  141.8809  154.9997 C   0  0  0  0  0  0  0  0  0  0  0  0
  147.2230  141.7596  156.4389 C   0  0  0  0  0  0  0  0  0  0  0  0
  146.0590  142.2685  157.1296 N   0  3  0  0  0  0  0  0  0  0  0  0
  146.0069  142.1778  158.3526 O   0  0  0  0  0  0  0  0  0  0  0  0
  145.1609  142.7805  156.4700 O   0  5  0  0  0  0  0  0  0  0  0  0
  148.2329  141.1709  157.1092 C   0  0  0  0  0  0  0  0  0  0  0  0
  149.3856  140.6918  156.4561 N   0  0  0  0  0  0  0  0  0  0  0  0
  150.4346  140.0903  157.2958 C   0  0  0  0  0  0  0  0  0  0  0  0
  150.8293  140.9904  158.4832 C   0  0  0  0  0  0  0  0  0  0  0  0
  152.0371  141.7905  158.1852 N   0  3  0  0  0  0  0  0  0  0  0  0
  152.7621  142.3214  159.3612 C   0  0  2  0  0  0  0  0  0  0  0  0
  153.3645  141.1545  160.1754 C   0  0  0  0  0  0  0  0  0  0  0  0
  154.0776  141.6419  161.4423 C   0  0  0  0  0  0  0  0  0  0  0  0
  153.1256  142.4651  162.3153 C   0  0  0  0  0  0  0  0  0  0  0  0
  152.5493  143.6470  161.5250 C   0  0  0  0  0  0  0  0  0  0  0  0
  151.8196  143.1971  160.2372 C   0  0  1  0  0  0  0  0  0  0  0  0
  151.2559  144.4305  159.4849 C   0  0  0  0  0  0  0  0  0  0  0  0
  152.2413  145.1182  158.9076 F   0  0  0  0  0  0  0  0  0  0  0  0
  150.3810  144.0694  158.5464 F   0  0  0  0  0  0  0  0  0  0  0  0
  150.6175  145.2316  160.3376 F   0  0  0  0  0  0  0  0  0  0  0  0
  148.5238  141.5270  153.2968 H   0  0  0  0  0  0  0  0  0  0  0  0
  146.5619  142.3356  154.4165 H   0  0  0  0  0  0  0  0  0  0  0  0
  148.2365  141.0399  158.1817 H   0  0  0  0  0  0  0  0  0  0  0  0
  150.1058  139.1205  157.6725 H   0  0  0  0  0  0  0  0  0  0  0  0
  151.3173  139.8691  156.6931 H   0  0  0  0  0  0  0  0  0  0  0  0
  150.0001  141.6525  158.7321 H   0  0  0  0  0  0  0  0  0  0  0  0
  151.0152  140.3732  159.3630 H   0  0  0  0  0  0  0  0  0  0  0  0
  152.6767  141.1813  157.6945 H   0  0  0  0  0  0  0  0  0  0  0  0
  153.5749  142.9575  159.0070 H   0  0  0  0  0  0  0  0  0  0  0  0
  152.5757  140.4543  160.4544 H   0  0  0  0  0  0  0  0  0  0  0  0
  154.0742  140.5911  159.5694 H   0  0  0  0  0  0  0  0  0  0  0  0
  154.4577  140.7898  162.0068 H   0  0  0  0  0  0  0  0  0  0  0  0
  154.9442  142.2458  161.1696 H   0  0  0  0  0  0  0  0  0  0  0  0
  152.3141  141.8320  162.6769 H   0  0  0  0  0  0  0  0  0  0  0  0
  153.6519  142.8291  163.1982 H   0  0  0  0  0  0  0  0  0  0  0  0
  151.8668  144.2011  162.1699 H   0  0  0  0  0  0  0  0  0  0  0  0
  153.3557  144.3362  161.2705 H   0  0  0  0  0  0  0  0  0  0  0  0
  150.9722  142.5805  160.5420 H   0  0  0  0  0  0  0  0  0  0  0  0
  151.7929  142.5547  157.5715 H   0  0  0  0  0  0  0  0  0  0  0  0
  1  2  2  0  0  0  0
  2 10  1  0  0  0  0
  2  3  1  0  0  0  0
  3  4  2  0  0  0  0
  3 24  1  0  0  0  0
  4  5  1  0  0  0  0
  4 25  1  0  0  0  0
  5  6  1  0  0  0  0
  5  9  2  0  0  0  0
  6  7  2  0  0  0  0
  6  8  1  0  0  0  0
  9 10  1  0  0  0  0
  9 26  1  0  0  0  0
 10 11  1  0  0  0  0
 11 12  1  0  0  0  0
 11 27  1  0  0  0  0
 11 28  1  0  0  0  0
 12 13  1  0  0  0  0
 12 29  1  0  0  0  0
 12 30  1  0  0  0  0
 13 14  1  0  0  0  0
 13 31  1  0  0  0  0
 13 42  1  0  0  0  0
 14 19  1  0  0  0  0
 14 15  1  0  0  0  0
 14 32  1  0  0  0  0
 15 16  1  0  0  0  0
 15 33  1  0  0  0  0
 15 34  1  0  0  0  0
 16 17  1  0  0  0  0
 16 35  1  0  0  0  0
 16 36  1  0  0  0  0
 17 18  1  0  0  0  0
 17 37  1  0  0  0  0
 17 38  1  0  0  0  0
 18 19  1  0  0  0  0
 18 39  1  0  0  0  0
 18 40  1  0  0  0  0
 19 20  1  0  0  0  0
 19 41  1  0  0  0  0
 20 21  1  0  0  0  0
 20 22  1  0  0  0  0
 20 23  1  0  0  0  0
M  CHG  1   6   1
M  CHG  1   8  -1
M  CHG  1  13   1
M  END
> <s_m_source_file>
AV-unprocessed.smi

> <i_m_source_file_index>
3029

> <i_lp_mmshare_version>
43012

> <i_f3d_flags>
0

> <s_epik_input>
Tz1jMVtjSF1bY0hdYyhbTitdKD1PKVtPLV0pW2NIXW4xW0NIMl1bQ0gyXVtOSF1bQ0BASF0yW0NIMl1bQ0gyXVtDSDJdW0NIMl1bQ0BIXTJDKEYpKEYpRg==

> <s_epik_cmdline>
J2VwaWtfcHl0aG9uJywgJy1waCcsICc3LjAnLCAnLXRuJywgJzgnLCAnLW1hJywgJzIwMCcsICctbWV0YWxfYmluZGluZycsICctaW1hZScsICc8aW5maWxlLm1hZT4nLCAnLW9tYWUnLCAnPG91dGZpbGUubWFlPic=

> <r_lp_tautomer_probability>
1

> <r_epik_Ionization_Penalty>
0.037386

> <r_epik_Ionization_Penalty_Charging>
0.037386

> <r_epik_Ionization_Penalty_Neutral>
0

> <r_epik_State_Penalty>
0.0312892

> <r_epik_Charging_Adjusted_Penalty>
0.0686752

> <i_epik_Tot_Q>
1

> <i_epik_Tot_abs_Q>
3

> <r_epik_Metal_State_Penalty>
0.0312892

> <b_epik_Metal_Only>
0

> <s_lp_Force_Field>
OPLS_2005

> <r_lp_Energy>
38.6527

> <b_lp_Chiralities_Consistent>
1

> <s_lp_Variant>
AV-unprocessed.smi:3029-1

> <Gold.Version>
5.8.1

> <Gold.Id.Protein>
6NUR|6NUR_protein|mol2

> <Gold.PLP.Fitness>
53.2059

> <Gold.PLP.PLP>
-51.3981

> <Gold.PLP.part.hbond>
-0.9385

> <Gold.PLP.part.metal>
0.0000

> <Gold.PLP.part.buried>
-4.7001

> <Gold.PLP.part.nonpolar>
-44.6645

> <Gold.PLP.part.repulsive>
0.3974

> <Gold.PLP.ligand.clash>
0.0000

> <Gold.PLP.ligand.torsion>
0.6225

> <Gold.PLP.Chemscore.Hbond>
1.0000

> <Gold.PLP.Chemscore.CHOScore>
0.0000

> <Gold.PLP.Chemscore.Metal>
0.0000

> <Gold.Chemscore.Hbonds>
donor molecule, donor type, donor heavy atom, donor atom, acceptor molecule, acceptor atom, score
      P1  H  7989  7998       L1     1  1.00

> <Gold.PLP.Chemscore.Internal.Correction>
0.0528

> <Gold.Rescore>
     Score         DG    S(hbond)    S(metal)    S(lipo)     H(rot)  DE(clash)    DE(int)     intcor
     14.21     -16.21       0.96        0.00     105.96       1.90       0.04       1.97       ----

> <Gold.Chemscore.Fitness>
14.2056

> <Gold.Chemscore.DG>
-16.2088

> <Gold.Chemscore.ZeroCoef>
-5.4800

> <Gold.Chemscore.Hbond>
0.9595

> <Gold.Chemscore.Metal>
0.0000

> <Gold.Chemscore.Lipo>
105.9611

> <Gold.Chemscore.Internal_Hbond>
0.0000

> <Gold.Chemscore.DEClash>
0.0356

> <Gold.Chemscore.DEInternal>
1.9676

> <Gold.Chemscore.Rot>
1.9037

> <Gold.Chemscore.Internal.Correction>
   9.000000E+99

> <Gold.Chemscore.Hbonds>
donor molecule, donor type, donor heavy atom, donor atom, acceptor molecule, acceptor atom, score
      P1  H  7989  7998       L1     1  0.93

> <Gold.Chemscore.Hbond.Weighted>
-3.2049

> <Gold.Chemscore.Metal.Weighted>
-0.0000

> <Gold.Chemscore.Lipo.Weighted>
-12.3975

> <Gold.Chemscore.Internal_Hbond.Weighted>
0.0000

> <Gold.Chemscore.DEClash.Weighted>
0.0356

> <Gold.Chemscore.DEInternal.Weighted>
1.9676

> <Gold.Chemscore.Rot.Weighted>
4.8736

> <Gold.Chemscore.Internal.Correction.Weighted>
   9.000000E+99

> <Gold.Protein.RotatedTorsions>
[ 6907 6896 6895 6894 ] final  136.28 input  -60.11 | X-H torsion
[ 7974 7965 7964 7962 ] final  -80.63 input  175.53 | X-H torsion
[ 8008 7997 7996 7995 ] final  -20.03 input   59.86 | X-H torsion
[ 10167 10162 10161 10158 ] final  -85.40 input  -65.29 | X-H torsion
[ 10718 10713 10712 10709 ] final  -23.31 input   66.30 | X-H torsion
[ 10763 10752 10751 10750 ] final   81.41 input  -60.55 | X-H torsion
[ 11005 11000 10999 10996 ] final -116.85 input  -57.11 | X-H torsion

> <Gold.Protein.ActiveResidues>
 VAL166  LYS551  ARG553  GLY616  TRP617  ASP618  TYR619  PRO620  LYS621  CYS622 
 ASP623  PHE694  ASN695  SER759  ASP760  ASP761  ALA762  ILE779  LEU786  VAL792 
 PHE793  MET794  SER795  GLU796  ALA797  LYS798  CYS799  TRP800  GLU811  SER814 

> <Gold.Protein.RotatedAtoms>
  152.2911  133.5562  159.5557 H   0  0  0  0  0  0  0  0  0  0  0  0  # atno 6907 bound_to 6896
  150.7236  134.0427  159.3780 H   0  0  0  0  0  0  0  0  0  0  0  0  # atno 6908 bound_to 6896
  151.8332  135.0615  160.0490 H   0  0  0  0  0  0  0  0  0  0  0  0  # atno 6909 bound_to 6896
  145.5574  140.9487  143.1466 H   0  0  0  0  0  0  0  0  0  0  0  0  # atno 7974 bound_to 7965
  154.4797  140.2073  155.9793 H   0  0  0  0  0  0  0  0  0  0  0  0  # atno 8008 bound_to 7997
  156.1145  140.3223  155.8090 H   0  0  0  0  0  0  0  0  0  0  0  0  # atno 8009 bound_to 7997
  155.4576  140.0521  157.2985 H   0  0  0  0  0  0  0  0  0  0  0  0  # atno 8010 bound_to 7997
  140.4041  143.2650  151.9104 H   0  0  0  0  0  0  0  0  0  0  0  0  # atno 10167 bound_to 10162
  156.4928  130.4570  149.6746 H   0  0  0  0  0  0  0  0  0  0  0  0  # atno 10718 bound_to 10713
  153.1114  135.4766  154.9042 H   0  0  0  0  0  0  0  0  0  0  0  0  # atno 10763 bound_to 10752
  154.7485  135.3100  154.8604 H   0  0  0  0  0  0  0  0  0  0  0  0  # atno 10764 bound_to 10752
  153.9192  135.6857  153.4802 H   0  0  0  0  0  0  0  0  0  0  0  0  # atno 10765 bound_to 10752
  141.0394  133.9859  157.3019 H   0  0  0  0  0  0  0  0  0  0  0  0  # atno 11005 bound_to 11000
  144.7500  139.7220  143.7277 LP  0  0  0  0  0  0  0  0  0  0  0  0  # atno 17320 bound_to 7965
  146.1875  139.5098  142.9826 LP  0  0  0  0  0  0  0  0  0  0  0  0  # atno 17321 bound_to 7965
  139.4784  144.5604  151.8248 LP  0  0  0  0  0  0  0  0  0  0  0  0  # atno 17342 bound_to 10162
  140.4709  144.1589  150.5918 LP  0  0  0  0  0  0  0  0  0  0  0  0  # atno 17343 bound_to 10162
  156.3410  130.7382  151.2327 LP  0  0  0  0  0  0  0  0  0  0  0  0  # atno 17370 bound_to 10713
  157.7472  131.0403  150.4594 LP  0  0  0  0  0  0  0  0  0  0  0  0  # atno 17371 bound_to 10713
  139.9264  135.0201  156.8250 LP  0  0  0  0  0  0  0  0  0  0  0  0  # atno 17394 bound_to 11000
  140.6262  133.9948  155.7641 LP  0  0  0  0  0  0  0  0  0  0  0  0  # atno 17395 bound_to 11000

$$$$
