AV-unprocessed.smi:189|AV-procd|sdf|1489|dock9
  -GOLD-   2262019313D 1   1.00000     0.00000
 Structure written by MMmdl.
 53 57  0  0  0  0  0  0  0  0  1 V2000
  147.3447  131.6935  160.3430 C   0  0  0  0  0  0  0  0  0  0  0  0
  147.2562  132.8537  161.3538 C   0  0  2  0  0  0  0  0  0  0  0  0
  145.8476  133.1579  161.8779 C   0  0  0  0  0  0  0  0  0  0  0  0
  145.9994  134.5607  162.4841 C   0  0  2  0  0  0  0  0  0  0  0  0
  144.8269  135.5187  162.2102 C   0  0  0  0  0  0  0  0  0  0  0  0
  145.1030  136.9399  162.7482 C   0  0  0  0  0  0  0  0  0  0  0  0
  146.5761  137.3892  162.6082 C   0  0  0  0  0  0  0  0  0  0  0  0
  147.3325  136.5880  161.5386 C   0  0  0  0  0  0  0  0  0  0  0  0
  147.3394  135.0855  161.9194 C   0  0  2  0  0  0  0  0  0  0  0  0
  147.7922  134.1369  160.8971 N   0  0  0  0  0  0  0  0  0  0  0  0
  147.5915  134.4676  159.5962 C   0  0  0  0  0  0  0  0  0  0  0  0
  146.5552  133.9435  158.8882 N   0  0  0  0  0  0  0  0  0  0  0  0
  146.3811  134.2820  157.6074 C   0  0  0  0  0  0  0  0  0  0  0  0
  147.1140  135.1052  156.8544 N   0  0  0  0  0  0  0  0  0  0  0  0
  148.1553  135.6293  157.5629 C   0  0  0  0  0  0  0  0  0  0  0  0
  148.4579  135.3708  158.9285 C   0  0  0  0  0  0  0  0  0  0  0  0
  149.5824  136.0881  159.3144 N   0  0  0  0  0  0  0  0  0  0  0  0
  149.9308  136.7315  158.2336 C   0  0  0  0  0  0  0  0  0  0  0  0
  149.1383  136.5024  157.1305 N   0  0  0  0  0  0  0  0  0  0  0  0
  149.3108  137.0694  155.8023 C   0  0  0  0  0  0  0  0  0  0  0  0
  150.6900  137.7396  155.5978 C   0  0  2  0  0  0  0  0  0  0  0  0
  151.7073  136.7775  155.8166 O   0  0  0  0  0  0  0  0  0  0  0  0
  150.9494  138.9312  156.5161 C   0  0  0  0  0  0  0  0  0  0  0  0
  151.8244  139.8360  155.6604 C   0  0  0  0  0  0  0  0  0  0  0  0
  151.2406  139.7004  154.3763 O   0  0  0  0  0  0  0  0  0  0  0  0
  150.8780  138.3360  154.1885 C   0  0  0  0  0  0  0  0  0  0  0  0
  147.0352  130.7566  160.8062 H   0  0  0  0  0  0  0  0  0  0  0  0
  148.3666  131.5626  159.9861 H   0  0  0  0  0  0  0  0  0  0  0  0
  146.7039  131.8519  159.4754 H   0  0  0  0  0  0  0  0  0  0  0  0
  147.8725  132.5694  162.2085 H   0  0  0  0  0  0  0  0  0  0  0  0
  145.1272  133.1649  161.0594 H   0  0  0  0  0  0  0  0  0  0  0  0
  145.5082  132.4221  162.6073 H   0  0  0  0  0  0  0  0  0  0  0  0
  146.1090  134.4610  163.5650 H   0  0  0  0  0  0  0  0  0  0  0  0
  144.6561  135.5762  161.1346 H   0  0  0  0  0  0  0  0  0  0  0  0
  143.9048  135.1276  162.6410 H   0  0  0  0  0  0  0  0  0  0  0  0
  144.4532  137.6419  162.2247 H   0  0  0  0  0  0  0  0  0  0  0  0
  144.8179  136.9969  163.7993 H   0  0  0  0  0  0  0  0  0  0  0  0
  146.6200  138.4561  162.3873 H   0  0  0  0  0  0  0  0  0  0  0  0
  147.0845  137.2583  163.5645 H   0  0  0  0  0  0  0  0  0  0  0  0
  146.8432  136.7682  160.5817 H   0  0  0  0  0  0  0  0  0  0  0  0
  148.3548  136.9523  161.4362 H   0  0  0  0  0  0  0  0  0  0  0  0
  148.0706  134.9875  162.7234 H   0  0  0  0  0  0  0  0  0  0  0  0
  145.5352  133.8259  157.1148 H   0  0  0  0  0  0  0  0  0  0  0  0
  150.7877  137.3887  158.2094 H   0  0  0  0  0  0  0  0  0  0  0  0
  149.1574  136.2809  155.0644 H   0  0  0  0  0  0  0  0  0  0  0  0
  148.5143  137.7974  155.6421 H   0  0  0  0  0  0  0  0  0  0  0  0
  152.0887  136.9315  156.6673 H   0  0  0  0  0  0  0  0  0  0  0  0
  150.0158  139.4522  156.7318 H   0  0  0  0  0  0  0  0  0  0  0  0
  151.4079  138.6629  157.4690 H   0  0  0  0  0  0  0  0  0  0  0  0
  151.8199  140.8720  155.9996 H   0  0  0  0  0  0  0  0  0  0  0  0
  152.8560  139.4805  155.6380 H   0  0  0  0  0  0  0  0  0  0  0  0
  151.6622  137.8248  153.6275 H   0  0  0  0  0  0  0  0  0  0  0  0
  149.9670  138.2876  153.5911 H   0  0  0  0  0  0  0  0  0  0  0  0
  1  2  1  0  0  0  0
  1 27  1  0  0  0  0
  1 28  1  0  0  0  0
  1 29  1  0  0  0  0
  2 10  1  0  0  0  0
  2  3  1  0  0  0  0
  2 30  1  0  0  0  0
  3  4  1  0  0  0  0
  3 31  1  0  0  0  0
  3 32  1  0  0  0  0
  4  9  1  0  0  0  0
  4  5  1  0  0  0  0
  4 33  1  0  0  0  0
  5  6  1  0  0  0  0
  5 34  1  0  0  0  0
  5 35  1  0  0  0  0
  6  7  1  0  0  0  0
  6 36  1  0  0  0  0
  6 37  1  0  0  0  0
  7  8  1  0  0  0  0
  7 38  1  0  0  0  0
  7 39  1  0  0  0  0
  8  9  1  0  0  0  0
  8 40  1  0  0  0  0
  8 41  1  0  0  0  0
  9 10  1  0  0  0  0
  9 42  1  0  0  0  0
 10 11  1  0  0  0  0
 11 16  1  0  0  0  0
 11 12  2  0  0  0  0
 12 13  1  0  0  0  0
 13 14  2  0  0  0  0
 13 43  1  0  0  0  0
 14 15  1  0  0  0  0
 15 19  1  0  0  0  0
 15 16  2  0  0  0  0
 16 17  1  0  0  0  0
 17 18  2  0  0  0  0
 18 19  1  0  0  0  0
 18 44  1  0  0  0  0
 19 20  1  0  0  0  0
 20 21  1  0  0  0  0
 20 45  1  0  0  0  0
 20 46  1  0  0  0  0
 21 26  1  0  0  0  0
 21 22  1  0  0  0  0
 21 23  1  0  0  0  0
 22 47  1  0  0  0  0
 23 24  1  0  0  0  0
 23 48  1  0  0  0  0
 23 49  1  0  0  0  0
 24 25  1  0  0  0  0
 24 50  1  0  0  0  0
 24 51  1  0  0  0  0
 25 26  1  0  0  0  0
 26 52  1  0  0  0  0
 26 53  1  0  0  0  0
M  END
> <s_m_source_file>
AV-unprocessed.smi

> <i_m_source_file_index>
189

> <i_lp_mmshare_version>
43012

> <i_f3d_flags>
0

> <s_epik_input>
W0NIMl0xW0NIMl1bQ0gyXVtDSDJdW0NASF0oW0NASF0xMilOKFtDQEhdKFtDSDNdKVtDSDJdMiljKG5bY0hdbjMpYyhjMzQpbltjSF1uNFtDSDJdW0NAQF01KFtPSF0pW0NIMl1bQ0gyXU9bQ0gyXTU=

> <s_epik_cmdline>
J2VwaWtfcHl0aG9uJywgJy1waCcsICc3LjAnLCAnLXRuJywgJzgnLCAnLW1hJywgJzIwMCcsICctbWV0YWxfYmluZGluZycsICctaW1hZScsICc8aW5maWxlLm1hZT4nLCAnLW9tYWUnLCAnPG91dGZpbGUubWFlPic=

> <r_lp_tautomer_probability>
1

> <r_epik_Ionization_Penalty>
0.00594261

> <r_epik_Ionization_Penalty_Charging>
0

> <r_epik_Ionization_Penalty_Neutral>
0.00594261

> <r_epik_State_Penalty>
0.00429776

> <r_epik_Charging_Adjusted_Penalty>
0.00429776

> <i_epik_Tot_Q>
0

> <i_epik_Tot_abs_Q>
0

> <r_epik_Metal_State_Penalty>
-0

> <b_epik_Metal_Only>
0

> <s_lp_Force_Field>
OPLS_2005

> <r_lp_Energy>
67.2452

> <b_lp_Chiralities_Consistent>
1

> <s_lp_Variant>
AV-unprocessed.smi:189-15

> <Gold.Version>
5.8.1

> <Gold.Id.Protein>
6NUR|6NUR_protein|mol2

> <Gold.PLP.Fitness>
42.2265

> <Gold.PLP.PLP>
-35.7271

> <Gold.PLP.part.hbond>
-2.9899

> <Gold.PLP.part.metal>
0.0000

> <Gold.PLP.part.buried>
-2.8282

> <Gold.PLP.part.nonpolar>
-29.0841

> <Gold.PLP.part.repulsive>
0.1151

> <Gold.PLP.ligand.clash>
0.9663

> <Gold.PLP.ligand.torsion>
0.7808

> <Gold.PLP.Chemscore.Hbond>
3.0000

> <Gold.PLP.Chemscore.CHOScore>
0.0000

> <Gold.PLP.Chemscore.Metal>
0.0000

> <Gold.Chemscore.Hbonds>
donor molecule, donor type, donor heavy atom, donor atom, acceptor molecule, acceptor atom, score
      P1  H  6896  6907       L1    17  1.00
      P1  H  7989  7998       L1    25  0.94
      P1  H 10752 10765       L1    22  0.96

> <Gold.PLP.Chemscore.Internal.Correction>
0.0272

> <Gold.Rescore>
     Score         DG    S(hbond)    S(metal)    S(lipo)     H(rot)  DE(clash)    DE(int)     intcor
     14.54     -18.87       2.36        0.00      91.31       2.03       0.02       4.30       ----

> <Gold.Chemscore.Fitness>
14.5403

> <Gold.Chemscore.DG>
-18.8662

> <Gold.Chemscore.ZeroCoef>
-5.4800

> <Gold.Chemscore.Hbond>
2.3650

> <Gold.Chemscore.Metal>
0.0000

> <Gold.Chemscore.Lipo>
91.3089

> <Gold.Chemscore.Internal_Hbond>
0.0000

> <Gold.Chemscore.DEClash>
0.0212

> <Gold.Chemscore.DEInternal>
4.3047

> <Gold.Chemscore.Rot>
2.0297

> <Gold.Chemscore.Internal.Correction>
   9.000000E+99

> <Gold.Chemscore.Hbonds>
donor molecule, donor type, donor heavy atom, donor atom, acceptor molecule, acceptor atom, score
      P1  H  6896  6907       L1    17  0.42
      P1  H  7989  7998       L1    25  0.67
      P1  H 10752 10765       L1    22  0.36

> <Gold.Chemscore.Hbond.Weighted>
-7.8990

> <Gold.Chemscore.Metal.Weighted>
-0.0000

> <Gold.Chemscore.Lipo.Weighted>
-10.6831

> <Gold.Chemscore.Internal_Hbond.Weighted>
0.0000

> <Gold.Chemscore.DEClash.Weighted>
0.0212

> <Gold.Chemscore.DEInternal.Weighted>
4.3047

> <Gold.Chemscore.Rot.Weighted>
5.1960

> <Gold.Chemscore.Internal.Correction.Weighted>
   9.000000E+99

> <Gold.Protein.RotatedTorsions>
[ 6907 6896 6895 6894 ] final  -46.52 input  -60.11 | X-H torsion
[ 7974 7965 7964 7962 ] final  108.61 input  175.53 | X-H torsion
[ 8008 7997 7996 7995 ] final -134.59 input   59.86 | X-H torsion
[ 10167 10162 10161 10158 ] final  -29.82 input  -65.29 | X-H torsion
[ 10718 10713 10712 10709 ] final -164.44 input   66.30 | X-H torsion
[ 10763 10752 10751 10750 ] final -159.85 input  -60.55 | X-H torsion
[ 11005 11000 10999 10996 ] final -166.91 input  -57.11 | X-H torsion

> <Gold.Protein.ActiveResidues>
 VAL166  LYS551  ARG553  GLY616  TRP617  ASP618  TYR619  PRO620  LYS621  CYS622 
 ASP623  PHE694  ASN695  SER759  ASP760  ASP761  ALA762  ILE779  LEU786  VAL792 
 PHE793  MET794  SER795  GLU796  ALA797  LYS798  CYS799  TRP800  GLU811  SER814 

> <Gold.Protein.RotatedAtoms>
  150.9104  134.8520  159.7420 H   0  0  0  0  0  0  0  0  0  0  0  0  # atno 6907 bound_to 6896
  152.4941  134.4368  159.9540 H   0  0  0  0  0  0  0  0  0  0  0  0  # atno 6908 bound_to 6896
  151.4411  133.3604  159.2817 H   0  0  0  0  0  0  0  0  0  0  0  0  # atno 6909 bound_to 6896
  145.2784  139.2641  143.3928 H   0  0  0  0  0  0  0  0  0  0  0  0  # atno 7974 bound_to 7965
  155.3646  140.0484  157.3046 H   0  0  0  0  0  0  0  0  0  0  0  0  # atno 8008 bound_to 7997
  154.5160  140.2208  155.9027 H   0  0  0  0  0  0  0  0  0  0  0  0  # atno 8009 bound_to 7997
  156.1637  140.3111  155.8858 H   0  0  0  0  0  0  0  0  0  0  0  0  # atno 8010 bound_to 7997
  140.7256  143.3898  151.1450 H   0  0  0  0  0  0  0  0  0  0  0  0  # atno 10167 bound_to 10162
  156.6390  130.8961  151.2992 H   0  0  0  0  0  0  0  0  0  0  0  0  # atno 10718 bound_to 10713
  154.7440  135.3075  154.8678 H   0  0  0  0  0  0  0  0  0  0  0  0  # atno 10763 bound_to 10752
  153.9485  135.6766  153.4748 H   0  0  0  0  0  0  0  0  0  0  0  0  # atno 10764 bound_to 10752
  153.1037  135.4899  154.8838 H   0  0  0  0  0  0  0  0  0  0  0  0  # atno 10765 bound_to 10752
  140.5592  134.5350  157.5139 H   0  0  0  0  0  0  0  0  0  0  0  0  # atno 11005 bound_to 11000
  146.3224  140.3245  142.8636 LP  0  0  0  0  0  0  0  0  0  0  0  0  # atno 17320 bound_to 7965
  144.9274  140.7937  143.5710 LP  0  0  0  0  0  0  0  0  0  0  0  0  # atno 17321 bound_to 7965
  139.7501  143.8792  152.3074 LP  0  0  0  0  0  0  0  0  0  0  0  0  # atno 17342 bound_to 10162
  139.8642  144.7101  150.9063 LP  0  0  0  0  0  0  0  0  0  0  0  0  # atno 17343 bound_to 10162
  157.7177  130.9518  150.1316 LP  0  0  0  0  0  0  0  0  0  0  0  0  # atno 17370 bound_to 10713
  156.2174  130.3671  149.8597 LP  0  0  0  0  0  0  0  0  0  0  0  0  # atno 17371 bound_to 10713
  139.9416  134.7776  156.0664 LP  0  0  0  0  0  0  0  0  0  0  0  0  # atno 17394 bound_to 11000
  141.1125  133.6638  156.3013 LP  0  0  0  0  0  0  0  0  0  0  0  0  # atno 17395 bound_to 11000

$$$$
