AV-unprocessed.smi:646|AV-procd|sdf|3165|dock1
  -GOLD-   22720 0 83D 1   1.00000     0.00000
 Structure written by MMmdl.
 44 45  0  0  0  0  0  0  0  0  1 V2000
  145.7157  131.7659  151.2029 C   0  0  0  0  0  0  0  0  0  0  0  0
  145.7605  133.1822  151.3308 O   0  0  0  0  0  0  0  0  0  0  0  0
  144.6036  133.8328  151.8748 C   0  0  1  0  0  0  0  0  0  0  0  0
  143.3387  133.3668  151.1418 C   0  0  0  0  0  0  0  0  0  0  0  0
  144.6427  133.7844  153.4141 C   0  0  0  0  0  0  0  0  0  0  0  0
  145.4449  135.0873  153.4054 C   0  0  1  0  0  0  0  0  0  0  0  0
  146.8817  134.8214  153.4484 N   0  0  0  0  0  0  0  0  0  0  0  0
  147.4856  133.9661  154.2863 C   0  0  0  0  0  0  0  0  0  0  0  0
  146.8814  133.2887  155.1172 O   0  0  0  0  0  0  0  0  0  0  0  0
  149.0089  133.8726  154.1827 C   0  0  0  0  0  0  0  0  0  0  0  0
  149.5747  133.1888  155.4018 C   0  0  0  0  0  0  0  0  0  0  0  0
  149.9733  133.7864  156.6315 C   0  0  0  0  0  0  0  0  0  0  0  0
  149.9283  135.2367  157.0178 C   0  0  0  0  0  0  0  0  0  0  0  0
  150.4241  132.8906  157.4934 N   0  0  0  0  0  0  0  0  0  0  0  0
  150.3328  131.6555  156.8443 O   0  0  0  0  0  0  0  0  0  0  0  0
  149.8228  131.8583  155.6031 C   0  0  0  0  0  0  0  0  0  0  0  0
  149.6394  130.6470  154.7526 C   0  0  0  0  0  0  0  0  0  0  0  0
  144.8968  135.3658  151.9805 C   0  0  0  0  0  0  0  0  0  0  0  0
  145.8514  135.9688  150.9364 C   0  0  0  0  0  0  0  0  0  0  0  0
  143.6653  136.2840  151.9788 C   0  0  0  0  0  0  0  0  0  0  0  0
  146.7031  131.4040  150.9178 H   0  0  0  0  0  0  0  0  0  0  0  0
  145.0235  131.4532  150.4215 H   0  0  0  0  0  0  0  0  0  0  0  0
  145.4401  131.2720  152.1340 H   0  0  0  0  0  0  0  0  0  0  0  0
  142.4569  133.9229  151.4582 H   0  0  0  0  0  0  0  0  0  0  0  0
  143.1173  132.3181  151.3372 H   0  0  0  0  0  0  0  0  0  0  0  0
  143.4356  133.4940  150.0634 H   0  0  0  0  0  0  0  0  0  0  0  0
  143.6551  133.9110  153.8604 H   0  0  0  0  0  0  0  0  0  0  0  0
  145.1580  132.9331  153.8587 H   0  0  0  0  0  0  0  0  0  0  0  0
  145.0985  135.7964  154.1593 H   0  0  0  0  0  0  0  0  0  0  0  0
  147.4592  135.3407  152.8031 H   0  0  0  0  0  0  0  0  0  0  0  0
  149.2633  133.3357  153.2684 H   0  0  0  0  0  0  0  0  0  0  0  0
  149.4213  134.8756  154.0674 H   0  0  0  0  0  0  0  0  0  0  0  0
  150.4885  135.8457  156.3082 H   0  0  0  0  0  0  0  0  0  0  0  0
  150.3526  135.4069  158.0080 H   0  0  0  0  0  0  0  0  0  0  0  0
  148.9016  135.6029  157.0295 H   0  0  0  0  0  0  0  0  0  0  0  0
  149.0236  130.8680  153.8808 H   0  0  0  0  0  0  0  0  0  0  0  0
  149.1504  129.8507  155.3140 H   0  0  0  0  0  0  0  0  0  0  0  0
  150.6011  130.2734  154.4014 H   0  0  0  0  0  0  0  0  0  0  0  0
  146.1328  136.9893  151.1982 H   0  0  0  0  0  0  0  0  0  0  0  0
  145.3922  135.9982  149.9478 H   0  0  0  0  0  0  0  0  0  0  0  0
  146.7783  135.4044  150.8359 H   0  0  0  0  0  0  0  0  0  0  0  0
  143.9325  137.3089  152.2388 H   0  0  0  0  0  0  0  0  0  0  0  0
  142.9150  135.9619  152.7013 H   0  0  0  0  0  0  0  0  0  0  0  0
  143.1827  136.3117  151.0012 H   0  0  0  0  0  0  0  0  0  0  0  0
  1  2  1  0  0  0  0
  1 21  1  0  0  0  0
  1 22  1  0  0  0  0
  1 23  1  0  0  0  0
  2  3  1  0  0  0  0
  3 18  1  0  0  0  0
  3  4  1  0  0  0  0
  3  5  1  0  0  0  0
  4 24  1  0  0  0  0
  4 25  1  0  0  0  0
  4 26  1  0  0  0  0
  5  6  1  0  0  0  0
  5 27  1  0  0  0  0
  5 28  1  0  0  0  0
  6  7  1  0  0  0  0
  6 18  1  0  0  0  0
  6 29  1  0  0  0  0
  7  8  1  0  0  0  0
  7 30  1  0  0  0  0
  8  9  2  0  0  0  0
  8 10  1  0  0  0  0
 10 11  1  0  0  0  0
 10 31  1  0  0  0  0
 10 32  1  0  0  0  0
 11 16  2  0  0  0  0
 11 12  1  0  0  0  0
 12 13  1  0  0  0  0
 12 14  2  0  0  0  0
 13 33  1  0  0  0  0
 13 34  1  0  0  0  0
 13 35  1  0  0  0  0
 14 15  1  0  0  0  0
 15 16  1  0  0  0  0
 16 17  1  0  0  0  0
 17 36  1  0  0  0  0
 17 37  1  0  0  0  0
 17 38  1  0  0  0  0
 18 19  1  0  0  0  0
 18 20  1  0  0  0  0
 19 39  1  0  0  0  0
 19 40  1  0  0  0  0
 19 41  1  0  0  0  0
 20 42  1  0  0  0  0
 20 43  1  0  0  0  0
 20 44  1  0  0  0  0
M  END
> <s_m_source_file>
AV-unprocessed.smi

> <i_m_source_file_index>
646

> <i_lp_mmshare_version>
43012

> <i_f3d_flags>
0

> <s_epik_input>
W0NIM11PW0NAQF0xKFtDSDNdKVtDSDJdW0NASF0oQzEoW0NIM10pW0NIM10pW05IXUMoPU8pW0NIMl1jMmMoW0NIM10pbm9jMltDSDNd

> <s_epik_cmdline>
J2VwaWtfcHl0aG9uJywgJy1waCcsICc3LjAnLCAnLXRuJywgJzgnLCAnLW1hJywgJzIwMCcsICctbWV0YWxfYmluZGluZycsICctaW1hZScsICc8aW5maWxlLm1hZT4nLCAnLW9tYWUnLCAnPG91dGZpbGUubWFlPic=

> <r_lp_tautomer_probability>
1

> <r_epik_Ionization_Penalty>
2.13169e-08

> <r_epik_Ionization_Penalty_Charging>
0

> <r_epik_Ionization_Penalty_Neutral>
2.13169e-08

> <r_epik_State_Penalty>
-0

> <r_epik_Charging_Adjusted_Penalty>
0

> <i_epik_Tot_Q>
0

> <i_epik_Tot_abs_Q>
0

> <r_epik_Metal_State_Penalty>
-0

> <b_epik_Metal_Only>
0

> <s_lp_Force_Field>
OPLS_2005

> <r_lp_Energy>
17.7516

> <b_lp_Chiralities_Consistent>
1

> <s_lp_Variant>
AV-unprocessed.smi:646-1

> <Gold.Version>
5.8.1

> <Gold.Id.Protein>
6NUR|6NUR_protein|mol2

> <Gold.PLP.Fitness>
31.9222

> <Gold.PLP.PLP>
-27.7102

> <Gold.PLP.part.hbond>
-2.0000

> <Gold.PLP.part.metal>
0.0000

> <Gold.PLP.part.buried>
-2.6597

> <Gold.PLP.part.nonpolar>
-23.2722

> <Gold.PLP.part.repulsive>
0.1536

> <Gold.PLP.ligand.clash>
0.0000

> <Gold.PLP.ligand.torsion>
0.9609

> <Gold.PLP.Chemscore.Hbond>
1.9048

> <Gold.PLP.Chemscore.CHOScore>
0.0000

> <Gold.PLP.Chemscore.Metal>
0.0000

> <Gold.Chemscore.Hbonds>
donor molecule, donor type, donor heavy atom, donor atom, acceptor molecule, acceptor atom, score
      L1  H     7    30       P1  7948  1.00
      P1  H  6896  6909       L1    14  0.96

> <Gold.PLP.Chemscore.Internal.Correction>
0.4194

> <Gold.Rescore>
     Score         DG    S(hbond)    S(metal)    S(lipo)     H(rot)  DE(clash)    DE(int)     intcor
     15.01     -15.93       1.86        0.00      68.80       1.49       0.35       0.57       ----

> <Gold.Chemscore.Fitness>
15.0142

> <Gold.Chemscore.DG>
-15.9324

> <Gold.Chemscore.ZeroCoef>
-5.4800

> <Gold.Chemscore.Hbond>
1.8637

> <Gold.Chemscore.Metal>
0.0000

> <Gold.Chemscore.Lipo>
68.7968

> <Gold.Chemscore.Internal_Hbond>
0.0000

> <Gold.Chemscore.DEClash>
0.3468

> <Gold.Chemscore.DEInternal>
0.5714

> <Gold.Chemscore.Rot>
1.4928

> <Gold.Chemscore.Internal.Correction>
   9.000000E+99

> <Gold.Chemscore.Hbonds>
donor molecule, donor type, donor heavy atom, donor atom, acceptor molecule, acceptor atom, score
      L1  H     7    30       P1  7948  0.99
      P1  H  6896  6909       L1    14  0.89

> <Gold.Chemscore.Hbond.Weighted>
-6.2248

> <Gold.Chemscore.Metal.Weighted>
-0.0000

> <Gold.Chemscore.Lipo.Weighted>
-8.0492

> <Gold.Chemscore.Internal_Hbond.Weighted>
0.0000

> <Gold.Chemscore.DEClash.Weighted>
0.3468

> <Gold.Chemscore.DEInternal.Weighted>
0.5714

> <Gold.Chemscore.Rot.Weighted>
3.8217

> <Gold.Chemscore.Internal.Correction.Weighted>
   9.000000E+99

> <Gold.Protein.RotatedTorsions>
[ 6907 6896 6895 6894 ] final  -40.78 input  -60.11 | X-H torsion
[ 7974 7965 7964 7962 ] final -106.81 input  175.53 | X-H torsion
[ 8008 7997 7996 7995 ] final   59.82 input   59.86 | X-H torsion
[ 10167 10162 10161 10158 ] final  120.20 input  -65.29 | X-H torsion
[ 10718 10713 10712 10709 ] final   54.66 input   66.30 | X-H torsion
[ 10763 10752 10751 10750 ] final   -3.27 input  -60.55 | X-H torsion
[ 11005 11000 10999 10996 ] final  126.34 input  -57.11 | X-H torsion

> <Gold.Protein.ActiveResidues>
 VAL166  LYS551  ARG553  GLY616  TRP617  ASP618  TYR619  PRO620  LYS621  CYS622 
 ASP623  PHE694  ASN695  SER759  ASP760  ASP761  ALA762  ILE779  LEU786  VAL792 
 PHE793  MET794  SER795  GLU796  ALA797  LYS798  CYS799  TRP800  GLU811  SER814 

> <Gold.Protein.RotatedAtoms>
  150.9744  134.9111  159.7806 H   0  0  0  0  0  0  0  0  0  0  0  0  # atno 6907 bound_to 6896
  152.5201  134.3496  159.9256 H   0  0  0  0  0  0  0  0  0  0  0  0  # atno 6908 bound_to 6896
  151.3505  133.3886  159.2714 H   0  0  0  0  0  0  0  0  0  0  0  0  # atno 6909 bound_to 6896
  145.2132  140.9104  143.3302 H   0  0  0  0  0  0  0  0  0  0  0  0  # atno 7974 bound_to 7965
  155.5723  140.3490  155.4518 H   0  0  0  0  0  0  0  0  0  0  0  0  # atno 8008 bound_to 7997
  156.0435  140.1301  157.0155 H   0  0  0  0  0  0  0  0  0  0  0  0  # atno 8009 bound_to 7997
  154.4402  140.1019  156.6257 H   0  0  0  0  0  0  0  0  0  0  0  0  # atno 8010 bound_to 7997
  139.5997  144.7053  151.3092 H   0  0  0  0  0  0  0  0  0  0  0  0  # atno 10167 bound_to 10162
  157.5277  130.8608  149.8644 H   0  0  0  0  0  0  0  0  0  0  0  0  # atno 10718 bound_to 10713
  153.3691  135.6994  153.6652 H   0  0  0  0  0  0  0  0  0  0  0  0  # atno 10763 bound_to 10752
  153.5310  135.3592  155.2676 H   0  0  0  0  0  0  0  0  0  0  0  0  # atno 10764 bound_to 10752
  154.8679  135.4180  154.2965 H   0  0  0  0  0  0  0  0  0  0  0  0  # atno 10765 bound_to 10752
  139.9451  134.9630  156.8692 H   0  0  0  0  0  0  0  0  0  0  0  0  # atno 11005 bound_to 11000
  144.9836  139.3758  143.6249 LP  0  0  0  0  0  0  0  0  0  0  0  0  # atno 17320 bound_to 7965
  146.3393  139.8988  142.8797 LP  0  0  0  0  0  0  0  0  0  0  0  0  # atno 17321 bound_to 7965
  140.7240  143.7057  150.7809 LP  0  0  0  0  0  0  0  0  0  0  0  0  # atno 17342 bound_to 10162
  140.0630  143.5135  152.2618 LP  0  0  0  0  0  0  0  0  0  0  0  0  # atno 17343 bound_to 10162
  156.0399  130.3741  150.1462 LP  0  0  0  0  0  0  0  0  0  0  0  0  # atno 17370 bound_to 10713
  156.9648  130.9816  151.3471 LP  0  0  0  0  0  0  0  0  0  0  0  0  # atno 17371 bound_to 10713
  140.5855  134.0312  155.7480 LP  0  0  0  0  0  0  0  0  0  0  0  0  # atno 17394 bound_to 11000
  141.1099  133.9634  157.2930 LP  0  0  0  0  0  0  0  0  0  0  0  0  # atno 17395 bound_to 11000

$$$$
