AV-unprocessed.smi:1772|AV-procd|sdf|7161|dock9
  -GOLD-   22720 8403D 1   1.00000     0.00000
 Structure written by MMmdl.
 34 35  0  0  0  0  0  0  0  0  2 V2000
  146.8379  132.5721  153.8453 O   0  0  0  0  0  0  0  0  0  0  0  0
  147.4702  132.0651  152.9191 C   0  0  0  0  0  0  0  0  0  0  0  0
  148.6917  131.5320  153.0630 N   0  0  0  0  0  0  0  0  0  0  0  0
  149.4362  131.4706  154.3168 C   0  0  0  0  0  0  0  0  0  0  0  0
  149.2457  132.7370  155.1753 C   0  0  2  0  0  0  0  0  0  0  0  0
  149.4457  134.0492  154.3876 C   0  0  0  0  0  0  0  0  0  0  0  0
  149.5347  135.2099  155.3823 C   0  0  0  0  0  0  0  0  0  0  0  0
  150.3749  134.5285  156.8591 S   0  0  0  0  0  0  0  0  0  0  0  0
  151.8011  134.8854  156.8185 O   0  0  0  0  0  0  0  0  0  0  0  0
  149.5570  134.8096  158.0485 O   0  0  0  0  0  0  0  0  0  0  0  0
  150.1904  132.7659  156.3876 C   0  0  0  0  0  0  0  0  0  0  0  0
  147.0526  131.9902  151.6433 N   0  0  0  0  0  0  0  0  0  0  0  0
  145.8114  132.4104  151.0927 C   0  0  0  0  0  0  0  0  0  0  0  0
  144.9328  133.1308  151.9322 C   0  0  0  0  0  0  0  0  0  0  0  0
  143.6987  133.5839  151.4228 C   0  0  0  0  0  0  0  0  0  0  0  0
  143.3708  133.3361  150.1367 N   0  3  0  0  0  0  0  0  0  0  0  0
  144.1834  132.6651  149.2922 C   0  0  0  0  0  0  0  0  0  0  0  0
  145.4298  132.1866  149.7452 C   0  0  0  0  0  0  0  0  0  0  0  0
  149.1420  131.1398  152.2489 H   0  0  0  0  0  0  0  0  0  0  0  0
  149.1406  130.5841  154.8804 H   0  0  0  0  0  0  0  0  0  0  0  0
  150.4913  131.3397  154.0739 H   0  0  0  0  0  0  0  0  0  0  0  0
  148.2265  132.7458  155.5649 H   0  0  0  0  0  0  0  0  0  0  0  0
  150.3804  133.9927  153.8281 H   0  0  0  0  0  0  0  0  0  0  0  0
  148.6493  134.2147  153.6614 H   0  0  0  0  0  0  0  0  0  0  0  0
  150.0860  136.0667  154.9942 H   0  0  0  0  0  0  0  0  0  0  0  0
  148.5397  135.5396  155.6822 H   0  0  0  0  0  0  0  0  0  0  0  0
  149.8118  132.1897  157.2321 H   0  0  0  0  0  0  0  0  0  0  0  0
  151.1796  132.3880  156.1275 H   0  0  0  0  0  0  0  0  0  0  0  0
  147.7223  131.6312  150.9786 H   0  0  0  0  0  0  0  0  0  0  0  0
  145.1960  133.3324  152.9606 H   0  0  0  0  0  0  0  0  0  0  0  0
  142.9709  134.1353  152.0003 H   0  0  0  0  0  0  0  0  0  0  0  0
  143.8181  132.5374  148.2836 H   0  0  0  0  0  0  0  0  0  0  0  0
  146.0723  131.6711  149.0477 H   0  0  0  0  0  0  0  0  0  0  0  0
  142.4740  133.6744  149.7864 H   0  0  0  0  0  0  0  0  0  0  0  0
  1  2  2  0  0  0  0
  2  3  1  0  0  0  0
  2 12  1  0  0  0  0
  3  4  1  0  0  0  0
  3 19  1  0  0  0  0
  4  5  1  0  0  0  0
  4 20  1  0  0  0  0
  4 21  1  0  0  0  0
  5 11  1  0  0  0  0
  5  6  1  0  0  0  0
  5 22  1  0  0  0  0
  6  7  1  0  0  0  0
  6 23  1  0  0  0  0
  6 24  1  0  0  0  0
  7  8  1  0  0  0  0
  7 25  1  0  0  0  0
  7 26  1  0  0  0  0
  8  9  2  0  0  0  0
  8 10  2  0  0  0  0
  8 11  1  0  0  0  0
 11 27  1  0  0  0  0
 11 28  1  0  0  0  0
 12 13  1  0  0  0  0
 12 29  1  0  0  0  0
 13 18  1  0  0  0  0
 13 14  2  0  0  0  0
 14 15  1  0  0  0  0
 14 30  1  0  0  0  0
 15 16  2  0  0  0  0
 15 31  1  0  0  0  0
 16 17  1  0  0  0  0
 16 34  1  0  0  0  0
 17 18  2  0  0  0  0
 17 32  1  0  0  0  0
 18 33  1  0  0  0  0
M  CHG  1  16   1
M  END
> <s_m_source_file>
AV-unprocessed.smi

> <i_m_source_file_index>
1772

> <i_lp_mmshare_version>
43012

> <i_f3d_flags>
0

> <s_epik_input>
W2NIXTFbY0hdbltjSF1bY0hdYzFbTkhdQyg9TylbTkhdW0NIMl1bQ0BASF0oW0NIMl0yKVtDSDJdW0NIMl1TMig9Tyk9Tw==

> <s_epik_cmdline>
J2VwaWtfcHl0aG9uJywgJy1waCcsICc3LjAnLCAnLXRuJywgJzgnLCAnLW1hJywgJzIwMCcsICctbWV0YWxfYmluZGluZycsICctaW1hZScsICc8aW5maWxlLm1hZT4nLCAnLW9tYWUnLCAnPG91dGZpbGUubWFlPic=

> <r_epik_Ionization_Penalty>
1.04917

> <r_epik_Ionization_Penalty_Charging>
1.04915

> <r_epik_Ionization_Penalty_Neutral>
1.90771e-05

> <r_epik_State_Penalty>
1.10185

> <r_epik_Charging_Adjusted_Penalty>
2.151

> <i_epik_Tot_Q>
1

> <i_epik_Tot_abs_Q>
1

> <r_epik_Metal_State_Penalty>
1.19638

> <b_epik_Metal_Only>
0

> <s_lp_Force_Field>
OPLS_2005

> <r_lp_Energy>
16.4165

> <b_lp_Chiralities_Consistent>
1

> <s_lp_Variant>
AV-unprocessed.smi:1772-3

> <Gold.Version>
5.8.1

> <Gold.Id.Protein>
6NUR|6NUR_protein|mol2

> <Gold.PLP.Fitness>
50.2946

> <Gold.PLP.PLP>
-32.9401

> <Gold.PLP.part.hbond>
-5.0000

> <Gold.PLP.part.metal>
0.0000

> <Gold.PLP.part.buried>
-4.4708

> <Gold.PLP.part.nonpolar>
-24.4200

> <Gold.PLP.part.repulsive>
0.1571

> <Gold.PLP.ligand.clash>
0.0000

> <Gold.PLP.ligand.torsion>
0.2167

> <Gold.PLP.Chemscore.Hbond>
5.9280

> <Gold.PLP.Chemscore.CHOScore>
0.0000

> <Gold.PLP.Chemscore.Metal>
0.0000

> <Gold.Chemscore.Hbonds>
donor molecule, donor type, donor heavy atom, donor atom, acceptor molecule, acceptor atom, score
      L1  H     3    19       P1 10747  0.93
      L1  H    12    29       P1 10747  1.00
      L1  H    16    34       P1 10186  2.00
      P1  H  6896  6908       L1    10  1.00
      P1  H 10752 10765       L1     9  0.44

> <Gold.PLP.Chemscore.Internal.Correction>
0.0038

> <Gold.Rescore>
     Score         DG    S(hbond)    S(metal)    S(lipo)     H(rot)  DE(clash)    DE(int)     intcor
     20.51     -23.61       4.05        0.00      68.09       1.32       0.10       3.00       ----

> <Gold.Chemscore.Fitness>
20.5140

> <Gold.Chemscore.DG>
-23.6097

> <Gold.Chemscore.ZeroCoef>
-5.4800

> <Gold.Chemscore.Hbond>
4.0512

> <Gold.Chemscore.Metal>
0.0000

> <Gold.Chemscore.Lipo>
68.0856

> <Gold.Chemscore.Internal_Hbond>
0.0000

> <Gold.Chemscore.DEClash>
0.0963

> <Gold.Chemscore.DEInternal>
2.9994

> <Gold.Chemscore.Rot>
1.3153

> <Gold.Chemscore.Internal.Correction>
   9.000000E+99

> <Gold.Chemscore.Hbonds>
donor molecule, donor type, donor heavy atom, donor atom, acceptor molecule, acceptor atom, score
      L1  H     3    19       P1 10747  0.31
      L1  H    12    29       P1 10747  0.99
      L1  H    16    34       P1 10186  1.00
      P1  H  6896  6908       L1    10  0.44
      P1  H 10752 10765       L1     9  0.42

> <Gold.Chemscore.Hbond.Weighted>
-13.5309

> <Gold.Chemscore.Metal.Weighted>
-0.0000

> <Gold.Chemscore.Lipo.Weighted>
-7.9660

> <Gold.Chemscore.Internal_Hbond.Weighted>
0.0000

> <Gold.Chemscore.DEClash.Weighted>
0.0963

> <Gold.Chemscore.DEInternal.Weighted>
2.9994

> <Gold.Chemscore.Rot.Weighted>
3.3673

> <Gold.Chemscore.Internal.Correction.Weighted>
   9.000000E+99

> <Gold.Protein.RotatedTorsions>
[ 6907 6896 6895 6894 ] final  155.00 input  -60.11 | X-H torsion
[ 7974 7965 7964 7962 ] final -143.65 input  175.53 | X-H torsion
[ 8008 7997 7996 7995 ] final   76.97 input   59.86 | X-H torsion
[ 10167 10162 10161 10158 ] final  -95.20 input  -65.29 | X-H torsion
[ 10718 10713 10712 10709 ] final  165.08 input   66.30 | X-H torsion
[ 10763 10752 10751 10750 ] final -138.57 input  -60.55 | X-H torsion
[ 11005 11000 10999 10996 ] final  -85.68 input  -57.11 | X-H torsion

> <Gold.Protein.ActiveResidues>
 VAL166  LYS551  ARG553  GLY616  TRP617  ASP618  TYR619  PRO620  LYS621  CYS622 
 ASP623  PHE694  ASN695  SER759  ASP760  ASP761  ALA762  ILE779  LEU786  VAL792 
 PHE793  MET794  SER795  GLU796  ALA797  LYS798  CYS799  TRP800  GLU811  SER814 

> <Gold.Protein.RotatedAtoms>
  152.0504  133.4016  159.4374 H   0  0  0  0  0  0  0  0  0  0  0  0  # atno 6907 bound_to 6896
  150.6870  134.3314  159.4838 H   0  0  0  0  0  0  0  0  0  0  0  0  # atno 6908 bound_to 6896
  152.1123  134.9265  160.0617 H   0  0  0  0  0  0  0  0  0  0  0  0  # atno 6909 bound_to 6896
  144.8354  140.5808  143.5487 H   0  0  0  0  0  0  0  0  0  0  0  0  # atno 7974 bound_to 7965
  155.8350  140.3464  155.5596 H   0  0  0  0  0  0  0  0  0  0  0  0  # atno 8008 bound_to 7997
  155.8202  140.0911  157.1873 H   0  0  0  0  0  0  0  0  0  0  0  0  # atno 8009 bound_to 7997
  154.4004  140.1431  156.3478 H   0  0  0  0  0  0  0  0  0  0  0  0  # atno 8010 bound_to 7997
  140.3066  143.3130  152.0192 H   0  0  0  0  0  0  0  0  0  0  0  0  # atno 10167 bound_to 10162
  157.0852  131.0403  151.2559 H   0  0  0  0  0  0  0  0  0  0  0  0  # atno 10718 bound_to 10713
  154.8633  135.3608  154.5407 H   0  0  0  0  0  0  0  0  0  0  0  0  # atno 10763 bound_to 10752
  153.6029  135.7012  153.5382 H   0  0  0  0  0  0  0  0  0  0  0  0  # atno 10764 bound_to 10752
  153.3275  135.4133  155.1429 H   0  0  0  0  0  0  0  0  0  0  0  0  # atno 10765 bound_to 10752
  141.1638  133.7412  156.9050 H   0  0  0  0  0  0  0  0  0  0  0  0  # atno 11005 bound_to 11000
  145.4807  139.1495  143.3764 LP  0  0  0  0  0  0  0  0  0  0  0  0  # atno 17320 bound_to 7965
  146.2653  140.4943  142.8836 LP  0  0  0  0  0  0  0  0  0  0  0  0  # atno 17321 bound_to 7965
  139.4903  144.6416  151.6865 LP  0  0  0  0  0  0  0  0  0  0  0  0  # atno 17342 bound_to 10162
  140.5604  144.0277  150.6167 LP  0  0  0  0  0  0  0  0  0  0  0  0  # atno 17343 bound_to 10162
  157.4767  130.7741  149.7375 LP  0  0  0  0  0  0  0  0  0  0  0  0  # atno 17370 bound_to 10713
  155.9913  130.3939  150.2992 LP  0  0  0  0  0  0  0  0  0  0  0  0  # atno 17371 bound_to 10713
  140.1556  134.9200  157.2649 LP  0  0  0  0  0  0  0  0  0  0  0  0  # atno 17394 bound_to 11000
  140.2671  134.3503  155.7386 LP  0  0  0  0  0  0  0  0  0  0  0  0  # atno 17395 bound_to 11000

$$$$
