AV-unprocessed.smi:2303|AV-procd|sdf|9242|dock6
  -GOLD-   2272012463D 1   1.00000     0.00000
 Structure written by MMmdl.
 33 34  0  0  0  0  0  0  0  0  1 V2000
  151.4877  143.4781  157.8064 C   0  0  0  0  0  0  0  0  0  0  0  0
  151.6092  143.9642  159.2618 C   0  0  0  0  0  0  0  0  0  0  0  0
  152.1833  145.3915  159.3095 C   0  0  0  0  0  0  0  0  0  0  0  0
  152.3904  143.0099  160.1660 C   0  0  0  0  0  0  0  0  0  0  0  0
  153.0133  141.8754  159.7873 C   0  0  0  0  0  0  0  0  0  0  0  0
  153.7107  141.0816  160.7843 C   0  0  0  0  0  0  0  0  0  0  0  0
  154.4372  139.8924  160.3364 C   0  0  0  0  0  0  0  0  0  0  0  0
  154.9806  139.8163  159.2342 O   0  0  0  0  0  0  0  0  0  0  0  0
  154.4847  138.8552  161.2030 N   0  0  0  0  0  0  0  0  0  0  0  0
  155.0763  137.5420  160.9834 C   0  0  0  0  0  0  0  0  0  0  0  0
  154.4553  136.6766  162.0650 C   0  0  0  0  0  0  0  0  0  0  0  0
  153.1432  137.3928  162.3425 C   0  0  0  0  0  0  0  0  0  0  0  0
  153.4936  138.7587  162.2015 O   0  0  0  0  0  0  0  0  0  0  0  0
  153.7512  141.5032  162.0728 C   0  0  0  0  0  0  0  0  0  0  0  0
  153.0634  142.7243  162.4980 C   0  0  0  0  0  0  0  0  0  0  0  0
  153.0508  143.1317  163.6572 O   0  0  0  0  0  0  0  0  0  0  0  0
  152.4265  143.3993  161.5135 N   0  0  0  0  0  0  0  0  0  0  0  0
  151.0223  142.4934  157.7538 H   0  0  0  0  0  0  0  0  0  0  0  0
  152.4626  143.4193  157.3209 H   0  0  0  0  0  0  0  0  0  0  0  0
  150.8699  144.1581  157.2193 H   0  0  0  0  0  0  0  0  0  0  0  0
  150.5970  144.0059  159.6669 H   0  0  0  0  0  0  0  0  0  0  0  0
  152.1661  145.8034  160.3188 H   0  0  0  0  0  0  0  0  0  0  0  0
  151.6060  146.0669  158.6776 H   0  0  0  0  0  0  0  0  0  0  0  0
  153.2156  145.4122  158.9589 H   0  0  0  0  0  0  0  0  0  0  0  0
  153.0001  141.5512  158.7571 H   0  0  0  0  0  0  0  0  0  0  0  0
  154.8065  137.1735  159.9922 H   0  0  0  0  0  0  0  0  0  0  0  0
  156.1639  137.5736  161.0570 H   0  0  0  0  0  0  0  0  0  0  0  0
  154.3205  135.6385  161.7603 H   0  0  0  0  0  0  0  0  0  0  0  0
  155.0811  136.6925  162.9583 H   0  0  0  0  0  0  0  0  0  0  0  0
  152.3936  137.1329  161.5935 H   0  0  0  0  0  0  0  0  0  0  0  0
  152.7378  137.1768  163.3311 H   0  0  0  0  0  0  0  0  0  0  0  0
  154.3070  140.9490  162.8157 H   0  0  0  0  0  0  0  0  0  0  0  0
  151.9398  144.2510  161.7525 H   0  0  0  0  0  0  0  0  0  0  0  0
  1  2  1  0  0  0  0
  1 18  1  0  0  0  0
  1 19  1  0  0  0  0
  1 20  1  0  0  0  0
  2  3  1  0  0  0  0
  2 21  1  0  0  0  0
  2  4  1  0  0  0  0
  3 22  1  0  0  0  0
  3 23  1  0  0  0  0
  3 24  1  0  0  0  0
  4 17  1  0  0  0  0
  4  5  2  0  0  0  0
  5 25  1  0  0  0  0
  5  6  1  0  0  0  0
  6  7  1  0  0  0  0
  6 14  2  0  0  0  0
  7  8  2  0  0  0  0
  7  9  1  0  0  0  0
  9 13  1  0  0  0  0
  9 10  1  0  0  0  0
 10 11  1  0  0  0  0
 10 26  1  0  0  0  0
 10 27  1  0  0  0  0
 11 12  1  0  0  0  0
 11 28  1  0  0  0  0
 11 29  1  0  0  0  0
 12 13  1  0  0  0  0
 12 30  1  0  0  0  0
 12 31  1  0  0  0  0
 14 15  1  0  0  0  0
 14 32  1  0  0  0  0
 15 16  2  0  0  0  0
 15 17  1  0  0  0  0
 17 33  1  0  0  0  0
M  END
> <s_m_source_file>
AV-unprocessed.smi

> <i_m_source_file_index>
2303

> <i_lp_mmshare_version>
43012

> <i_f3d_flags>
0

> <s_epik_input>
W0NIM11bQ0hdKFtDSDNdKWMxW2NIXWMoW2NIXWMobjEpW09IXSlDKD1PKU4yW0NIMl1bQ0gyXVtDSDJdTzI=

> <s_epik_cmdline>
J2VwaWtfcHl0aG9uJywgJy1waCcsICc3LjAnLCAnLXRuJywgJzgnLCAnLW1hJywgJzIwMCcsICctbWV0YWxfYmluZGluZycsICctaW1hZScsICc8aW5maWxlLm1hZT4nLCAnLW9tYWUnLCAnPG91dGZpbGUubWFlPic=

> <r_lp_tautomer_probability>
1

> <r_epik_Ionization_Penalty>
8.70942e-05

> <r_epik_Ionization_Penalty_Charging>
8.7046e-05

> <r_epik_Ionization_Penalty_Neutral>
4.82304e-08

> <r_epik_State_Penalty>
-0

> <r_epik_Charging_Adjusted_Penalty>
8.7046e-05

> <i_epik_Tot_Q>
0

> <i_epik_Tot_abs_Q>
0

> <r_epik_Metal_State_Penalty>
0.0811253

> <b_epik_Metal_Only>
0

> <s_epik_Chemistry_Notes>
This compound has a N-S or N-O group and may undergo hydrolysis at high or low pH.

> <s_lp_Force_Field>
OPLS_2005

> <r_lp_Energy>
27.1372

> <b_lp_Chiralities_Consistent>
1

> <s_lp_Variant>
AV-unprocessed.smi:2303-1

> <Gold.Version>
5.8.1

> <Gold.Id.Protein>
6NUR|6NUR_protein|mol2

> <Gold.PLP.Fitness>
40.7426

> <Gold.PLP.PLP>
-37.7752

> <Gold.PLP.part.hbond>
-1.4211

> <Gold.PLP.part.metal>
0.0000

> <Gold.PLP.part.buried>
-3.5056

> <Gold.PLP.part.nonpolar>
-33.8317

> <Gold.PLP.part.repulsive>
0.1980

> <Gold.PLP.ligand.clash>
0.0000

> <Gold.PLP.ligand.torsion>
0.6236

> <Gold.PLP.Chemscore.Hbond>
1.0000

> <Gold.PLP.Chemscore.CHOScore>
0.0000

> <Gold.PLP.Chemscore.Metal>
0.0000

> <Gold.Chemscore.Hbonds>
donor molecule, donor type, donor heavy atom, donor atom, acceptor molecule, acceptor atom, score
      P1  H  7997  8009       L1     8  1.00

> <Gold.PLP.Chemscore.Internal.Correction>
1.2147

> <Gold.Rescore>
     Score         DG    S(hbond)    S(metal)    S(lipo)     H(rot)  DE(clash)    DE(int)     intcor
     15.22     -17.43       0.97        0.00      96.31       1.00       0.10       2.11       ----

> <Gold.Chemscore.Fitness>
15.2184

> <Gold.Chemscore.DG>
-17.4257

> <Gold.Chemscore.ZeroCoef>
-5.4800

> <Gold.Chemscore.Hbond>
0.9691

> <Gold.Chemscore.Metal>
0.0000

> <Gold.Chemscore.Lipo>
96.3146

> <Gold.Chemscore.Internal_Hbond>
0.0000

> <Gold.Chemscore.DEClash>
0.0977

> <Gold.Chemscore.DEInternal>
2.1096

> <Gold.Chemscore.Rot>
1.0000

> <Gold.Chemscore.Internal.Correction>
   9.000000E+99

> <Gold.Chemscore.Hbonds>
donor molecule, donor type, donor heavy atom, donor atom, acceptor molecule, acceptor atom, score
      P1  H  7997  8009       L1     8  0.95

> <Gold.Chemscore.Hbond.Weighted>
-3.2369

> <Gold.Chemscore.Metal.Weighted>
-0.0000

> <Gold.Chemscore.Lipo.Weighted>
-11.2688

> <Gold.Chemscore.Internal_Hbond.Weighted>
0.0000

> <Gold.Chemscore.DEClash.Weighted>
0.0977

> <Gold.Chemscore.DEInternal.Weighted>
2.1096

> <Gold.Chemscore.Rot.Weighted>
2.5600

> <Gold.Chemscore.Internal.Correction.Weighted>
   9.000000E+99

> <Gold.Protein.RotatedTorsions>
[ 6907 6896 6895 6894 ] final  175.92 input  -60.11 | X-H torsion
[ 7974 7965 7964 7962 ] final -150.90 input  175.53 | X-H torsion
[ 8008 7997 7996 7995 ] final  100.81 input   59.86 | X-H torsion
[ 10167 10162 10161 10158 ] final   88.22 input  -65.29 | X-H torsion
[ 10718 10713 10712 10709 ] final    4.39 input   66.30 | X-H torsion
[ 10763 10752 10751 10750 ] final   47.36 input  -60.55 | X-H torsion
[ 11005 11000 10999 10996 ] final -151.32 input  -57.11 | X-H torsion

> <Gold.Protein.ActiveResidues>
 VAL166  LYS551  ARG553  GLY616  TRP617  ASP618  TYR619  PRO620  LYS621  CYS622 
 ASP623  PHE694  ASN695  SER759  ASP760  ASP761  ALA762  ILE779  LEU786  VAL792 
 PHE793  MET794  SER795  GLU796  ALA797  LYS798  CYS799  TRP800  GLU811  SER814 

> <Gold.Protein.RotatedAtoms>
  151.7285  133.3317  159.3333 H   0  0  0  0  0  0  0  0  0  0  0  0  # atno 6907 bound_to 6896
  150.7623  134.6385  159.6233 H   0  0  0  0  0  0  0  0  0  0  0  0  # atno 6908 bound_to 6896
  152.3607  134.6878  160.0259 H   0  0  0  0  0  0  0  0  0  0  0  0  # atno 6909 bound_to 6896
  144.7881  140.4870  143.5792 H   0  0  0  0  0  0  0  0  0  0  0  0  # atno 7974 bound_to 7965
  156.1239  140.3207  155.8249 H   0  0  0  0  0  0  0  0  0  0  0  0  # atno 8008 bound_to 7997
  155.4454  140.0528  157.3023 H   0  0  0  0  0  0  0  0  0  0  0  0  # atno 8009 bound_to 7997
  154.4848  140.2068  155.9694 H   0  0  0  0  0  0  0  0  0  0  0  0  # atno 8010 bound_to 7997
  139.8695  144.6500  150.8965 H   0  0  0  0  0  0  0  0  0  0  0  0  # atno 10167 bound_to 10162
  156.8920  130.5691  149.5649 H   0  0  0  0  0  0  0  0  0  0  0  0  # atno 10718 bound_to 10713
  152.9801  135.5979  154.3750 H   0  0  0  0  0  0  0  0  0  0  0  0  # atno 10763 bound_to 10752
  154.3420  135.2767  155.2419 H   0  0  0  0  0  0  0  0  0  0  0  0  # atno 10764 bound_to 10752
  154.4497  135.5993  153.6238 H   0  0  0  0  0  0  0  0  0  0  0  0  # atno 10765 bound_to 10752
  140.7308  134.3623  157.5167 H   0  0  0  0  0  0  0  0  0  0  0  0  # atno 11005 bound_to 11000
  145.5868  139.1492  143.3205 LP  0  0  0  0  0  0  0  0  0  0  0  0  # atno 17320 bound_to 7965
  146.2121  140.5995  142.9055 LP  0  0  0  0  0  0  0  0  0  0  0  0  # atno 17321 bound_to 7965
  140.7763  143.3676  151.1710 LP  0  0  0  0  0  0  0  0  0  0  0  0  # atno 17342 bound_to 10162
  139.7297  143.9092  152.3015 LP  0  0  0  0  0  0  0  0  0  0  0  0  # atno 17343 bound_to 10162
  156.0624  130.5674  150.9220 LP  0  0  0  0  0  0  0  0  0  0  0  0  # atno 17370 bound_to 10713
  157.6078  131.0938  150.8848 LP  0  0  0  0  0  0  0  0  0  0  0  0  # atno 17371 bound_to 10713
  139.8827  134.9017  156.2817 LP  0  0  0  0  0  0  0  0  0  0  0  0  # atno 17394 bound_to 11000
  140.9922  133.7202  156.0831 LP  0  0  0  0  0  0  0  0  0  0  0  0  # atno 17395 bound_to 11000

$$$$
