#       Name:                AV-unprocessed.smi:2861
#       Creating user name   scv26
#       Creation time:       Fri Mar 27 15:46:38 2020


#       File generated by GOLD software.
#

@<TRIPOS>MOLECULE
AV-unprocessed.smi:2861
    38    40     1
SMALL
NO_CHARGES


@<TRIPOS>ATOM
      1 ****        -1.6635  -1.5150  -0.3668 O.2            1 S1                 0.0000
      2 ****        -1.0875  -2.0116   0.6023 C.2            1 S1                 0.0000
      3 ****         0.3170  -1.5419   0.9984 C.3            1 S1                 0.0000
      4 ****         0.4482  -0.0506   0.8701 C.2            1 S1                 0.0000
      5 ****        -0.0292   0.8990   1.7408 C.2            1 S1                 0.0000
      6 ****         0.3371   2.5171   1.2082 S.3            1 S1                 0.0000
      7 ****         1.1501   1.8345  -0.1988 C.2            1 S1                 0.0000
      8 ****         1.7683   2.6281  -1.2110 N.am           1 S1                 0.0000
      9 ****         1.6817   4.0833  -1.1888 C.3            1 S1                 0.0000
     10 ****         2.2572   4.5601  -2.5268 C.3            1 S1                 0.0000
     11 ****         2.9954   3.3538  -3.1036 C.3            1 S1                 0.0000
     12 ****         2.5007   2.1947  -2.2545 C.2            1 S1                 0.0000
     13 ****         2.7752   1.0282  -2.5349 O.2            1 S1                 0.0000
     14 ****         1.1234   0.4967  -0.2257 N.2            1 S1                 0.0000
     15 ****        -1.6231  -2.9797   1.3611 N.am           1 S1                 0.0000
     16 ****        -2.9113  -3.5647   1.1719 C.3            1 S1                 0.0000
     17 ****        -3.6587  -4.0299   2.4030 C.3            1 S1                 0.0000
     18 ****        -3.0626  -5.0420   1.4641 C.3            1 S1                 0.0000
     19 ****         0.5371  -1.8498   2.0217 H              1 S1                 0.0000
     20 ****         1.0413  -2.0516   0.3617 H              1 S1                 0.0000
     21 ****        -0.5792   0.7444   2.6570 H              1 S1                 0.0000
     22 ****         0.6526   4.4218  -1.0601 H              1 S1                 0.0000
     23 ****         2.2728   4.4649  -0.3550 H              1 S1                 0.0000
     24 ****         1.4500   4.8552  -3.1986 H              1 S1                 0.0000
     25 ****         2.9131   5.4224  -2.4020 H              1 S1                 0.0000
     26 ****         2.7713   3.1996  -4.1596 H              1 S1                 0.0000
     27 ****         4.0748   3.4538  -2.9849 H              1 S1                 0.0000
     28 ****        -1.0748  -3.3320   2.1325 H              1 S1                 0.0000
     29 ****        -3.5257  -3.1719   0.3627 H              1 S1                 0.0000
     30 ****        -3.1783  -3.9004   3.3711 H              1 S1                 0.0000
     31 ****        -4.7414  -3.9211   2.4027 H              1 S1                 0.0000
     32 ****        -3.7466  -5.6093   0.8362 H              1 S1                 0.0000
     33 ****        -2.1842  -5.5867   1.8052 H              1 S1                 0.0000
     34 ****        -1.2150  -0.7994  -0.9023 LP             1 S1                 0.0000
     35 ****        -2.5796  -1.8275  -0.6180 LP             1 S1                 0.0000
     36 ****         2.4422   0.2834  -1.9567 LP             1 S1                 0.0000
     37 ****         3.3311   0.8253  -3.3409 LP             1 S1                 0.0000
     38 ****         1.5407  -0.0518  -0.9503 LP             1 S1                 0.0000
@<TRIPOS>BOND
    1    1    2 2     
    2    2    3 1     
    3    2   15 am    
    4    3    4 1     
    5    3   19 1     
    6    3   20 1     
    7    4   14 1     
    8    4    5 2     
    9    5    6 1     
   10    5   21 1     
   11    6    7 1     
   12    7    8 1     
   13    7   14 2     
   14    8   12 am    
   15    8    9 1     
   16    9   10 1     
   17    9   22 1     
   18    9   23 1     
   19   10   11 1     
   20   10   24 1     
   21   10   25 1     
   22   11   12 1     
   23   11   26 1     
   24   11   27 1     
   25   12   13 2     
   26   15   16 1     
   27   15   28 1     
   28   16   18 1     
   29   16   17 1     
   30   16   29 1     
   31   17   18 1     
   32   17   30 1     
   33   17   31 1     
   34   18   32 1     
   35   18   33 1     
   36    1   34 1     
   37    1   35 1     
   38   13   36 1     
   39   13   37 1     
   40   14   38 1     
@<TRIPOS>SUBSTRUCTURE
      1 S1             1
@<TRIPOS>SET
LONE_PAIRS      STATIC     ATOMS    <user>   **** ""
5 34 35 36 37 38
DONOR_HYDROGENS      STATIC     ATOMS    <user>   **** ""
1 28
ATOM$BLUE        STATIC     ATOMS    COLORGROUP SYSTEM
5 34 35 36 37 38
ATOM$RED        STATIC     ATOMS    COLORGROUP SYSTEM
1 28
