AV-unprocessed.smi:232|AV-procd|sdf|1781|dock10
  -GOLD-   2262020333D 1   1.00000     0.00000
 Structure written by MMmdl.
 52 55  0  0  0  0  0  0  0  0  1 V2000
  149.4479  141.2980  155.6396 C   0  0  0  0  0  0  0  0  0  0  0  0
  150.7939  140.9658  156.2945 C   0  0  0  0  0  0  0  0  0  0  0  0
  150.9665  141.6097  157.6857 C   0  0  2  0  0  0  0  0  0  0  0  0
  151.2449  143.1188  157.6489 C   0  0  0  0  0  0  0  0  0  0  0  0
  152.1301  143.3827  158.8732 C   0  0  0  0  0  0  0  0  0  0  0  0
  152.3340  142.0029  159.5117 C   0  0  2  0  0  0  0  0  0  0  0  0
  153.7125  141.8312  160.1715 C   0  0  0  0  0  0  0  0  0  0  0  0
  152.0901  141.0547  158.4323 N   0  0  0  0  0  0  0  0  0  0  0  0
  151.9641  139.7643  158.8213 C   0  0  0  0  0  0  0  0  0  0  0  0
  153.0624  139.0236  159.1283 N   0  0  0  0  0  0  0  0  0  0  0  0
  152.9220  137.7530  159.5185 C   0  0  0  0  0  0  0  0  0  0  0  0
  151.8005  137.0433  159.6660 N   0  0  0  0  0  0  0  0  0  0  0  0
  150.7000  137.7867  159.3538 C   0  0  0  0  0  0  0  0  0  0  0  0
  150.6932  139.1423  158.9247 C   0  0  0  0  0  0  0  0  0  0  0  0
  149.3902  139.5672  158.6995 N   0  0  0  0  0  0  0  0  0  0  0  0
  148.6644  138.5194  158.9828 C   0  0  0  0  0  0  0  0  0  0  0  0
  149.3706  137.4082  159.3859 N   0  0  0  0  0  0  0  0  0  0  0  0
  148.8241  136.1189  159.7677 C   0  0  0  0  0  0  0  0  0  0  0  0
  147.3084  136.1842  160.0359 C   0  0  1  0  0  0  0  0  0  0  0  0
  146.6594  135.0399  159.5126 O   0  0  0  0  0  0  0  0  0  0  0  0
  146.9758  136.3635  161.5308 C   0  0  1  0  0  0  0  0  0  0  0  0
  147.2219  135.1489  162.4402 C   0  0  0  0  0  0  0  0  0  0  0  0
  147.8237  135.7520  163.7027 C   0  0  0  0  0  0  0  0  0  0  0  0
  147.6401  137.2561  163.5191 C   0  0  0  0  0  0  0  0  0  0  0  0
  147.7155  137.4271  162.1141 O   0  0  0  0  0  0  0  0  0  0  0  0
  149.3529  140.7960  154.6767 H   0  0  0  0  0  0  0  0  0  0  0  0
  149.3423  142.3689  155.4655 H   0  0  0  0  0  0  0  0  0  0  0  0
  148.6164  140.9753  156.2664 H   0  0  0  0  0  0  0  0  0  0  0  0
  150.8707  139.8813  156.3792 H   0  0  0  0  0  0  0  0  0  0  0  0
  151.6078  141.2761  155.6379 H   0  0  0  0  0  0  0  0  0  0  0  0
  150.0542  141.4499  158.2634 H   0  0  0  0  0  0  0  0  0  0  0  0
  151.7877  143.3931  156.7432 H   0  0  0  0  0  0  0  0  0  0  0  0
  150.3221  143.6992  157.6706 H   0  0  0  0  0  0  0  0  0  0  0  0
  153.0802  143.8115  158.5509 H   0  0  0  0  0  0  0  0  0  0  0  0
  151.6718  144.0818  159.5732 H   0  0  0  0  0  0  0  0  0  0  0  0
  151.5633  141.8628  160.2721 H   0  0  0  0  0  0  0  0  0  0  0  0
  153.8690  142.5841  160.9440 H   0  0  0  0  0  0  0  0  0  0  0  0
  154.5162  141.9304  159.4412 H   0  0  0  0  0  0  0  0  0  0  0  0
  153.8106  140.8534  160.6438 H   0  0  0  0  0  0  0  0  0  0  0  0
  153.8396  137.2306  159.7456 H   0  0  0  0  0  0  0  0  0  0  0  0
  147.5862  138.5294  158.9120 H   0  0  0  0  0  0  0  0  0  0  0  0
  149.0455  135.3993  158.9783 H   0  0  0  0  0  0  0  0  0  0  0  0
  149.3509  135.7764  160.6592 H   0  0  0  0  0  0  0  0  0  0  0  0
  146.9008  137.0429  159.5007 H   0  0  0  0  0  0  0  0  0  0  0  0
  146.6451  135.1084  158.5703 H   0  0  0  0  0  0  0  0  0  0  0  0
  145.9229  136.6392  161.6152 H   0  0  0  0  0  0  0  0  0  0  0  0
  146.2860  134.6293  162.6485 H   0  0  0  0  0  0  0  0  0  0  0  0
  147.9090  134.4224  162.0062 H   0  0  0  0  0  0  0  0  0  0  0  0
  147.3549  135.3834  164.6156 H   0  0  0  0  0  0  0  0  0  0  0  0
  148.8872  135.5144  163.7515 H   0  0  0  0  0  0  0  0  0  0  0  0
  146.6582  137.5747  163.8732 H   0  0  0  0  0  0  0  0  0  0  0  0
  148.3995  137.8406  164.0389 H   0  0  0  0  0  0  0  0  0  0  0  0
  1  2  1  0  0  0  0
  1 26  1  0  0  0  0
  1 27  1  0  0  0  0
  1 28  1  0  0  0  0
  2  3  1  0  0  0  0
  2 29  1  0  0  0  0
  2 30  1  0  0  0  0
  3  8  1  0  0  0  0
  3  4  1  0  0  0  0
  3 31  1  0  0  0  0
  4  5  1  0  0  0  0
  4 32  1  0  0  0  0
  4 33  1  0  0  0  0
  5  6  1  0  0  0  0
  5 34  1  0  0  0  0
  5 35  1  0  0  0  0
  6  7  1  0  0  0  0
  6  8  1  0  0  0  0
  6 36  1  0  0  0  0
  7 37  1  0  0  0  0
  7 38  1  0  0  0  0
  7 39  1  0  0  0  0
  8  9  1  0  0  0  0
  9 14  1  0  0  0  0
  9 10  2  0  0  0  0
 10 11  1  0  0  0  0
 11 12  2  0  0  0  0
 11 40  1  0  0  0  0
 12 13  1  0  0  0  0
 13 17  1  0  0  0  0
 13 14  2  0  0  0  0
 14 15  1  0  0  0  0
 15 16  2  0  0  0  0
 16 17  1  0  0  0  0
 16 41  1  0  0  0  0
 17 18  1  0  0  0  0
 18 19  1  0  0  0  0
 18 42  1  0  0  0  0
 18 43  1  0  0  0  0
 19 20  1  0  0  0  0
 19 21  1  0  0  0  0
 19 44  1  0  0  0  0
 20 45  1  0  0  0  0
 21 25  1  0  0  0  0
 21 22  1  0  0  0  0
 21 46  1  0  0  0  0
 22 23  1  0  0  0  0
 22 47  1  0  0  0  0
 22 48  1  0  0  0  0
 23 24  1  0  0  0  0
 23 49  1  0  0  0  0
 23 50  1  0  0  0  0
 24 25  1  0  0  0  0
 24 51  1  0  0  0  0
 24 52  1  0  0  0  0
M  END
> <s_m_source_file>
AV-unprocessed.smi

> <i_m_source_file_index>
232

> <i_lp_mmshare_version>
43012

> <i_f3d_flags>
0

> <s_epik_input>
W0NIM11bQ0gyXVtDQEBIXTFbQ0gyXVtDSDJdW0NAQEhdKFtDSDNdKU4xYyhuW2NIXW4yKWMoYzIzKW5bY0hdbjNbQ0gyXVtDQEhdKFtPSF0pW0NAQEhdNFtDSDJdW0NIMl1bQ0gyXU80

> <s_epik_cmdline>
J2VwaWtfcHl0aG9uJywgJy1waCcsICc3LjAnLCAnLXRuJywgJzgnLCAnLW1hJywgJzIwMCcsICctbWV0YWxfYmluZGluZycsICctaW1hZScsICc8aW5maWxlLm1hZT4nLCAnLW9tYWUnLCAnPG91dGZpbGUubWFlPic=

> <r_lp_tautomer_probability>
1

> <r_epik_Ionization_Penalty>
0.00258048

> <r_epik_Ionization_Penalty_Charging>
0

> <r_epik_Ionization_Penalty_Neutral>
0.00258048

> <r_epik_State_Penalty>
0.00168551

> <r_epik_Charging_Adjusted_Penalty>
0.00168551

> <i_epik_Tot_Q>
0

> <i_epik_Tot_abs_Q>
0

> <r_epik_Metal_State_Penalty>
-0

> <b_epik_Metal_Only>
0

> <s_lp_Force_Field>
OPLS_2005

> <r_lp_Energy>
54.2714

> <b_lp_Chiralities_Consistent>
1

> <s_lp_Variant>
AV-unprocessed.smi:232-15

> <Gold.Version>
5.8.1

> <Gold.Id.Protein>
6NUR|6NUR_protein|mol2

> <Gold.PLP.Fitness>
51.7932

> <Gold.PLP.PLP>
-47.8516

> <Gold.PLP.part.hbond>
-3.0000

> <Gold.PLP.part.metal>
0.0000

> <Gold.PLP.part.buried>
-5.7868

> <Gold.PLP.part.nonpolar>
-39.3396

> <Gold.PLP.part.repulsive>
0.0000

> <Gold.PLP.ligand.clash>
0.0000

> <Gold.PLP.ligand.torsion>
1.4356

> <Gold.PLP.Chemscore.Hbond>
2.2472

> <Gold.PLP.Chemscore.CHOScore>
0.0000

> <Gold.PLP.Chemscore.Metal>
0.0000

> <Gold.Chemscore.Hbonds>
donor molecule, donor type, donor heavy atom, donor atom, acceptor molecule, acceptor atom, score
      P1  H  6896  6909       L1    12  1.00
      P1  H  6931  6943       L1    25  0.86
      P1  H  6934  6947       L1    25  0.50

> <Gold.PLP.Chemscore.Internal.Correction>
0.0712

> <Gold.Rescore>
     Score         DG    S(hbond)    S(metal)    S(lipo)     H(rot)  DE(clash)    DE(int)     intcor
     14.67     -17.82       1.76        0.00     108.37       2.43       0.04       3.11       ----

> <Gold.Chemscore.Fitness>
14.6651

> <Gold.Chemscore.DG>
-17.8231

> <Gold.Chemscore.ZeroCoef>
-5.4800

> <Gold.Chemscore.Hbond>
1.7588

> <Gold.Chemscore.Metal>
0.0000

> <Gold.Chemscore.Lipo>
108.3719

> <Gold.Chemscore.Internal_Hbond>
0.0000

> <Gold.Chemscore.DEClash>
0.0448

> <Gold.Chemscore.DEInternal>
3.1133

> <Gold.Chemscore.Rot>
2.4260

> <Gold.Chemscore.Internal.Correction>
   9.000000E+99

> <Gold.Chemscore.Hbonds>
donor molecule, donor type, donor heavy atom, donor atom, acceptor molecule, acceptor atom, score
      P1  H  6896  6909       L1    12  0.87
      P1  H  6931  6943       L1    25  0.32
      P1  H  6934  6947       L1    25  0.19

> <Gold.Chemscore.Hbond.Weighted>
-5.8743

> <Gold.Chemscore.Metal.Weighted>
-0.0000

> <Gold.Chemscore.Lipo.Weighted>
-12.6795

> <Gold.Chemscore.Internal_Hbond.Weighted>
0.0000

> <Gold.Chemscore.DEClash.Weighted>
0.0448

> <Gold.Chemscore.DEInternal.Weighted>
3.1133

> <Gold.Chemscore.Rot.Weighted>
6.2107

> <Gold.Chemscore.Internal.Correction.Weighted>
   9.000000E+99

> <Gold.Protein.RotatedTorsions>
[ 6907 6896 6895 6894 ] final  109.31 input  -60.11 | X-H torsion
[ 7974 7965 7964 7962 ] final  143.62 input  175.53 | X-H torsion
[ 8008 7997 7996 7995 ] final  125.09 input   59.86 | X-H torsion
[ 10167 10162 10161 10158 ] final   -0.97 input  -65.29 | X-H torsion
[ 10718 10713 10712 10709 ] final   22.04 input   66.30 | X-H torsion
[ 10763 10752 10751 10750 ] final  -83.11 input  -60.55 | X-H torsion
[ 11005 11000 10999 10996 ] final  -27.34 input  -57.11 | X-H torsion

> <Gold.Protein.ActiveResidues>
 VAL166  LYS551  ARG553  GLY616  TRP617  ASP618  TYR619  PRO620  LYS621  CYS622 
 ASP623  PHE694  ASN695  SER759  ASP760  ASP761  ALA762  ILE779  LEU786  VAL792 
 PHE793  MET794  SER795  GLU796  ALA797  LYS798  CYS799  TRP800  GLU811  SER814 

> <Gold.Protein.RotatedAtoms>
  152.5073  133.8962  159.7418 H   0  0  0  0  0  0  0  0  0  0  0  0  # atno 6907 bound_to 6896
  150.9389  133.6671  159.2801 H   0  0  0  0  0  0  0  0  0  0  0  0  # atno 6908 bound_to 6896
  151.3989  135.0973  159.9602 H   0  0  0  0  0  0  0  0  0  0  0  0  # atno 6909 bound_to 6896
  144.8905  139.5565  143.5800 H   0  0  0  0  0  0  0  0  0  0  0  0  # atno 7974 bound_to 7965
  156.2823  140.2724  156.1894 H   0  0  0  0  0  0  0  0  0  0  0  0  # atno 8008 bound_to 7997
  155.0474  140.0386  157.2549 H   0  0  0  0  0  0  0  0  0  0  0  0  # atno 8009 bound_to 7997
  154.7223  140.2690  155.6535 H   0  0  0  0  0  0  0  0  0  0  0  0  # atno 8010 bound_to 7997
  140.6790  143.6831  150.8089 H   0  0  0  0  0  0  0  0  0  0  0  0  # atno 10167 bound_to 10162
  157.1468  130.6657  149.5999 H   0  0  0  0  0  0  0  0  0  0  0  0  # atno 10718 bound_to 10713
  154.5838  135.5567  153.7211 H   0  0  0  0  0  0  0  0  0  0  0  0  # atno 10763 bound_to 10752
  153.0091  135.6326  154.1945 H   0  0  0  0  0  0  0  0  0  0  0  0  # atno 10764 bound_to 10752
  154.1886  135.2883  155.3009 H   0  0  0  0  0  0  0  0  0  0  0  0  # atno 10765 bound_to 10752
  140.9110  133.7461  156.0671 H   0  0  0  0  0  0  0  0  0  0  0  0  # atno 11005 bound_to 11000
  146.3051  139.7552  142.9062 LP  0  0  0  0  0  0  0  0  0  0  0  0  # atno 17320 bound_to 7965
  145.3792  141.0355  143.3187 LP  0  0  0  0  0  0  0  0  0  0  0  0  # atno 17321 bound_to 7965
  140.0528  143.5232  152.2665 LP  0  0  0  0  0  0  0  0  0  0  0  0  # atno 17342 bound_to 10162
  139.6100  144.7606  151.2973 LP  0  0  0  0  0  0  0  0  0  0  0  0  # atno 17343 bound_to 10162
  155.9778  130.4758  150.6615 LP  0  0  0  0  0  0  0  0  0  0  0  0  # atno 17370 bound_to 10713
  157.4257  131.0842  151.1088 LP  0  0  0  0  0  0  0  0  0  0  0  0  # atno 17371 bound_to 10713
  140.8110  134.3399  157.5412 LP  0  0  0  0  0  0  0  0  0  0  0  0  # atno 17394 bound_to 11000
  139.8757  134.9254  156.3373 LP  0  0  0  0  0  0  0  0  0  0  0  0  # atno 17395 bound_to 11000

$$$$
