AV-unprocessed.smi:1205|AV-procd|sdf|5045|dock3
  -GOLD-   22720 4 73D 1   1.00000     0.00000
 Structure written by MMmdl.
 49 50  0  0  0  0  0  0  0  0  2 V2000
  137.3661  137.2390  154.3731 C   0  0  0  0  0  0  0  0  0  0  0  0
  138.6847  137.8848  154.0642 C   0  0  0  0  0  0  0  0  0  0  0  0
  139.8410  137.2865  153.4845 C   0  0  0  0  0  0  0  0  0  0  0  0
  140.7266  138.3283  153.4356 C   0  0  0  0  0  0  0  0  0  0  0  0
  142.0024  138.3444  152.9660 N   0  0  0  0  0  0  0  0  0  0  0  0
  142.8644  137.3203  152.8415 C   0  0  0  0  0  0  0  0  0  0  0  0
  142.6349  136.1492  153.1444 O   0  0  0  0  0  0  0  0  0  0  0  0
  144.0389  137.7330  152.3439 N   0  0  0  0  0  0  0  0  0  0  0  0
  145.1885  136.8689  152.0947 C   0  0  0  0  0  0  0  0  0  0  0  0
  145.7580  136.2481  153.3965 C   0  0  2  0  0  0  0  0  0  0  0  0
  146.3346  137.3073  154.3555 C   0  0  0  0  0  0  0  0  0  0  0  0
  146.7552  135.1668  153.1448 N   0  3  2  0  0  0  0  0  0  0  0  0
  146.2638  134.0222  152.3301 C   0  0  0  0  0  0  0  0  0  0  0  0
  147.4273  133.1008  151.9322 C   0  0  0  0  0  0  0  0  0  0  0  0
  148.1806  132.6046  153.1735 C   0  0  0  0  0  0  0  0  0  0  0  0
  148.6495  133.7956  154.0273 C   0  0  2  0  0  0  0  0  0  0  0  0
  149.3849  133.3255  155.2899 C   0  0  0  0  0  0  0  0  0  0  0  0
  147.4549  134.7073  154.3747 C   0  0  0  0  0  0  0  0  0  0  0  0
  140.1202  139.4525  153.9509 N   0  0  0  0  0  0  0  0  0  0  0  0
  140.6451  140.7954  154.1048 C   0  0  0  0  0  0  0  0  0  0  0  0
  138.8572  139.1731  154.3387 N   0  0  0  0  0  0  0  0  0  0  0  0
  137.3746  136.1808  154.1114 H   0  0  0  0  0  0  0  0  0  0  0  0
  136.5575  137.7120  153.8154 H   0  0  0  0  0  0  0  0  0  0  0  0
  137.1299  137.3158  155.4345 H   0  0  0  0  0  0  0  0  0  0  0  0
  139.9745  136.2646  153.1631 H   0  0  0  0  0  0  0  0  0  0  0  0
  142.3448  139.2520  152.6872 H   0  0  0  0  0  0  0  0  0  0  0  0
  144.1448  138.7117  152.1192 H   0  0  0  0  0  0  0  0  0  0  0  0
  144.9048  136.0940  151.3812 H   0  0  0  0  0  0  0  0  0  0  0  0
  145.9432  137.4810  151.6016 H   0  0  0  0  0  0  0  0  0  0  0  0
  144.9318  135.7843  153.9372 H   0  0  0  0  0  0  0  0  0  0  0  0
  145.5626  138.0014  154.6884 H   0  0  0  0  0  0  0  0  0  0  0  0
  147.1209  137.8987  153.8869 H   0  0  0  0  0  0  0  0  0  0  0  0
  146.7529  136.8415  155.2483 H   0  0  0  0  0  0  0  0  0  0  0  0
  145.5252  133.4502  152.8932 H   0  0  0  0  0  0  0  0  0  0  0  0
  145.7700  134.3796  151.4272 H   0  0  0  0  0  0  0  0  0  0  0  0
  147.0515  132.2515  151.3610 H   0  0  0  0  0  0  0  0  0  0  0  0
  148.1134  133.6373  151.2753 H   0  0  0  0  0  0  0  0  0  0  0  0
  147.5286  131.9580  153.7626 H   0  0  0  0  0  0  0  0  0  0  0  0
  149.0332  131.9953  152.8712 H   0  0  0  0  0  0  0  0  0  0  0  0
  149.3564  134.3782  153.4346 H   0  0  0  0  0  0  0  0  0  0  0  0
  148.7342  132.7280  155.9293 H   0  0  0  0  0  0  0  0  0  0  0  0
  149.7408  134.1731  155.8764 H   0  0  0  0  0  0  0  0  0  0  0  0
  150.2519  132.7154  155.0345 H   0  0  0  0  0  0  0  0  0  0  0  0
  147.8158  135.5702  154.9361 H   0  0  0  0  0  0  0  0  0  0  0  0
  146.7556  134.1779  155.0232 H   0  0  0  0  0  0  0  0  0  0  0  0
  141.6396  140.7544  154.5498 H   0  0  0  0  0  0  0  0  0  0  0  0
  139.9962  141.3884  154.7509 H   0  0  0  0  0  0  0  0  0  0  0  0
  140.7094  141.2765  153.1286 H   0  0  0  0  0  0  0  0  0  0  0  0
  147.4748  135.6067  152.5890 H   0  0  0  0  0  0  0  0  0  0  0  0
  1  2  1  0  0  0  0
  1 22  1  0  0  0  0
  1 23  1  0  0  0  0
  1 24  1  0  0  0  0
  2 21  2  0  0  0  0
  2  3  1  0  0  0  0
  3  4  2  0  0  0  0
  3 25  1  0  0  0  0
  4  5  1  0  0  0  0
  4 19  1  0  0  0  0
  5  6  1  0  0  0  0
  5 26  1  0  0  0  0
  6  7  2  0  0  0  0
  6  8  1  0  0  0  0
  8  9  1  0  0  0  0
  8 27  1  0  0  0  0
  9 10  1  0  0  0  0
  9 28  1  0  0  0  0
  9 29  1  0  0  0  0
 10 11  1  0  0  0  0
 10 12  1  0  0  0  0
 10 30  1  0  0  0  0
 11 31  1  0  0  0  0
 11 32  1  0  0  0  0
 11 33  1  0  0  0  0
 12 18  1  0  0  0  0
 12 13  1  0  0  0  0
 12 49  1  0  0  0  0
 13 14  1  0  0  0  0
 13 34  1  0  0  0  0
 13 35  1  0  0  0  0
 14 15  1  0  0  0  0
 14 36  1  0  0  0  0
 14 37  1  0  0  0  0
 15 16  1  0  0  0  0
 15 38  1  0  0  0  0
 15 39  1  0  0  0  0
 16 17  1  0  0  0  0
 16 18  1  0  0  0  0
 16 40  1  0  0  0  0
 17 41  1  0  0  0  0
 17 42  1  0  0  0  0
 17 43  1  0  0  0  0
 18 44  1  0  0  0  0
 18 45  1  0  0  0  0
 19 20  1  0  0  0  0
 19 21  1  0  0  0  0
 20 46  1  0  0  0  0
 20 47  1  0  0  0  0
 20 48  1  0  0  0  0
M  CHG  1  12   1
M  END
> <s_m_source_file>
AV-unprocessed.smi

> <i_m_source_file_index>
1205

> <i_lp_mmshare_version>
43012

> <i_f3d_flags>
0

> <s_epik_input>
W0NIM11jMVtjSF1jKG4objEpW0NIM10pW05IXUMoPU8pW05IXVtDSDJdW0NASF0oW0NIM10pTjJbQ0gyXVtDSDJdW0NIMl1bQ0BASF0oW0NIM10pW0NIMl0y

> <s_epik_cmdline>
J2VwaWtfcHl0aG9uJywgJy1waCcsICc3LjAnLCAnLXRuJywgJzgnLCAnLW1hJywgJzIwMCcsICctbWV0YWxfYmluZGluZycsICctaW1hZScsICc8aW5maWxlLm1hZT4nLCAnLW9tYWUnLCAnPG91dGZpbGUubWFlPic=

> <r_lp_tautomer_probability>
1

> <r_epik_Ionization_Penalty>
0.0020309

> <r_epik_Ionization_Penalty_Charging>
0.00195276

> <r_epik_Ionization_Penalty_Neutral>
7.81448e-05

> <r_epik_State_Penalty>
0.00133177

> <r_epik_Charging_Adjusted_Penalty>
0.00328452

> <i_epik_Tot_Q>
1

> <i_epik_Tot_abs_Q>
1

> <r_epik_Metal_State_Penalty>
-0

> <b_epik_Metal_Only>
0

> <s_lp_Force_Field>
OPLS_2005

> <r_lp_Energy>
21.6269

> <b_lp_Chiralities_Consistent>
1

> <s_lp_Variant>
AV-unprocessed.smi:1205-7

> <Gold.Version>
5.8.1

> <Gold.Id.Protein>
6NUR|6NUR_protein|mol2

> <Gold.PLP.Fitness>
46.6549

> <Gold.PLP.PLP>
-35.1038

> <Gold.PLP.part.hbond>
-4.0000

> <Gold.PLP.part.metal>
0.0000

> <Gold.PLP.part.buried>
-2.5035

> <Gold.PLP.part.nonpolar>
-27.6845

> <Gold.PLP.part.repulsive>
0.2665

> <Gold.PLP.ligand.clash>
0.0000

> <Gold.PLP.ligand.torsion>
0.2578

> <Gold.PLP.Chemscore.Hbond>
3.9760

> <Gold.PLP.Chemscore.CHOScore>
0.0000

> <Gold.PLP.Chemscore.Metal>
0.0000

> <Gold.Chemscore.Hbonds>
donor molecule, donor type, donor heavy atom, donor atom, acceptor molecule, acceptor atom, score
      L1  H     5    26       P1 10175  1.00
      L1  H     8    27       P1 10175  0.96
      L1  H    12    49       P1  7948  2.00

> <Gold.PLP.Chemscore.Internal.Correction>
0.1387

> <Gold.Rescore>
     Score         DG    S(hbond)    S(metal)    S(lipo)     H(rot)  DE(clash)    DE(int)     intcor
     18.51     -19.54       2.88        0.00      69.99       1.47       0.11       0.93       ----

> <Gold.Chemscore.Fitness>
18.5064

> <Gold.Chemscore.DG>
-19.5424

> <Gold.Chemscore.ZeroCoef>
-5.4800

> <Gold.Chemscore.Hbond>
2.8822

> <Gold.Chemscore.Metal>
0.0000

> <Gold.Chemscore.Lipo>
69.9873

> <Gold.Chemscore.Internal_Hbond>
0.0000

> <Gold.Chemscore.DEClash>
0.1107

> <Gold.Chemscore.DEInternal>
0.9253

> <Gold.Chemscore.Rot>
1.4658

> <Gold.Chemscore.Internal.Correction>
   9.000000E+99

> <Gold.Chemscore.Hbonds>
donor molecule, donor type, donor heavy atom, donor atom, acceptor molecule, acceptor atom, score
      L1  H     5    26       P1 10175  0.92
      L1  H     8    27       P1 10175  0.92
      L1  H    12    49       P1  7948  1.00

> <Gold.Chemscore.Hbond.Weighted>
-9.6265

> <Gold.Chemscore.Metal.Weighted>
-0.0000

> <Gold.Chemscore.Lipo.Weighted>
-8.1885

> <Gold.Chemscore.Internal_Hbond.Weighted>
0.0000

> <Gold.Chemscore.DEClash.Weighted>
0.1107

> <Gold.Chemscore.DEInternal.Weighted>
0.9253

> <Gold.Chemscore.Rot.Weighted>
3.7526

> <Gold.Chemscore.Internal.Correction.Weighted>
   9.000000E+99

> <Gold.Protein.RotatedTorsions>
[ 6907 6896 6895 6894 ] final  132.26 input  -60.11 | X-H torsion
[ 7974 7965 7964 7962 ] final   -3.39 input  175.53 | X-H torsion
[ 8008 7997 7996 7995 ] final -162.61 input   59.86 | X-H torsion
[ 10167 10162 10161 10158 ] final   70.44 input  -65.29 | X-H torsion
[ 10718 10713 10712 10709 ] final  125.99 input   66.30 | X-H torsion
[ 10763 10752 10751 10750 ] final   47.78 input  -60.55 | X-H torsion
[ 11005 11000 10999 10996 ] final  118.18 input  -57.11 | X-H torsion

> <Gold.Protein.ActiveResidues>
 VAL166  LYS551  ARG553  GLY616  TRP617  ASP618  TYR619  PRO620  LYS621  CYS622 
 ASP623  PHE694  ASN695  SER759  ASP760  ASP761  ALA762  ILE779  LEU786  VAL792 
 PHE793  MET794  SER795  GLU796  ALA797  LYS798  CYS799  TRP800  GLU811  SER814 

> <Gold.Protein.RotatedAtoms>
  152.3342  133.5993  159.5830 H   0  0  0  0  0  0  0  0  0  0  0  0  # atno 6907 bound_to 6896
  150.7441  133.9821  159.3588 H   0  0  0  0  0  0  0  0  0  0  0  0  # atno 6908 bound_to 6896
  151.7692  135.0791  160.0408 H   0  0  0  0  0  0  0  0  0  0  0  0  # atno 6909 bound_to 6896
  146.2390  140.1714  142.8332 H   0  0  0  0  0  0  0  0  0  0  0  0  # atno 7974 bound_to 7965
  155.8092  140.0903  157.1913 H   0  0  0  0  0  0  0  0  0  0  0  0  # atno 8008 bound_to 7997
  154.3980  140.1458  156.3426 H   0  0  0  0  0  0  0  0  0  0  0  0  # atno 8009 bound_to 7997
  155.8382  140.3440  155.5618 H   0  0  0  0  0  0  0  0  0  0  0  0  # atno 8010 bound_to 7997
  140.0569  144.5265  150.7322 H   0  0  0  0  0  0  0  0  0  0  0  0  # atno 10167 bound_to 10162
  157.5457  131.1095  150.8786 H   0  0  0  0  0  0  0  0  0  0  0  0  # atno 10718 bound_to 10713
  152.9797  135.5965  154.3819 H   0  0  0  0  0  0  0  0  0  0  0  0  # atno 10763 bound_to 10752
  154.3483  135.2767  155.2388 H   0  0  0  0  0  0  0  0  0  0  0  0  # atno 10764 bound_to 10752
  154.4438  135.6006  153.6202 H   0  0  0  0  0  0  0  0  0  0  0  0  # atno 10765 bound_to 10752
  139.9100  134.9618  156.7465 H   0  0  0  0  0  0  0  0  0  0  0  0  # atno 11005 bound_to 11000
  145.0009  140.8631  143.5282 LP  0  0  0  0  0  0  0  0  0  0  0  0  # atno 17320 bound_to 7965
  145.1733  139.2392  143.5331 LP  0  0  0  0  0  0  0  0  0  0  0  0  # atno 17321 bound_to 7965
  140.7190  143.2571  151.4340 LP  0  0  0  0  0  0  0  0  0  0  0  0  # atno 17342 bound_to 10162
  139.5918  144.1483  152.2097 LP  0  0  0  0  0  0  0  0  0  0  0  0  # atno 17343 bound_to 10162
  156.9326  130.5355  149.5279 LP  0  0  0  0  0  0  0  0  0  0  0  0  # atno 17370 bound_to 10713
  156.0533  130.5599  150.9037 LP  0  0  0  0  0  0  0  0  0  0  0  0  # atno 17371 bound_to 10713
  140.6808  133.9476  155.7909 LP  0  0  0  0  0  0  0  0  0  0  0  0  # atno 17394 bound_to 11000
  141.0511  134.0483  157.3782 LP  0  0  0  0  0  0  0  0  0  0  0  0  # atno 17395 bound_to 11000

$$$$
