AV-unprocessed.smi:1524|AV-procd|sdf|6139|dock10
  -GOLD-   22720 6283D 1   1.00000     0.00000
 Structure written by MMmdl.
 35 36  0  0  0  0  0  0  0  0  1 V2000
  146.3393  137.8220  153.8607 O   0  0  0  0  0  0  0  0  0  0  0  0
  145.9365  138.2742  152.7911 C   0  0  0  0  0  0  0  0  0  0  0  0
  145.1568  137.6123  151.9115 N   0  0  0  0  0  0  0  0  0  0  0  0
  144.6115  136.3214  151.9986 C   0  0  0  0  0  0  0  0  0  0  0  0
  144.9436  135.2820  151.1893 C   0  0  0  0  0  0  0  0  0  0  0  0
  144.3459  133.9659  151.3408 C   0  0  0  0  0  0  0  0  0  0  0  0
  144.6637  132.8316  150.3788 C   0  0  0  0  0  0  0  0  0  0  0  0
  145.9788  132.7067  150.1958 F   0  0  0  0  0  0  0  0  0  0  0  0
  144.1923  131.6708  150.8345 F   0  0  0  0  0  0  0  0  0  0  0  0
  144.1008  133.0715  149.1953 F   0  0  0  0  0  0  0  0  0  0  0  0
  143.4352  133.8297  152.3226 C   0  0  0  0  0  0  0  0  0  0  0  0
  143.1065  134.8872  153.1738 N   0  0  0  0  0  0  0  0  0  0  0  0
  143.6357  136.1279  153.0836 C   0  0  0  0  0  0  0  0  0  0  0  0
  143.2967  137.0077  153.8746 O   0  0  0  0  0  0  0  0  0  0  0  0
  146.2883  139.5087  152.3874 N   0  0  0  0  0  0  0  0  0  0  0  0
  147.1189  140.4929  153.0857 C   0  0  0  0  0  0  0  0  0  0  0  0
  148.4609  139.8768  153.5221 C   0  0  0  0  0  0  0  0  0  0  0  0
  149.2492  140.8583  154.4047 C   0  0  0  0  0  0  0  0  0  0  0  0
  148.4647  141.2428  155.5284 O   0  0  0  0  0  0  0  0  0  0  0  0
  147.2728  141.9296  155.1624 C   0  0  0  0  0  0  0  0  0  0  0  0
  146.3716  141.0077  154.3251 C   0  0  0  0  0  0  0  0  0  0  0  0
  142.4280  134.6997  153.8980 H   0  0  0  0  0  0  0  0  0  0  0  0
  144.9695  138.0870  151.0403 H   0  0  0  0  0  0  0  0  0  0  0  0
  145.6845  135.3976  150.4151 H   0  0  0  0  0  0  0  0  0  0  0  0
  142.8930  132.9183  152.5272 H   0  0  0  0  0  0  0  0  0  0  0  0
  145.9592  139.7887  151.4746 H   0  0  0  0  0  0  0  0  0  0  0  0
  147.3096  141.3467  152.4327 H   0  0  0  0  0  0  0  0  0  0  0  0
  148.2824  138.9575  154.0818 H   0  0  0  0  0  0  0  0  0  0  0  0
  149.0597  139.6011  152.6534 H   0  0  0  0  0  0  0  0  0  0  0  0
  150.1662  140.3883  154.7603 H   0  0  0  0  0  0  0  0  0  0  0  0
  149.5443  141.7412  153.8355 H   0  0  0  0  0  0  0  0  0  0  0  0
  146.7524  142.2384  156.0690 H   0  0  0  0  0  0  0  0  0  0  0  0
  147.5186  142.8387  154.6114 H   0  0  0  0  0  0  0  0  0  0  0  0
  145.4677  141.5405  154.0274 H   0  0  0  0  0  0  0  0  0  0  0  0
  146.0502  140.1671  154.9419 H   0  0  0  0  0  0  0  0  0  0  0  0
  1  2  2  0  0  0  0
  2  3  1  0  0  0  0
  2 15  1  0  0  0  0
  3  4  1  0  0  0  0
  3 23  1  0  0  0  0
  4 13  1  0  0  0  0
  4  5  2  0  0  0  0
  5  6  1  0  0  0  0
  5 24  1  0  0  0  0
  6  7  1  0  0  0  0
  6 11  2  0  0  0  0
  7  8  1  0  0  0  0
  7  9  1  0  0  0  0
  7 10  1  0  0  0  0
 11 12  1  0  0  0  0
 11 25  1  0  0  0  0
 12 22  1  0  0  0  0
 12 13  1  0  0  0  0
 13 14  2  0  0  0  0
 15 16  1  0  0  0  0
 15 26  1  0  0  0  0
 16 21  1  0  0  0  0
 16 17  1  0  0  0  0
 16 27  1  0  0  0  0
 17 18  1  0  0  0  0
 17 28  1  0  0  0  0
 17 29  1  0  0  0  0
 18 19  1  0  0  0  0
 18 30  1  0  0  0  0
 18 31  1  0  0  0  0
 19 20  1  0  0  0  0
 20 21  1  0  0  0  0
 20 32  1  0  0  0  0
 20 33  1  0  0  0  0
 21 34  1  0  0  0  0
 21 35  1  0  0  0  0
M  END
> <s_m_source_file>
AV-unprocessed.smi

> <i_m_source_file_index>
1524

> <i_lp_mmshare_version>
43012

> <i_f3d_flags>
0

> <s_epik_input>
W0NIMl0xW0NIMl1PW0NIMl1bQ0gyXVtDSF0xW05IXUMoPU8pW05IXWMyW2NIXWMoQyhGKShGKUYpW2NIXVtuSF1jMj1P

> <s_epik_cmdline>
J2VwaWtfcHl0aG9uJywgJy1waCcsICc3LjAnLCAnLXRuJywgJzgnLCAnLW1hJywgJzIwMCcsICctbWV0YWxfYmluZGluZycsICctaW1hZScsICc8aW5maWxlLm1hZT4nLCAnLW9tYWUnLCAnPG91dGZpbGUubWFlPic=

> <r_lp_tautomer_probability>
1

> <r_epik_Ionization_Penalty>
0.00380781

> <r_epik_Ionization_Penalty_Charging>
0.00378827

> <r_epik_Ionization_Penalty_Neutral>
1.95401e-05

> <r_epik_State_Penalty>
-0

> <r_epik_Charging_Adjusted_Penalty>
0.00378827

> <i_epik_Tot_Q>
0

> <i_epik_Tot_abs_Q>
0

> <r_epik_Metal_State_Penalty>
0.371078

> <b_epik_Metal_Only>
0

> <s_lp_Force_Field>
OPLS_2005

> <r_lp_Energy>
30.03

> <b_lp_Chiralities_Consistent>
1

> <s_lp_Variant>
AV-unprocessed.smi:1524-1

> <Gold.Version>
5.8.1

> <Gold.Id.Protein>
6NUR|6NUR_protein|mol2

> <Gold.PLP.Fitness>
37.8638

> <Gold.PLP.PLP>
-35.3234

> <Gold.PLP.part.hbond>
-2.2625

> <Gold.PLP.part.metal>
0.0000

> <Gold.PLP.part.buried>
0.4504

> <Gold.PLP.part.nonpolar>
-34.1883

> <Gold.PLP.part.repulsive>
0.3975

> <Gold.PLP.ligand.clash>
0.7543

> <Gold.PLP.ligand.torsion>
1.1441

> <Gold.PLP.Chemscore.Hbond>
1.0000

> <Gold.PLP.Chemscore.CHOScore>
0.8509

> <Gold.PLP.Chemscore.Metal>
0.0000

> <Gold.Chemscore.Hbonds>
donor molecule, donor type, donor heavy atom, donor atom, acceptor molecule, acceptor atom, score
      L1  H     3    23       P1 10171  1.00
      L1  C    11    25       P1 10957  0.86

> <Gold.PLP.Chemscore.Internal.Correction>
0.0301

> <Gold.Rescore>
     Score         DG    S(hbond)    S(metal)    S(lipo)     H(rot)  DE(clash)    DE(int)     intcor
     10.58     -12.82       0.97        0.00      56.93       1.00       0.21       2.03       ----

> <Gold.Chemscore.Fitness>
10.5800

> <Gold.Chemscore.DG>
-12.8209

> <Gold.Chemscore.ZeroCoef>
-5.4800

> <Gold.Chemscore.Hbond>
0.9700

> <Gold.Chemscore.Metal>
0.0000

> <Gold.Chemscore.Lipo>
56.9329

> <Gold.Chemscore.Internal_Hbond>
0.0000

> <Gold.Chemscore.DEClash>
0.2076

> <Gold.Chemscore.DEInternal>
2.0334

> <Gold.Chemscore.Rot>
1.0000

> <Gold.Chemscore.Internal.Correction>
   9.000000E+99

> <Gold.Chemscore.Hbonds>
donor molecule, donor type, donor heavy atom, donor atom, acceptor molecule, acceptor atom, score
      L1  H     3    23       P1 10171  0.95

> <Gold.Chemscore.Hbond.Weighted>
-3.2398

> <Gold.Chemscore.Metal.Weighted>
-0.0000

> <Gold.Chemscore.Lipo.Weighted>
-6.6611

> <Gold.Chemscore.Internal_Hbond.Weighted>
0.0000

> <Gold.Chemscore.DEClash.Weighted>
0.2076

> <Gold.Chemscore.DEInternal.Weighted>
2.0334

> <Gold.Chemscore.Rot.Weighted>
2.5600

> <Gold.Chemscore.Internal.Correction.Weighted>
   9.000000E+99

> <Gold.Protein.RotatedTorsions>
[ 6907 6896 6895 6894 ] final  153.45 input  -60.11 | X-H torsion
[ 7974 7965 7964 7962 ] final  161.12 input  175.53 | X-H torsion
[ 8008 7997 7996 7995 ] final -155.54 input   59.86 | X-H torsion
[ 10167 10162 10161 10158 ] final  -85.85 input  -65.29 | X-H torsion
[ 10718 10713 10712 10709 ] final -179.28 input   66.30 | X-H torsion
[ 10763 10752 10751 10750 ] final  -79.33 input  -60.55 | X-H torsion
[ 11005 11000 10999 10996 ] final -154.74 input  -57.11 | X-H torsion

> <Gold.Protein.ActiveResidues>
 VAL166  LYS551  ARG553  GLY616  TRP617  ASP618  TYR619  PRO620  LYS621  CYS622 
 ASP623  PHE694  ASN695  SER759  ASP760  ASP761  ALA762  ILE779  LEU786  VAL792 
 PHE793  MET794  SER795  GLU796  ALA797  LYS798  CYS799  TRP800  GLU811  SER814 

> <Gold.Protein.RotatedAtoms>
  152.0725  133.4113  159.4465 H   0  0  0  0  0  0  0  0  0  0  0  0  # atno 6907 bound_to 6896
  150.6863  134.3075  159.4741 H   0  0  0  0  0  0  0  0  0  0  0  0  # atno 6908 bound_to 6896
  152.0908  134.9407  160.0622 H   0  0  0  0  0  0  0  0  0  0  0  0  # atno 6909 bound_to 6896
  144.7702  139.7853  143.6300 H   0  0  0  0  0  0  0  0  0  0  0  0  # atno 7974 bound_to 7965
  155.7034  140.0769  157.2401 H   0  0  0  0  0  0  0  0  0  0  0  0  # atno 8008 bound_to 7997
  154.4069  140.1643  156.2270 H   0  0  0  0  0  0  0  0  0  0  0  0  # atno 8009 bound_to 7997
  155.9347  140.3389  155.6281 H   0  0  0  0  0  0  0  0  0  0  0  0  # atno 8010 bound_to 7997
  140.3998  143.2668  151.9157 H   0  0  0  0  0  0  0  0  0  0  0  0  # atno 10167 bound_to 10162
  156.8567  130.9737  151.3087 H   0  0  0  0  0  0  0  0  0  0  0  0  # atno 10718 bound_to 10713
  154.5372  135.5699  153.6808 H   0  0  0  0  0  0  0  0  0  0  0  0  # atno 10763 bound_to 10752
  152.9954  135.6219  154.2550 H   0  0  0  0  0  0  0  0  0  0  0  0  # atno 10764 bound_to 10752
  154.2479  135.2860  155.2808 H   0  0  0  0  0  0  0  0  0  0  0  0  # atno 10765 bound_to 10752
  140.6941  134.4009  157.5216 H   0  0  0  0  0  0  0  0  0  0  0  0  # atno 11005 bound_to 11000
  146.1842  139.5049  142.9847 LP  0  0  0  0  0  0  0  0  0  0  0  0  # atno 17320 bound_to 7965
  145.6348  141.0297  143.1844 LP  0  0  0  0  0  0  0  0  0  0  0  0  # atno 17321 bound_to 7965
  139.4785  144.5645  151.8187 LP  0  0  0  0  0  0  0  0  0  0  0  0  # atno 17342 bound_to 10162
  140.4752  144.1529  150.5924 LP  0  0  0  0  0  0  0  0  0  0  0  0  # atno 17343 bound_to 10162
  157.6273  130.8701  149.9212 LP  0  0  0  0  0  0  0  0  0  0  0  0  # atno 17370 bound_to 10713
  156.0799  130.3674  150.0602 LP  0  0  0  0  0  0  0  0  0  0  0  0  # atno 17371 bound_to 10713
  139.8915  134.8778  156.2316 LP  0  0  0  0  0  0  0  0  0  0  0  0  # atno 17394 bound_to 11000
  141.0217  133.7037  156.1280 LP  0  0  0  0  0  0  0  0  0  0  0  0  # atno 17395 bound_to 11000

$$$$
