AV-unprocessed.smi:67|AV-procd|sdf|632|dock9
  -GOLD-   2262016523D 1   1.00000     0.00000
 Structure written by MMmdl.
 49 51  0  0  0  0  0  0  0  0  3 V2000
  146.7852  132.7619  149.8631 O   0  0  0  0  0  0  0  0  0  0  0  0
  145.7024  132.8646  150.7707 C   0  0  2  0  0  0  0  0  0  0  0  0
  146.2401  132.7959  152.2183 C   0  0  0  0  0  0  0  0  0  0  0  0
  147.1371  131.6284  152.4339 N   0  3  2  0  0  0  0  0  0  0  0  0
  146.4064  130.3363  152.4885 C   0  0  0  0  0  0  0  0  0  0  0  0
  147.3810  129.1477  152.5627 C   0  0  0  0  0  0  0  0  0  0  0  0
  148.3458  129.2726  153.7524 C   0  0  2  0  0  0  0  0  0  0  0  0
  147.5773  129.1390  154.9466 O   0  0  0  0  0  0  0  0  0  0  0  0
  148.1858  129.2674  156.1787 C   0  0  0  0  0  0  0  0  0  0  0  0
  149.2725  128.4079  156.4377 C   0  0  0  0  0  0  0  0  0  0  0  0
  149.9602  128.4647  157.6642 C   0  0  0  0  0  0  0  0  0  0  0  0
  149.5661  129.3863  158.6510 C   0  0  0  0  0  0  0  0  0  0  0  0
  148.4804  130.2559  158.4134 C   0  0  0  0  0  0  0  0  0  0  0  0
  148.0350  131.2634  159.4628 C   0  0  0  0  0  0  0  0  0  0  0  0
  146.7534  131.0577  159.7669 F   0  0  0  0  0  0  0  0  0  0  0  0
  148.7533  131.1689  160.5823 F   0  0  0  0  0  0  0  0  0  0  0  0
  148.1676  132.4963  158.9746 F   0  0  0  0  0  0  0  0  0  0  0  0
  147.7992  130.1952  157.1788 C   0  0  0  0  0  0  0  0  0  0  0  0
  149.0539  130.6416  153.6907 C   0  0  0  0  0  0  0  0  0  0  0  0
  148.0423  131.7966  153.6006 C   0  0  0  0  0  0  0  0  0  0  0  0
  144.6474  131.8037  150.4399 C   0  0  0  0  0  0  0  0  0  0  0  0
  143.8709  132.4044  149.2661 C   0  0  0  0  0  0  0  0  0  0  0  0
  143.9591  133.8692  149.4208 N   0  3  0  0  0  0  0  0  0  0  0  0
  144.9581  134.1760  150.4651 C   0  0  0  0  0  0  0  0  0  0  0  0
  147.4707  132.2450  150.2598 H   0  0  0  0  0  0  0  0  0  0  0  0
  146.7487  133.7239  152.4852 H   0  0  0  0  0  0  0  0  0  0  0  0
  145.3880  132.7308  152.8967 H   0  0  0  0  0  0  0  0  0  0  0  0
  145.7347  130.3315  153.3485 H   0  0  0  0  0  0  0  0  0  0  0  0
  145.7848  130.2303  151.5984 H   0  0  0  0  0  0  0  0  0  0  0  0
  146.8244  128.2121  152.6308 H   0  0  0  0  0  0  0  0  0  0  0  0
  147.9544  129.0947  151.6362 H   0  0  0  0  0  0  0  0  0  0  0  0
  149.0671  128.4589  153.6716 H   0  0  0  0  0  0  0  0  0  0  0  0
  149.5838  127.6965  155.6868 H   0  0  0  0  0  0  0  0  0  0  0  0
  150.7920  127.8007  157.8478 H   0  0  0  0  0  0  0  0  0  0  0  0
  150.1046  129.4192  159.5864 H   0  0  0  0  0  0  0  0  0  0  0  0
  146.9764  130.8763  157.0276 H   0  0  0  0  0  0  0  0  0  0  0  0
  149.7009  130.7885  154.5549 H   0  0  0  0  0  0  0  0  0  0  0  0
  149.7079  130.6688  152.8181 H   0  0  0  0  0  0  0  0  0  0  0  0
  148.5825  132.7397  153.5203 H   0  0  0  0  0  0  0  0  0  0  0  0
  147.4527  131.8499  154.5174 H   0  0  0  0  0  0  0  0  0  0  0  0
  145.0727  130.8259  150.2090 H   0  0  0  0  0  0  0  0  0  0  0  0
  143.9723  131.6760  151.2875 H   0  0  0  0  0  0  0  0  0  0  0  0
  144.3443  132.1301  148.3225 H   0  0  0  0  0  0  0  0  0  0  0  0
  142.8348  132.0665  149.2333 H   0  0  0  0  0  0  0  0  0  0  0  0
  144.2431  134.2775  148.5413 H   0  0  0  0  0  0  0  0  0  0  0  0
  144.4096  134.5144  151.3448 H   0  0  0  0  0  0  0  0  0  0  0  0
  145.6200  134.9888  150.1629 H   0  0  0  0  0  0  0  0  0  0  0  0
  143.0617  134.2451  149.6929 H   0  0  0  0  0  0  0  0  0  0  0  0
  147.7288  131.5772  151.6167 H   0  0  0  0  0  0  0  0  0  0  0  0
  1  2  1  0  0  0  0
  1 25  1  0  0  0  0
  2 24  1  0  0  0  0
  2  3  1  0  0  0  0
  2 21  1  0  0  0  0
  3  4  1  0  0  0  0
  3 26  1  0  0  0  0
  3 27  1  0  0  0  0
  4 20  1  0  0  0  0
  4  5  1  0  0  0  0
  4 49  1  0  0  0  0
  5  6  1  0  0  0  0
  5 28  1  0  0  0  0
  5 29  1  0  0  0  0
  6  7  1  0  0  0  0
  6 30  1  0  0  0  0
  6 31  1  0  0  0  0
  7  8  1  0  0  0  0
  7 19  1  0  0  0  0
  7 32  1  0  0  0  0
  8  9  1  0  0  0  0
  9 18  1  0  0  0  0
  9 10  2  0  0  0  0
 10 11  1  0  0  0  0
 10 33  1  0  0  0  0
 11 12  2  0  0  0  0
 11 34  1  0  0  0  0
 12 13  1  0  0  0  0
 12 35  1  0  0  0  0
 13 14  1  0  0  0  0
 13 18  2  0  0  0  0
 14 15  1  0  0  0  0
 14 16  1  0  0  0  0
 14 17  1  0  0  0  0
 18 36  1  0  0  0  0
 19 20  1  0  0  0  0
 19 37  1  0  0  0  0
 19 38  1  0  0  0  0
 20 39  1  0  0  0  0
 20 40  1  0  0  0  0
 21 22  1  0  0  0  0
 21 41  1  0  0  0  0
 21 42  1  0  0  0  0
 22 23  1  0  0  0  0
 22 43  1  0  0  0  0
 22 44  1  0  0  0  0
 23 24  1  0  0  0  0
 23 45  1  0  0  0  0
 23 48  1  0  0  0  0
 24 46  1  0  0  0  0
 24 47  1  0  0  0  0
M  CHG  1   4   1
M  CHG  1  23   1
M  END
> <s_m_source_file>
AV-unprocessed.smi

> <i_m_source_file_index>
67

> <i_lp_mmshare_version>
43012

> <i_f3d_flags>
0

> <s_epik_input>
W0NIMl0xW05IXVtDSDJdW0NIMl1bQ0BAXTEoW09IXSlbQ0gyXU4yW0NIMl1bQ0gyXVtDSF0oW0NIMl1bQ0gyXTIpT2MzW2NIXVtjSF1bY0hdYyhDKEYpKEYpRilbY0hdMw==

> <s_epik_cmdline>
J2VwaWtfcHl0aG9uJywgJy1waCcsICc3LjAnLCAnLXRuJywgJzgnLCAnLW1hJywgJzIwMCcsICctbWV0YWxfYmluZGluZycsICctaW1hZScsICc8aW5maWxlLm1hZT4nLCAnLW9tYWUnLCAnPG91dGZpbGUubWFlPic=

> <r_lp_tautomer_probability>
1

> <r_epik_Ionization_Penalty>
0.0989853

> <r_epik_Ionization_Penalty_Charging>
0.0989662

> <r_epik_Ionization_Penalty_Neutral>
1.91014e-05

> <r_epik_State_Penalty>
0.0852826

> <r_epik_Charging_Adjusted_Penalty>
0.184249

> <i_epik_Tot_Q>
2

> <i_epik_Tot_abs_Q>
2

> <r_epik_Metal_State_Penalty>
0.0849414

> <b_epik_Metal_Only>
0

> <s_lp_Force_Field>
OPLS_2005

> <r_lp_Energy>
57.0803

> <b_lp_Chiralities_Consistent>
1

> <s_lp_Variant>
AV-unprocessed.smi:67-4

> <Gold.Version>
5.8.1

> <Gold.Id.Protein>
6NUR|6NUR_protein|mol2

> <Gold.PLP.Fitness>
43.3102

> <Gold.PLP.PLP>
-30.4505

> <Gold.PLP.part.hbond>
-5.7448

> <Gold.PLP.part.metal>
0.0000

> <Gold.PLP.part.buried>
-2.2200

> <Gold.PLP.part.nonpolar>
-23.5428

> <Gold.PLP.part.repulsive>
0.1337

> <Gold.PLP.ligand.clash>
0.0000

> <Gold.PLP.ligand.torsion>
0.2543

> <Gold.PLP.Chemscore.Hbond>
4.3488

> <Gold.PLP.Chemscore.CHOScore>
0.0000

> <Gold.PLP.Chemscore.Metal>
0.0000

> <Gold.Chemscore.Hbonds>
donor molecule, donor type, donor heavy atom, donor atom, acceptor molecule, acceptor atom, score
      L1  H     1    25       P1 10747  0.99
      L1  H     4    49       P1 10747  1.00
      L1  H    23    45       P1  7921  0.50
      L1  H    23    48       P1 10186  1.85

> <Gold.PLP.Chemscore.Internal.Correction>
0.3219

> <Gold.Rescore>
     Score         DG    S(hbond)    S(metal)    S(lipo)     H(rot)  DE(clash)    DE(int)     intcor
     19.61     -20.59       3.40        0.00      80.89       2.24       0.68       0.30       ----

> <Gold.Chemscore.Fitness>
19.6061

> <Gold.Chemscore.DG>
-20.5907

> <Gold.Chemscore.ZeroCoef>
-5.4800

> <Gold.Chemscore.Hbond>
3.4039

> <Gold.Chemscore.Metal>
0.0000

> <Gold.Chemscore.Lipo>
80.8885

> <Gold.Chemscore.Internal_Hbond>
0.0000

> <Gold.Chemscore.DEClash>
0.6807

> <Gold.Chemscore.DEInternal>
0.3038

> <Gold.Chemscore.Rot>
2.2352

> <Gold.Chemscore.Internal.Correction>
   9.000000E+99

> <Gold.Chemscore.Hbonds>
donor molecule, donor type, donor heavy atom, donor atom, acceptor molecule, acceptor atom, score
      L1  H     1    25       P1 10747  0.90
      L1  H     4    49       P1 10747  0.98
      L1  H    23    45       P1  7921  0.49
      L1  H    23    48       P1 10186  0.86

> <Gold.Chemscore.Hbond.Weighted>
-11.3689

> <Gold.Chemscore.Metal.Weighted>
-0.0000

> <Gold.Chemscore.Lipo.Weighted>
-9.4640

> <Gold.Chemscore.Internal_Hbond.Weighted>
0.0000

> <Gold.Chemscore.DEClash.Weighted>
0.6807

> <Gold.Chemscore.DEInternal.Weighted>
0.3038

> <Gold.Chemscore.Rot.Weighted>
5.7221

> <Gold.Chemscore.Internal.Correction.Weighted>
   9.000000E+99

> <Gold.Protein.RotatedTorsions>
[ 6907 6896 6895 6894 ] final -151.39 input  -60.11 | X-H torsion
[ 7974 7965 7964 7962 ] final   -1.27 input  175.53 | X-H torsion
[ 8008 7997 7996 7995 ] final  -34.21 input   59.86 | X-H torsion
[ 10167 10162 10161 10158 ] final   78.53 input  -65.29 | X-H torsion
[ 10718 10713 10712 10709 ] final  -24.58 input   66.30 | X-H torsion
[ 10763 10752 10751 10750 ] final   37.56 input  -60.55 | X-H torsion
[ 11005 11000 10999 10996 ] final  -66.38 input  -57.11 | X-H torsion

> <Gold.Protein.ActiveResidues>
 VAL166  LYS551  ARG553  GLY616  TRP617  ASP618  TYR619  PRO620  LYS621  CYS622 
 ASP623  PHE694  ASN695  SER759  ASP760  ASP761  ALA762  ILE779  LEU786  VAL792 
 PHE793  MET794  SER795  GLU796  ALA797  LYS798  CYS799  TRP800  GLU811  SER814 

> <Gold.Protein.RotatedAtoms>
  151.2124  133.4548  159.2598 H   0  0  0  0  0  0  0  0  0  0  0  0  # atno 6907 bound_to 6896
  151.0963  134.9946  159.8437 H   0  0  0  0  0  0  0  0  0  0  0  0  # atno 6908 bound_to 6896
  152.5439  134.2054  159.8781 H   0  0  0  0  0  0  0  0  0  0  0  0  # atno 6909 bound_to 6896
  146.2419  140.1395  142.8336 H   0  0  0  0  0  0  0  0  0  0  0  0  # atno 7974 bound_to 7965
  154.4127  140.1690  156.2012 H   0  0  0  0  0  0  0  0  0  0  0  0  # atno 8008 bound_to 7997
  155.9522  140.3400  155.6394 H   0  0  0  0  0  0  0  0  0  0  0  0  # atno 8009 bound_to 7997
  155.6855  140.0727  157.2459 H   0  0  0  0  0  0  0  0  0  0  0  0  # atno 8010 bound_to 7997
  139.9699  144.5902  150.7995 H   0  0  0  0  0  0  0  0  0  0  0  0  # atno 10167 bound_to 10162
  156.4758  130.4534  149.6841 H   0  0  0  0  0  0  0  0  0  0  0  0  # atno 10718 bound_to 10713
  153.0033  135.6274  154.2165 H   0  0  0  0  0  0  0  0  0  0  0  0  # atno 10763 bound_to 10752
  154.1908  135.2809  155.3024 H   0  0  0  0  0  0  0  0  0  0  0  0  # atno 10764 bound_to 10752
  154.5761  135.5662  153.7200 H   0  0  0  0  0  0  0  0  0  0  0  0  # atno 10765 bound_to 10752
  141.1480  133.6698  156.6130 H   0  0  0  0  0  0  0  0  0  0  0  0  # atno 11005 bound_to 11000
  145.0259  140.8831  143.5139 LP  0  0  0  0  0  0  0  0  0  0  0  0  # atno 17320 bound_to 7965
  145.1451  139.2548  143.5470 LP  0  0  0  0  0  0  0  0  0  0  0  0  # atno 17321 bound_to 7965
  140.7525  143.2992  151.3125 LP  0  0  0  0  0  0  0  0  0  0  0  0  # atno 17342 bound_to 10162
  139.6489  144.0399  152.2611 LP  0  0  0  0  0  0  0  0  0  0  0  0  # atno 17343 bound_to 10162
  156.3572  130.7462  151.2430 LP  0  0  0  0  0  0  0  0  0  0  0  0  # atno 17370 bound_to 10713
  157.7487  131.0360  150.4391 LP  0  0  0  0  0  0  0  0  0  0  0  0  # atno 17371 bound_to 10713
  140.3599  134.7696  157.4527 LP  0  0  0  0  0  0  0  0  0  0  0  0  # atno 17394 bound_to 11000
  140.0793  134.5753  155.8557 LP  0  0  0  0  0  0  0  0  0  0  0  0  # atno 17395 bound_to 11000

$$$$
