AV-unprocessed.smi:2571|AV-procd|sdf|10108|dock5
  -GOLD-   2272014123D 1   1.00000     0.00000
 Structure written by MMmdl.
 38 40  0  0  0  0  0  0  0  0  1 V2000
  152.4511  138.3413  155.1304 C   0  0  0  0  0  0  0  0  0  0  0  0
  151.2349  138.5345  154.4226 O   0  0  0  0  0  0  0  0  0  0  0  0
  150.3988  139.5499  154.8350 C   0  0  0  0  0  0  0  0  0  0  0  0
  149.3214  139.8771  153.9868 C   0  0  0  0  0  0  0  0  0  0  0  0
  148.4177  140.8993  154.3324 C   0  0  0  0  0  0  0  0  0  0  0  0
  148.5840  141.6099  155.5350 C   0  0  0  0  0  0  0  0  0  0  0  0
  149.6576  141.3012  156.3952 C   0  0  0  0  0  0  0  0  0  0  0  0
  149.8354  142.0683  157.6958 C   0  0  2  0  0  0  0  0  0  0  0  0
  148.9127  143.1352  157.8093 O   0  0  0  0  0  0  0  0  0  0  0  0
  151.2792  142.5896  157.8467 C   0  0  0  0  0  0  0  0  0  0  0  0
  151.5899  142.9959  159.2088 N   0  0  0  0  0  0  0  0  0  0  0  0
  150.9799  144.0878  159.7375 N   0  0  0  0  0  0  0  0  0  0  0  0
  151.4648  144.2116  160.9715 C   0  0  0  0  0  0  0  0  0  0  0  0
  152.4119  143.1956  161.2767 C   0  0  0  0  0  0  0  0  0  0  0  0
  153.2309  142.8590  162.4371 C   0  0  0  0  0  0  0  0  0  0  0  0
  154.0115  141.8271  162.3585 N   0  0  0  0  0  0  0  0  0  0  0  0
  154.0754  141.0502  161.1961 N   0  0  0  0  0  0  0  0  0  0  0  0
  155.0024  139.9231  161.2638 C   0  0  0  0  0  0  0  0  0  0  0  0
  153.3548  141.2807  160.0572 C   0  0  0  0  0  0  0  0  0  0  0  0
  153.4298  140.5875  159.0427 O   0  0  0  0  0  0  0  0  0  0  0  0
  152.4559  142.4574  160.1401 C   0  0  0  0  0  0  0  0  0  0  0  0
  150.5590  140.2716  156.0449 C   0  0  0  0  0  0  0  0  0  0  0  0
  152.9953  137.5064  154.6891 H   0  0  0  0  0  0  0  0  0  0  0  0
  152.2686  138.0987  156.1780 H   0  0  0  0  0  0  0  0  0  0  0  0
  153.0925  139.2216  155.0693 H   0  0  0  0  0  0  0  0  0  0  0  0
  149.1854  139.3371  153.0611 H   0  0  0  0  0  0  0  0  0  0  0  0
  147.5959  141.1381  153.6736 H   0  0  0  0  0  0  0  0  0  0  0  0
  147.8847  142.3916  155.7932 H   0  0  0  0  0  0  0  0  0  0  0  0
  149.6250  141.3912  158.5248 H   0  0  0  0  0  0  0  0  0  0  0  0
  148.7375  143.4716  156.9439 H   0  0  0  0  0  0  0  0  0  0  0  0
  151.9849  141.8107  157.5540 H   0  0  0  0  0  0  0  0  0  0  0  0
  151.4635  143.4268  157.1743 H   0  0  0  0  0  0  0  0  0  0  0  0
  151.1184  145.0241  161.5930 H   0  0  0  0  0  0  0  0  0  0  0  0
  153.1835  143.4631  163.3431 H   0  0  0  0  0  0  0  0  0  0  0  0
  154.4767  138.9822  161.0954 H   0  0  0  0  0  0  0  0  0  0  0  0
  155.4948  139.8564  162.2353 H   0  0  0  0  0  0  0  0  0  0  0  0
  155.7810  140.0205  160.5059 H   0  0  0  0  0  0  0  0  0  0  0  0
  151.3692  140.0507  156.7234 H   0  0  0  0  0  0  0  0  0  0  0  0
  1  2  1  0  0  0  0
  1 23  1  0  0  0  0
  1 24  1  0  0  0  0
  1 25  1  0  0  0  0
  2  3  1  0  0  0  0
  3 22  1  0  0  0  0
  3  4  2  0  0  0  0
  4  5  1  0  0  0  0
  4 26  1  0  0  0  0
  5  6  2  0  0  0  0
  5 27  1  0  0  0  0
  6  7  1  0  0  0  0
  6 28  1  0  0  0  0
  7  8  1  0  0  0  0
  7 22  2  0  0  0  0
  8  9  1  0  0  0  0
  8 10  1  0  0  0  0
  8 29  1  0  0  0  0
  9 30  1  0  0  0  0
 10 11  1  0  0  0  0
 10 31  1  0  0  0  0
 10 32  1  0  0  0  0
 11 21  1  0  0  0  0
 11 12  1  0  0  0  0
 12 13  2  0  0  0  0
 13 14  1  0  0  0  0
 13 33  1  0  0  0  0
 14 21  2  0  0  0  0
 14 15  1  0  0  0  0
 15 16  2  0  0  0  0
 15 34  1  0  0  0  0
 16 17  1  0  0  0  0
 17 18  1  0  0  0  0
 17 19  1  0  0  0  0
 18 35  1  0  0  0  0
 18 36  1  0  0  0  0
 18 37  1  0  0  0  0
 19 20  2  0  0  0  0
 19 21  1  0  0  0  0
 22 38  1  0  0  0  0
M  END
> <s_m_source_file>
AV-unprocessed.smi

> <i_m_source_file_index>
2571

> <i_lp_mmshare_version>
43012

> <i_f3d_flags>
0

> <s_epik_input>
W0NIM11PYzFbY0hdW2NIXVtjSF1jKFtjSF0xKVtDQEhdKFtPSF0pW0NIMl1uKG5bY0hdMiljKGMyMyljKD1PKW4oW0NIM10pbltjSF0z

> <s_epik_cmdline>
J2VwaWtfcHl0aG9uJywgJy1waCcsICc3LjAnLCAnLXRuJywgJzgnLCAnLW1hJywgJzIwMCcsICctbWV0YWxfYmluZGluZycsICctaW1hZScsICc8aW5maWxlLm1hZT4nLCAnLW9tYWUnLCAnPG91dGZpbGUubWFlPic=

> <r_lp_tautomer_probability>
1

> <r_epik_Ionization_Penalty>
1.38887e-06

> <r_epik_Ionization_Penalty_Charging>
1.65421e-10

> <r_epik_Ionization_Penalty_Neutral>
1.38871e-06

> <r_epik_State_Penalty>
-0

> <r_epik_Charging_Adjusted_Penalty>
1.65421e-10

> <i_epik_Tot_Q>
0

> <i_epik_Tot_abs_Q>
0

> <r_epik_Metal_State_Penalty>
-0

> <b_epik_Metal_Only>
0

> <s_lp_Force_Field>
OPLS_2005

> <r_lp_Energy>
30.8007

> <b_lp_Chiralities_Consistent>
1

> <s_lp_Variant>
AV-unprocessed.smi:2571-1

> <Gold.Version>
5.8.1

> <Gold.Id.Protein>
6NUR|6NUR_protein|mol2

> <Gold.PLP.Fitness>
51.2316

> <Gold.PLP.PLP>
-47.2868

> <Gold.PLP.part.hbond>
-3.6473

> <Gold.PLP.part.metal>
0.0000

> <Gold.PLP.part.buried>
0.0001

> <Gold.PLP.part.nonpolar>
-42.9419

> <Gold.PLP.part.repulsive>
0.2516

> <Gold.PLP.ligand.clash>
0.0000

> <Gold.PLP.ligand.torsion>
0.3753

> <Gold.PLP.Chemscore.Hbond>
1.5478

> <Gold.PLP.Chemscore.CHOScore>
0.0000

> <Gold.PLP.Chemscore.Metal>
0.0000

> <Gold.Chemscore.Hbonds>
donor molecule, donor type, donor heavy atom, donor atom, acceptor molecule, acceptor atom, score
      L1  H     9    30       P1  8028  1.00
      P1  H  7997  8008       L1    20  0.16

> <Gold.PLP.Chemscore.Internal.Correction>
0.0519

> <Gold.Rescore>
     Score         DG    S(hbond)    S(metal)    S(lipo)     H(rot)  DE(clash)    DE(int)     intcor
     17.07     -19.25       1.77        0.00     115.62       2.21       1.74       0.44       ----

> <Gold.Chemscore.Fitness>
17.0749

> <Gold.Chemscore.DG>
-19.2504

> <Gold.Chemscore.ZeroCoef>
-5.4800

> <Gold.Chemscore.Hbond>
1.7702

> <Gold.Chemscore.Metal>
0.0000

> <Gold.Chemscore.Lipo>
115.6174

> <Gold.Chemscore.Internal_Hbond>
0.0000

> <Gold.Chemscore.DEClash>
1.7371

> <Gold.Chemscore.DEInternal>
0.4383

> <Gold.Chemscore.Rot>
2.2146

> <Gold.Chemscore.Internal.Correction>
   9.000000E+99

> <Gold.Chemscore.Hbonds>
donor molecule, donor type, donor heavy atom, donor atom, acceptor molecule, acceptor atom, score
      L1  H     9    30       P1  8028  0.43
      P1  H  7997  8008       L1    20  0.16

> <Gold.Chemscore.Hbond.Weighted>
-5.9124

> <Gold.Chemscore.Metal.Weighted>
-0.0000

> <Gold.Chemscore.Lipo.Weighted>
-13.5272

> <Gold.Chemscore.Internal_Hbond.Weighted>
0.0000

> <Gold.Chemscore.DEClash.Weighted>
1.7371

> <Gold.Chemscore.DEInternal.Weighted>
0.4383

> <Gold.Chemscore.Rot.Weighted>
5.6693

> <Gold.Chemscore.Internal.Correction.Weighted>
   9.000000E+99

> <Gold.Protein.RotatedTorsions>
[ 6907 6896 6895 6894 ] final   38.91 input  -60.11 | X-H torsion
[ 7974 7965 7964 7962 ] final   17.22 input  175.53 | X-H torsion
[ 8008 7997 7996 7995 ] final  -96.01 input   59.86 | X-H torsion
[ 10167 10162 10161 10158 ] final -178.10 input  -65.29 | X-H torsion
[ 10718 10713 10712 10709 ] final -169.14 input   66.30 | X-H torsion
[ 10763 10752 10751 10750 ] final  119.04 input  -60.55 | X-H torsion
[ 11005 11000 10999 10996 ] final  -89.11 input  -57.11 | X-H torsion

> <Gold.Protein.ActiveResidues>
 VAL166  LYS551  ARG553  GLY616  TRP617  ASP618  TYR619  PRO620  LYS621  CYS622 
 ASP623  PHE694  ASN695  SER759  ASP760  ASP761  ALA762  ILE779  LEU786  VAL792 
 PHE793  MET794  SER795  GLU796  ALA797  LYS798  CYS799  TRP800  GLU811  SER814 

> <Gold.Protein.RotatedAtoms>
  152.1627  134.8899  160.0540 H   0  0  0  0  0  0  0  0  0  0  0  0  # atno 6907 bound_to 6896
  151.9889  133.3779  159.4145 H   0  0  0  0  0  0  0  0  0  0  0  0  # atno 6908 bound_to 6896
  150.6890  134.3881  159.5108 H   0  0  0  0  0  0  0  0  0  0  0  0  # atno 6909 bound_to 6896
  146.2225  139.8634  142.8600 H   0  0  0  0  0  0  0  0  0  0  0  0  # atno 7974 bound_to 7965
  154.7689  140.0475  157.1035 H   0  0  0  0  0  0  0  0  0  0  0  0  # atno 8008 bound_to 7997
  154.9845  140.3105  155.4913 H   0  0  0  0  0  0  0  0  0  0  0  0  # atno 8009 bound_to 7997
  156.2917  140.2230  156.4946 H   0  0  0  0  0  0  0  0  0  0  0  0  # atno 8010 bound_to 7997
  139.5448  144.2265  152.0966 H   0  0  0  0  0  0  0  0  0  0  0  0  # atno 10167 bound_to 10162
  156.7073  130.9219  151.3086 H   0  0  0  0  0  0  0  0  0  0  0  0  # atno 10718 bound_to 10713
  153.5769  135.3491  155.2860 H   0  0  0  0  0  0  0  0  0  0  0  0  # atno 10763 bound_to 10752
  154.8674  135.4173  154.2663 H   0  0  0  0  0  0  0  0  0  0  0  0  # atno 10764 bound_to 10752
  153.3441  135.7051  153.6913 H   0  0  0  0  0  0  0  0  0  0  0  0  # atno 10765 bound_to 10752
  141.1590  133.7610  156.9548 H   0  0  0  0  0  0  0  0  0  0  0  0  # atno 11005 bound_to 11000
  145.2682  141.0100  143.3787 LP  0  0  0  0  0  0  0  0  0  0  0  0  # atno 17320 bound_to 7965
  144.9245  139.4372  143.6525 LP  0  0  0  0  0  0  0  0  0  0  0  0  # atno 17321 bound_to 7965
  140.1750  144.4900  150.6559 LP  0  0  0  0  0  0  0  0  0  0  0  0  # atno 17342 bound_to 10162
  140.6692  143.2279  151.5667 LP  0  0  0  0  0  0  0  0  0  0  0  0  # atno 17343 bound_to 10162
  157.6950  130.9272  150.0619 LP  0  0  0  0  0  0  0  0  0  0  0  0  # atno 17370 bound_to 10713
  156.1686  130.3646  149.9197 LP  0  0  0  0  0  0  0  0  0  0  0  0  # atno 17371 bound_to 10713
  140.1232  134.9403  157.2233 LP  0  0  0  0  0  0  0  0  0  0  0  0  # atno 17394 bound_to 11000
  140.3045  134.3093  155.7281 LP  0  0  0  0  0  0  0  0  0  0  0  0  # atno 17395 bound_to 11000

$$$$
