AV-unprocessed.smi:3078|AV-procd|sdf|11732|dock10
  -GOLD-   2272017133D 1   1.00000     0.00000
 Structure written by MMmdl.
 23 23  0  0  0  0  0  0  0  0  2 V2000
  148.2201  133.0121  152.5601 C   0  0  0  0  0  0  0  0  0  0  0  0
  146.9348  133.1407  151.9072 N   0  0  0  0  0  0  0  0  0  0  0  0
  146.1938  132.1722  151.2655 C   0  0  0  0  0  0  0  0  0  0  0  0
  145.0509  132.7659  150.8039 C   0  0  0  0  0  0  0  0  0  0  0  0
  143.8974  132.1604  150.0479 C   0  0  1  0  0  0  0  0  0  0  0  0
  142.6466  132.4127  150.7412 N   0  0  0  0  0  0  0  0  0  0  0  0
  143.8074  132.7493  148.6286 C   0  0  0  0  0  0  0  0  0  0  0  0
  142.4397  132.6670  148.0875 N   0  3  0  0  0  0  0  0  0  0  0  0
  145.1915  134.1188  151.2278 C   0  0  0  0  0  0  0  0  0  0  0  0
  146.3184  134.3396  151.8840 N   0  0  0  0  0  0  0  0  0  0  0  0
  148.5376  131.9691  152.5599 H   0  0  0  0  0  0  0  0  0  0  0  0
  148.1480  133.3599  153.5912 H   0  0  0  0  0  0  0  0  0  0  0  0
  148.9631  133.6097  152.0312 H   0  0  0  0  0  0  0  0  0  0  0  0
  146.5360  131.1503  151.1916 H   0  0  0  0  0  0  0  0  0  0  0  0
  144.0244  131.0790  149.9794 H   0  0  0  0  0  0  0  0  0  0  0  0
  142.2105  133.2448  150.3690 H   0  0  0  0  0  0  0  0  0  0  0  0
  142.0039  131.6527  150.5661 H   0  0  0  0  0  0  0  0  0  0  0  0
  144.1435  133.7873  148.6114 H   0  0  0  0  0  0  0  0  0  0  0  0
  144.4605  132.1938  147.9544 H   0  0  0  0  0  0  0  0  0  0  0  0
  142.4715  132.7174  147.0794 H   0  0  0  0  0  0  0  0  0  0  0  0
  141.8949  133.4378  148.4472 H   0  0  0  0  0  0  0  0  0  0  0  0
  144.5100  134.9432  151.0781 H   0  0  0  0  0  0  0  0  0  0  0  0
  142.0167  131.7945  148.3697 H   0  0  0  0  0  0  0  0  0  0  0  0
  1  2  1  0  0  0  0
  1 11  1  0  0  0  0
  1 12  1  0  0  0  0
  1 13  1  0  0  0  0
  2 10  1  0  0  0  0
  2  3  1  0  0  0  0
  3  4  2  0  0  0  0
  3 14  1  0  0  0  0
  4  5  1  0  0  0  0
  4  9  1  0  0  0  0
  5  6  1  0  0  0  0
  5  7  1  0  0  0  0
  5 15  1  0  0  0  0
  6 16  1  0  0  0  0
  6 17  1  0  0  0  0
  7  8  1  0  0  0  0
  7 18  1  0  0  0  0
  7 19  1  0  0  0  0
  8 20  1  0  0  0  0
  8 21  1  0  0  0  0
  8 23  1  0  0  0  0
  9 10  2  0  0  0  0
  9 22  1  0  0  0  0
M  CHG  1   8   1
M  END
> <s_m_source_file>
AV-unprocessed.smi

> <i_m_source_file_index>
3078

> <i_lp_mmshare_version>
43012

> <i_f3d_flags>
0

> <s_epik_input>
W0NIM11uMVtjSF1jKFtjSF1uMSlbQ0BIXShbTkgyXSlbQ0gyXVtOSDJd

> <s_epik_cmdline>
J2VwaWtfcHl0aG9uJywgJy1waCcsICc3LjAnLCAnLXRuJywgJzgnLCAnLW1hJywgJzIwMCcsICctbWV0YWxfYmluZGluZycsICctaW1hZScsICc8aW5maWxlLm1hZT4nLCAnLW9tYWUnLCAnPG91dGZpbGUubWFlPic=

> <r_lp_tautomer_probability>
1

> <r_epik_Ionization_Penalty>
0.0498714

> <r_epik_Ionization_Penalty_Charging>
0.00651912

> <r_epik_Ionization_Penalty_Neutral>
0.0433523

> <r_epik_State_Penalty>
0.141593

> <r_epik_Charging_Adjusted_Penalty>
0.148112

> <i_epik_Tot_Q>
1

> <i_epik_Tot_abs_Q>
1

> <r_epik_Metal_State_Penalty>
0.141584

> <b_epik_Metal_Only>
0

> <s_lp_Force_Field>
OPLS_2005

> <r_lp_Energy>
-1.23381

> <b_lp_Chiralities_Consistent>
1

> <s_lp_Variant>
AV-unprocessed.smi:3078-2

> <Gold.Version>
5.8.1

> <Gold.Id.Protein>
6NUR|6NUR_protein|mol2

> <Gold.PLP.Fitness>
44.1364

> <Gold.PLP.PLP>
-26.3311

> <Gold.PLP.part.hbond>
-4.6897

> <Gold.PLP.part.metal>
0.0000

> <Gold.PLP.part.buried>
-4.1878

> <Gold.PLP.part.nonpolar>
-18.1350

> <Gold.PLP.part.repulsive>
0.3667

> <Gold.PLP.ligand.clash>
0.0000

> <Gold.PLP.ligand.torsion>
0.3571

> <Gold.PLP.Chemscore.Hbond>
5.6245

> <Gold.PLP.Chemscore.CHOScore>
0.5478

> <Gold.PLP.Chemscore.Metal>
0.0000

> <Gold.Chemscore.Hbonds>
donor molecule, donor type, donor heavy atom, donor atom, acceptor molecule, acceptor atom, score
      L1  H     6    16       P1 10186  1.00
      L1  H     6    17       P1 10952  0.95
      L1  H     8    20       P1 10195  1.00
      L1  H     8    21       P1 10186  2.00
      L1  H     8    23       P1 10952  0.55
      L1  C     3    14       P1 10747  0.55

> <Gold.PLP.Chemscore.Internal.Correction>
0.0025

> <Gold.Rescore>
     Score         DG    S(hbond)    S(metal)    S(lipo)     H(rot)  DE(clash)    DE(int)     intcor
     21.56     -21.95       4.13        0.00      53.86       1.41       0.05       0.34       ----

> <Gold.Chemscore.Fitness>
21.5599

> <Gold.Chemscore.DG>
-21.9454

> <Gold.Chemscore.ZeroCoef>
-5.4800

> <Gold.Chemscore.Hbond>
4.1257

> <Gold.Chemscore.Metal>
0.0000

> <Gold.Chemscore.Lipo>
53.8560

> <Gold.Chemscore.Internal_Hbond>
0.0000

> <Gold.Chemscore.DEClash>
0.0479

> <Gold.Chemscore.DEInternal>
0.3377

> <Gold.Chemscore.Rot>
1.4123

> <Gold.Chemscore.Internal.Correction>
   9.000000E+99

> <Gold.Chemscore.Hbonds>
donor molecule, donor type, donor heavy atom, donor atom, acceptor molecule, acceptor atom, score
      L1  H     6    16       P1 10186  1.00
      L1  H     6    17       P1 10952  0.20
      L1  H     8    20       P1 10195  0.95
      L1  H     8    21       P1 10186  1.00
      L1  H     8    23       P1 10952  0.56

> <Gold.Chemscore.Hbond.Weighted>
-13.7797

> <Gold.Chemscore.Metal.Weighted>
-0.0000

> <Gold.Chemscore.Lipo.Weighted>
-6.3012

> <Gold.Chemscore.Internal_Hbond.Weighted>
0.0000

> <Gold.Chemscore.DEClash.Weighted>
0.0479

> <Gold.Chemscore.DEInternal.Weighted>
0.3377

> <Gold.Chemscore.Rot.Weighted>
3.6154

> <Gold.Chemscore.Internal.Correction.Weighted>
   9.000000E+99

> <Gold.Protein.RotatedTorsions>
[ 6907 6896 6895 6894 ] final  -24.93 input  -60.11 | X-H torsion
[ 7974 7965 7964 7962 ] final   53.41 input  175.53 | X-H torsion
[ 8008 7997 7996 7995 ] final    8.32 input   59.86 | X-H torsion
[ 10167 10162 10161 10158 ] final  104.75 input  -65.29 | X-H torsion
[ 10718 10713 10712 10709 ] final   34.58 input   66.30 | X-H torsion
[ 10763 10752 10751 10750 ] final  -85.15 input  -60.55 | X-H torsion
[ 11005 11000 10999 10996 ] final  179.46 input  -57.11 | X-H torsion

> <Gold.Protein.ActiveResidues>
 VAL166  LYS551  ARG553  GLY616  TRP617  ASP618  TYR619  PRO620  LYS621  CYS622 
 ASP623  PHE694  ASN695  SER759  ASP760  ASP761  ALA762  ILE779  LEU786  VAL792 
 PHE793  MET794  SER795  GLU796  ALA797  LYS798  CYS799  TRP800  GLU811  SER814 

> <Gold.Protein.RotatedAtoms>
  151.1824  135.0367  159.8797 H   0  0  0  0  0  0  0  0  0  0  0  0  # atno 6907 bound_to 6896
  152.5444  134.1048  159.8343 H   0  0  0  0  0  0  0  0  0  0  0  0  # atno 6908 bound_to 6896
  151.1166  133.5087  159.2636 H   0  0  0  0  0  0  0  0  0  0  0  0  # atno 6909 bound_to 6896
  145.9714  139.4153  143.0188 H   0  0  0  0  0  0  0  0  0  0  0  0  # atno 7974 bound_to 7965
  154.7653  140.2792  155.6181 H   0  0  0  0  0  0  0  0  0  0  0  0  # atno 8008 bound_to 7997
  156.2923  140.2652  156.2369 H   0  0  0  0  0  0  0  0  0  0  0  0  # atno 8009 bound_to 7997
  154.9967  140.0373  157.2332 H   0  0  0  0  0  0  0  0  0  0  0  0  # atno 8010 bound_to 7997
  139.7151  144.7070  151.0963 H   0  0  0  0  0  0  0  0  0  0  0  0  # atno 10167 bound_to 10162
  157.3120  130.7404  149.6731 H   0  0  0  0  0  0  0  0  0  0  0  0  # atno 10718 bound_to 10713
  154.6078  135.5495  153.7441 H   0  0  0  0  0  0  0  0  0  0  0  0  # atno 10763 bound_to 10752
  153.0182  135.6382  154.1622 H   0  0  0  0  0  0  0  0  0  0  0  0  # atno 10764 bound_to 10752
  154.1561  135.2900  155.3102 H   0  0  0  0  0  0  0  0  0  0  0  0  # atno 10765 bound_to 10752
  140.4064  134.6731  157.4590 H   0  0  0  0  0  0  0  0  0  0  0  0  # atno 11005 bound_to 11000
  145.7900  140.9818  143.1054 LP  0  0  0  0  0  0  0  0  0  0  0  0  # atno 17320 bound_to 7965
  144.6838  139.9671  143.7481 LP  0  0  0  0  0  0  0  0  0  0  0  0  # atno 17321 bound_to 7965
  140.7742  143.5241  150.9501 LP  0  0  0  0  0  0  0  0  0  0  0  0  # atno 17342 bound_to 10162
  139.8926  143.6934  152.3143 LP  0  0  0  0  0  0  0  0  0  0  0  0  # atno 17343 bound_to 10162
  155.9678  130.4248  150.4626 LP  0  0  0  0  0  0  0  0  0  0  0  0  # atno 17370 bound_to 10713
  157.2626  131.0570  151.2310 LP  0  0  0  0  0  0  0  0  0  0  0  0  # atno 17371 bound_to 10713
  140.0299  134.6422  155.9121 LP  0  0  0  0  0  0  0  0  0  0  0  0  # atno 17394 bound_to 11000
  141.1837  133.6551  156.5129 LP  0  0  0  0  0  0  0  0  0  0  0  0  # atno 17395 bound_to 11000

$$$$
