AV-unprocessed.smi:2658|AV-procd|sdf|10311|dock2
  -GOLD-   2272014323D 1   1.00000     0.00000
 Structure written by MMmdl.
 47 49  0  0  0  0  0  0  0  0  2 V2000
  152.0809  144.9323  160.6372 C   0  0  0  0  0  0  0  0  0  0  0  0
  151.9517  143.7732  159.6636 C   0  0  0  0  0  0  0  0  0  0  0  0
  151.1395  143.9405  158.5193 C   0  0  0  0  0  0  0  0  0  0  0  0
  151.0417  142.8626  157.6476 C   0  0  0  0  0  0  0  0  0  0  0  0
  150.3362  142.7157  156.4513 N   0  3  0  0  0  0  0  0  0  0  0  0
  150.5476  141.4677  155.9495 C   0  0  0  0  0  0  0  0  0  0  0  0
  151.3768  140.8146  156.8079 N   0  0  0  0  0  0  0  0  0  0  0  0
  151.9079  139.4452  156.7383 C   0  0  0  0  0  0  0  0  0  0  0  0
  151.3060  138.6229  155.5813 C   0  0  1  0  0  0  0  0  0  0  0  0
  151.7140  139.1812  154.3477 O   0  0  0  0  0  0  0  0  0  0  0  0
  151.7647  137.1572  155.6276 C   0  0  0  0  0  0  0  0  0  0  0  0
  151.1922  136.5289  156.7710 O   0  0  0  0  0  0  0  0  0  0  0  0
  150.6803  135.2552  156.6320 C   0  0  0  0  0  0  0  0  0  0  0  0
  150.5052  134.7297  155.3379 C   0  0  0  0  0  0  0  0  0  0  0  0
  149.9766  133.4303  155.2230 C   0  0  0  0  0  0  0  0  0  0  0  0
  149.7581  132.7989  153.8611 C   0  0  0  0  0  0  0  0  0  0  0  0
  149.6626  132.7543  156.4234 C   0  0  0  0  0  0  0  0  0  0  0  0
  149.0869  131.3505  156.4216 C   0  0  0  0  0  0  0  0  0  0  0  0
  149.8560  133.3126  157.6412 N   0  0  0  0  0  0  0  0  0  0  0  0
  150.3582  134.5470  157.7454 N   0  0  0  0  0  0  0  0  0  0  0  0
  151.7141  141.6472  157.8820 C   0  0  0  0  0  0  0  0  0  0  0  0
  152.5195  141.4668  159.0041 C   0  0  0  0  0  0  0  0  0  0  0  0
  152.6341  142.5522  159.9019 C   0  0  0  0  0  0  0  0  0  0  0  0
  153.5088  142.3846  161.1328 C   0  0  0  0  0  0  0  0  0  0  0  0
  151.5127  145.8006  160.3023 H   0  0  0  0  0  0  0  0  0  0  0  0
  153.1235  145.2354  160.7367 H   0  0  0  0  0  0  0  0  0  0  0  0
  151.7068  144.6485  161.6213 H   0  0  0  0  0  0  0  0  0  0  0  0
  150.6181  144.8675  158.3303 H   0  0  0  0  0  0  0  0  0  0  0  0
  150.1312  141.0672  155.0363 H   0  0  0  0  0  0  0  0  0  0  0  0
  152.9958  139.4814  156.6761 H   0  0  0  0  0  0  0  0  0  0  0  0
  151.6748  138.9672  157.6904 H   0  0  0  0  0  0  0  0  0  0  0  0
  150.2180  138.6680  155.6459 H   0  0  0  0  0  0  0  0  0  0  0  0
  151.5800  138.5364  153.6695 H   0  0  0  0  0  0  0  0  0  0  0  0
  151.5011  136.6365  154.7048 H   0  0  0  0  0  0  0  0  0  0  0  0
  152.8515  137.1246  155.7254 H   0  0  0  0  0  0  0  0  0  0  0  0
  150.7677  135.3096  154.4653 H   0  0  0  0  0  0  0  0  0  0  0  0
  148.7007  132.5834  153.7069 H   0  0  0  0  0  0  0  0  0  0  0  0
  150.3176  131.8670  153.7785 H   0  0  0  0  0  0  0  0  0  0  0  0
  150.0878  133.4623  153.0610 H   0  0  0  0  0  0  0  0  0  0  0  0
  149.8001  130.6495  155.9879 H   0  0  0  0  0  0  0  0  0  0  0  0
  148.1679  131.3154  155.8365 H   0  0  0  0  0  0  0  0  0  0  0  0
  148.8539  131.0131  157.4325 H   0  0  0  0  0  0  0  0  0  0  0  0
  153.0445  140.5403  159.1833 H   0  0  0  0  0  0  0  0  0  0  0  0
  153.9567  141.3911  161.1719 H   0  0  0  0  0  0  0  0  0  0  0  0
  152.9225  142.5215  162.0417 H   0  0  0  0  0  0  0  0  0  0  0  0
  154.3187  143.1143  161.1285 H   0  0  0  0  0  0  0  0  0  0  0  0
  149.7529  143.4140  156.0082 H   0  0  0  0  0  0  0  0  0  0  0  0
  1  2  1  0  0  0  0
  1 25  1  0  0  0  0
  1 26  1  0  0  0  0
  1 27  1  0  0  0  0
  2 23  1  0  0  0  0
  2  3  2  0  0  0  0
  3  4  1  0  0  0  0
  3 28  1  0  0  0  0
  4 21  2  0  0  0  0
  4  5  1  0  0  0  0
  5  6  2  0  0  0  0
  5 47  1  0  0  0  0
  6  7  1  0  0  0  0
  6 29  1  0  0  0  0
  7  8  1  0  0  0  0
  7 21  1  0  0  0  0
  8  9  1  0  0  0  0
  8 30  1  0  0  0  0
  8 31  1  0  0  0  0
  9 10  1  0  0  0  0
  9 11  1  0  0  0  0
  9 32  1  0  0  0  0
 10 33  1  0  0  0  0
 11 12  1  0  0  0  0
 11 34  1  0  0  0  0
 11 35  1  0  0  0  0
 12 13  1  0  0  0  0
 13 20  1  0  0  0  0
 13 14  2  0  0  0  0
 14 15  1  0  0  0  0
 14 36  1  0  0  0  0
 15 16  1  0  0  0  0
 15 17  2  0  0  0  0
 16 37  1  0  0  0  0
 16 38  1  0  0  0  0
 16 39  1  0  0  0  0
 17 18  1  0  0  0  0
 17 19  1  0  0  0  0
 18 40  1  0  0  0  0
 18 41  1  0  0  0  0
 18 42  1  0  0  0  0
 19 20  2  0  0  0  0
 21 22  1  0  0  0  0
 22 23  2  0  0  0  0
 22 43  1  0  0  0  0
 23 24  1  0  0  0  0
 24 44  1  0  0  0  0
 24 45  1  0  0  0  0
 24 46  1  0  0  0  0
M  CHG  1   5   1
M  END
> <s_m_source_file>
AV-unprocessed.smi

> <i_m_source_file_index>
2658

> <i_lp_mmshare_version>
43012

> <i_f3d_flags>
0

> <s_epik_input>
W0NIM11jKFtjSF0xKWMoW0NIM10pW2NIXWMoYzEyKW4oW2NIXW4yKVtDSDJdW0NASF0oW09IXSlbQ0gyXU9jM1tjSF1jKFtDSDNdKWMoW0NIM10pbm4z

> <s_epik_cmdline>
J2VwaWtfcHl0aG9uJywgJy1waCcsICc3LjAnLCAnLXRuJywgJzgnLCAnLW1hJywgJzIwMCcsICctbWV0YWxfYmluZGluZycsICctaW1hZScsICc8aW5maWxlLm1hZT4nLCAnLW9tYWUnLCAnPG91dGZpbGUubWFlPic=

> <r_lp_tautomer_probability>
1

> <r_epik_Ionization_Penalty>
1.0494

> <r_epik_Ionization_Penalty_Charging>
1.04926

> <r_epik_Ionization_Penalty_Neutral>
0.000140304

> <r_epik_State_Penalty>
1.10197

> <r_epik_Charging_Adjusted_Penalty>
2.15123

> <i_epik_Tot_Q>
1

> <i_epik_Tot_abs_Q>
1

> <r_epik_Metal_State_Penalty>
1.19636

> <b_epik_Metal_Only>
0

> <s_lp_Force_Field>
OPLS_2005

> <r_lp_Energy>
21.0246

> <b_lp_Chiralities_Consistent>
1

> <s_lp_Variant>
AV-unprocessed.smi:2658-4

> <Gold.Version>
5.8.1

> <Gold.Id.Protein>
6NUR|6NUR_protein|mol2

> <Gold.PLP.Fitness>
56.0957

> <Gold.PLP.PLP>
-45.8598

> <Gold.PLP.part.hbond>
-3.4860

> <Gold.PLP.part.metal>
0.0000

> <Gold.PLP.part.buried>
-5.1442

> <Gold.PLP.part.nonpolar>
-37.8209

> <Gold.PLP.part.repulsive>
0.0905

> <Gold.PLP.ligand.clash>
0.0000

> <Gold.PLP.ligand.torsion>
0.5294

> <Gold.PLP.Chemscore.Hbond>
3.7200

> <Gold.PLP.Chemscore.CHOScore>
0.0000

> <Gold.PLP.Chemscore.Metal>
0.0000

> <Gold.Chemscore.Hbonds>
donor molecule, donor type, donor heavy atom, donor atom, acceptor molecule, acceptor atom, score
      L1  H     5    47       P1  8028  2.00
      P1  H  6896  6907       L1    20  0.41
      P1  H  7989  7998       L1    10  0.99

> <Gold.PLP.Chemscore.Internal.Correction>
0.1348

> <Gold.Rescore>
     Score         DG    S(hbond)    S(metal)    S(lipo)     H(rot)  DE(clash)    DE(int)     intcor
     19.18     -20.08       2.09        0.00     119.27       2.47       0.38       0.52       ----

> <Gold.Chemscore.Fitness>
19.1786

> <Gold.Chemscore.DG>
-20.0819

> <Gold.Chemscore.ZeroCoef>
-5.4800

> <Gold.Chemscore.Hbond>
2.0858

> <Gold.Chemscore.Metal>
0.0000

> <Gold.Chemscore.Lipo>
119.2706

> <Gold.Chemscore.Internal_Hbond>
0.0000

> <Gold.Chemscore.DEClash>
0.3794

> <Gold.Chemscore.DEInternal>
0.5239

> <Gold.Chemscore.Rot>
2.4685

> <Gold.Chemscore.Internal.Correction>
   9.000000E+99

> <Gold.Chemscore.Hbonds>
donor molecule, donor type, donor heavy atom, donor atom, acceptor molecule, acceptor atom, score
      L1  H     5    47       P1  8028  0.99
      P1  H  6896  6907       L1    20  0.06
      P1  H  7989  7998       L1    10  0.52

> <Gold.Chemscore.Hbond.Weighted>
-6.9666

> <Gold.Chemscore.Metal.Weighted>
-0.0000

> <Gold.Chemscore.Lipo.Weighted>
-13.9547

> <Gold.Chemscore.Internal_Hbond.Weighted>
0.0000

> <Gold.Chemscore.DEClash.Weighted>
0.3794

> <Gold.Chemscore.DEInternal.Weighted>
0.5239

> <Gold.Chemscore.Rot.Weighted>
6.3194

> <Gold.Chemscore.Internal.Correction.Weighted>
   9.000000E+99

> <Gold.Protein.RotatedTorsions>
[ 6907 6896 6895 6894 ] final  -75.50 input  -60.11 | X-H torsion
[ 7974 7965 7964 7962 ] final   34.51 input  175.53 | X-H torsion
[ 8008 7997 7996 7995 ] final  177.10 input   59.86 | X-H torsion
[ 10167 10162 10161 10158 ] final   40.96 input  -65.29 | X-H torsion
[ 10718 10713 10712 10709 ] final -110.32 input   66.30 | X-H torsion
[ 10763 10752 10751 10750 ] final   43.43 input  -60.55 | X-H torsion
[ 11005 11000 10999 10996 ] final  147.12 input  -57.11 | X-H torsion

> <Gold.Protein.ActiveResidues>
 VAL166  LYS551  ARG553  GLY616  TRP617  ASP618  TYR619  PRO620  LYS621  CYS622 
 ASP623  PHE694  ASN695  SER759  ASP760  ASP761  ALA762  ILE779  LEU786  VAL792 
 PHE793  MET794  SER795  GLU796  ALA797  LYS798  CYS799  TRP800  GLU811  SER814 

> <Gold.Protein.RotatedAtoms>
  150.7057  134.4712  159.5426 H   0  0  0  0  0  0  0  0  0  0  0  0  # atno 6907 bound_to 6896
  152.2368  134.8265  160.0475 H   0  0  0  0  0  0  0  0  0  0  0  0  # atno 6908 bound_to 6896
  151.9061  133.3514  159.3884 H   0  0  0  0  0  0  0  0  0  0  0  0  # atno 6909 bound_to 6896
  146.1348  139.6260  142.9203 H   0  0  0  0  0  0  0  0  0  0  0  0  # atno 7974 bound_to 7965
  156.0693  140.1367  156.9848 H   0  0  0  0  0  0  0  0  0  0  0  0  # atno 8008 bound_to 7997
  154.4523  140.0975  156.6706 H   0  0  0  0  0  0  0  0  0  0  0  0  # atno 8009 bound_to 7997
  155.5254  140.3457  155.4417 H   0  0  0  0  0  0  0  0  0  0  0  0  # atno 8010 bound_to 7997
  140.3690  144.2129  150.6134 H   0  0  0  0  0  0  0  0  0  0  0  0  # atno 10167 bound_to 10162
  156.0584  130.5809  150.8221 H   0  0  0  0  0  0  0  0  0  0  0  0  # atno 10718 bound_to 10713
  152.9861  135.6101  154.3111 H   0  0  0  0  0  0  0  0  0  0  0  0  # atno 10763 bound_to 10752
  154.2826  135.2776  155.2692 H   0  0  0  0  0  0  0  0  0  0  0  0  # atno 10764 bound_to 10752
  154.5024  135.5863  153.6598 H   0  0  0  0  0  0  0  0  0  0  0  0  # atno 10765 bound_to 10752
  140.0850  134.9075  157.1560 H   0  0  0  0  0  0  0  0  0  0  0  0  # atno 11005 bound_to 11000
  145.5181  141.0433  143.2450 LP  0  0  0  0  0  0  0  0  0  0  0  0  # atno 17320 bound_to 7965
  144.7728  139.6697  143.7187 LP  0  0  0  0  0  0  0  0  0  0  0  0  # atno 17321 bound_to 7965
  140.5052  143.2306  151.8619 LP  0  0  0  0  0  0  0  0  0  0  0  0  # atno 17342 bound_to 10162
  139.4805  144.5014  151.9055 LP  0  0  0  0  0  0  0  0  0  0  0  0  # atno 17343 bound_to 10162
  157.5574  131.0945  150.9609 LP  0  0  0  0  0  0  0  0  0  0  0  0  # atno 17370 bound_to 10713
  156.9854  130.5543  149.5299 LP  0  0  0  0  0  0  0  0  0  0  0  0  # atno 17371 bound_to 10713
  140.3434  134.2679  155.7209 LP  0  0  0  0  0  0  0  0  0  0  0  0  # atno 17394 bound_to 11000
  141.2059  133.7847  157.0205 LP  0  0  0  0  0  0  0  0  0  0  0  0  # atno 17395 bound_to 11000

$$$$
