AV-unprocessed.smi:734|AV-procd|sdf|3531|dock5
  -GOLD-   22720 0523D 1   1.00000     0.00000
 Structure written by MMmdl.
 38 39  0  0  0  0  0  0  0  0  3 V2000
  152.4584  144.0862  158.4222 C   0  0  0  0  0  0  0  0  0  0  0  0
  152.0900  142.6788  158.9137 C   0  0  0  0  0  0  0  0  0  0  0  0
  153.0658  142.1331  159.9664 C   0  0  0  0  0  0  0  0  0  0  0  0
  151.8889  141.7205  157.7815 C   0  0  0  0  0  0  0  0  0  0  0  0
  152.5341  140.5537  157.6884 N   0  0  0  0  0  0  0  0  0  0  0  0
  152.1717  139.8426  156.5542 N   0  0  0  0  0  0  0  0  0  0  0  0
  151.2526  140.4729  155.8101 C   0  0  0  0  0  0  0  0  0  0  0  0
  150.7638  139.9495  154.6734 N   0  5  0  0  0  0  0  0  0  0  0  0
  149.5025  140.2421  154.2859 C   0  0  0  0  0  0  0  0  0  0  0  0
  149.1100  141.3157  153.8224 O   0  0  0  0  0  0  0  0  0  0  0  0
  148.6408  139.2263  154.4370 N   0  0  0  0  0  0  0  0  0  0  0  0
  147.2266  139.2574  154.0852 C   0  0  0  0  0  0  0  0  0  0  0  0
  146.5464  137.9086  154.3815 C   0  0  0  0  0  0  0  0  0  0  0  0
  146.6286  136.9820  153.2299 N   0  3  0  0  0  0  0  0  0  0  0  0
  145.9361  137.4757  152.0062 C   0  0  0  0  0  0  0  0  0  0  0  0
  145.3061  136.2343  151.4406 C   0  0  0  0  0  0  0  0  0  0  0  0
  145.4379  135.2025  152.2665 C   0  0  0  0  0  0  0  0  0  0  0  0
  146.1773  135.5895  153.5159 C   0  0  0  0  0  0  0  0  0  0  0  0
  150.7767  142.0408  156.4602 S   0  0  0  0  0  0  0  0  0  0  0  0
  151.7014  144.4735  157.7393 H   0  0  0  0  0  0  0  0  0  0  0  0
  153.4132  144.0847  157.8950 H   0  0  0  0  0  0  0  0  0  0  0  0
  152.5404  144.7847  159.2553 H   0  0  0  0  0  0  0  0  0  0  0  0
  151.1240  142.7717  159.4117 H   0  0  0  0  0  0  0  0  0  0  0  0
  152.7284  141.1701  160.3508 H   0  0  0  0  0  0  0  0  0  0  0  0
  153.1531  142.8150  160.8125 H   0  0  0  0  0  0  0  0  0  0  0  0
  154.0629  141.9936  159.5478 H   0  0  0  0  0  0  0  0  0  0  0  0
  149.0006  138.3662  154.8248 H   0  0  0  0  0  0  0  0  0  0  0  0
  146.7505  140.0494  154.6634 H   0  0  0  0  0  0  0  0  0  0  0  0
  147.1199  139.5332  153.0350 H   0  0  0  0  0  0  0  0  0  0  0  0
  146.9841  137.4312  155.2596 H   0  0  0  0  0  0  0  0  0  0  0  0
  145.4953  138.0870  154.6135 H   0  0  0  0  0  0  0  0  0  0  0  0
  145.1585  138.2052  152.2377 H   0  0  0  0  0  0  0  0  0  0  0  0
  146.6469  137.9186  151.3083 H   0  0  0  0  0  0  0  0  0  0  0  0
  144.7968  136.2188  150.4882 H   0  0  0  0  0  0  0  0  0  0  0  0
  145.0541  134.2069  152.0989 H   0  0  0  0  0  0  0  0  0  0  0  0
  147.0286  134.9326  153.6963 H   0  0  0  0  0  0  0  0  0  0  0  0
  145.5001  135.5403  154.3698 H   0  0  0  0  0  0  0  0  0  0  0  0
  147.6042  136.9120  152.9782 H   0  0  0  0  0  0  0  0  0  0  0  0
  1  2  1  0  0  0  0
  1 20  1  0  0  0  0
  1 21  1  0  0  0  0
  1 22  1  0  0  0  0
  2  3  1  0  0  0  0
  2  4  1  0  0  0  0
  2 23  1  0  0  0  0
  3 24  1  0  0  0  0
  3 25  1  0  0  0  0
  3 26  1  0  0  0  0
  4 19  1  0  0  0  0
  4  5  2  0  0  0  0
  5  6  1  0  0  0  0
  6  7  2  0  0  0  0
  7  8  1  0  0  0  0
  7 19  1  0  0  0  0
  8  9  1  0  0  0  0
  9 10  2  0  0  0  0
  9 11  1  0  0  0  0
 11 12  1  0  0  0  0
 11 27  1  0  0  0  0
 12 13  1  0  0  0  0
 12 28  1  0  0  0  0
 12 29  1  0  0  0  0
 13 14  1  0  0  0  0
 13 30  1  0  0  0  0
 13 31  1  0  0  0  0
 14 18  1  0  0  0  0
 14 15  1  0  0  0  0
 14 38  1  0  0  0  0
 15 16  1  0  0  0  0
 15 32  1  0  0  0  0
 15 33  1  0  0  0  0
 16 17  2  0  0  0  0
 16 34  1  0  0  0  0
 17 18  1  0  0  0  0
 17 35  1  0  0  0  0
 18 36  1  0  0  0  0
 18 37  1  0  0  0  0
M  CHG  1   8  -1
M  CHG  1  14   1
M  END
> <s_m_source_file>
AV-unprocessed.smi

> <i_m_source_file_index>
734

> <i_lp_mmshare_version>
43012

> <i_f3d_flags>
0

> <s_epik_input>
W0NIM11bQ0hdKFtDSDNdKWMxbm5jKHMxKVtOSF1DKD1PKVtOSF1bQ0gyXVtDSDJdTjJbQ0gyXVtDSF09W0NIXVtDSDJdMg==

> <s_epik_cmdline>
J2VwaWtfcHl0aG9uJywgJy1waCcsICc3LjAnLCAnLXRuJywgJzgnLCAnLW1hJywgJzIwMCcsICctbWV0YWxfYmluZGluZycsICctaW1hZScsICc8aW5maWxlLm1hZT4nLCAnLW9tYWUnLCAnPG91dGZpbGUubWFlPic=

> <r_lp_tautomer_probability>
1

> <r_epik_Ionization_Penalty>
3.04352

> <r_epik_Ionization_Penalty_Charging>
2.92732

> <r_epik_Ionization_Penalty_Neutral>
0.116198

> <r_epik_State_Penalty>
2.92347

> <r_epik_Charging_Adjusted_Penalty>
5.85079

> <i_epik_Tot_Q>
0

> <i_epik_Tot_abs_Q>
2

> <r_epik_Metal_State_Penalty>
0.448048

> <b_epik_Metal_Only>
1

> <s_lp_Force_Field>
OPLS_2005

> <r_lp_Energy>
6.61646

> <b_lp_Chiralities_Consistent>
1

> <s_lp_Variant>
AV-unprocessed.smi:734-2

> <Gold.Version>
5.8.1

> <Gold.Id.Protein>
6NUR|6NUR_protein|mol2

> <Gold.PLP.Fitness>
44.0179

> <Gold.PLP.PLP>
-34.2916

> <Gold.PLP.part.hbond>
-5.0833

> <Gold.PLP.part.metal>
0.0000

> <Gold.PLP.part.buried>
-1.5884

> <Gold.PLP.part.nonpolar>
-28.1958

> <Gold.PLP.part.repulsive>
0.8307

> <Gold.PLP.ligand.clash>
0.0000

> <Gold.PLP.ligand.torsion>
1.1209

> <Gold.PLP.Chemscore.Hbond>
3.8715

> <Gold.PLP.Chemscore.CHOScore>
0.0000

> <Gold.PLP.Chemscore.Metal>
0.0000

> <Gold.Chemscore.Hbonds>
donor molecule, donor type, donor heavy atom, donor atom, acceptor molecule, acceptor atom, score
      L1  H    14    38       P1  7948  1.98
      P1  H  7989  7998       L1     8  0.95
      P1  H  7997  8009       L1     5  0.07
      P1  H  8011  8017       L1    10  0.83

> <Gold.PLP.Chemscore.Internal.Correction>
0.3537

> <Gold.Rescore>
     Score         DG    S(hbond)    S(metal)    S(lipo)     H(rot)  DE(clash)    DE(int)     intcor
     15.00     -16.31       1.81        0.00      77.76       1.68       0.06       1.25       ----

> <Gold.Chemscore.Fitness>
14.9991

> <Gold.Chemscore.DG>
-16.3149

> <Gold.Chemscore.ZeroCoef>
-5.4800

> <Gold.Chemscore.Hbond>
1.8107

> <Gold.Chemscore.Metal>
0.0000

> <Gold.Chemscore.Lipo>
77.7618

> <Gold.Chemscore.Internal_Hbond>
0.0000

> <Gold.Chemscore.DEClash>
0.0636

> <Gold.Chemscore.DEInternal>
1.2522

> <Gold.Chemscore.Rot>
1.6839

> <Gold.Chemscore.Internal.Correction>
   9.000000E+99

> <Gold.Chemscore.Hbonds>
donor molecule, donor type, donor heavy atom, donor atom, acceptor molecule, acceptor atom, score
      L1  H    14    38       P1  7948  0.94
      P1  H  7989  7998       L1     8  0.06
      P1  H  8011  8017       L1    10  0.80

> <Gold.Chemscore.Hbond.Weighted>
-6.0476

> <Gold.Chemscore.Metal.Weighted>
-0.0000

> <Gold.Chemscore.Lipo.Weighted>
-9.0981

> <Gold.Chemscore.Internal_Hbond.Weighted>
0.0000

> <Gold.Chemscore.DEClash.Weighted>
0.0636

> <Gold.Chemscore.DEInternal.Weighted>
1.2522

> <Gold.Chemscore.Rot.Weighted>
4.3108

> <Gold.Chemscore.Internal.Correction.Weighted>
   9.000000E+99

> <Gold.Protein.RotatedTorsions>
[ 6907 6896 6895 6894 ] final   -5.14 input  -60.11 | X-H torsion
[ 7974 7965 7964 7962 ] final    4.31 input  175.53 | X-H torsion
[ 8008 7997 7996 7995 ] final  151.92 input   59.86 | X-H torsion
[ 10167 10162 10161 10158 ] final   85.88 input  -65.29 | X-H torsion
[ 10718 10713 10712 10709 ] final   20.61 input   66.30 | X-H torsion
[ 10763 10752 10751 10750 ] final -174.29 input  -60.55 | X-H torsion
[ 11005 11000 10999 10996 ] final  -38.45 input  -57.11 | X-H torsion

> <Gold.Protein.ActiveResidues>
 VAL166  LYS551  ARG553  GLY616  TRP617  ASP618  TYR619  PRO620  LYS621  CYS622 
 ASP623  PHE694  ASN695  SER759  ASP760  ASP761  ALA762  ILE779  LEU786  VAL792 
 PHE793  MET794  SER795  GLU796  ALA797  LYS798  CYS799  TRP800  GLU811  SER814 

> <Gold.Protein.RotatedAtoms>
  151.4864  135.1055  159.9791 H   0  0  0  0  0  0  0  0  0  0  0  0  # atno 6907 bound_to 6896
  152.4758  133.8132  159.7025 H   0  0  0  0  0  0  0  0  0  0  0  0  # atno 6908 bound_to 6896
  150.8796  133.7329  159.2962 H   0  0  0  0  0  0  0  0  0  0  0  0  # atno 6909 bound_to 6896
  146.2444  140.0554  142.8372 H   0  0  0  0  0  0  0  0  0  0  0  0  # atno 7974 bound_to 7965
  156.2652  140.2035  156.6251 H   0  0  0  0  0  0  0  0  0  0  0  0  # atno 8008 bound_to 7997
  154.6726  140.0548  157.0206 H   0  0  0  0  0  0  0  0  0  0  0  0  # atno 8009 bound_to 7997
  155.1115  140.3216  155.4523 H   0  0  0  0  0  0  0  0  0  0  0  0  # atno 8010 bound_to 7997
  139.8932  144.6373  150.8716 H   0  0  0  0  0  0  0  0  0  0  0  0  # atno 10167 bound_to 10162
  157.1268  130.6573  149.5940 H   0  0  0  0  0  0  0  0  0  0  0  0  # atno 10718 bound_to 10713
  154.5979  135.2851  155.0566 H   0  0  0  0  0  0  0  0  0  0  0  0  # atno 10763 bound_to 10752
  154.1842  135.6451  153.5046 H   0  0  0  0  0  0  0  0  0  0  0  0  # atno 10764 bound_to 10752
  153.0146  135.5431  154.6688 H   0  0  0  0  0  0  0  0  0  0  0  0  # atno 10765 bound_to 10752
  141.0028  133.6946  156.2055 H   0  0  0  0  0  0  0  0  0  0  0  0  # atno 11005 bound_to 11000
  145.0947  140.9307  143.4748 LP  0  0  0  0  0  0  0  0  0  0  0  0  # atno 17320 bound_to 7965
  145.0734  139.3014  143.5820 LP  0  0  0  0  0  0  0  0  0  0  0  0  # atno 17321 bound_to 7965
  140.7722  143.3493  151.2046 LP  0  0  0  0  0  0  0  0  0  0  0  0  # atno 17342 bound_to 10162
  139.7091  143.9407  152.2939 LP  0  0  0  0  0  0  0  0  0  0  0  0  # atno 17343 bound_to 10162
  155.9816  130.4825  150.6838 LP  0  0  0  0  0  0  0  0  0  0  0  0  # atno 17370 bound_to 10713
  157.4427  131.0863  151.0927 LP  0  0  0  0  0  0  0  0  0  0  0  0  # atno 17371 bound_to 10713
  140.6861  134.4716  157.5589 LP  0  0  0  0  0  0  0  0  0  0  0  0  # atno 17394 bound_to 11000
  139.9048  134.8474  156.1751 LP  0  0  0  0  0  0  0  0  0  0  0  0  # atno 17395 bound_to 11000

$$$$
