#       Name:                AV-unprocessed.smi:2567
#       Creating user name   scv26
#       Creation time:       Fri Mar 27 14:10:39 2020


#       File generated by GOLD software.
#

@<TRIPOS>MOLECULE
AV-unprocessed.smi:2567
    38    39     1
SMALL
NO_CHARGES


@<TRIPOS>ATOM
      1 ****        -3.4503   0.1653  -1.0105 C.3            1 S1                 0.0000
      2 ****        -2.7859  -1.0064  -0.2612 C.3            1 S1                 0.0000
      3 ****        -3.0930  -0.9016   1.2449 C.3            1 S1                 0.0000
      4 ****        -3.4021  -2.3212  -0.7896 C.3            1 S1                 0.0000
      5 ****        -1.2916  -0.9641  -0.4765 C.2            1 S1                 0.0000
      6 ****        -0.5885  -1.9824  -0.9849 N.pl3          1 S1                 0.0000
      7 ****         0.7189  -1.6529  -1.0355 N.2            1 S1                 0.0000
      8 ****         0.7107  -0.4133  -0.5504 C.2            1 S1                 0.0000
      9 ****         1.9857   0.3512  -0.3759 C.3            1 S1                 0.0000
     10 ****         2.5944   0.1538   1.0253 C.3            1 S1                 0.0000
     11 ****         3.7890   1.0071   1.1779 N.4            1 S1                 1.0000
     12 ****         3.4808   2.4230   0.8948 C.3            1 S1                 0.0000
     13 ****         2.8328   2.5577  -0.4947 C.3            1 S1                 0.0000
     14 ****         1.6765   1.7300  -0.5697 O.3            1 S1                 0.0000
     15 ****        -0.5098   0.0667  -0.1622 N.2            1 S1                 0.0000
     16 ****        -4.5332   0.1575  -0.8812 H              1 S1                 0.0000
     17 ****        -3.2466   0.1176  -2.0809 H              1 S1                 0.0000
     18 ****        -3.0877   1.1287  -0.6502 H              1 S1                 0.0000
     19 ****        -2.7169   0.0315   1.6662 H              1 S1                 0.0000
     20 ****        -2.6343  -1.7205   1.8003 H              1 S1                 0.0000
     21 ****        -4.1662  -0.9354   1.4358 H              1 S1                 0.0000
     22 ****        -4.4821  -2.3412  -0.6380 H              1 S1                 0.0000
     23 ****        -2.9895  -3.1922  -0.2789 H              1 S1                 0.0000
     24 ****        -3.2239  -2.4462  -1.8585 H              1 S1                 0.0000
     25 ****         2.6940   0.0312  -1.1428 H              1 S1                 0.0000
     26 ****         1.8690   0.4159   1.7969 H              1 S1                 0.0000
     27 ****         2.8716  -0.8888   1.1834 H              1 S1                 0.0000
     28 ****         4.1458   0.9213   2.1190 H              1 S1                 0.0000
     29 ****         2.8066   2.8036   1.6630 H              1 S1                 0.0000
     30 ****         4.3971   3.0108   0.9505 H              1 S1                 0.0000
     31 ****         2.5391   3.5920  -0.6741 H              1 S1                 0.0000
     32 ****         3.5385   2.2864  -1.2815 H              1 S1                 0.0000
     33 ****         4.4953   0.6934   0.5275 H              1 S1                 0.0000
     34 ****        -0.9433  -2.8781  -1.2893 H              1 S1                 0.0000
     35 ****         1.4937  -2.1987  -1.3548 LP             1 S1                 0.0000
     36 ****         1.0290   2.0169   0.1364 LP             1 S1                 0.0000
     37 ****         1.2582   1.8424  -1.4710 LP             1 S1                 0.0000
     38 ****        -0.7489   0.9482   0.2451 LP             1 S1                 0.0000
@<TRIPOS>BOND
    1    1    2 1     
    2    1   16 1     
    3    1   17 1     
    4    1   18 1     
    5    2    3 1     
    6    2    4 1     
    7    2    5 1     
    8    3   19 1     
    9    3   20 1     
   10    3   21 1     
   11    4   22 1     
   12    4   23 1     
   13    4   24 1     
   14    5   15 2     
   15    5    6 1     
   16    6    7 1     
   17    6   34 1     
   18    7    8 2     
   19    8    9 1     
   20    8   15 1     
   21    9   14 1     
   22    9   10 1     
   23    9   25 1     
   24   10   11 1     
   25   10   26 1     
   26   10   27 1     
   27   11   12 1     
   28   11   28 1     
   29   11   33 1     
   30   12   13 1     
   31   12   29 1     
   32   12   30 1     
   33   13   14 1     
   34   13   31 1     
   35   13   32 1     
   36    7   35 1     
   37   14   36 1     
   38   14   37 1     
   39   15   38 1     
@<TRIPOS>SUBSTRUCTURE
      1 S1             1
@<TRIPOS>SET
LONE_PAIRS      STATIC     ATOMS    <user>   **** ""
4 35 36 37 38
DONOR_HYDROGENS      STATIC     ATOMS    <user>   **** ""
3 34 28 33
ATOM$BLUE        STATIC     ATOMS    COLORGROUP SYSTEM
4 35 36 37 38
ATOM$RED        STATIC     ATOMS    COLORGROUP SYSTEM
3 34 28 33
