AV-unprocessed.smi:2792|AV-procd|sdf|10772|dock8
  -GOLD-   2272015213D 1   1.00000     0.00000
 Structure written by MMmdl.
 44 46  0  0  0  0  0  0  0  0  1 V2000
  145.8699  137.3947  152.1447 C   0  0  0  0  0  0  0  0  0  0  0  0
  146.5019  138.7948  152.2258 C   0  0  0  0  0  0  0  0  0  0  0  0
  147.3163  139.0952  153.5081 C   0  0  1  0  0  0  0  0  0  0  0  0
  146.4166  139.2070  154.7576 C   0  0  0  0  0  0  0  0  0  0  0  0
  148.2053  138.0151  153.7217 O   0  0  0  0  0  0  0  0  0  0  0  0
  148.1654  140.3742  153.2837 C   0  0  0  0  0  0  0  0  0  0  0  0
  148.9902  140.7590  154.4198 N   0  0  0  0  0  0  0  0  0  0  0  0
  148.7256  141.7629  155.3254 C   0  0  0  0  0  0  0  0  0  0  0  0
  149.6206  141.9200  156.2625 N   0  0  0  0  0  0  0  0  0  0  0  0
  150.5806  140.9590  155.9731 C   0  0  0  0  0  0  0  0  0  0  0  0
  151.8065  140.5800  156.5782 C   0  0  0  0  0  0  0  0  0  0  0  0
  152.2638  141.2069  157.6848 N   0  0  0  0  0  0  0  0  0  0  0  0
  151.3295  141.7948  158.6396 C   0  0  0  0  0  0  0  0  0  0  0  0
  151.9469  142.2183  159.9632 C   0  0  0  0  0  0  0  0  0  0  0  0
  152.8833  141.3868  160.6147 C   0  0  0  0  0  0  0  0  0  0  0  0
  153.4552  141.7868  161.8380 C   0  0  0  0  0  0  0  0  0  0  0  0
  153.0916  143.0182  162.4166 C   0  0  0  0  0  0  0  0  0  0  0  0
  152.1539  143.8483  161.7724 C   0  0  0  0  0  0  0  0  0  0  0  0
  151.5812  143.4483  160.5492 C   0  0  0  0  0  0  0  0  0  0  0  0
  152.5110  139.5707  156.0017 N   0  0  0  0  0  0  0  0  0  0  0  0
  152.0397  138.9643  154.9078 C   0  0  0  0  0  0  0  0  0  0  0  0
  150.9100  139.2081  154.2394 N   0  0  0  0  0  0  0  0  0  0  0  0
  150.2039  140.2236  154.8145 C   0  0  0  0  0  0  0  0  0  0  0  0
  145.3789  137.2543  151.1815 H   0  0  0  0  0  0  0  0  0  0  0  0
  145.1134  137.2459  152.9145 H   0  0  0  0  0  0  0  0  0  0  0  0
  146.6177  136.6082  152.2472 H   0  0  0  0  0  0  0  0  0  0  0  0
  147.1458  138.9287  151.3552 H   0  0  0  0  0  0  0  0  0  0  0  0
  145.7088  139.5364  152.1223 H   0  0  0  0  0  0  0  0  0  0  0  0
  145.7083  140.0300  154.6580 H   0  0  0  0  0  0  0  0  0  0  0  0
  146.9971  139.3784  155.6641 H   0  0  0  0  0  0  0  0  0  0  0  0
  145.8439  138.2962  154.9302 H   0  0  0  0  0  0  0  0  0  0  0  0
  148.5734  137.7590  152.8896 H   0  0  0  0  0  0  0  0  0  0  0  0
  148.8159  140.2528  152.4161 H   0  0  0  0  0  0  0  0  0  0  0  0
  147.5097  141.2145  153.0512 H   0  0  0  0  0  0  0  0  0  0  0  0
  147.8361  142.3739  155.2726 H   0  0  0  0  0  0  0  0  0  0  0  0
  153.2323  141.4662  157.8044 H   0  0  0  0  0  0  0  0  0  0  0  0
  150.8249  142.6427  158.1745 H   0  0  0  0  0  0  0  0  0  0  0  0
  150.5542  141.0576  158.8492 H   0  0  0  0  0  0  0  0  0  0  0  0
  153.1677  140.4412  160.1767 H   0  0  0  0  0  0  0  0  0  0  0  0
  154.1732  141.1490  162.3325 H   0  0  0  0  0  0  0  0  0  0  0  0
  153.5306  143.3258  163.3543 H   0  0  0  0  0  0  0  0  0  0  0  0
  151.8742  144.7926  162.2158 H   0  0  0  0  0  0  0  0  0  0  0  0
  150.8650  144.0919  160.0595 H   0  0  0  0  0  0  0  0  0  0  0  0
  152.6556  138.1703  154.5120 H   0  0  0  0  0  0  0  0  0  0  0  0
  1  2  1  0  0  0  0
  1 24  1  0  0  0  0
  1 25  1  0  0  0  0
  1 26  1  0  0  0  0
  2  3  1  0  0  0  0
  2 27  1  0  0  0  0
  2 28  1  0  0  0  0
  3  4  1  0  0  0  0
  3  5  1  0  0  0  0
  3  6  1  0  0  0  0
  4 29  1  0  0  0  0
  4 30  1  0  0  0  0
  4 31  1  0  0  0  0
  5 32  1  0  0  0  0
  6  7  1  0  0  0  0
  6 33  1  0  0  0  0
  6 34  1  0  0  0  0
  7 23  1  0  0  0  0
  7  8  1  0  0  0  0
  8  9  2  0  0  0  0
  8 35  1  0  0  0  0
  9 10  1  0  0  0  0
 10 23  2  0  0  0  0
 10 11  1  0  0  0  0
 11 12  1  0  0  0  0
 11 20  2  0  0  0  0
 12 13  1  0  0  0  0
 12 36  1  0  0  0  0
 13 14  1  0  0  0  0
 13 37  1  0  0  0  0
 13 38  1  0  0  0  0
 14 19  1  0  0  0  0
 14 15  2  0  0  0  0
 15 16  1  0  0  0  0
 15 39  1  0  0  0  0
 16 17  2  0  0  0  0
 16 40  1  0  0  0  0
 17 18  1  0  0  0  0
 17 41  1  0  0  0  0
 18 19  2  0  0  0  0
 18 42  1  0  0  0  0
 19 43  1  0  0  0  0
 20 21  1  0  0  0  0
 21 22  2  0  0  0  0
 21 44  1  0  0  0  0
 22 23  1  0  0  0  0
M  END
> <s_m_source_file>
AV-unprocessed.smi

> <i_m_source_file_index>
2792

> <i_lp_mmshare_version>
43012

> <i_f3d_flags>
0

> <s_epik_input>
W0NIM11bQ0gyXVtDQEBdKFtDSDNdKShbT0hdKVtDSDJdbihbY0hdbjEpYyhjMTIpbltjSF1uYzJbTkhdW0NIMl1jM1tjSF1bY0hdW2NIXVtjSF1bY0hdMw==

> <s_epik_cmdline>
J2VwaWtfcHl0aG9uJywgJy1waCcsICc3LjAnLCAnLXRuJywgJzgnLCAnLW1hJywgJzIwMCcsICctbWV0YWxfYmluZGluZycsICctaW1hZScsICc8aW5maWxlLm1hZT4nLCAnLW9tYWUnLCAnPG91dGZpbGUubWFlPic=

> <r_lp_tautomer_probability>
1

> <r_epik_Ionization_Penalty>
0.00163025

> <r_epik_Ionization_Penalty_Charging>
0

> <r_epik_Ionization_Penalty_Neutral>
0.00163025

> <r_epik_State_Penalty>
-0

> <r_epik_Charging_Adjusted_Penalty>
0

> <i_epik_Tot_Q>
0

> <i_epik_Tot_abs_Q>
0

> <r_epik_Metal_State_Penalty>
-0

> <b_epik_Metal_Only>
0

> <s_lp_Force_Field>
OPLS_2005

> <r_lp_Energy>
13.0485

> <b_lp_Chiralities_Consistent>
1

> <s_lp_Variant>
AV-unprocessed.smi:2792-1

> <Gold.Version>
5.8.1

> <Gold.Id.Protein>
6NUR|6NUR_protein|mol2

> <Gold.PLP.Fitness>
50.3148

> <Gold.PLP.PLP>
-44.3061

> <Gold.PLP.part.hbond>
-2.8271

> <Gold.PLP.part.metal>
0.0000

> <Gold.PLP.part.buried>
4.9490

> <Gold.PLP.part.nonpolar>
-46.9509

> <Gold.PLP.part.repulsive>
1.4781

> <Gold.PLP.ligand.clash>
0.0000

> <Gold.PLP.ligand.torsion>
0.8314

> <Gold.PLP.Chemscore.Hbond>
2.0000

> <Gold.PLP.Chemscore.CHOScore>
0.5088

> <Gold.PLP.Chemscore.Metal>
0.0000

> <Gold.Chemscore.Hbonds>
donor molecule, donor type, donor heavy atom, donor atom, acceptor molecule, acceptor atom, score
      L1  H     5    32       P1  7948  0.85
      P1  H  7997  8009       L1    20  1.00
      L1  C     8    35       P1  8028  0.37

> <Gold.PLP.Chemscore.Internal.Correction>
0.1451

> <Gold.Rescore>
     Score         DG    S(hbond)    S(metal)    S(lipo)     H(rot)  DE(clash)    DE(int)     intcor
     12.75     -16.02       1.31        0.00     108.03       2.52       2.03       1.24       ----

> <Gold.Chemscore.Fitness>
12.7469

> <Gold.Chemscore.DG>
-16.0204

> <Gold.Chemscore.ZeroCoef>
-5.4800

> <Gold.Chemscore.Hbond>
1.3067

> <Gold.Chemscore.Metal>
0.0000

> <Gold.Chemscore.Lipo>
108.0342

> <Gold.Chemscore.Internal_Hbond>
0.0000

> <Gold.Chemscore.DEClash>
2.0304

> <Gold.Chemscore.DEInternal>
1.2431

> <Gold.Chemscore.Rot>
2.5250

> <Gold.Chemscore.Internal.Correction>
   9.000000E+99

> <Gold.Chemscore.Hbonds>
donor molecule, donor type, donor heavy atom, donor atom, acceptor molecule, acceptor atom, score
      L1  H     5    32       P1  7948  0.85
      P1  H  7997  8009       L1    20  0.44

> <Gold.Chemscore.Hbond.Weighted>
-4.3643

> <Gold.Chemscore.Metal.Weighted>
-0.0000

> <Gold.Chemscore.Lipo.Weighted>
-12.6400

> <Gold.Chemscore.Internal_Hbond.Weighted>
0.0000

> <Gold.Chemscore.DEClash.Weighted>
2.0304

> <Gold.Chemscore.DEInternal.Weighted>
1.2431

> <Gold.Chemscore.Rot.Weighted>
6.4639

> <Gold.Chemscore.Internal.Correction.Weighted>
   9.000000E+99

> <Gold.Protein.RotatedTorsions>
[ 6907 6896 6895 6894 ] final -137.33 input  -60.11 | X-H torsion
[ 7974 7965 7964 7962 ] final  -36.47 input  175.53 | X-H torsion
[ 8008 7997 7996 7995 ] final -150.57 input   59.86 | X-H torsion
[ 10167 10162 10161 10158 ] final   55.45 input  -65.29 | X-H torsion
[ 10718 10713 10712 10709 ] final  113.92 input   66.30 | X-H torsion
[ 10763 10752 10751 10750 ] final  -44.36 input  -60.55 | X-H torsion
[ 11005 11000 10999 10996 ] final   66.98 input  -57.11 | X-H torsion

> <Gold.Protein.ActiveResidues>
 VAL166  LYS551  ARG553  GLY616  TRP617  ASP618  TYR619  PRO620  LYS621  CYS622 
 ASP623  PHE694  ASN695  SER759  ASP760  ASP761  ALA762  ILE779  LEU786  VAL792 
 PHE793  MET794  SER795  GLU796  ALA797  LYS798  CYS799  TRP800  GLU811  SER814 

> <Gold.Protein.RotatedAtoms>
  151.0211  133.5876  159.2670 H   0  0  0  0  0  0  0  0  0  0  0  0  # atno 6907 bound_to 6896
  151.2992  135.0763  159.9242 H   0  0  0  0  0  0  0  0  0  0  0  0  # atno 6908 bound_to 6896
  152.5323  133.9895  159.7898 H   0  0  0  0  0  0  0  0  0  0  0  0  # atno 6909 bound_to 6896
  146.0659  140.6282  142.8975 H   0  0  0  0  0  0  0  0  0  0  0  0  # atno 7974 bound_to 7965
  155.6256  140.0686  157.2665 H   0  0  0  0  0  0  0  0  0  0  0  0  # atno 8008 bound_to 7997
  154.4218  140.1776  156.1467 H   0  0  0  0  0  0  0  0  0  0  0  0  # atno 8009 bound_to 7997
  155.9974  140.3339  155.6815 H   0  0  0  0  0  0  0  0  0  0  0  0  # atno 8010 bound_to 7997
  140.2193  144.3805  150.6457 H   0  0  0  0  0  0  0  0  0  0  0  0  # atno 10167 bound_to 10162
  157.6311  131.0991  150.7110 H   0  0  0  0  0  0  0  0  0  0  0  0  # atno 10718 bound_to 10713
  154.0109  135.6681  153.4765 H   0  0  0  0  0  0  0  0  0  0  0  0  # atno 10763 bound_to 10752
  153.0621  135.5021  154.8114 H   0  0  0  0  0  0  0  0  0  0  0  0  # atno 10764 bound_to 10752
  154.6996  135.3076  154.9324 H   0  0  0  0  0  0  0  0  0  0  0  0  # atno 10765 bound_to 10752
  139.9798  134.6762  156.0283 H   0  0  0  0  0  0  0  0  0  0  0  0  # atno 11005 bound_to 11000
  144.7202  140.4347  143.7014 LP  0  0  0  0  0  0  0  0  0  0  0  0  # atno 17320 bound_to 7965
  145.6478  139.1560  143.2879 LP  0  0  0  0  0  0  0  0  0  0  0  0  # atno 17321 bound_to 7965
  140.6266  143.2182  151.6583 LP  0  0  0  0  0  0  0  0  0  0  0  0  # atno 17342 bound_to 10162
  139.5150  144.3393  152.0755 LP  0  0  0  0  0  0  0  0  0  0  0  0  # atno 17343 bound_to 10162
  156.7449  130.4750  149.5469 LP  0  0  0  0  0  0  0  0  0  0  0  0  # atno 17370 bound_to 10713
  156.1515  130.6313  151.0602 LP  0  0  0  0  0  0  0  0  0  0  0  0  # atno 17371 bound_to 10713
  141.1472  133.6554  156.3902 LP  0  0  0  0  0  0  0  0  0  0  0  0  # atno 17394 bound_to 11000
  140.5119  134.6387  157.5287 LP  0  0  0  0  0  0  0  0  0  0  0  0  # atno 17395 bound_to 11000

$$$$
