AV-unprocessed.smi:281|AV-procd|sdf|2103|dock9
  -GOLD-   2262021393D 1   1.00000     0.00000
 Structure written by MMmdl.
 55 59  0  0  0  0  0  0  0  0  1 V2000
  154.0300  140.9047  160.1610 C   0  0  0  0  0  0  0  0  0  0  0  0
  152.6751  141.2026  159.5113 C   0  0  2  0  0  0  0  0  0  0  0  0
  152.4154  140.3107  158.2877 C   0  0  0  0  0  0  0  0  0  0  0  0
  151.1676  140.7039  157.6469 N   0  0  0  0  0  0  0  0  0  0  0  0
  150.6636  139.8021  156.7666 C   0  0  0  0  0  0  0  0  0  0  0  0
  150.5309  140.1341  155.4541 N   0  0  0  0  0  0  0  0  0  0  0  0
  150.0445  139.2495  154.5791 C   0  0  0  0  0  0  0  0  0  0  0  0
  149.6303  138.0006  154.7985 N   0  0  0  0  0  0  0  0  0  0  0  0
  149.7466  137.6647  156.1151 C   0  0  0  0  0  0  0  0  0  0  0  0
  150.2531  138.4953  157.1549 C   0  0  0  0  0  0  0  0  0  0  0  0
  150.2185  137.8109  158.3643 N   0  0  0  0  0  0  0  0  0  0  0  0
  149.7311  136.6408  158.0551 C   0  0  0  0  0  0  0  0  0  0  0  0
  149.4048  136.4715  156.7284 N   0  0  0  0  0  0  0  0  0  0  0  0
  148.8422  135.2784  156.1129 C   0  0  0  0  0  0  0  0  0  0  0  0
  149.8251  134.5141  155.1888 C   0  0  2  0  0  0  0  0  0  0  0  0
  150.3646  135.4100  154.2347 O   0  0  0  0  0  0  0  0  0  0  0  0
  149.2032  133.3214  154.4574 C   0  0  0  0  0  0  0  0  0  0  0  0
  149.6557  132.1313  155.2910 C   0  0  0  0  0  0  0  0  0  0  0  0
  150.9797  132.4930  155.6392 O   0  0  0  0  0  0  0  0  0  0  0  0
  150.9724  133.8700  155.9940 C   0  0  0  0  0  0  0  0  0  0  0  0
  151.1384  142.1159  157.2766 C   0  0  0  0  0  0  0  0  0  0  0  0
  151.4569  143.0207  158.4896 C   0  0  2  0  0  0  0  0  0  0  0  0
  150.3171  143.0950  159.5161 C   0  0  0  0  0  0  0  0  0  0  0  0
  149.7381  144.4924  159.3401 C   0  0  0  0  0  0  0  0  0  0  0  0
  150.8791  145.2554  158.9960 O   0  0  0  0  0  0  0  0  0  0  0  0
  151.6063  144.4953  158.0424 C   0  0  1  0  0  0  0  0  0  0  0  0
  153.0441  145.0197  157.9179 C   0  0  0  0  0  0  0  0  0  0  0  0
  152.6688  142.5731  159.1106 O   0  0  0  0  0  0  0  0  0  0  0  0
  154.0853  139.8687  160.4960 H   0  0  0  0  0  0  0  0  0  0  0  0
  154.1937  141.5437  161.0291 H   0  0  0  0  0  0  0  0  0  0  0  0
  154.8490  141.0759  159.4620 H   0  0  0  0  0  0  0  0  0  0  0  0
  151.8957  141.0299  160.2543 H   0  0  0  0  0  0  0  0  0  0  0  0
  153.2286  140.4124  157.5677 H   0  0  0  0  0  0  0  0  0  0  0  0
  152.3965  139.2662  158.5963 H   0  0  0  0  0  0  0  0  0  0  0  0
  149.9759  139.5921  153.5572 H   0  0  0  0  0  0  0  0  0  0  0  0
  149.5885  135.8658  158.7943 H   0  0  0  0  0  0  0  0  0  0  0  0
  148.4915  134.6211  156.9099 H   0  0  0  0  0  0  0  0  0  0  0  0
  147.9547  135.5741  155.5520 H   0  0  0  0  0  0  0  0  0  0  0  0
  149.6555  135.7577  153.7158 H   0  0  0  0  0  0  0  0  0  0  0  0
  148.1207  133.3676  154.3514 H   0  0  0  0  0  0  0  0  0  0  0  0
  149.6215  133.2216  153.4544 H   0  0  0  0  0  0  0  0  0  0  0  0
  149.0486  132.0269  156.1918 H   0  0  0  0  0  0  0  0  0  0  0  0
  149.6250  131.1918  154.7389 H   0  0  0  0  0  0  0  0  0  0  0  0
  151.9465  134.3199  155.7967 H   0  0  0  0  0  0  0  0  0  0  0  0
  150.7920  133.9454  157.0674 H   0  0  0  0  0  0  0  0  0  0  0  0
  151.8747  142.2858  156.4894 H   0  0  0  0  0  0  0  0  0  0  0  0
  150.1620  142.3771  156.8655 H   0  0  0  0  0  0  0  0  0  0  0  0
  149.5656  142.3143  159.3939 H   0  0  0  0  0  0  0  0  0  0  0  0
  150.7141  143.0145  160.5288 H   0  0  0  0  0  0  0  0  0  0  0  0
  149.0133  144.5189  158.5248 H   0  0  0  0  0  0  0  0  0  0  0  0
  149.2580  144.8677  160.2440 H   0  0  0  0  0  0  0  0  0  0  0  0
  151.1024  144.6370  157.0843 H   0  0  0  0  0  0  0  0  0  0  0  0
  153.6156  144.4275  157.2026 H   0  0  0  0  0  0  0  0  0  0  0  0
  153.5654  144.9894  158.8751 H   0  0  0  0  0  0  0  0  0  0  0  0
  153.0499  146.0536  157.5730 H   0  0  0  0  0  0  0  0  0  0  0  0
  1  2  1  0  0  0  0
  1 29  1  0  0  0  0
  1 30  1  0  0  0  0
  1 31  1  0  0  0  0
  2 28  1  0  0  0  0
  2  3  1  0  0  0  0
  2 32  1  0  0  0  0
  3  4  1  0  0  0  0
  3 33  1  0  0  0  0
  3 34  1  0  0  0  0
  4  5  1  0  0  0  0
  4 21  1  0  0  0  0
  5 10  1  0  0  0  0
  5  6  2  0  0  0  0
  6  7  1  0  0  0  0
  7  8  2  0  0  0  0
  7 35  1  0  0  0  0
  8  9  1  0  0  0  0
  9 13  1  0  0  0  0
  9 10  2  0  0  0  0
 10 11  1  0  0  0  0
 11 12  2  0  0  0  0
 12 13  1  0  0  0  0
 12 36  1  0  0  0  0
 13 14  1  0  0  0  0
 14 15  1  0  0  0  0
 14 37  1  0  0  0  0
 14 38  1  0  0  0  0
 15 20  1  0  0  0  0
 15 16  1  0  0  0  0
 15 17  1  0  0  0  0
 16 39  1  0  0  0  0
 17 18  1  0  0  0  0
 17 40  1  0  0  0  0
 17 41  1  0  0  0  0
 18 19  1  0  0  0  0
 18 42  1  0  0  0  0
 18 43  1  0  0  0  0
 19 20  1  0  0  0  0
 20 44  1  0  0  0  0
 20 45  1  0  0  0  0
 21 22  1  0  0  0  0
 21 46  1  0  0  0  0
 21 47  1  0  0  0  0
 22 26  1  0  0  0  0
 22 23  1  0  0  0  0
 22 28  1  0  0  0  0
 23 24  1  0  0  0  0
 23 48  1  0  0  0  0
 23 49  1  0  0  0  0
 24 25  1  0  0  0  0
 24 50  1  0  0  0  0
 24 51  1  0  0  0  0
 25 26  1  0  0  0  0
 26 27  1  0  0  0  0
 26 52  1  0  0  0  0
 27 53  1  0  0  0  0
 27 54  1  0  0  0  0
 27 55  1  0  0  0  0
M  END
> <s_m_source_file>
AV-unprocessed.smi

> <i_m_source_file_index>
281

> <i_lp_mmshare_version>
43012

> <i_f3d_flags>
0

> <s_epik_input>
W0NIM11bQ0BASF0xT1tDSDJdW0NIMl1bQ0BAXTEyW0NIMl1OKFtDSDJdW0NASF0oTzIpW0NIM10pYyhuW2NIXW4zKWMoYzM0KW5bY0hdbjRbQ0gyXVtDQEBdNShbT0hdKVtDSDJdW0NIMl1PW0NIMl01

> <s_epik_cmdline>
J2VwaWtfcHl0aG9uJywgJy1waCcsICc3LjAnLCAnLXRuJywgJzgnLCAnLW1hJywgJzIwMCcsICctbWV0YWxfYmluZGluZycsICctaW1hZScsICc8aW5maWxlLm1hZT4nLCAnLW9tYWUnLCAnPG91dGZpbGUubWFlPic=

> <r_lp_tautomer_probability>
1

> <r_epik_Ionization_Penalty>
0.00571331

> <r_epik_Ionization_Penalty_Charging>
0

> <r_epik_Ionization_Penalty_Neutral>
0.00571331

> <r_epik_State_Penalty>
0.00399586

> <r_epik_Charging_Adjusted_Penalty>
0.00399586

> <i_epik_Tot_Q>
0

> <i_epik_Tot_abs_Q>
0

> <r_epik_Metal_State_Penalty>
-0

> <b_epik_Metal_Only>
0

> <s_lp_Force_Field>
OPLS_2005

> <r_lp_Energy>
53.0608

> <b_lp_Chiralities_Consistent>
1

> <s_lp_Variant>
AV-unprocessed.smi:281-3

> <Gold.Version>
5.8.1

> <Gold.Id.Protein>
6NUR|6NUR_protein|mol2

> <Gold.PLP.Fitness>
40.0301

> <Gold.PLP.PLP>
-34.8151

> <Gold.PLP.part.hbond>
-2.2077

> <Gold.PLP.part.metal>
0.0000

> <Gold.PLP.part.buried>
-4.5283

> <Gold.PLP.part.nonpolar>
-28.7956

> <Gold.PLP.part.repulsive>
0.3605

> <Gold.PLP.ligand.clash>
0.0000

> <Gold.PLP.ligand.torsion>
0.4239

> <Gold.PLP.Chemscore.Hbond>
0.9209

> <Gold.PLP.Chemscore.CHOScore>
1.0000

> <Gold.PLP.Chemscore.Metal>
0.0000

> <Gold.Chemscore.Hbonds>
donor molecule, donor type, donor heavy atom, donor atom, acceptor molecule, acceptor atom, score
      L1  H    16    39       P1  7948  0.87
      P1  H  7989  7998       L1     6  0.01
      L1  C     7    35       P1  7957  1.00

> <Gold.PLP.Chemscore.Internal.Correction>
0.3001

> <Gold.Rescore>
     Score         DG    S(hbond)    S(metal)    S(lipo)     H(rot)  DE(clash)    DE(int)     intcor
     12.74     -14.40       0.59        0.00     105.09       2.09       0.49       1.17       ----

> <Gold.Chemscore.Fitness>
12.7408

> <Gold.Chemscore.DG>
-14.3970

> <Gold.Chemscore.ZeroCoef>
-5.4800

> <Gold.Chemscore.Hbond>
0.5924

> <Gold.Chemscore.Metal>
0.0000

> <Gold.Chemscore.Lipo>
105.0904

> <Gold.Chemscore.Internal_Hbond>
0.0000

> <Gold.Chemscore.DEClash>
0.4889

> <Gold.Chemscore.DEInternal>
1.1673

> <Gold.Chemscore.Rot>
2.0927

> <Gold.Chemscore.Internal.Correction>
   9.000000E+99

> <Gold.Chemscore.Hbonds>
donor molecule, donor type, donor heavy atom, donor atom, acceptor molecule, acceptor atom, score
      L1  H    16    39       P1  7948  0.19

> <Gold.Chemscore.Hbond.Weighted>
-1.9788

> <Gold.Chemscore.Metal.Weighted>
-0.0000

> <Gold.Chemscore.Lipo.Weighted>
-12.2956

> <Gold.Chemscore.Internal_Hbond.Weighted>
0.0000

> <Gold.Chemscore.DEClash.Weighted>
0.4889

> <Gold.Chemscore.DEInternal.Weighted>
1.1673

> <Gold.Chemscore.Rot.Weighted>
5.3573

> <Gold.Chemscore.Internal.Correction.Weighted>
   9.000000E+99

> <Gold.Protein.RotatedTorsions>
[ 6907 6896 6895 6894 ] final    7.03 input  -60.11 | X-H torsion
[ 7974 7965 7964 7962 ] final  -48.10 input  175.53 | X-H torsion
[ 8008 7997 7996 7995 ] final -171.46 input   59.86 | X-H torsion
[ 10167 10162 10161 10158 ] final -163.33 input  -65.29 | X-H torsion
[ 10718 10713 10712 10709 ] final -170.13 input   66.30 | X-H torsion
[ 10763 10752 10751 10750 ] final -146.20 input  -60.55 | X-H torsion
[ 11005 11000 10999 10996 ] final   47.93 input  -57.11 | X-H torsion

> <Gold.Protein.ActiveResidues>
 VAL166  LYS551  ARG553  GLY616  TRP617  ASP618  TYR619  PRO620  LYS621  CYS622 
 ASP623  PHE694  ASN695  SER759  ASP760  ASP761  ALA762  ILE779  LEU786  VAL792 
 PHE793  MET794  SER795  GLU796  ALA797  LYS798  CYS799  TRP800  GLU811  SER814 

> <Gold.Protein.RotatedAtoms>
  151.6834  135.0958  160.0219 H   0  0  0  0  0  0  0  0  0  0  0  0  # atno 6907 bound_to 6896
  152.3822  133.6557  159.6179 H   0  0  0  0  0  0  0  0  0  0  0  0  # atno 6908 bound_to 6896
  150.7756  133.9011  159.3383 H   0  0  0  0  0  0  0  0  0  0  0  0  # atno 6909 bound_to 6896
  145.9547  140.7538  142.9487 H   0  0  0  0  0  0  0  0  0  0  0  0  # atno 7974 bound_to 7965
  155.9319  140.1092  157.1126 H   0  0  0  0  0  0  0  0  0  0  0  0  # atno 8008 bound_to 7997
  154.4072  140.1236  156.4879 H   0  0  0  0  0  0  0  0  0  0  0  0  # atno 8009 bound_to 7997
  155.7070  140.3471  155.4959 H   0  0  0  0  0  0  0  0  0  0  0  0  # atno 8010 bound_to 7997
  139.6328  144.0406  152.2030 H   0  0  0  0  0  0  0  0  0  0  0  0  # atno 10167 bound_to 10162
  156.7216  130.9272  151.3098 H   0  0  0  0  0  0  0  0  0  0  0  0  # atno 10718 bound_to 10713
  154.8347  135.3393  154.6624 H   0  0  0  0  0  0  0  0  0  0  0  0  # atno 10763 bound_to 10752
  153.7240  135.6956  153.5010 H   0  0  0  0  0  0  0  0  0  0  0  0  # atno 10764 bound_to 10752
  153.2361  135.4400  155.0600 H   0  0  0  0  0  0  0  0  0  0  0  0  # atno 10765 bound_to 10752
  140.1235  134.4798  155.8578 H   0  0  0  0  0  0  0  0  0  0  0  0  # atno 11005 bound_to 11000
  144.6803  140.2493  143.7333 LP  0  0  0  0  0  0  0  0  0  0  0  0  # atno 17320 bound_to 7965
  145.8122  139.2008  143.1986 LP  0  0  0  0  0  0  0  0  0  0  0  0  # atno 17321 bound_to 7965
  140.0076  144.6247  150.7675 LP  0  0  0  0  0  0  0  0  0  0  0  0  # atno 17342 bound_to 10162
  140.7449  143.2867  151.3444 LP  0  0  0  0  0  0  0  0  0  0  0  0  # atno 17343 bound_to 10162
  157.6895  130.9219  150.0477 LP  0  0  0  0  0  0  0  0  0  0  0  0  # atno 17370 bound_to 10713
  156.1590  130.3643  149.9326 LP  0  0  0  0  0  0  0  0  0  0  0  0  # atno 17371 bound_to 10713
  141.2156  133.6769  156.6934 LP  0  0  0  0  0  0  0  0  0  0  0  0  # atno 17394 bound_to 11000
  140.2934  134.8222  157.4036 LP  0  0  0  0  0  0  0  0  0  0  0  0  # atno 17395 bound_to 11000

$$$$
