AV-unprocessed.smi:1798|AV-procd|sdf|7259|dock4
  -GOLD-   22720 8513D 1   1.00000     0.00000
 Structure written by MMmdl.
 40 41  0  0  0  0  0  0  0  0  3 V2000
  146.7751  138.9549  152.4093 C   0  0  0  0  0  0  0  0  0  0  0  0
  147.6410  139.9955  153.1335 C   0  0  2  0  0  0  0  0  0  0  0  0
  148.7088  139.3232  154.0173 C   0  0  0  0  0  0  0  0  0  0  0  0
  149.5763  140.3614  154.7474 C   0  0  0  0  0  0  0  0  0  0  0  0
  148.7141  141.3293  155.5827 C   0  0  1  0  0  0  0  0  0  0  0  0
  149.5465  142.3522  156.2087 N   0  0  0  0  0  0  0  0  0  0  0  0
  150.5939  142.1152  157.0130 C   0  0  0  0  0  0  0  0  0  0  0  0
  150.9813  140.9817  157.3009 O   0  0  0  0  0  0  0  0  0  0  0  0
  151.3202  143.3562  157.5519 C   0  0  0  0  0  0  0  0  0  0  0  0
  151.9191  143.1490  158.8813 N   0  0  0  0  0  0  0  0  0  0  0  0
  152.9023  142.1458  158.9920 C   0  0  0  0  0  0  0  0  0  0  0  0
  153.5121  141.8666  160.1607 C   0  0  0  0  0  0  0  0  0  0  0  0
  154.5154  140.8290  160.2569 N   0  3  0  0  0  0  0  0  0  0  0  0
  154.6608  140.0619  159.3107 O   0  0  0  0  0  0  0  0  0  0  0  0
  155.1893  140.7451  161.2793 O   0  5  0  0  0  0  0  0  0  0  0  0
  153.1251  142.6403  161.3246 C   0  0  0  0  0  0  0  0  0  0  0  0
  152.1831  143.5988  161.2260 C   0  0  0  0  0  0  0  0  0  0  0  0
  151.5183  143.8983  159.9536 C   0  0  0  0  0  0  0  0  0  0  0  0
  150.6538  144.7696  159.8578 O   0  0  0  0  0  0  0  0  0  0  0  0
  147.6453  142.0011  154.7017 C   0  0  0  0  0  0  0  0  0  0  0  0
  146.7806  140.9596  153.9726 C   0  0  0  0  0  0  0  0  0  0  0  0
  146.2256  138.3339  153.1175 H   0  0  0  0  0  0  0  0  0  0  0  0
  147.3869  138.2955  151.7930 H   0  0  0  0  0  0  0  0  0  0  0  0
  146.0485  139.4361  151.7543 H   0  0  0  0  0  0  0  0  0  0  0  0
  148.1559  140.5818  152.3709 H   0  0  0  0  0  0  0  0  0  0  0  0
  148.2264  138.6751  154.7502 H   0  0  0  0  0  0  0  0  0  0  0  0
  149.3456  138.6797  153.4093 H   0  0  0  0  0  0  0  0  0  0  0  0
  150.2958  139.8485  155.3866 H   0  0  0  0  0  0  0  0  0  0  0  0
  150.1595  140.9231  154.0162 H   0  0  0  0  0  0  0  0  0  0  0  0
  148.2012  140.7624  156.3623 H   0  0  0  0  0  0  0  0  0  0  0  0
  149.3032  143.3138  156.0197 H   0  0  0  0  0  0  0  0  0  0  0  0
  152.0847  143.6422  156.8283 H   0  0  0  0  0  0  0  0  0  0  0  0
  150.6264  144.1987  157.5796 H   0  0  0  0  0  0  0  0  0  0  0  0
  153.1138  141.6217  158.0711 H   0  0  0  0  0  0  0  0  0  0  0  0
  153.5871  142.4566  162.2834 H   0  0  0  0  0  0  0  0  0  0  0  0
  151.9090  144.1622  162.1057 H   0  0  0  0  0  0  0  0  0  0  0  0
  147.0084  142.6430  155.3114 H   0  0  0  0  0  0  0  0  0  0  0  0
  148.1245  142.6495  153.9667 H   0  0  0  0  0  0  0  0  0  0  0  0
  146.0591  141.4692  153.3332 H   0  0  0  0  0  0  0  0  0  0  0  0
  146.1995  140.3953  154.7034 H   0  0  0  0  0  0  0  0  0  0  0  0
  1  2  1  0  0  0  0
  1 22  1  0  0  0  0
  1 23  1  0  0  0  0
  1 24  1  0  0  0  0
  2 21  1  0  0  0  0
  2  3  1  0  0  0  0
  2 25  1  0  0  0  0
  3  4  1  0  0  0  0
  3 26  1  0  0  0  0
  3 27  1  0  0  0  0
  4  5  1  0  0  0  0
  4 28  1  0  0  0  0
  4 29  1  0  0  0  0
  5  6  1  0  0  0  0
  5 20  1  0  0  0  0
  5 30  1  0  0  0  0
  6  7  1  0  0  0  0
  6 31  1  0  0  0  0
  7  8  2  0  0  0  0
  7  9  1  0  0  0  0
  9 10  1  0  0  0  0
  9 32  1  0  0  0  0
  9 33  1  0  0  0  0
 10 18  1  0  0  0  0
 10 11  1  0  0  0  0
 11 12  2  0  0  0  0
 11 34  1  0  0  0  0
 12 13  1  0  0  0  0
 12 16  1  0  0  0  0
 13 14  2  0  0  0  0
 13 15  1  0  0  0  0
 16 17  2  0  0  0  0
 16 35  1  0  0  0  0
 17 18  1  0  0  0  0
 17 36  1  0  0  0  0
 18 19  2  0  0  0  0
 20 21  1  0  0  0  0
 20 37  1  0  0  0  0
 20 38  1  0  0  0  0
 21 39  1  0  0  0  0
 21 40  1  0  0  0  0
M  CHG  1  13   1
M  CHG  1  15  -1
M  END
> <s_m_source_file>
AV-unprocessed.smi

> <i_m_source_file_index>
1798

> <i_lp_mmshare_version>
43012

> <i_f3d_flags>
0

> <s_epik_input>
W0NIM11bQ0BASF0xW0NIMl1bQ0gyXVtDQEhdKFtDSDJdW0NIMl0xKVtOSF1DKD1PKVtDSDJdbjJbY0hdYyhbTitdKD1PKVtPLV0pW2NIXVtjSF1jMj1P

> <s_epik_cmdline>
J2VwaWtfcHl0aG9uJywgJy1waCcsICc3LjAnLCAnLXRuJywgJzgnLCAnLW1hJywgJzIwMCcsICctbWV0YWxfYmluZGluZycsICctaW1hZScsICc8aW5maWxlLm1hZT4nLCAnLW9tYWUnLCAnPG91dGZpbGUubWFlPic=

> <r_lp_tautomer_probability>
1

> <r_epik_Ionization_Penalty>
1.91292e-08

> <r_epik_Ionization_Penalty_Charging>
8.23013e-11

> <r_epik_Ionization_Penalty_Neutral>
1.90469e-08

> <r_epik_State_Penalty>
-0

> <r_epik_Charging_Adjusted_Penalty>
8.23013e-11

> <i_epik_Tot_Q>
0

> <i_epik_Tot_abs_Q>
2

> <r_epik_Metal_State_Penalty>
-0

> <b_epik_Metal_Only>
0

> <s_lp_Force_Field>
OPLS_2005

> <r_lp_Energy>
19.9033

> <b_lp_Chiralities_Consistent>
1

> <s_lp_Variant>
AV-unprocessed.smi:1798-1

> <Gold.Version>
5.8.1

> <Gold.Id.Protein>
6NUR|6NUR_protein|mol2

> <Gold.PLP.Fitness>
51.5302

> <Gold.PLP.PLP>
-46.4782

> <Gold.PLP.part.hbond>
-3.0000

> <Gold.PLP.part.metal>
0.0000

> <Gold.PLP.part.buried>
-1.0775

> <Gold.PLP.part.nonpolar>
-42.9046

> <Gold.PLP.part.repulsive>
0.2600

> <Gold.PLP.ligand.clash>
0.0000

> <Gold.PLP.ligand.torsion>
0.4422

> <Gold.PLP.Chemscore.Hbond>
1.9760

> <Gold.PLP.Chemscore.CHOScore>
0.0000

> <Gold.PLP.Chemscore.Metal>
0.0000

> <Gold.Chemscore.Hbonds>
donor molecule, donor type, donor heavy atom, donor atom, acceptor molecule, acceptor atom, score
      L1  H     6    31       P1  8028  0.94
      P1  H  7997  8009       L1    14  0.95

> <Gold.PLP.Chemscore.Internal.Correction>
0.0083

> <Gold.Rescore>
     Score         DG    S(hbond)    S(metal)    S(lipo)     H(rot)  DE(clash)    DE(int)     intcor
     17.53     -19.62       1.98        0.00      98.24       1.55       0.24       1.85       ----

> <Gold.Chemscore.Fitness>
17.5255

> <Gold.Chemscore.DG>
-19.6217

> <Gold.Chemscore.ZeroCoef>
-5.4800

> <Gold.Chemscore.Hbond>
1.9809

> <Gold.Chemscore.Metal>
0.0000

> <Gold.Chemscore.Lipo>
98.2445

> <Gold.Chemscore.Internal_Hbond>
0.0000

> <Gold.Chemscore.DEClash>
0.2413

> <Gold.Chemscore.DEInternal>
1.8548

> <Gold.Chemscore.Rot>
1.5505

> <Gold.Chemscore.Internal.Correction>
   9.000000E+99

> <Gold.Chemscore.Hbonds>
donor molecule, donor type, donor heavy atom, donor atom, acceptor molecule, acceptor atom, score
      L1  H     6    31       P1  8028  0.90
      P1  H  7997  8009       L1    14  0.85

> <Gold.Chemscore.Hbond.Weighted>
-6.6162

> <Gold.Chemscore.Metal.Weighted>
-0.0000

> <Gold.Chemscore.Lipo.Weighted>
-11.4946

> <Gold.Chemscore.Internal_Hbond.Weighted>
0.0000

> <Gold.Chemscore.DEClash.Weighted>
0.2413

> <Gold.Chemscore.DEInternal.Weighted>
1.8548

> <Gold.Chemscore.Rot.Weighted>
3.9692

> <Gold.Chemscore.Internal.Correction.Weighted>
   9.000000E+99

> <Gold.Protein.RotatedTorsions>
[ 6907 6896 6895 6894 ] final -122.74 input  -60.11 | X-H torsion
[ 7974 7965 7964 7962 ] final  -64.76 input  175.53 | X-H torsion
[ 8008 7997 7996 7995 ] final  110.74 input   59.86 | X-H torsion
[ 10167 10162 10161 10158 ] final  136.15 input  -65.29 | X-H torsion
[ 10718 10713 10712 10709 ] final   91.06 input   66.30 | X-H torsion
[ 10763 10752 10751 10750 ] final   -4.83 input  -60.55 | X-H torsion
[ 11005 11000 10999 10996 ] final  117.71 input  -57.11 | X-H torsion

> <Gold.Protein.ActiveResidues>
 VAL166  LYS551  ARG553  GLY616  TRP617  ASP618  TYR619  PRO620  LYS621  CYS622 
 ASP623  PHE694  ASN695  SER759  ASP760  ASP761  ALA762  ILE779  LEU786  VAL792 
 PHE793  MET794  SER795  GLU796  ALA797  LYS798  CYS799  TRP800  GLU811  SER814 

> <Gold.Protein.RotatedAtoms>
  150.8604  133.7652  159.2994 H   0  0  0  0  0  0  0  0  0  0  0  0  # atno 6907 bound_to 6896
  151.5296  135.1066  159.9909 H   0  0  0  0  0  0  0  0  0  0  0  0  # atno 6908 bound_to 6896
  152.4622  133.7802  159.6902 H   0  0  0  0  0  0  0  0  0  0  0  0  # atno 6909 bound_to 6896
  145.7627  140.8853  143.0421 H   0  0  0  0  0  0  0  0  0  0  0  0  # atno 7974 bound_to 7965
  156.2074  140.3033  155.9657 H   0  0  0  0  0  0  0  0  0  0  0  0  # atno 8008 bound_to 7997
  155.2807  140.0437  157.3032 H   0  0  0  0  0  0  0  0  0  0  0  0  # atno 8009 bound_to 7997
  154.5652  140.2332  155.8283 H   0  0  0  0  0  0  0  0  0  0  0  0  # atno 8010 bound_to 7997
  139.5190  144.6480  151.5385 H   0  0  0  0  0  0  0  0  0  0  0  0  # atno 10167 bound_to 10162
  157.6960  131.0394  150.3673 H   0  0  0  0  0  0  0  0  0  0  0  0  # atno 10718 bound_to 10713
  153.3902  135.7001  153.6500 H   0  0  0  0  0  0  0  0  0  0  0  0  # atno 10763 bound_to 10752
  153.5076  135.3639  155.2571 H   0  0  0  0  0  0  0  0  0  0  0  0  # atno 10764 bound_to 10752
  154.8701  135.4127  154.3217 H   0  0  0  0  0  0  0  0  0  0  0  0  # atno 10765 bound_to 10752
  139.9084  134.9613  156.7393 H   0  0  0  0  0  0  0  0  0  0  0  0  # atno 11005 bound_to 11000
  144.6827  139.9745  143.7482 LP  0  0  0  0  0  0  0  0  0  0  0  0  # atno 17320 bound_to 7965
  146.0248  139.3283  143.0791 LP  0  0  0  0  0  0  0  0  0  0  0  0  # atno 17321 bound_to 7965
  140.6273  143.9145  150.6575 LP  0  0  0  0  0  0  0  0  0  0  0  0  # atno 17342 bound_to 10162
  140.2437  143.3644  152.1464 LP  0  0  0  0  0  0  0  0  0  0  0  0  # atno 17343 bound_to 10162
  156.4102  130.3932  149.6897 LP  0  0  0  0  0  0  0  0  0  0  0  0  # atno 17370 bound_to 10713
  156.4184  130.7756  151.2773 LP  0  0  0  0  0  0  0  0  0  0  0  0  # atno 17371 bound_to 10713
  140.6862  133.9430  155.7939 LP  0  0  0  0  0  0  0  0  0  0  0  0  # atno 17394 bound_to 11000
  141.0474  134.0534  157.3826 LP  0  0  0  0  0  0  0  0  0  0  0  0  # atno 17395 bound_to 11000

$$$$
