AV-unprocessed.smi:1645|AV-procd|sdf|6617|dock6
  -GOLD-   22720 7313D 1   1.00000     0.00000
 Structure written by MMmdl.
 55 58  0  0  0  0  0  0  0  0  4 V2000
  147.6267  137.7279  155.9104 O   0  0  0  0  0  0  0  0  0  0  0  0
  147.6392  138.1274  154.7407 C   0  0  0  0  0  0  0  0  0  0  0  0
  148.3289  139.2326  154.4070 N   0  0  0  0  0  0  0  0  0  0  0  0
  149.0939  140.0878  155.2438 C   0  0  0  0  0  0  0  0  0  0  0  0
  149.9163  139.4929  156.2243 C   0  0  0  0  0  0  0  0  0  0  0  0
  150.6973  140.3081  157.0690 C   0  0  0  0  0  0  0  0  0  0  0  0
  150.6523  141.7120  156.9093 C   0  0  0  0  0  0  0  0  0  0  0  0
  151.3796  142.6026  157.7089 N   0  0  0  0  0  0  0  0  0  0  0  0
  150.5515  143.6611  158.2804 C   0  0  0  0  0  0  0  0  0  0  0  0
  151.4246  144.7227  158.9708 C   0  0  0  0  0  0  0  0  0  0  0  0
  152.3495  144.0763  160.0149 C   0  0  0  0  0  0  0  0  0  0  0  0
  153.1707  142.9458  159.3728 C   0  0  0  0  0  0  0  0  0  0  0  0
  152.2543  141.9311  158.6663 C   0  0  0  0  0  0  0  0  0  0  0  0
  149.8725  142.2427  155.9428 N   0  3  0  0  0  0  0  0  0  0  0  0
  149.1084  141.4975  155.1152 C   0  0  0  0  0  0  0  0  0  0  0  0
  147.0276  137.5621  153.6658 N   0  5  0  0  0  0  0  0  0  0  0  0
  145.8144  136.7349  153.7302 C   0  0  1  0  0  0  0  0  0  0  0  0
  144.8989  137.0644  152.5345 C   0  0  0  0  0  0  0  0  0  0  0  0
  145.2921  136.0804  151.4125 C   0  0  0  0  0  0  0  0  0  0  0  0
  146.3247  135.2007  151.9962 N   0  3  2  0  0  0  0  0  0  0  0  0
  146.4066  133.8179  151.4755 C   0  0  0  0  0  0  0  0  0  0  0  0
  147.5787  133.0798  152.1538 C   0  0  0  0  0  0  0  0  0  0  0  0
  147.4809  133.1387  153.6921 C   0  0  0  0  0  0  0  0  0  0  0  0
  147.3354  134.5921  154.1825 C   0  0  0  0  0  0  0  0  0  0  0  0
  146.1453  135.2583  153.4563 C   0  0  1  0  0  0  0  0  0  0  0  0
  148.3683  139.4366  153.4192 H   0  0  0  0  0  0  0  0  0  0  0  0
  149.9415  138.4189  156.3379 H   0  0  0  0  0  0  0  0  0  0  0  0
  151.3185  139.8571  157.8287 H   0  0  0  0  0  0  0  0  0  0  0  0
  149.9538  144.1260  157.4950 H   0  0  0  0  0  0  0  0  0  0  0  0
  149.8544  143.2314  159.0010 H   0  0  0  0  0  0  0  0  0  0  0  0
  152.0245  145.2436  158.2233 H   0  0  0  0  0  0  0  0  0  0  0  0
  150.7940  145.4770  159.4423 H   0  0  0  0  0  0  0  0  0  0  0  0
  153.0123  144.8261  160.4480 H   0  0  0  0  0  0  0  0  0  0  0  0
  151.7525  143.6757  160.8352 H   0  0  0  0  0  0  0  0  0  0  0  0
  153.8708  143.3688  158.6508 H   0  0  0  0  0  0  0  0  0  0  0  0
  153.7726  142.4428  160.1299 H   0  0  0  0  0  0  0  0  0  0  0  0
  151.6498  141.4020  159.4044 H   0  0  0  0  0  0  0  0  0  0  0  0
  152.8581  141.1827  158.1513 H   0  0  0  0  0  0  0  0  0  0  0  0
  148.5485  142.0577  154.3812 H   0  0  0  0  0  0  0  0  0  0  0  0
  145.2810  136.8373  154.6761 H   0  0  0  0  0  0  0  0  0  0  0  0
  143.8595  136.8912  152.8159 H   0  0  0  0  0  0  0  0  0  0  0  0
  144.9696  138.1057  152.2160 H   0  0  0  0  0  0  0  0  0  0  0  0
  144.4228  135.5020  151.0947 H   0  0  0  0  0  0  0  0  0  0  0  0
  145.6928  136.5942  150.5379 H   0  0  0  0  0  0  0  0  0  0  0  0
  145.4675  133.2958  151.6650 H   0  0  0  0  0  0  0  0  0  0  0  0
  146.5509  133.8431  150.3950 H   0  0  0  0  0  0  0  0  0  0  0  0
  147.6082  132.0417  151.8216 H   0  0  0  0  0  0  0  0  0  0  0  0
  148.5200  133.5311  151.8371 H   0  0  0  0  0  0  0  0  0  0  0  0
  146.6213  132.5550  154.0239 H   0  0  0  0  0  0  0  0  0  0  0  0
  148.3603  132.6778  154.1426 H   0  0  0  0  0  0  0  0  0  0  0  0
  147.1871  134.6046  155.2635 H   0  0  0  0  0  0  0  0  0  0  0  0
  148.2674  135.1255  153.9870 H   0  0  0  0  0  0  0  0  0  0  0  0
  145.2490  134.6828  153.6986 H   0  0  0  0  0  0  0  0  0  0  0  0
  147.2109  135.6514  151.8172 H   0  0  0  0  0  0  0  0  0  0  0  0
  149.8578  143.2566  155.8321 H   0  0  0  0  0  0  0  0  0  0  0  0
  1  2  2  0  0  0  0
  2  3  1  0  0  0  0
  2 16  1  0  0  0  0
  3  4  1  0  0  0  0
  3 26  1  0  0  0  0
  4 15  1  0  0  0  0
  4  5  2  0  0  0  0
  5  6  1  0  0  0  0
  5 27  1  0  0  0  0
  6  7  2  0  0  0  0
  6 28  1  0  0  0  0
  7  8  1  0  0  0  0
  7 14  1  0  0  0  0
  8 13  1  0  0  0  0
  8  9  1  0  0  0  0
  9 10  1  0  0  0  0
  9 29  1  0  0  0  0
  9 30  1  0  0  0  0
 10 11  1  0  0  0  0
 10 31  1  0  0  0  0
 10 32  1  0  0  0  0
 11 12  1  0  0  0  0
 11 33  1  0  0  0  0
 11 34  1  0  0  0  0
 12 13  1  0  0  0  0
 12 35  1  0  0  0  0
 12 36  1  0  0  0  0
 13 37  1  0  0  0  0
 13 38  1  0  0  0  0
 14 15  2  0  0  0  0
 14 55  1  0  0  0  0
 15 39  1  0  0  0  0
 16 17  1  0  0  0  0
 17 25  1  0  0  0  0
 17 18  1  0  0  0  0
 17 40  1  0  0  0  0
 18 19  1  0  0  0  0
 18 41  1  0  0  0  0
 18 42  1  0  0  0  0
 19 20  1  0  0  0  0
 19 43  1  0  0  0  0
 19 44  1  0  0  0  0
 20 25  1  0  0  0  0
 20 21  1  0  0  0  0
 20 54  1  0  0  0  0
 21 22  1  0  0  0  0
 21 45  1  0  0  0  0
 21 46  1  0  0  0  0
 22 23  1  0  0  0  0
 22 47  1  0  0  0  0
 22 48  1  0  0  0  0
 23 24  1  0  0  0  0
 23 49  1  0  0  0  0
 23 50  1  0  0  0  0
 24 25  1  0  0  0  0
 24 51  1  0  0  0  0
 24 52  1  0  0  0  0
 25 53  1  0  0  0  0
M  CHG  1  14   1
M  CHG  1  16  -1
M  CHG  1  20   1
M  END
> <s_m_source_file>
AV-unprocessed.smi

> <i_m_source_file_index>
1645

> <i_lp_mmshare_version>
43012

> <i_f3d_flags>
0

> <s_epik_input>
W0NIMl0xW0NIMl1bQ0gyXVtDSDJdW0NASF0oTjEyKVtDQEBIXShbQ0gyXVtDSDJdMilbTkhdQyg9TylbTkhdYzNbY0hdW2NIXWMobltjSF0zKU40W0NIMl1bQ0gyXVtDSDJdW0NIMl1bQ0gyXTQ=

> <s_epik_cmdline>
J2VwaWtfcHl0aG9uJywgJy1waCcsICc3LjAnLCAnLXRuJywgJzgnLCAnLW1hJywgJzIwMCcsICctbWV0YWxfYmluZGluZycsICctaW1hZScsICc8aW5maWxlLm1hZT4nLCAnLW9tYWUnLCAnPG91dGZpbGUubWFlPic=

> <r_lp_tautomer_probability>
0.999994

> <r_epik_Ionization_Penalty>
8.55589

> <r_epik_Ionization_Penalty_Charging>
8.55589

> <r_epik_Ionization_Penalty_Neutral>
3.8092e-06

> <r_epik_State_Penalty>
8.15703

> <r_epik_Charging_Adjusted_Penalty>
16.7129

> <i_epik_Tot_Q>
1

> <i_epik_Tot_abs_Q>
3

> <r_epik_Metal_State_Penalty>
4.13781

> <b_epik_Metal_Only>
1

> <s_lp_Force_Field>
OPLS_2005

> <r_lp_Energy>
55.818

> <b_lp_Chiralities_Consistent>
1

> <s_lp_Variant>
AV-unprocessed.smi:1645-18

> <Gold.Version>
5.8.1

> <Gold.Id.Protein>
6NUR|6NUR_protein|mol2

> <Gold.PLP.Fitness>
48.0331

> <Gold.PLP.PLP>
-37.3941

> <Gold.PLP.part.hbond>
-2.0000

> <Gold.PLP.part.metal>
0.0000

> <Gold.PLP.part.buried>
-5.8217

> <Gold.PLP.part.nonpolar>
-33.0051

> <Gold.PLP.part.repulsive>
1.6584

> <Gold.PLP.ligand.clash>
0.0000

> <Gold.PLP.ligand.torsion>
0.7631

> <Gold.PLP.Chemscore.Hbond>
3.9840

> <Gold.PLP.Chemscore.CHOScore>
0.0000

> <Gold.PLP.Chemscore.Metal>
0.0000

> <Gold.Chemscore.Hbonds>
donor molecule, donor type, donor heavy atom, donor atom, acceptor molecule, acceptor atom, score
      L1  H    14    55       P1  8028  1.92
      L1  H    20    54       P1  7948  2.00

> <Gold.PLP.Chemscore.Internal.Correction>
0.2133

> <Gold.Rescore>
     Score         DG    S(hbond)    S(metal)    S(lipo)     H(rot)  DE(clash)    DE(int)     intcor
     19.83     -22.09       1.91        0.00     113.18       1.17       0.30       1.95       ----

> <Gold.Chemscore.Fitness>
19.8282

> <Gold.Chemscore.DG>
-22.0851

> <Gold.Chemscore.ZeroCoef>
-5.4800

> <Gold.Chemscore.Hbond>
1.9060

> <Gold.Chemscore.Metal>
0.0000

> <Gold.Chemscore.Lipo>
113.1813

> <Gold.Chemscore.Internal_Hbond>
0.0000

> <Gold.Chemscore.DEClash>
0.3033

> <Gold.Chemscore.DEInternal>
1.9535

> <Gold.Chemscore.Rot>
1.1731

> <Gold.Chemscore.Internal.Correction>
   9.000000E+99

> <Gold.Chemscore.Hbonds>
donor molecule, donor type, donor heavy atom, donor atom, acceptor molecule, acceptor atom, score
      L1  H    14    55       P1  8028  0.92
      L1  H    20    54       P1  7948  1.00

> <Gold.Chemscore.Hbond.Weighted>
-6.3661

> <Gold.Chemscore.Metal.Weighted>
-0.0000

> <Gold.Chemscore.Lipo.Weighted>
-13.2422

> <Gold.Chemscore.Internal_Hbond.Weighted>
0.0000

> <Gold.Chemscore.DEClash.Weighted>
0.3033

> <Gold.Chemscore.DEInternal.Weighted>
1.9535

> <Gold.Chemscore.Rot.Weighted>
3.0032

> <Gold.Chemscore.Internal.Correction.Weighted>
   9.000000E+99

> <Gold.Protein.RotatedTorsions>
[ 6907 6896 6895 6894 ] final   83.21 input  -60.11 | X-H torsion
[ 7974 7965 7964 7962 ] final -104.30 input  175.53 | X-H torsion
[ 8008 7997 7996 7995 ] final  -30.94 input   59.86 | X-H torsion
[ 10167 10162 10161 10158 ] final  -68.45 input  -65.29 | X-H torsion
[ 10718 10713 10712 10709 ] final -157.49 input   66.30 | X-H torsion
[ 10763 10752 10751 10750 ] final  -13.68 input  -60.55 | X-H torsion
[ 11005 11000 10999 10996 ] final  148.16 input  -57.11 | X-H torsion

> <Gold.Protein.ActiveResidues>
 VAL166  LYS551  ARG553  GLY616  TRP617  ASP618  TYR619  PRO620  LYS621  CYS622 
 ASP623  PHE694  ASN695  SER759  ASP760  ASP761  ALA762  ILE779  LEU786  VAL792 
 PHE793  MET794  SER795  GLU796  ALA797  LYS798  CYS799  TRP800  GLU811  SER814 

> <Gold.Protein.RotatedAtoms>
  152.5321  134.2931  159.9050 H   0  0  0  0  0  0  0  0  0  0  0  0  # atno 6907 bound_to 6896
  151.2883  133.4171  159.2639 H   0  0  0  0  0  0  0  0  0  0  0  0  # atno 6908 bound_to 6896
  151.0223  134.9494  159.8123 H   0  0  0  0  0  0  0  0  0  0  0  0  # atno 6909 bound_to 6896
  145.2449  140.9218  143.3128 H   0  0  0  0  0  0  0  0  0  0  0  0  # atno 7974 bound_to 7965
  154.4232  140.1778  156.1487 H   0  0  0  0  0  0  0  0  0  0  0  0  # atno 8008 bound_to 7997
  155.9933  140.3367  155.6749 H   0  0  0  0  0  0  0  0  0  0  0  0  # atno 8009 bound_to 7997
  155.6343  140.0673  157.2630 H   0  0  0  0  0  0  0  0  0  0  0  0  # atno 8010 bound_to 7997
  140.5506  143.2312  151.6918 H   0  0  0  0  0  0  0  0  0  0  0  0  # atno 10167 bound_to 10162
  156.5410  130.8563  151.2749 H   0  0  0  0  0  0  0  0  0  0  0  0  # atno 10718 bound_to 10713
  153.5169  135.7016  153.5752 H   0  0  0  0  0  0  0  0  0  0  0  0  # atno 10763 bound_to 10752
  153.3818  135.3918  155.1862 H   0  0  0  0  0  0  0  0  0  0  0  0  # atno 10764 bound_to 10752
  154.8698  135.3837  154.4654 H   0  0  0  0  0  0  0  0  0  0  0  0  # atno 10765 bound_to 10752
  140.0936  134.9026  157.1689 H   0  0  0  0  0  0  0  0  0  0  0  0  # atno 11005 bound_to 11000
  144.9555  139.4036  143.6381 LP  0  0  0  0  0  0  0  0  0  0  0  0  # atno 17320 bound_to 7965
  146.3318  139.8583  142.8861 LP  0  0  0  0  0  0  0  0  0  0  0  0  # atno 17321 bound_to 7965
  139.5026  144.3824  152.0363 LP  0  0  0  0  0  0  0  0  0  0  0  0  # atno 17342 bound_to 10162
  140.2941  144.3721  150.6080 LP  0  0  0  0  0  0  0  0  0  0  0  0  # atno 17343 bound_to 10162
  157.7405  130.9852  150.2383 LP  0  0  0  0  0  0  0  0  0  0  0  0  # atno 17370 bound_to 10713
  156.2971  130.3753  149.7785 LP  0  0  0  0  0  0  0  0  0  0  0  0  # atno 17371 bound_to 10713
  140.3317  134.2802  155.7227 LP  0  0  0  0  0  0  0  0  0  0  0  0  # atno 17394 bound_to 11000
  141.2085  133.7775  157.0053 LP  0  0  0  0  0  0  0  0  0  0  0  0  # atno 17395 bound_to 11000

$$$$
