AV-unprocessed.smi:1380|AV-procd|sdf|5601|dock2
  -GOLD-   22720 5203D 1   1.00000     0.00000
 Structure written by MMmdl.
 34 35  0  0  0  0  0  0  0  0  2 V2000
  155.7998  140.3355  162.2035 O   0  0  0  0  0  0  0  0  0  0  0  0
  155.0251  139.5435  161.6671 C   0  0  0  0  0  0  0  0  0  0  0  0
  154.0658  139.9035  160.8030 N   0  0  0  0  0  0  0  0  0  0  0  0
  153.7988  141.2733  160.3729 C   0  0  0  0  0  0  0  0  0  0  0  0
  152.6053  141.3843  159.4021 C   0  0  0  0  0  0  0  0  0  0  0  0
  152.0536  142.7937  159.2738 C   0  0  0  0  0  0  0  0  0  0  0  0
  152.3930  143.7854  160.2200 C   0  0  0  0  0  0  0  0  0  0  0  0
  151.8697  145.0873  160.0753 C   0  0  0  0  0  0  0  0  0  0  0  0
  151.0182  145.3677  158.9870 C   0  0  0  0  0  0  0  0  0  0  0  0
  150.7153  144.3930  158.1014 N   0  3  0  0  0  0  0  0  0  0  0  0
  151.1950  143.1343  158.2054 C   0  0  0  0  0  0  0  0  0  0  0  0
  155.0267  138.2223  161.8899 N   0  0  0  0  0  0  0  0  0  0  0  0
  155.9230  137.5389  162.8132 C   0  0  0  0  0  0  0  0  0  0  0  0
  155.2470  136.5477  163.7416 C   0  0  0  0  0  0  0  0  0  0  0  0
  153.8457  136.0509  163.4703 C   0  0  0  0  0  0  0  0  0  0  0  0
  154.1032  136.9875  164.6252 C   0  0  0  0  0  0  0  0  0  0  0  0
  153.4806  139.1797  160.4117 H   0  0  0  0  0  0  0  0  0  0  0  0
  153.6406  141.9129  161.2426 H   0  0  0  0  0  0  0  0  0  0  0  0
  154.7006  141.6401  159.8821 H   0  0  0  0  0  0  0  0  0  0  0  0
  152.8977  141.0290  158.4130 H   0  0  0  0  0  0  0  0  0  0  0  0
  151.8048  140.7204  159.7301 H   0  0  0  0  0  0  0  0  0  0  0  0
  153.0481  143.5523  161.0470 H   0  0  0  0  0  0  0  0  0  0  0  0
  152.1182  145.8592  160.7891 H   0  0  0  0  0  0  0  0  0  0  0  0
  150.5737  146.3343  158.7994 H   0  0  0  0  0  0  0  0  0  0  0  0
  150.8845  142.4448  157.4334 H   0  0  0  0  0  0  0  0  0  0  0  0
  154.3553  137.6511  161.3979 H   0  0  0  0  0  0  0  0  0  0  0  0
  156.6592  136.9980  162.2184 H   0  0  0  0  0  0  0  0  0  0  0  0
  156.4826  138.2697  163.3998 H   0  0  0  0  0  0  0  0  0  0  0  0
  155.9330  135.8319  164.1909 H   0  0  0  0  0  0  0  0  0  0  0  0
  153.3219  136.4536  162.6058 H   0  0  0  0  0  0  0  0  0  0  0  0
  153.6290  135.0104  163.7028 H   0  0  0  0  0  0  0  0  0  0  0  0
  154.0545  136.5719  165.6295 H   0  0  0  0  0  0  0  0  0  0  0  0
  153.7495  138.0120  164.5267 H   0  0  0  0  0  0  0  0  0  0  0  0
  150.0972  144.6168  157.3210 H   0  0  0  0  0  0  0  0  0  0  0  0
  1  2  2  0  0  0  0
  2  3  1  0  0  0  0
  2 12  1  0  0  0  0
  3  4  1  0  0  0  0
  3 17  1  0  0  0  0
  4  5  1  0  0  0  0
  4 18  1  0  0  0  0
  4 19  1  0  0  0  0
  5  6  1  0  0  0  0
  5 20  1  0  0  0  0
  5 21  1  0  0  0  0
  6 11  1  0  0  0  0
  6  7  2  0  0  0  0
  7  8  1  0  0  0  0
  7 22  1  0  0  0  0
  8  9  2  0  0  0  0
  8 23  1  0  0  0  0
  9 10  1  0  0  0  0
  9 24  1  0  0  0  0
 10 11  2  0  0  0  0
 10 34  1  0  0  0  0
 11 25  1  0  0  0  0
 12 13  1  0  0  0  0
 12 26  1  0  0  0  0
 13 14  1  0  0  0  0
 13 27  1  0  0  0  0
 13 28  1  0  0  0  0
 14 16  1  0  0  0  0
 14 15  1  0  0  0  0
 14 29  1  0  0  0  0
 15 16  1  0  0  0  0
 15 30  1  0  0  0  0
 15 31  1  0  0  0  0
 16 32  1  0  0  0  0
 16 33  1  0  0  0  0
M  CHG  1  10   1
M  END
> <s_m_source_file>
AV-unprocessed.smi

> <i_m_source_file_index>
1380

> <i_lp_mmshare_version>
43012

> <i_f3d_flags>
0

> <s_epik_input>
W0NIMl0xW0NIMl1bQ0hdMVtDSDJdW05IXUMoPU8pW05IXVtDSDJdW0NIMl1jMltjSF1bY0hdW2NIXW5bY0hdMg==

> <s_epik_cmdline>
J2VwaWtfcHl0aG9uJywgJy1waCcsICc3LjAnLCAnLXRuJywgJzgnLCAnLW1hJywgJzIwMCcsICctbWV0YWxfYmluZGluZycsICctaW1hZScsICc8aW5maWxlLm1hZT4nLCAnLW9tYWUnLCAnPG91dGZpbGUubWFlPic=

> <r_epik_Ionization_Penalty>
2.21218

> <r_epik_Ionization_Penalty_Charging>
2.21212

> <r_epik_Ionization_Penalty_Neutral>
5.76468e-05

> <r_epik_State_Penalty>
2.35642

> <r_epik_Charging_Adjusted_Penalty>
4.56854

> <i_epik_Tot_Q>
1

> <i_epik_Tot_abs_Q>
1

> <r_epik_Metal_State_Penalty>
2.37048

> <b_epik_Metal_Only>
0

> <s_lp_Force_Field>
OPLS_2005

> <r_lp_Energy>
16.6962

> <b_lp_Chiralities_Consistent>
1

> <s_lp_Variant>
AV-unprocessed.smi:1380-2

> <Gold.Version>
5.8.1

> <Gold.Id.Protein>
6NUR|6NUR_protein|mol2

> <Gold.PLP.Fitness>
42.2457

> <Gold.PLP.PLP>
-37.0153

> <Gold.PLP.part.hbond>
-2.0839

> <Gold.PLP.part.metal>
0.0000

> <Gold.PLP.part.buried>
-4.7289

> <Gold.PLP.part.nonpolar>
-30.2048

> <Gold.PLP.part.repulsive>
0.0868

> <Gold.PLP.ligand.clash>
0.0000

> <Gold.PLP.ligand.torsion>
0.6656

> <Gold.PLP.Chemscore.Hbond>
2.0000

> <Gold.PLP.Chemscore.CHOScore>
0.0000

> <Gold.PLP.Chemscore.Metal>
0.0000

> <Gold.Chemscore.Hbonds>
donor molecule, donor type, donor heavy atom, donor atom, acceptor molecule, acceptor atom, score
      L1  H    10    34       P1  8028  2.00

> <Gold.PLP.Chemscore.Internal.Correction>
0.5617

> <Gold.Rescore>
     Score         DG    S(hbond)    S(metal)    S(lipo)     H(rot)  DE(clash)    DE(int)     intcor
     14.73     -16.17       0.94        0.00     104.03       1.80       0.66       0.79       ----

> <Gold.Chemscore.Fitness>
14.7302

> <Gold.Chemscore.DG>
-16.1730

> <Gold.Chemscore.ZeroCoef>
-5.4800

> <Gold.Chemscore.Hbond>
0.9405

> <Gold.Chemscore.Metal>
0.0000

> <Gold.Chemscore.Lipo>
104.0304

> <Gold.Chemscore.Internal_Hbond>
0.0000

> <Gold.Chemscore.DEClash>
0.6573

> <Gold.Chemscore.DEInternal>
0.7856

> <Gold.Chemscore.Rot>
1.8047

> <Gold.Chemscore.Internal.Correction>
   9.000000E+99

> <Gold.Chemscore.Hbonds>
donor molecule, donor type, donor heavy atom, donor atom, acceptor molecule, acceptor atom, score
      L1  H    10    34       P1  8028  0.28

> <Gold.Chemscore.Hbond.Weighted>
-3.1414

> <Gold.Chemscore.Metal.Weighted>
-0.0000

> <Gold.Chemscore.Lipo.Weighted>
-12.1716

> <Gold.Chemscore.Internal_Hbond.Weighted>
0.0000

> <Gold.Chemscore.DEClash.Weighted>
0.6573

> <Gold.Chemscore.DEInternal.Weighted>
0.7856

> <Gold.Chemscore.Rot.Weighted>
4.6199

> <Gold.Chemscore.Internal.Correction.Weighted>
   9.000000E+99

> <Gold.Protein.RotatedTorsions>
[ 6907 6896 6895 6894 ] final  -72.65 input  -60.11 | X-H torsion
[ 7974 7965 7964 7962 ] final   90.41 input  175.53 | X-H torsion
[ 8008 7997 7996 7995 ] final  108.61 input   59.86 | X-H torsion
[ 10167 10162 10161 10158 ] final  -13.39 input  -65.29 | X-H torsion
[ 10718 10713 10712 10709 ] final   78.29 input   66.30 | X-H torsion
[ 10763 10752 10751 10750 ] final  143.35 input  -60.55 | X-H torsion
[ 11005 11000 10999 10996 ] final  111.82 input  -57.11 | X-H torsion

> <Gold.Protein.ActiveResidues>
 VAL166  LYS551  ARG553  GLY616  TRP617  ASP618  TYR619  PRO620  LYS621  CYS622 
 ASP623  PHE694  ASN695  SER759  ASP760  ASP761  ALA762  ILE779  LEU786  VAL792 
 PHE793  MET794  SER795  GLU796  ALA797  LYS798  CYS799  TRP800  GLU811  SER814 

> <Gold.Protein.RotatedAtoms>
  150.7161  134.5132  159.5616 H   0  0  0  0  0  0  0  0  0  0  0  0  # atno 6907 bound_to 6896
  152.2703  134.7936  160.0424 H   0  0  0  0  0  0  0  0  0  0  0  0  # atno 6908 bound_to 6896
  151.8618  133.3423  159.3743 H   0  0  0  0  0  0  0  0  0  0  0  0  # atno 6909 bound_to 6896
  145.5194  139.2279  143.2680 H   0  0  0  0  0  0  0  0  0  0  0  0  # atno 7974 bound_to 7965
  156.1916  140.3073  155.9344 H   0  0  0  0  0  0  0  0  0  0  0  0  # atno 8008 bound_to 7997
  155.3160  140.0453  157.3054 H   0  0  0  0  0  0  0  0  0  0  0  0  # atno 8009 bound_to 7997
  154.5459  140.2276  155.8573 H   0  0  0  0  0  0  0  0  0  0  0  0  # atno 8010 bound_to 7997
  140.7181  143.5431  150.9386 H   0  0  0  0  0  0  0  0  0  0  0  0  # atno 10167 bound_to 10162
  157.6740  130.9861  150.1764 H   0  0  0  0  0  0  0  0  0  0  0  0  # atno 10718 bound_to 10713
  153.9709  135.2951  155.3427 H   0  0  0  0  0  0  0  0  0  0  0  0  # atno 10763 bound_to 10752
  154.7323  135.5062  153.8987 H   0  0  0  0  0  0  0  0  0  0  0  0  # atno 10764 bound_to 10752
  153.0901  135.6705  153.9984 H   0  0  0  0  0  0  0  0  0  0  0  0  # atno 10765 bound_to 10752
  139.8912  134.9516  156.6492 H   0  0  0  0  0  0  0  0  0  0  0  0  # atno 11005 bound_to 11000
  146.2116  140.6005  142.9057 LP  0  0  0  0  0  0  0  0  0  0  0  0  # atno 17320 bound_to 7965
  144.7684  140.5583  143.6687 LP  0  0  0  0  0  0  0  0  0  0  0  0  # atno 17321 bound_to 7965
  139.9154  143.6669  152.3107 LP  0  0  0  0  0  0  0  0  0  0  0  0  # atno 17342 bound_to 10162
  139.7067  144.7627  151.1180 LP  0  0  0  0  0  0  0  0  0  0  0  0  # atno 17343 bound_to 10162
  156.2507  130.3700  149.8236 LP  0  0  0  0  0  0  0  0  0  0  0  0  # atno 17370 bound_to 10713
  156.6009  130.8546  151.3431 LP  0  0  0  0  0  0  0  0  0  0  0  0  # atno 17371 bound_to 10713
  140.7534  133.8878  155.8364 LP  0  0  0  0  0  0  0  0  0  0  0  0  # atno 17394 bound_to 11000
  140.9982  134.1186  157.4343 LP  0  0  0  0  0  0  0  0  0  0  0  0  # atno 17395 bound_to 11000

$$$$
