AV-unprocessed.smi:2119|AV-procd|sdf|8635|dock4
  -GOLD-   2272011383D 1   1.00000     0.00000
 Structure written by MMmdl.
 48 50  0  0  0  0  0  0  0  0  2 V2000
  144.7027  136.7058  152.9811 O   0  0  0  0  0  0  0  0  0  0  0  0
  145.8420  136.4723  152.5783 C   0  0  0  0  0  0  0  0  0  0  0  0
  146.8828  137.2870  152.7995 N   0  0  0  0  0  0  0  0  0  0  0  0
  146.8211  138.5405  153.5418 C   0  0  0  0  0  0  0  0  0  0  0  0
  148.1965  139.2515  153.6989 C   0  0  1  0  0  0  0  0  0  0  0  0
  148.1949  140.4139  154.7332 C   0  0  2  0  0  0  0  0  0  0  0  0
  147.7590  140.0509  156.1466 C   0  0  0  0  0  0  0  0  0  0  0  0
  147.2959  141.3828  156.7382 C   0  0  0  0  0  0  0  0  0  0  0  0
  147.0613  142.2503  155.6349 O   0  0  0  0  0  0  0  0  0  0  0  0
  147.1770  141.5162  154.4266 C   0  0  0  0  0  0  0  0  0  0  0  0
  149.2845  138.2810  154.0257 N   0  3  0  0  0  0  0  0  0  0  0  0
  150.6333  138.8615  154.2484 C   0  0  0  0  0  0  0  0  0  0  0  0
  151.6706  137.7350  154.3859 C   0  0  0  0  0  0  0  0  0  0  0  0
  151.2961  136.8724  155.4538 O   0  0  0  0  0  0  0  0  0  0  0  0
  150.0370  136.2504  155.2256 C   0  0  0  0  0  0  0  0  0  0  0  0
  148.9411  137.3233  155.1053 C   0  0  0  0  0  0  0  0  0  0  0  0
  146.2127  135.3972  151.8629 N   0  0  0  0  0  0  0  0  0  0  0  0
  145.4233  134.2866  151.4603 C   0  0  0  0  0  0  0  0  0  0  0  0
  145.8933  133.2278  150.6462 C   0  0  0  0  0  0  0  0  0  0  0  0
  145.0036  132.1941  150.2961 C   0  0  0  0  0  0  0  0  0  0  0  0
  143.6778  132.2589  150.7665 C   0  0  0  0  0  0  0  0  0  0  0  0
  143.2132  133.2680  151.5330 N   0  0  0  0  0  0  0  0  0  0  0  0
  144.0712  134.2562  151.8634 C   0  0  0  0  0  0  0  0  0  0  0  0
  147.7827  137.0217  152.4261 H   0  0  0  0  0  0  0  0  0  0  0  0
  146.1211  139.1862  153.0117 H   0  0  0  0  0  0  0  0  0  0  0  0
  146.3716  138.3372  154.5142 H   0  0  0  0  0  0  0  0  0  0  0  0
  148.4639  139.6925  152.7377 H   0  0  0  0  0  0  0  0  0  0  0  0
  149.1867  140.8645  154.7891 H   0  0  0  0  0  0  0  0  0  0  0  0
  146.9210  139.3527  156.1180 H   0  0  0  0  0  0  0  0  0  0  0  0
  148.5540  139.6003  156.7405 H   0  0  0  0  0  0  0  0  0  0  0  0
  146.3925  141.2631  157.3372 H   0  0  0  0  0  0  0  0  0  0  0  0
  148.0667  141.8215  157.3725 H   0  0  0  0  0  0  0  0  0  0  0  0
  147.4866  142.1646  153.6066 H   0  0  0  0  0  0  0  0  0  0  0  0
  146.2040  141.0900  154.1760 H   0  0  0  0  0  0  0  0  0  0  0  0
  150.9124  139.5126  153.4205 H   0  0  0  0  0  0  0  0  0  0  0  0
  150.6410  139.4680  155.1547 H   0  0  0  0  0  0  0  0  0  0  0  0
  151.7582  137.1693  153.4569 H   0  0  0  0  0  0  0  0  0  0  0  0
  152.6543  138.1539  154.5981 H   0  0  0  0  0  0  0  0  0  0  0  0
  150.0804  135.6358  154.3249 H   0  0  0  0  0  0  0  0  0  0  0  0
  149.8175  135.5806  156.0574 H   0  0  0  0  0  0  0  0  0  0  0  0
  148.8339  137.8470  156.0554 H   0  0  0  0  0  0  0  0  0  0  0  0
  147.9848  136.8442  154.8924 H   0  0  0  0  0  0  0  0  0  0  0  0
  147.1653  135.3920  151.5288 H   0  0  0  0  0  0  0  0  0  0  0  0
  146.9050  133.1947  150.2729 H   0  0  0  0  0  0  0  0  0  0  0  0
  145.3294  131.3721  149.6758 H   0  0  0  0  0  0  0  0  0  0  0  0
  142.9699  131.4829  150.5149 H   0  0  0  0  0  0  0  0  0  0  0  0
  143.6637  135.0490  152.4740 H   0  0  0  0  0  0  0  0  0  0  0  0
  149.3712  137.7095  153.1973 H   0  0  0  0  0  0  0  0  0  0  0  0
  1  2  2  0  0  0  0
  2  3  1  0  0  0  0
  2 17  1  0  0  0  0
  3  4  1  0  0  0  0
  3 24  1  0  0  0  0
  4  5  1  0  0  0  0
  4 25  1  0  0  0  0
  4 26  1  0  0  0  0
  5  6  1  0  0  0  0
  5 11  1  0  0  0  0
  5 27  1  0  0  0  0
  6 10  1  0  0  0  0
  6  7  1  0  0  0  0
  6 28  1  0  0  0  0
  7  8  1  0  0  0  0
  7 29  1  0  0  0  0
  7 30  1  0  0  0  0
  8  9  1  0  0  0  0
  8 31  1  0  0  0  0
  8 32  1  0  0  0  0
  9 10  1  0  0  0  0
 10 33  1  0  0  0  0
 10 34  1  0  0  0  0
 11 16  1  0  0  0  0
 11 12  1  0  0  0  0
 11 48  1  0  0  0  0
 12 13  1  0  0  0  0
 12 35  1  0  0  0  0
 12 36  1  0  0  0  0
 13 14  1  0  0  0  0
 13 37  1  0  0  0  0
 13 38  1  0  0  0  0
 14 15  1  0  0  0  0
 15 16  1  0  0  0  0
 15 39  1  0  0  0  0
 15 40  1  0  0  0  0
 16 41  1  0  0  0  0
 16 42  1  0  0  0  0
 17 18  1  0  0  0  0
 17 43  1  0  0  0  0
 18 23  1  0  0  0  0
 18 19  2  0  0  0  0
 19 20  1  0  0  0  0
 19 44  1  0  0  0  0
 20 21  2  0  0  0  0
 20 45  1  0  0  0  0
 21 22  1  0  0  0  0
 21 46  1  0  0  0  0
 22 23  2  0  0  0  0
 23 47  1  0  0  0  0
M  CHG  1  11   1
M  END
> <s_m_source_file>
AV-unprocessed.smi

> <i_m_source_file_index>
2119

> <i_lp_mmshare_version>
43012

> <i_f3d_flags>
0

> <s_epik_input>
W2NIXTFuW2NIXVtjSF1bY0hdYzFbTkhdQyg9TylbTkhdW0NIMl1bQ0BIXShbQ0BASF0yW0NIMl1bQ0gyXU9bQ0gyXTIpTjNbQ0gyXVtDSDJdT1tDSDJdW0NIMl0z

> <s_epik_cmdline>
J2VwaWtfcHl0aG9uJywgJy1waCcsICc3LjAnLCAnLXRuJywgJzgnLCAnLW1hJywgJzIwMCcsICctbWV0YWxfYmluZGluZycsICctaW1hZScsICc8aW5maWxlLm1hZT4nLCAnLW9tYWUnLCAnPG91dGZpbGUubWFlPic=

> <r_epik_Ionization_Penalty>
0.987463

> <r_epik_Ionization_Penalty_Charging>
0.98326

> <r_epik_Ionization_Penalty_Neutral>
0.00420251

> <r_epik_State_Penalty>
1.01721

> <r_epik_Charging_Adjusted_Penalty>
2.00047

> <i_epik_Tot_Q>
1

> <i_epik_Tot_abs_Q>
1

> <r_epik_Metal_State_Penalty>
1.01439

> <b_epik_Metal_Only>
0

> <s_lp_Force_Field>
OPLS_2005

> <r_lp_Energy>
39.9972

> <b_lp_Chiralities_Consistent>
1

> <s_lp_Variant>
AV-unprocessed.smi:2119-6

> <Gold.Version>
5.8.1

> <Gold.Id.Protein>
6NUR|6NUR_protein|mol2

> <Gold.PLP.Fitness>
48.1732

> <Gold.PLP.PLP>
-33.4513

> <Gold.PLP.part.hbond>
-3.7478

> <Gold.PLP.part.metal>
0.0000

> <Gold.PLP.part.buried>
-5.0561

> <Gold.PLP.part.nonpolar>
-25.8978

> <Gold.PLP.part.repulsive>
1.4249

> <Gold.PLP.ligand.clash>
0.0000

> <Gold.PLP.ligand.torsion>
0.3123

> <Gold.PLP.Chemscore.Hbond>
4.1332

> <Gold.PLP.Chemscore.CHOScore>
0.8996

> <Gold.PLP.Chemscore.Metal>
0.0000

> <Gold.Chemscore.Hbonds>
donor molecule, donor type, donor heavy atom, donor atom, acceptor molecule, acceptor atom, score
      L1  H     3    24       P1  7948  0.96
      L1  H    11    48       P1  7948  2.00
      L1  H    17    43       P1  7948  0.86
      P1  H 10752 10765       L1    14  0.07
      L1  C    21    46       P1 10952  0.81

> <Gold.PLP.Chemscore.Internal.Correction>
0.2482

> <Gold.Rescore>
     Score         DG    S(hbond)    S(metal)    S(lipo)     H(rot)  DE(clash)    DE(int)     intcor
     18.52     -20.24       2.74        0.00      85.06       1.70       0.02       1.70       ----

> <Gold.Chemscore.Fitness>
18.5157

> <Gold.Chemscore.DG>
-20.2385

> <Gold.Chemscore.ZeroCoef>
-5.4800

> <Gold.Chemscore.Hbond>
2.7438

> <Gold.Chemscore.Metal>
0.0000

> <Gold.Chemscore.Lipo>
85.0585

> <Gold.Chemscore.Internal_Hbond>
0.0000

> <Gold.Chemscore.DEClash>
0.0185

> <Gold.Chemscore.DEInternal>
1.7043

> <Gold.Chemscore.Rot>
1.7021

> <Gold.Chemscore.Internal.Correction>
   9.000000E+99

> <Gold.Chemscore.Hbonds>
donor molecule, donor type, donor heavy atom, donor atom, acceptor molecule, acceptor atom, score
      L1  H     3    24       P1  7948  0.90
      L1  H    11    48       P1  7948  0.92
      L1  H    17    43       P1  7948  0.83

> <Gold.Chemscore.Hbond.Weighted>
-9.1641

> <Gold.Chemscore.Metal.Weighted>
-0.0000

> <Gold.Chemscore.Lipo.Weighted>
-9.9518

> <Gold.Chemscore.Internal_Hbond.Weighted>
0.0000

> <Gold.Chemscore.DEClash.Weighted>
0.0185

> <Gold.Chemscore.DEInternal.Weighted>
1.7043

> <Gold.Chemscore.Rot.Weighted>
4.3575

> <Gold.Chemscore.Internal.Correction.Weighted>
   9.000000E+99

> <Gold.Protein.RotatedTorsions>
[ 6907 6896 6895 6894 ] final -148.00 input  -60.11 | X-H torsion
[ 7974 7965 7964 7962 ] final   -0.02 input  175.53 | X-H torsion
[ 8008 7997 7996 7995 ] final  -46.42 input   59.86 | X-H torsion
[ 10167 10162 10161 10158 ] final   50.75 input  -65.29 | X-H torsion
[ 10718 10713 10712 10709 ] final  160.20 input   66.30 | X-H torsion
[ 10763 10752 10751 10750 ] final -177.53 input  -60.55 | X-H torsion
[ 11005 11000 10999 10996 ] final -151.34 input  -57.11 | X-H torsion

> <Gold.Protein.ActiveResidues>
 VAL166  LYS551  ARG553  GLY616  TRP617  ASP618  TYR619  PRO620  LYS621  CYS622 
 ASP623  PHE694  ASN695  SER759  ASP760  ASP761  ALA762  ILE779  LEU786  VAL792 
 PHE793  MET794  SER795  GLU796  ALA797  LYS798  CYS799  TRP800  GLU811  SER814 

> <Gold.Protein.RotatedAtoms>
  151.1637  133.4829  159.2593 H   0  0  0  0  0  0  0  0  0  0  0  0  # atno 6907 bound_to 6896
  151.1428  135.0188  159.8643 H   0  0  0  0  0  0  0  0  0  0  0  0  # atno 6908 bound_to 6896
  152.5462  134.1529  159.8579 H   0  0  0  0  0  0  0  0  0  0  0  0  # atno 6909 bound_to 6896
  146.2431  140.1206  142.8340 H   0  0  0  0  0  0  0  0  0  0  0  0  # atno 7974 bound_to 7965
  154.4007  140.1372  156.4008 H   0  0  0  0  0  0  0  0  0  0  0  0  # atno 8008 bound_to 7997
  155.7826  140.3481  155.5285 H   0  0  0  0  0  0  0  0  0  0  0  0  # atno 8009 bound_to 7997
  155.8659  140.0964  157.1573 H   0  0  0  0  0  0  0  0  0  0  0  0  # atno 8010 bound_to 7997
  140.2691  144.3285  150.6295 H   0  0  0  0  0  0  0  0  0  0  0  0  # atno 10167 bound_to 10162
  157.1537  131.0570  151.2267 H   0  0  0  0  0  0  0  0  0  0  0  0  # atno 10718 bound_to 10713
  154.5590  135.2818  155.0937 H   0  0  0  0  0  0  0  0  0  0  0  0  # atno 10763 bound_to 10752
  154.2354  135.6366  153.5193 H   0  0  0  0  0  0  0  0  0  0  0  0  # atno 10764 bound_to 10752
  153.0024  135.5547  154.6178 H   0  0  0  0  0  0  0  0  0  0  0  0  # atno 10765 bound_to 10752
  140.7306  134.3625  157.5167 H   0  0  0  0  0  0  0  0  0  0  0  0  # atno 11005 bound_to 11000
  145.0409  140.8945  143.5053 LP  0  0  0  0  0  0  0  0  0  0  0  0  # atno 17320 bound_to 7965
  145.1286  139.2646  143.5551 LP  0  0  0  0  0  0  0  0  0  0  0  0  # atno 17321 bound_to 7965
  140.5904  143.2168  151.7264 LP  0  0  0  0  0  0  0  0  0  0  0  0  # atno 17342 bound_to 10162
  139.4994  144.3948  152.0243 LP  0  0  0  0  0  0  0  0  0  0  0  0  # atno 17343 bound_to 10162
  157.4197  130.7430  149.6903 LP  0  0  0  0  0  0  0  0  0  0  0  0  # atno 17370 bound_to 10713
  155.9766  130.4074  150.3769 LP  0  0  0  0  0  0  0  0  0  0  0  0  # atno 17371 bound_to 10713
  139.8827  134.9016  156.2814 LP  0  0  0  0  0  0  0  0  0  0  0  0  # atno 17394 bound_to 11000
  140.9924  133.7200  156.0834 LP  0  0  0  0  0  0  0  0  0  0  0  0  # atno 17395 bound_to 11000

$$$$
