AV-unprocessed.smi:608|AV-procd|sdf|3044|dock8
  -GOLD-   2262023563D 1   1.00000     0.00000
 Structure written by MMmdl.
 40 41  0  0  0  0  0  0  0  0  1 V2000
  150.4763  144.9051  159.1161 C   0  0  0  0  0  0  0  0  0  0  0  0
  150.9703  143.6234  158.4359 C   0  0  0  0  0  0  0  0  0  0  0  0
  151.9536  142.8612  159.2621 C   0  0  0  0  0  0  0  0  0  0  0  0
  152.4107  143.1725  160.5189 C   0  0  0  0  0  0  0  0  0  0  0  0
  153.3388  142.2597  161.0252 N   0  0  0  0  0  0  0  0  0  0  0  0
  153.6014  141.2710  160.1672 C   0  0  0  0  0  0  0  0  0  0  0  0
  154.5429  140.1514  160.4620 C   0  0  0  0  0  0  0  0  0  0  0  0
  153.8477  138.9497  161.1148 C   0  0  0  0  0  0  0  0  0  0  0  0
  154.6677  138.4139  162.1924 N   0  0  0  0  0  0  0  0  0  0  0  0
  155.0905  137.1417  162.2743 C   0  0  0  0  0  0  0  0  0  0  0  0
  154.8112  136.3050  161.4144 O   0  0  0  0  0  0  0  0  0  0  0  0
  155.8459  136.8622  163.3687 N   0  0  0  0  0  0  0  0  0  0  0  0
  156.0600  137.7558  164.5155 C   0  0  0  0  0  0  0  0  0  0  0  0
  154.9738  137.4869  165.5725 C   0  0  0  0  0  0  0  0  0  0  0  0
  155.3178  136.3487  166.4188 N   0  0  0  0  0  0  0  0  0  0  0  0
  155.5723  135.0892  166.0189 C   0  0  0  0  0  0  0  0  0  0  0  0
  155.8858  134.2222  166.8314 O   0  0  0  0  0  0  0  0  0  0  0  0
  155.4483  134.7121  164.5313 C   0  0  0  0  0  0  0  0  0  0  0  0
  156.3848  135.5169  163.6043 C   0  0  0  0  0  0  0  0  0  0  0  0
  152.6794  141.3872  158.6733 S   0  0  0  0  0  0  0  0  0  0  0  0
  149.7534  145.4254  158.4877 H   0  0  0  0  0  0  0  0  0  0  0  0
  151.3008  145.5914  159.3112 H   0  0  0  0  0  0  0  0  0  0  0  0
  149.9922  144.6835  160.0678 H   0  0  0  0  0  0  0  0  0  0  0  0
  150.1151  142.9866  158.2072 H   0  0  0  0  0  0  0  0  0  0  0  0
  151.4229  143.8754  157.4766 H   0  0  0  0  0  0  0  0  0  0  0  0
  152.1312  144.0229  161.1235 H   0  0  0  0  0  0  0  0  0  0  0  0
  155.0194  139.8481  159.5290 H   0  0  0  0  0  0  0  0  0  0  0  0
  155.3368  140.5239  161.1110 H   0  0  0  0  0  0  0  0  0  0  0  0
  152.8754  139.2482  161.5106 H   0  0  0  0  0  0  0  0  0  0  0  0
  153.6706  138.1689  160.3733 H   0  0  0  0  0  0  0  0  0  0  0  0
  154.9332  139.0517  162.9284 H   0  0  0  0  0  0  0  0  0  0  0  0
  157.0554  137.6175  164.9410 H   0  0  0  0  0  0  0  0  0  0  0  0
  156.0371  138.8051  164.2201 H   0  0  0  0  0  0  0  0  0  0  0  0
  154.8895  138.3548  166.2267 H   0  0  0  0  0  0  0  0  0  0  0  0
  153.9903  137.3449  165.1213 H   0  0  0  0  0  0  0  0  0  0  0  0
  155.3959  136.5381  167.4077 H   0  0  0  0  0  0  0  0  0  0  0  0
  155.6896  133.6528  164.4340 H   0  0  0  0  0  0  0  0  0  0  0  0
  154.4090  134.8114  164.2156 H   0  0  0  0  0  0  0  0  0  0  0  0
  156.5208  134.9756  162.6669 H   0  0  0  0  0  0  0  0  0  0  0  0
  157.3858  135.5790  164.0340 H   0  0  0  0  0  0  0  0  0  0  0  0
  1  2  1  0  0  0  0
  1 21  1  0  0  0  0
  1 22  1  0  0  0  0
  1 23  1  0  0  0  0
  2  3  1  0  0  0  0
  2 24  1  0  0  0  0
  2 25  1  0  0  0  0
  3 20  1  0  0  0  0
  3  4  2  0  0  0  0
  4  5  1  0  0  0  0
  4 26  1  0  0  0  0
  5  6  2  0  0  0  0
  6  7  1  0  0  0  0
  6 20  1  0  0  0  0
  7  8  1  0  0  0  0
  7 27  1  0  0  0  0
  7 28  1  0  0  0  0
  8  9  1  0  0  0  0
  8 29  1  0  0  0  0
  8 30  1  0  0  0  0
  9 10  1  0  0  0  0
  9 31  1  0  0  0  0
 10 11  2  0  0  0  0
 10 12  1  0  0  0  0
 12 19  1  0  0  0  0
 12 13  1  0  0  0  0
 13 14  1  0  0  0  0
 13 32  1  0  0  0  0
 13 33  1  0  0  0  0
 14 15  1  0  0  0  0
 14 34  1  0  0  0  0
 14 35  1  0  0  0  0
 15 16  1  0  0  0  0
 15 36  1  0  0  0  0
 16 17  2  0  0  0  0
 16 18  1  0  0  0  0
 18 19  1  0  0  0  0
 18 37  1  0  0  0  0
 18 38  1  0  0  0  0
 19 39  1  0  0  0  0
 19 40  1  0  0  0  0
M  END
> <s_m_source_file>
AV-unprocessed.smi

> <i_m_source_file_index>
608

> <i_lp_mmshare_version>
43012

> <i_f3d_flags>
0

> <s_epik_input>
W0NIM11bQ0gyXWMxW2NIXW5jKHMxKVtDSDJdW0NIMl1bTkhdQyg9TylOMltDSDJdW0NIMl1bTkhdQyg9TylbQ0gyXVtDSDJdMg==

> <s_epik_cmdline>
J2VwaWtfcHl0aG9uJywgJy1waCcsICc3LjAnLCAnLXRuJywgJzgnLCAnLW1hJywgJzIwMCcsICctbWV0YWxfYmluZGluZycsICctaW1hZScsICc8aW5maWxlLm1hZT4nLCAnLW9tYWUnLCAnPG91dGZpbGUubWFlPic=

> <r_epik_Ionization_Penalty>
0.000937608

> <r_epik_Ionization_Penalty_Charging>
0

> <r_epik_Ionization_Penalty_Neutral>
0.000937608

> <r_epik_State_Penalty>
0.000579253

> <r_epik_Charging_Adjusted_Penalty>
0.000579253

> <i_epik_Tot_Q>
0

> <i_epik_Tot_abs_Q>
0

> <r_epik_Metal_State_Penalty>
-0

> <b_epik_Metal_Only>
0

> <s_lp_Force_Field>
OPLS_2005

> <r_lp_Energy>
19.2261

> <b_lp_Chiralities_Consistent>
1

> <s_lp_Variant>
AV-unprocessed.smi:608-1

> <Gold.Version>
5.8.1

> <Gold.Id.Protein>
6NUR|6NUR_protein|mol2

> <Gold.PLP.Fitness>
42.5486

> <Gold.PLP.PLP>
-40.9085

> <Gold.PLP.part.hbond>
-1.9714

> <Gold.PLP.part.metal>
0.0000

> <Gold.PLP.part.buried>
-4.9471

> <Gold.PLP.part.nonpolar>
-34.8753

> <Gold.PLP.part.repulsive>
0.1593

> <Gold.PLP.ligand.clash>
0.0000

> <Gold.PLP.ligand.torsion>
0.6960

> <Gold.PLP.Chemscore.Hbond>
0.9913

> <Gold.PLP.Chemscore.CHOScore>
0.0000

> <Gold.PLP.Chemscore.Metal>
0.0000

> <Gold.PLP.Chemscore.Internal.Correction>
0.0584

> <Gold.Rescore>
     Score         DG    S(hbond)    S(metal)    S(lipo)     H(rot)  DE(clash)    DE(int)     intcor
     16.31     -16.53       0.97        0.00     101.91       1.61       0.03       0.19       ----

> <Gold.Chemscore.Fitness>
16.3093

> <Gold.Chemscore.DG>
-16.5297

> <Gold.Chemscore.ZeroCoef>
-5.4800

> <Gold.Chemscore.Hbond>
0.9740

> <Gold.Chemscore.Metal>
0.0000

> <Gold.Chemscore.Lipo>
101.9089

> <Gold.Chemscore.Internal_Hbond>
0.0000

> <Gold.Chemscore.DEClash>
0.0297

> <Gold.Chemscore.DEInternal>
0.1906

> <Gold.Chemscore.Rot>
1.6120

> <Gold.Chemscore.Internal.Correction>
   9.000000E+99

> <Gold.Chemscore.Hbond.Weighted>
-3.2530

> <Gold.Chemscore.Metal.Weighted>
-0.0000

> <Gold.Chemscore.Lipo.Weighted>
-11.9233

> <Gold.Chemscore.Internal_Hbond.Weighted>
0.0000

> <Gold.Chemscore.DEClash.Weighted>
0.0297

> <Gold.Chemscore.DEInternal.Weighted>
0.1906

> <Gold.Chemscore.Rot.Weighted>
4.1267

> <Gold.Chemscore.Internal.Correction.Weighted>
   9.000000E+99

> <Gold.Protein.RotatedTorsions>
[ 6907 6896 6895 6894 ] final   54.64 input  -60.11 | X-H torsion
[ 7974 7965 7964 7962 ] final  139.23 input  175.53 | X-H torsion
[ 8008 7997 7996 7995 ] final  -21.81 input   59.86 | X-H torsion
[ 10167 10162 10161 10158 ] final -152.29 input  -65.29 | X-H torsion
[ 10718 10713 10712 10709 ] final -117.38 input   66.30 | X-H torsion
[ 10763 10752 10751 10750 ] final   19.02 input  -60.55 | X-H torsion
[ 11005 11000 10999 10996 ] final  114.67 input  -57.11 | X-H torsion

> <Gold.Protein.ActiveResidues>
 VAL166  LYS551  ARG553  GLY616  TRP617  ASP618  TYR619  PRO620  LYS621  CYS622 
 ASP623  PHE694  ASN695  SER759  ASP760  ASP761  ALA762  ILE779  LEU786  VAL792 
 PHE793  MET794  SER795  GLU796  ALA797  LYS798  CYS799  TRP800  GLU811  SER814 

> <Gold.Protein.RotatedAtoms>
  152.3460  134.7071  160.0250 H   0  0  0  0  0  0  0  0  0  0  0  0  # atno 6907 bound_to 6896
  151.7441  133.3318  159.3381 H   0  0  0  0  0  0  0  0  0  0  0  0  # atno 6908 bound_to 6896
  150.7509  134.6185  159.6168 H   0  0  0  0  0  0  0  0  0  0  0  0  # atno 6909 bound_to 6896
  144.9298  139.5061  143.5623 H   0  0  0  0  0  0  0  0  0  0  0  0  # atno 7974 bound_to 7965
  154.4682  140.2024  156.0062 H   0  0  0  0  0  0  0  0  0  0  0  0  # atno 8008 bound_to 7997
  156.0965  140.3250  155.7855 H   0  0  0  0  0  0  0  0  0  0  0  0  # atno 8009 bound_to 7997
  155.4870  140.0543  157.2950 H   0  0  0  0  0  0  0  0  0  0  0  0  # atno 8010 bound_to 7997
  139.7194  143.8981  152.2498 H   0  0  0  0  0  0  0  0  0  0  0  0  # atno 10167 bound_to 10162
  156.1029  130.6187  150.9156 H   0  0  0  0  0  0  0  0  0  0  0  0  # atno 10718 bound_to 10713
  153.1198  135.6716  153.9355 H   0  0  0  0  0  0  0  0  0  0  0  0  # atno 10763 bound_to 10752
  153.8873  135.3051  155.3448 H   0  0  0  0  0  0  0  0  0  0  0  0  # atno 10764 bound_to 10752
  154.7611  135.4987  153.9545 H   0  0  0  0  0  0  0  0  0  0  0  0  # atno 10765 bound_to 10752
  139.8987  134.9571  156.6927 H   0  0  0  0  0  0  0  0  0  0  0  0  # atno 11005 bound_to 11000
  146.3242  139.8240  142.8921 LP  0  0  0  0  0  0  0  0  0  0  0  0  # atno 17320 bound_to 7965
  145.3160  141.0232  143.3527 LP  0  0  0  0  0  0  0  0  0  0  0  0  # atno 17321 bound_to 7965
  139.8873  144.6985  150.8810 LP  0  0  0  0  0  0  0  0  0  0  0  0  # atno 17342 bound_to 10162
  140.7750  143.3614  151.1821 LP  0  0  0  0  0  0  0  0  0  0  0  0  # atno 17343 bound_to 10162
  157.6202  131.0930  150.8636 LP  0  0  0  0  0  0  0  0  0  0  0  0  # atno 17370 bound_to 10713
  156.8760  130.5162  149.5294 LP  0  0  0  0  0  0  0  0  0  0  0  0  # atno 17371 bound_to 10713
  140.7212  133.9139  155.8148 LP  0  0  0  0  0  0  0  0  0  0  0  0  # atno 17394 bound_to 11000
  141.0226  134.0868  157.4104 LP  0  0  0  0  0  0  0  0  0  0  0  0  # atno 17395 bound_to 11000

$$$$
