AV-unprocessed.smi:2047|AV-procd|sdf|8320|dock9
  -GOLD-   2272010583D 1   1.00000     0.00000
 Structure written by MMmdl.
 42 44  0  0  0  0  0  0  0  0  3 V2000
  147.9492  137.6276  156.4911 O   0  0  0  0  0  0  0  0  0  0  0  0
  147.7191  137.5525  155.2786 C   0  0  0  0  0  0  0  0  0  0  0  0
  146.7905  136.6967  154.8196 N   0  0  0  0  0  0  0  0  0  0  0  0
  145.9652  135.8083  155.5631 C   0  0  0  0  0  0  0  0  0  0  0  0
  145.8537  135.8854  156.9737 C   0  0  0  0  0  0  0  0  0  0  0  0
  144.9963  134.9986  157.6547 C   0  0  0  0  0  0  0  0  0  0  0  0
  144.2573  134.0571  156.9141 C   0  0  0  0  0  0  0  0  0  0  0  0
  144.3741  134.0209  155.5698 N   0  3  0  0  0  0  0  0  0  0  0  0
  145.1844  134.8514  154.8678 C   0  0  0  0  0  0  0  0  0  0  0  0
  145.2366  134.7332  153.4684 N   0  0  0  0  0  0  0  0  0  0  0  0
  145.7764  133.4806  152.9671 C   0  0  0  0  0  0  0  0  0  0  0  0
  145.3808  133.4290  151.4889 C   0  0  0  0  0  0  0  0  0  0  0  0
  144.1932  134.3918  151.3640 C   0  0  0  0  0  0  0  0  0  0  0  0
  143.9734  134.9323  152.7793 C   0  0  0  0  0  0  0  0  0  0  0  0
  148.3195  138.2436  154.2731 N   0  5  0  0  0  0  0  0  0  0  0  0
  149.5420  139.0397  154.4165 C   0  0  1  0  0  0  0  0  0  0  0  0
  149.3268  140.1955  155.4136 C   0  0  0  0  0  0  0  0  0  0  0  0
  150.6953  140.7788  155.7924 C   0  0  0  0  0  0  0  0  0  0  0  0
  151.8673  139.3685  155.7437 S   0  0  0  0  0  0  0  0  0  0  0  0
  152.9690  139.6934  154.8238 O   0  0  0  0  0  0  0  0  0  0  0  0
  152.1425  138.9108  157.1146 O   0  0  0  0  0  0  0  0  0  0  0  0
  150.7125  138.1898  154.9379 C   0  0  0  0  0  0  0  0  0  0  0  0
  146.7420  136.6073  153.8152 H   0  0  0  0  0  0  0  0  0  0  0  0
  146.4046  136.6219  157.5392 H   0  0  0  0  0  0  0  0  0  0  0  0
  144.9042  135.0454  158.7298 H   0  0  0  0  0  0  0  0  0  0  0  0
  143.5768  133.3413  157.3517 H   0  0  0  0  0  0  0  0  0  0  0  0
  146.8585  133.4407  153.0949 H   0  0  0  0  0  0  0  0  0  0  0  0
  145.3423  132.6337  153.5004 H   0  0  0  0  0  0  0  0  0  0  0  0
  146.2054  133.7736  150.8636 H   0  0  0  0  0  0  0  0  0  0  0  0
  145.1286  132.4153  151.1767 H   0  0  0  0  0  0  0  0  0  0  0  0
  144.4463  135.2056  150.6831 H   0  0  0  0  0  0  0  0  0  0  0  0
  143.2990  133.9016  150.9779 H   0  0  0  0  0  0  0  0  0  0  0  0
  143.1755  134.3768  153.2742 H   0  0  0  0  0  0  0  0  0  0  0  0
  143.6945  135.9864  152.7680 H   0  0  0  0  0  0  0  0  0  0  0  0
  149.8471  139.4852  153.4682 H   0  0  0  0  0  0  0  0  0  0  0  0
  148.6661  140.9625  155.0083 H   0  0  0  0  0  0  0  0  0  0  0  0
  148.8512  139.8114  156.3176 H   0  0  0  0  0  0  0  0  0  0  0  0
  151.0252  141.5221  155.0648 H   0  0  0  0  0  0  0  0  0  0  0  0
  150.6998  141.2375  156.7811 H   0  0  0  0  0  0  0  0  0  0  0  0
  150.3820  137.4786  155.6957 H   0  0  0  0  0  0  0  0  0  0  0  0
  151.2247  137.6431  154.1463 H   0  0  0  0  0  0  0  0  0  0  0  0
  143.8244  133.3328  155.0555 H   0  0  0  0  0  0  0  0  0  0  0  0
  1  2  2  0  0  0  0
  2  3  1  0  0  0  0
  2 15  1  0  0  0  0
  3  4  1  0  0  0  0
  3 23  1  0  0  0  0
  4  9  1  0  0  0  0
  4  5  2  0  0  0  0
  5  6  1  0  0  0  0
  5 24  1  0  0  0  0
  6  7  2  0  0  0  0
  6 25  1  0  0  0  0
  7  8  1  0  0  0  0
  7 26  1  0  0  0  0
  8  9  2  0  0  0  0
  8 42  1  0  0  0  0
  9 10  1  0  0  0  0
 10 14  1  0  0  0  0
 10 11  1  0  0  0  0
 11 12  1  0  0  0  0
 11 27  1  0  0  0  0
 11 28  1  0  0  0  0
 12 13  1  0  0  0  0
 12 29  1  0  0  0  0
 12 30  1  0  0  0  0
 13 14  1  0  0  0  0
 13 31  1  0  0  0  0
 13 32  1  0  0  0  0
 14 33  1  0  0  0  0
 14 34  1  0  0  0  0
 15 16  1  0  0  0  0
 16 22  1  0  0  0  0
 16 17  1  0  0  0  0
 16 35  1  0  0  0  0
 17 18  1  0  0  0  0
 17 36  1  0  0  0  0
 17 37  1  0  0  0  0
 18 19  1  0  0  0  0
 18 38  1  0  0  0  0
 18 39  1  0  0  0  0
 19 20  2  0  0  0  0
 19 21  2  0  0  0  0
 19 22  1  0  0  0  0
 22 40  1  0  0  0  0
 22 41  1  0  0  0  0
M  CHG  1   8   1
M  CHG  1  15  -1
M  END
> <s_m_source_file>
AV-unprocessed.smi

> <i_m_source_file_index>
2047

> <i_lp_mmshare_version>
43012

> <i_f3d_flags>
0

> <s_epik_input>
Tz1TMSg9TylbQ0gyXVtDSDJdW0NASF0oW0NIMl0xKVtOSF1DKD1PKVtOSF1jMltjSF1bY0hdW2NIXW5jMk4zW0NIMl1bQ0gyXVtDSDJdW0NIMl0z

> <s_epik_cmdline>
J2VwaWtfcHl0aG9uJywgJy1waCcsICc3LjAnLCAnLXRuJywgJzgnLCAnLW1hJywgJzIwMCcsICctbWV0YWxfYmluZGluZycsICctaW1hZScsICc8aW5maWxlLm1hZT4nLCAnLW9tYWUnLCAnPG91dGZpbGUubWFlPic=

> <r_lp_tautomer_probability>
0.999994

> <r_epik_Ionization_Penalty>
8.27033

> <r_epik_Ionization_Penalty_Charging>
8.27033

> <r_epik_Ionization_Penalty_Neutral>
3.23223e-06

> <r_epik_State_Penalty>
7.90314

> <r_epik_Charging_Adjusted_Penalty>
16.1735

> <i_epik_Tot_Q>
0

> <i_epik_Tot_abs_Q>
2

> <r_epik_Metal_State_Penalty>
3.89381

> <b_epik_Metal_Only>
1

> <s_lp_Force_Field>
OPLS_2005

> <r_lp_Energy>
40.3449

> <b_lp_Chiralities_Consistent>
1

> <s_lp_Variant>
AV-unprocessed.smi:2047-6

> <Gold.Version>
5.8.1

> <Gold.Id.Protein>
6NUR|6NUR_protein|mol2

> <Gold.PLP.Fitness>
32.6379

> <Gold.PLP.PLP>
-23.3960

> <Gold.PLP.part.hbond>
-3.0000

> <Gold.PLP.part.metal>
0.0000

> <Gold.PLP.part.buried>
-4.3321

> <Gold.PLP.part.nonpolar>
-17.4896

> <Gold.PLP.part.repulsive>
0.6736

> <Gold.PLP.ligand.clash>
0.0000

> <Gold.PLP.ligand.torsion>
0.0911

> <Gold.PLP.Chemscore.Hbond>
3.1236

> <Gold.PLP.Chemscore.CHOScore>
0.0000

> <Gold.PLP.Chemscore.Metal>
0.0000

> <Gold.Chemscore.Hbonds>
donor molecule, donor type, donor heavy atom, donor atom, acceptor molecule, acceptor atom, score
      L1  H     8    42       P1 10957  2.00
      P1  H  7989  7998       L1    20  0.17
      P1  H  7997  8010       L1    20  1.00

> <Gold.PLP.Chemscore.Internal.Correction>
0.0535

> <Gold.Rescore>
     Score         DG    S(hbond)    S(metal)    S(lipo)     H(rot)  DE(clash)    DE(int)     intcor
     12.52     -14.07       1.93        0.00      45.59       1.25       0.01       1.54       ----

> <Gold.Chemscore.Fitness>
12.5158

> <Gold.Chemscore.DG>
-14.0687

> <Gold.Chemscore.ZeroCoef>
-5.4800

> <Gold.Chemscore.Hbond>
1.9308

> <Gold.Chemscore.Metal>
0.0000

> <Gold.Chemscore.Lipo>
45.5946

> <Gold.Chemscore.Internal_Hbond>
0.0000

> <Gold.Chemscore.DEClash>
0.0135

> <Gold.Chemscore.DEInternal>
1.5394

> <Gold.Chemscore.Rot>
1.2480

> <Gold.Chemscore.Internal.Correction>
   9.000000E+99

> <Gold.Chemscore.Hbonds>
donor molecule, donor type, donor heavy atom, donor atom, acceptor molecule, acceptor atom, score
      L1  H     8    42       P1 10957  0.98
      P1  H  7989  7998       L1    20  0.02
      P1  H  7997  8010       L1    20  0.70

> <Gold.Chemscore.Hbond.Weighted>
-6.4490

> <Gold.Chemscore.Metal.Weighted>
-0.0000

> <Gold.Chemscore.Lipo.Weighted>
-5.3346

> <Gold.Chemscore.Internal_Hbond.Weighted>
0.0000

> <Gold.Chemscore.DEClash.Weighted>
0.0135

> <Gold.Chemscore.DEInternal.Weighted>
1.5394

> <Gold.Chemscore.Rot.Weighted>
3.1948

> <Gold.Chemscore.Internal.Correction.Weighted>
   9.000000E+99

> <Gold.Protein.RotatedTorsions>
[ 6907 6896 6895 6894 ] final  -58.22 input  -60.11 | X-H torsion
[ 7974 7965 7964 7962 ] final  -62.74 input  175.53 | X-H torsion
[ 8008 7997 7996 7995 ] final  107.59 input   59.86 | X-H torsion
[ 10167 10162 10161 10158 ] final  -61.53 input  -65.29 | X-H torsion
[ 10718 10713 10712 10709 ] final    9.69 input   66.30 | X-H torsion
[ 10763 10752 10751 10750 ] final  105.46 input  -60.55 | X-H torsion
[ 11005 11000 10999 10996 ] final  108.14 input  -57.11 | X-H torsion

> <Gold.Protein.ActiveResidues>
 VAL166  LYS551  ARG553  GLY616  TRP617  ASP618  TYR619  PRO620  LYS621  CYS622 
 ASP623  PHE694  ASN695  SER759  ASP760  ASP761  ALA762  ILE779  LEU786  VAL792 
 PHE793  MET794  SER795  GLU796  ALA797  LYS798  CYS799  TRP800  GLU811  SER814 

> <Gold.Protein.RotatedAtoms>
  150.8024  134.7126  159.6612 H   0  0  0  0  0  0  0  0  0  0  0  0  # atno 6907 bound_to 6896
  152.4141  134.6069  160.0025 H   0  0  0  0  0  0  0  0  0  0  0  0  # atno 6908 bound_to 6896
  151.6303  133.3295  159.3143 H   0  0  0  0  0  0  0  0  0  0  0  0  # atno 6909 bound_to 6896
  145.7876  140.8728  143.0298 H   0  0  0  0  0  0  0  0  0  0  0  0  # atno 7974 bound_to 7965
  156.1837  140.3092  155.9196 H   0  0  0  0  0  0  0  0  0  0  0  0  # atno 8008 bound_to 7997
  155.3329  140.0461  157.3060 H   0  0  0  0  0  0  0  0  0  0  0  0  # atno 8009 bound_to 7997
  154.5371  140.2249  155.8714 H   0  0  0  0  0  0  0  0  0  0  0  0  # atno 8010 bound_to 7997
  140.5999  143.2359  151.5951 H   0  0  0  0  0  0  0  0  0  0  0  0  # atno 10167 bound_to 10162
  156.9700  130.5965  149.5668 H   0  0  0  0  0  0  0  0  0  0  0  0  # atno 10718 bound_to 10713
  153.3797  135.3909  155.1848 H   0  0  0  0  0  0  0  0  0  0  0  0  # atno 10763 bound_to 10752
  154.8706  135.3722  154.4872 H   0  0  0  0  0  0  0  0  0  0  0  0  # atno 10764 bound_to 10752
  153.5348  135.7085  153.5726 H   0  0  0  0  0  0  0  0  0  0  0  0  # atno 10765 bound_to 10752
  139.8839  134.9422  156.5927 H   0  0  0  0  0  0  0  0  0  0  0  0  # atno 11005 bound_to 11000
  144.6786  140.0077  143.7484 LP  0  0  0  0  0  0  0  0  0  0  0  0  # atno 17320 bound_to 7965
  146.0010  139.3091  143.0927 LP  0  0  0  0  0  0  0  0  0  0  0  0  # atno 17321 bound_to 7965
  139.5284  144.2990  152.1089 LP  0  0  0  0  0  0  0  0  0  0  0  0  # atno 17342 bound_to 10162
  140.2169  144.4506  150.6360 LP  0  0  0  0  0  0  0  0  0  0  0  0  # atno 17343 bound_to 10162
  156.0287  130.5379  150.8475 LP  0  0  0  0  0  0  0  0  0  0  0  0  # atno 17370 bound_to 10713
  157.5599  131.0945  150.9574 LP  0  0  0  0  0  0  0  0  0  0  0  0  # atno 17371 bound_to 10713
  140.7943  133.8556  155.8673 LP  0  0  0  0  0  0  0  0  0  0  0  0  # atno 17394 bound_to 11000
  140.9649  134.1607  157.4624 LP  0  0  0  0  0  0  0  0  0  0  0  0  # atno 17395 bound_to 11000

$$$$
