AV-unprocessed.smi:768|AV-procd|sdf|3673|dock8
  -GOLD-   22720 1 83D 1   1.00000     0.00000
 Structure written by MMmdl.
 48 49  0  0  0  0  0  0  0  0  1 V2000
  153.6042  142.0359  160.8369 C   0  0  0  0  0  0  0  0  0  0  0  0
  152.7753  142.1303  159.5680 C   0  0  0  0  0  0  0  0  0  0  0  0
  152.1156  143.2625  159.2402 C   0  0  0  0  0  0  0  0  0  0  0  0
  151.3340  143.3467  158.0305 C   0  0  0  0  0  0  0  0  0  0  0  0
  151.2769  142.2679  157.2368 C   0  0  0  0  0  0  0  0  0  0  0  0
  151.9530  141.0757  157.5558 N   0  0  0  0  0  0  0  0  0  0  0  0
  151.8211  139.9580  156.6022 C   0  0  0  0  0  0  0  0  0  0  0  0
  150.6855  138.9685  156.9177 C   0  0  0  0  0  0  0  0  0  0  0  0
  150.4787  138.0326  156.1465 O   0  0  0  0  0  0  0  0  0  0  0  0
  149.9521  139.1817  158.0232 N   0  0  0  0  0  0  0  0  0  0  0  0
  148.7729  138.4259  158.4305 C   0  0  0  0  0  0  0  0  0  0  0  0
  149.1607  136.9977  158.8465 C   0  0  0  0  0  0  0  0  0  0  0  0
  148.0987  136.3031  159.7122 C   0  0  0  0  0  0  0  0  0  0  0  0
  148.0875  136.9064  160.9972 O   0  0  0  0  0  0  0  0  0  0  0  0
  147.3105  136.2118  161.9651 C   0  0  0  0  0  0  0  0  0  0  0  0
  147.5540  134.6896  161.8801 C   0  0  0  0  0  0  0  0  0  0  0  0
  146.6193  133.9159  162.8236 C   0  0  0  0  0  0  0  0  0  0  0  0
  145.1450  134.2535  162.5517 C   0  0  0  0  0  0  0  0  0  0  0  0
  144.8983  135.7680  162.6363 C   0  0  0  0  0  0  0  0  0  0  0  0
  145.8321  136.5362  161.6870 C   0  0  0  0  0  0  0  0  0  0  0  0
  152.7106  140.9472  158.6898 C   0  0  0  0  0  0  0  0  0  0  0  0
  153.3058  139.8999  158.9498 O   0  0  0  0  0  0  0  0  0  0  0  0
  153.5389  142.9523  161.4243 H   0  0  0  0  0  0  0  0  0  0  0  0
  154.6530  141.8677  160.5940 H   0  0  0  0  0  0  0  0  0  0  0  0
  153.2583  141.2113  161.4611 H   0  0  0  0  0  0  0  0  0  0  0  0
  152.1707  144.1246  159.8887 H   0  0  0  0  0  0  0  0  0  0  0  0
  150.8119  144.2556  157.7700 H   0  0  0  0  0  0  0  0  0  0  0  0
  150.7200  142.2497  156.3112 H   0  0  0  0  0  0  0  0  0  0  0  0
  151.6744  140.3442  155.5917 H   0  0  0  0  0  0  0  0  0  0  0  0
  152.7523  139.3922  156.5516 H   0  0  0  0  0  0  0  0  0  0  0  0
  150.2026  139.9689  158.6039 H   0  0  0  0  0  0  0  0  0  0  0  0
  148.2437  138.9141  159.2502 H   0  0  0  0  0  0  0  0  0  0  0  0
  148.0808  138.3908  157.5890 H   0  0  0  0  0  0  0  0  0  0  0  0
  149.3389  136.4012  157.9510 H   0  0  0  0  0  0  0  0  0  0  0  0
  150.1070  137.0232  159.3880 H   0  0  0  0  0  0  0  0  0  0  0  0
  147.1195  136.3928  159.2435 H   0  0  0  0  0  0  0  0  0  0  0  0
  148.3245  135.2394  159.7997 H   0  0  0  0  0  0  0  0  0  0  0  0
  147.5573  136.5704  162.9664 H   0  0  0  0  0  0  0  0  0  0  0  0
  147.3961  134.3518  160.8550 H   0  0  0  0  0  0  0  0  0  0  0  0
  148.5861  134.4474  162.1303 H   0  0  0  0  0  0  0  0  0  0  0  0
  146.7825  132.8438  162.7097 H   0  0  0  0  0  0  0  0  0  0  0  0
  146.8650  134.1579  163.8584 H   0  0  0  0  0  0  0  0  0  0  0  0
  144.8639  133.8922  161.5615 H   0  0  0  0  0  0  0  0  0  0  0  0
  144.5060  133.7313  163.2643 H   0  0  0  0  0  0  0  0  0  0  0  0
  143.8584  135.9894  162.3941 H   0  0  0  0  0  0  0  0  0  0  0  0
  145.0568  136.1085  163.6604 H   0  0  0  0  0  0  0  0  0  0  0  0
  145.6617  137.6083  161.7894 H   0  0  0  0  0  0  0  0  0  0  0  0
  145.5882  136.2824  160.6544 H   0  0  0  0  0  0  0  0  0  0  0  0
  1  2  1  0  0  0  0
  1 23  1  0  0  0  0
  1 24  1  0  0  0  0
  1 25  1  0  0  0  0
  2 21  1  0  0  0  0
  2  3  2  0  0  0  0
  3  4  1  0  0  0  0
  3 26  1  0  0  0  0
  4  5  2  0  0  0  0
  4 27  1  0  0  0  0
  5  6  1  0  0  0  0
  5 28  1  0  0  0  0
  6  7  1  0  0  0  0
  6 21  1  0  0  0  0
  7  8  1  0  0  0  0
  7 29  1  0  0  0  0
  7 30  1  0  0  0  0
  8  9  2  0  0  0  0
  8 10  1  0  0  0  0
 10 11  1  0  0  0  0
 10 31  1  0  0  0  0
 11 12  1  0  0  0  0
 11 32  1  0  0  0  0
 11 33  1  0  0  0  0
 12 13  1  0  0  0  0
 12 34  1  0  0  0  0
 12 35  1  0  0  0  0
 13 14  1  0  0  0  0
 13 36  1  0  0  0  0
 13 37  1  0  0  0  0
 14 15  1  0  0  0  0
 15 20  1  0  0  0  0
 15 16  1  0  0  0  0
 15 38  1  0  0  0  0
 16 17  1  0  0  0  0
 16 39  1  0  0  0  0
 16 40  1  0  0  0  0
 17 18  1  0  0  0  0
 17 41  1  0  0  0  0
 17 42  1  0  0  0  0
 18 19  1  0  0  0  0
 18 43  1  0  0  0  0
 18 44  1  0  0  0  0
 19 20  1  0  0  0  0
 19 45  1  0  0  0  0
 19 46  1  0  0  0  0
 20 47  1  0  0  0  0
 20 48  1  0  0  0  0
 21 22  2  0  0  0  0
M  END
> <s_m_source_file>
AV-unprocessed.smi

> <i_m_source_file_index>
768

> <i_lp_mmshare_version>
43012

> <i_f3d_flags>
0

> <s_epik_input>
W0NIM11jMVtjSF1bY0hdW2NIXW4oYzE9TylbQ0gyXUMoPU8pW05IXVtDSDJdW0NIMl1bQ0gyXU9bQ0hdMltDSDJdW0NIMl1bQ0gyXVtDSDJdW0NIMl0y

> <s_epik_cmdline>
J2VwaWtfcHl0aG9uJywgJy1waCcsICc3LjAnLCAnLXRuJywgJzgnLCAnLW1hJywgJzIwMCcsICctbWV0YWxfYmluZGluZycsICctaW1hZScsICc8aW5maWxlLm1hZT4nLCAnLW9tYWUnLCAnPG91dGZpbGUubWFlPic=

> <r_lp_tautomer_probability>
1

> <r_epik_Ionization_Penalty>
7.81262e-07

> <r_epik_Ionization_Penalty_Charging>
7.6198e-07

> <r_epik_Ionization_Penalty_Neutral>
1.92812e-08

> <r_epik_State_Penalty>
-0

> <r_epik_Charging_Adjusted_Penalty>
7.6198e-07

> <i_epik_Tot_Q>
0

> <i_epik_Tot_abs_Q>
0

> <r_epik_Metal_State_Penalty>
-0

> <b_epik_Metal_Only>
0

> <s_lp_Force_Field>
OPLS_2005

> <r_lp_Energy>
20.2971

> <b_lp_Chiralities_Consistent>
1

> <s_lp_Variant>
AV-unprocessed.smi:768-1

> <Gold.Version>
5.8.1

> <Gold.Id.Protein>
6NUR|6NUR_protein|mol2

> <Gold.PLP.Fitness>
45.9671

> <Gold.PLP.PLP>
-41.9665

> <Gold.PLP.part.hbond>
-2.0000

> <Gold.PLP.part.metal>
0.0000

> <Gold.PLP.part.buried>
-4.2326

> <Gold.PLP.part.nonpolar>
-35.9957

> <Gold.PLP.part.repulsive>
0.1354

> <Gold.PLP.ligand.clash>
0.0000

> <Gold.PLP.ligand.torsion>
0.6941

> <Gold.PLP.Chemscore.Hbond>
1.7689

> <Gold.PLP.Chemscore.CHOScore>
0.0000

> <Gold.PLP.Chemscore.Metal>
0.0000

> <Gold.Chemscore.Hbonds>
donor molecule, donor type, donor heavy atom, donor atom, acceptor molecule, acceptor atom, score
      P1  H  6931  6943       L1    14  1.00
      P1  H  6934  6947       L1    14  0.26

> <Gold.PLP.Chemscore.Internal.Correction>
0.0823

> <Gold.Rescore>
     Score         DG    S(hbond)    S(metal)    S(lipo)     H(rot)  DE(clash)    DE(int)     intcor
     17.50     -18.12       1.37        0.00     111.88       1.97       0.07       0.55       ----

> <Gold.Chemscore.Fitness>
17.5028

> <Gold.Chemscore.DG>
-18.1231

> <Gold.Chemscore.ZeroCoef>
-5.4800

> <Gold.Chemscore.Hbond>
1.3740

> <Gold.Chemscore.Metal>
0.0000

> <Gold.Chemscore.Lipo>
111.8771

> <Gold.Chemscore.Internal_Hbond>
0.0000

> <Gold.Chemscore.DEClash>
0.0750

> <Gold.Chemscore.DEInternal>
0.5453

> <Gold.Chemscore.Rot>
1.9671

> <Gold.Chemscore.Internal.Correction>
   9.000000E+99

> <Gold.Chemscore.Hbonds>
donor molecule, donor type, donor heavy atom, donor atom, acceptor molecule, acceptor atom, score
      P1  H  6931  6943       L1    14  0.64
      P1  H  6934  6947       L1    14  0.10

> <Gold.Chemscore.Hbond.Weighted>
-4.5893

> <Gold.Chemscore.Metal.Weighted>
-0.0000

> <Gold.Chemscore.Lipo.Weighted>
-13.0896

> <Gold.Chemscore.Internal_Hbond.Weighted>
0.0000

> <Gold.Chemscore.DEClash.Weighted>
0.0750

> <Gold.Chemscore.DEInternal.Weighted>
0.5453

> <Gold.Chemscore.Rot.Weighted>
5.0359

> <Gold.Chemscore.Internal.Correction.Weighted>
   9.000000E+99

> <Gold.Protein.RotatedTorsions>
[ 6907 6896 6895 6894 ] final  160.60 input  -60.11 | X-H torsion
[ 7974 7965 7964 7962 ] final  -13.86 input  175.53 | X-H torsion
[ 8008 7997 7996 7995 ] final  -11.75 input   59.86 | X-H torsion
[ 10167 10162 10161 10158 ] final   11.76 input  -65.29 | X-H torsion
[ 10718 10713 10712 10709 ] final  110.84 input   66.30 | X-H torsion
[ 10763 10752 10751 10750 ] final   40.59 input  -60.55 | X-H torsion
[ 11005 11000 10999 10996 ] final  113.88 input  -57.11 | X-H torsion

> <Gold.Protein.ActiveResidues>
 VAL166  LYS551  ARG553  GLY616  TRP617  ASP618  TYR619  PRO620  LYS621  CYS622 
 ASP623  PHE694  ASN695  SER759  ASP760  ASP761  ALA762  ILE779  LEU786  VAL792 
 PHE793  MET794  SER795  GLU796  ALA797  LYS798  CYS799  TRP800  GLU811  SER814 

> <Gold.Protein.RotatedAtoms>
  151.9682  133.3717  159.4060 H   0  0  0  0  0  0  0  0  0  0  0  0  # atno 6907 bound_to 6896
  150.6953  134.4168  159.5196 H   0  0  0  0  0  0  0  0  0  0  0  0  # atno 6908 bound_to 6896
  152.1868  134.8706  160.0572 H   0  0  0  0  0  0  0  0  0  0  0  0  # atno 6909 bound_to 6896
  146.2097  140.3264  142.8395 H   0  0  0  0  0  0  0  0  0  0  0  0  # atno 7974 bound_to 7965
  154.5437  140.2294  155.8598 H   0  0  0  0  0  0  0  0  0  0  0  0  # atno 8008 bound_to 7997
  156.1883  140.3083  155.9243 H   0  0  0  0  0  0  0  0  0  0  0  0  # atno 8009 bound_to 7997
  155.3207  140.0440  157.3029 H   0  0  0  0  0  0  0  0  0  0  0  0  # atno 8010 bound_to 7997
  140.6111  143.8405  150.7067 H   0  0  0  0  0  0  0  0  0  0  0  0  # atno 10167 bound_to 10162
  157.6474  131.0940  150.6661 H   0  0  0  0  0  0  0  0  0  0  0  0  # atno 10718 bound_to 10713
  152.9932  135.6187  154.2650 H   0  0  0  0  0  0  0  0  0  0  0  0  # atno 10763 bound_to 10752
  154.2385  135.2789  155.2865 H   0  0  0  0  0  0  0  0  0  0  0  0  # atno 10764 bound_to 10752
  154.5389  135.5766  153.6880 H   0  0  0  0  0  0  0  0  0  0  0  0  # atno 10765 bound_to 10752
  139.8965  134.9558  156.6807 H   0  0  0  0  0  0  0  0  0  0  0  0  # atno 11005 bound_to 11000
  144.8883  140.7491  143.5943 LP  0  0  0  0  0  0  0  0  0  0  0  0  # atno 17320 bound_to 7965
  145.3186  139.1795  143.4600 LP  0  0  0  0  0  0  0  0  0  0  0  0  # atno 17321 bound_to 7965
  140.1973  143.3987  152.1818 LP  0  0  0  0  0  0  0  0  0  0  0  0  # atno 17342 bound_to 10162
  139.5362  144.7212  151.4885 LP  0  0  0  0  0  0  0  0  0  0  0  0  # atno 17343 bound_to 10162
  156.6976  130.4614  149.5582 LP  0  0  0  0  0  0  0  0  0  0  0  0  # atno 17370 bound_to 10713
  156.1817  130.6503  151.0959 LP  0  0  0  0  0  0  0  0  0  0  0  0  # atno 17371 bound_to 10713
  140.7301  133.9066  155.8205 LP  0  0  0  0  0  0  0  0  0  0  0  0  # atno 17394 bound_to 11000
  141.0160  134.0955  157.4172 LP  0  0  0  0  0  0  0  0  0  0  0  0  # atno 17395 bound_to 11000

$$$$
