AV-unprocessed.smi:1196|AV-procd|sdf|4998|dock7
  -GOLD-   22720 4 03D 1   1.00000     0.00000
 Structure written by MMmdl.
 37 38  0  0  0  0  0  0  0  0  1 V2000
  152.3826  140.7917  158.1181 C   0  0  0  0  0  0  0  0  0  0  0  0
  151.1688  141.2448  157.2919 C   0  0  2  0  0  0  0  0  0  0  0  0
  150.2735  142.2141  158.0884 C   0  0  0  0  0  0  0  0  0  0  0  0
  151.0239  143.3127  158.6710 N   0  0  0  0  0  0  0  0  0  0  0  0
  151.3212  144.5387  158.1135 C   0  0  0  0  0  0  0  0  0  0  0  0
  152.0492  145.2373  159.0333 C   0  0  0  0  0  0  0  0  0  0  0  0
  152.1448  144.3447  160.1372 C   0  0  0  0  0  0  0  0  0  0  0  0
  151.5287  143.1944  159.9181 N   0  0  0  0  0  0  0  0  0  0  0  0
  150.3915  140.0824  156.8655 N   0  0  0  0  0  0  0  0  0  0  0  0
  150.6468  139.3290  155.7854 C   0  0  0  0  0  0  0  0  0  0  0  0
  151.6086  139.5211  155.0406 O   0  0  0  0  0  0  0  0  0  0  0  0
  149.6523  138.1952  155.5167 C   0  0  0  0  0  0  0  0  0  0  0  0
  148.2282  138.6849  155.1872 C   0  0  0  0  0  0  0  0  0  0  0  0
  148.1326  139.3909  153.8210 C   0  0  1  0  0  0  0  0  0  0  0  0
  147.9522  138.4607  152.7193 N   0  0  0  0  0  0  0  0  0  0  0  0
  146.8138  138.6771  152.0464 C   0  0  0  0  0  0  0  0  0  0  0  0
  146.4179  138.0392  151.0737 O   0  0  0  0  0  0  0  0  0  0  0  0
  146.1851  139.7085  152.6203 N   0  0  0  0  0  0  0  0  0  0  0  0
  146.8540  140.1949  153.6641 C   0  0  0  0  0  0  0  0  0  0  0  0
  146.5166  141.1285  154.3896 O   0  0  0  0  0  0  0  0  0  0  0  0
  152.9814  141.6463  158.4340 H   0  0  0  0  0  0  0  0  0  0  0  0
  153.0320  140.1340  157.5394 H   0  0  0  0  0  0  0  0  0  0  0  0
  152.0743  140.2520  159.0139 H   0  0  0  0  0  0  0  0  0  0  0  0
  151.5386  141.7731  156.4110 H   0  0  0  0  0  0  0  0  0  0  0  0
  149.4897  142.6252  157.4505 H   0  0  0  0  0  0  0  0  0  0  0  0
  149.7691  141.6824  158.8966 H   0  0  0  0  0  0  0  0  0  0  0  0
  150.9963  144.8073  157.1192 H   0  0  0  0  0  0  0  0  0  0  0  0
  152.4523  146.2341  158.9333 H   0  0  0  0  0  0  0  0  0  0  0  0
  152.6403  144.4973  161.0846 H   0  0  0  0  0  0  0  0  0  0  0  0
  149.5814  139.8500  157.4213 H   0  0  0  0  0  0  0  0  0  0  0  0
  150.0311  137.5898  154.6921 H   0  0  0  0  0  0  0  0  0  0  0  0
  149.6315  137.5506  156.3963 H   0  0  0  0  0  0  0  0  0  0  0  0
  147.5342  137.8424  155.2142 H   0  0  0  0  0  0  0  0  0  0  0  0
  147.8990  139.3758  155.9651 H   0  0  0  0  0  0  0  0  0  0  0  0
  148.9994  140.0274  153.6380 H   0  0  0  0  0  0  0  0  0  0  0  0
  148.6188  137.7358  152.4964 H   0  0  0  0  0  0  0  0  0  0  0  0
  145.2976  140.0711  152.3038 H   0  0  0  0  0  0  0  0  0  0  0  0
  1  2  1  0  0  0  0
  1 21  1  0  0  0  0
  1 22  1  0  0  0  0
  1 23  1  0  0  0  0
  2  3  1  0  0  0  0
  2  9  1  0  0  0  0
  2 24  1  0  0  0  0
  3  4  1  0  0  0  0
  3 25  1  0  0  0  0
  3 26  1  0  0  0  0
  4  8  1  0  0  0  0
  4  5  1  0  0  0  0
  5  6  2  0  0  0  0
  5 27  1  0  0  0  0
  6  7  1  0  0  0  0
  6 28  1  0  0  0  0
  7  8  2  0  0  0  0
  7 29  1  0  0  0  0
  9 10  1  0  0  0  0
  9 30  1  0  0  0  0
 10 11  2  0  0  0  0
 10 12  1  0  0  0  0
 12 13  1  0  0  0  0
 12 31  1  0  0  0  0
 12 32  1  0  0  0  0
 13 14  1  0  0  0  0
 13 33  1  0  0  0  0
 13 34  1  0  0  0  0
 14 19  1  0  0  0  0
 14 15  1  0  0  0  0
 14 35  1  0  0  0  0
 15 16  1  0  0  0  0
 15 36  1  0  0  0  0
 16 17  2  0  0  0  0
 16 18  1  0  0  0  0
 18 19  1  0  0  0  0
 18 37  1  0  0  0  0
 19 20  2  0  0  0  0
M  END
> <s_m_source_file>
AV-unprocessed.smi

> <i_m_source_file_index>
1196

> <i_lp_mmshare_version>
43012

> <i_f3d_flags>
0

> <s_epik_input>
bjFbY0hdW2NIXVtjSF1uMVtDSDJdW0NAQEhdKFtDSDNdKVtOSF1DKD1PKVtDSDJdW0NIMl1bQ0BASF0yW05IXUMoPU8pW05IXUMyPU8=

> <s_epik_cmdline>
J2VwaWtfcHl0aG9uJywgJy1waCcsICc3LjAnLCAnLXRuJywgJzgnLCAnLW1hJywgJzIwMCcsICctbWV0YWxfYmluZGluZycsICctaW1hZScsICc8aW5maWxlLm1hZT4nLCAnLW9tYWUnLCAnPG91dGZpbGUubWFlPic=

> <r_lp_tautomer_probability>
1

> <r_epik_Ionization_Penalty>
0.00815973

> <r_epik_Ionization_Penalty_Charging>
0

> <r_epik_Ionization_Penalty_Neutral>
0.00815973

> <r_epik_State_Penalty>
0.00583796

> <r_epik_Charging_Adjusted_Penalty>
0.00583796

> <i_epik_Tot_Q>
0

> <i_epik_Tot_abs_Q>
0

> <r_epik_Metal_State_Penalty>
0.409204

> <b_epik_Metal_Only>
0

> <s_lp_Force_Field>
OPLS_2005

> <r_lp_Energy>
16.3903

> <b_lp_Chiralities_Consistent>
1

> <s_lp_Variant>
AV-unprocessed.smi:1196-3

> <Gold.Version>
5.8.1

> <Gold.Id.Protein>
6NUR|6NUR_protein|mol2

> <Gold.PLP.Fitness>
47.6221

> <Gold.PLP.PLP>
-34.8299

> <Gold.PLP.part.hbond>
-5.0000

> <Gold.PLP.part.metal>
0.0000

> <Gold.PLP.part.buried>
-5.3845

> <Gold.PLP.part.nonpolar>
-28.1049

> <Gold.PLP.part.repulsive>
2.2551

> <Gold.PLP.ligand.clash>
0.0000

> <Gold.PLP.ligand.torsion>
0.9947

> <Gold.PLP.Chemscore.Hbond>
3.9120

> <Gold.PLP.Chemscore.CHOScore>
0.9912

> <Gold.PLP.Chemscore.Metal>
0.0000

> <Gold.Chemscore.Hbonds>
donor molecule, donor type, donor heavy atom, donor atom, acceptor molecule, acceptor atom, score
      L1  H    15    36       P1  7948  1.00
      L1  H    18    37       P1 10175  1.00
      P1  H  7954  7966       L1    17  0.80
      P1  H  7989  7998       L1    11  0.98
      L1  C     5    27       P1  8028  1.00

> <Gold.PLP.Chemscore.Internal.Correction>
0.0719

> <Gold.Rescore>
     Score         DG    S(hbond)    S(metal)    S(lipo)     H(rot)  DE(clash)    DE(int)     intcor
     15.64     -16.75       3.44        0.00      62.69       2.96       0.42       0.68       ----

> <Gold.Chemscore.Fitness>
15.6437

> <Gold.Chemscore.DG>
-16.7460

> <Gold.Chemscore.ZeroCoef>
-5.4800

> <Gold.Chemscore.Hbond>
3.4439

> <Gold.Chemscore.Metal>
0.0000

> <Gold.Chemscore.Lipo>
62.6897

> <Gold.Chemscore.Internal_Hbond>
0.0000

> <Gold.Chemscore.DEClash>
0.4221

> <Gold.Chemscore.DEInternal>
0.6801

> <Gold.Chemscore.Rot>
2.9575

> <Gold.Chemscore.Internal.Correction>
   9.000000E+99

> <Gold.Chemscore.Hbonds>
donor molecule, donor type, donor heavy atom, donor atom, acceptor molecule, acceptor atom, score
      L1  H    15    36       P1  7948  0.95
      L1  H    18    37       P1 10175  0.81
      P1  H  7954  7966       L1    17  0.31
      P1  H  7989  7998       L1    11  0.90

> <Gold.Chemscore.Hbond.Weighted>
-11.5026

> <Gold.Chemscore.Metal.Weighted>
-0.0000

> <Gold.Chemscore.Lipo.Weighted>
-7.3347

> <Gold.Chemscore.Internal_Hbond.Weighted>
0.0000

> <Gold.Chemscore.DEClash.Weighted>
0.4221

> <Gold.Chemscore.DEInternal.Weighted>
0.6801

> <Gold.Chemscore.Rot.Weighted>
7.5713

> <Gold.Chemscore.Internal.Correction.Weighted>
   9.000000E+99

> <Gold.Protein.RotatedTorsions>
[ 6907 6896 6895 6894 ] final  -82.97 input  -60.11 | X-H torsion
[ 7974 7965 7964 7962 ] final  -60.08 input  175.53 | X-H torsion
[ 8008 7997 7996 7995 ] final    9.75 input   59.86 | X-H torsion
[ 10167 10162 10161 10158 ] final -132.18 input  -65.29 | X-H torsion
[ 10718 10713 10712 10709 ] final   46.32 input   66.30 | X-H torsion
[ 10763 10752 10751 10750 ] final   44.08 input  -60.55 | X-H torsion
[ 11005 11000 10999 10996 ] final  128.64 input  -57.11 | X-H torsion

> <Gold.Protein.ActiveResidues>
 VAL166  LYS551  ARG553  GLY616  TRP617  ASP618  TYR619  PRO620  LYS621  CYS622 
 ASP623  PHE694  ASN695  SER759  ASP760  ASP761  ALA762  ILE779  LEU786  VAL792 
 PHE793  MET794  SER795  GLU796  ALA797  LYS798  CYS799  TRP800  GLU811  SER814 

> <Gold.Protein.RotatedAtoms>
  150.6891  134.3584  159.4939 H   0  0  0  0  0  0  0  0  0  0  0  0  # atno 6907 bound_to 6896
  152.1416  134.9055  160.0562 H   0  0  0  0  0  0  0  0  0  0  0  0  # atno 6908 bound_to 6896
  152.0187  133.3855  159.4286 H   0  0  0  0  0  0  0  0  0  0  0  0  # atno 6909 bound_to 6896
  145.8198  140.8547  143.0139 H   0  0  0  0  0  0  0  0  0  0  0  0  # atno 7974 bound_to 7965
  154.7842  140.2824  155.6040 H   0  0  0  0  0  0  0  0  0  0  0  0  # atno 8008 bound_to 7997
  156.2954  140.2617  156.2603 H   0  0  0  0  0  0  0  0  0  0  0  0  # atno 8009 bound_to 7997
  154.9748  140.0375  157.2240 H   0  0  0  0  0  0  0  0  0  0  0  0  # atno 8010 bound_to 7997
  139.9112  143.6492  152.2575 H   0  0  0  0  0  0  0  0  0  0  0  0  # atno 10167 bound_to 10162
  157.4469  130.8115  149.7749 H   0  0  0  0  0  0  0  0  0  0  0  0  # atno 10718 bound_to 10713
  152.9848  135.6082  154.3215 H   0  0  0  0  0  0  0  0  0  0  0  0  # atno 10763 bound_to 10752
  154.2925  135.2774  155.2650 H   0  0  0  0  0  0  0  0  0  0  0  0  # atno 10764 bound_to 10752
  154.4939  135.5885  153.6536 H   0  0  0  0  0  0  0  0  0  0  0  0  # atno 10765 bound_to 10752
  139.9572  134.9610  156.9032 H   0  0  0  0  0  0  0  0  0  0  0  0  # atno 11005 bound_to 11000
  144.6749  140.0516  143.7478 LP  0  0  0  0  0  0  0  0  0  0  0  0  # atno 17320 bound_to 7965
  145.9688  139.2854  143.1111 LP  0  0  0  0  0  0  0  0  0  0  0  0  # atno 17321 bound_to 7965
  139.6941  144.7643  151.1387 LP  0  0  0  0  0  0  0  0  0  0  0  0  # atno 17342 bound_to 10162
  140.7685  143.5548  150.9164 LP  0  0  0  0  0  0  0  0  0  0  0  0  # atno 17343 bound_to 10162
  155.9971  130.3902  150.2753 LP  0  0  0  0  0  0  0  0  0  0  0  0  # atno 17370 bound_to 10713
  157.0922  131.0173  151.3117 LP  0  0  0  0  0  0  0  0  0  0  0  0  # atno 17371 bound_to 10713
  140.5583  134.0560  155.7390 LP  0  0  0  0  0  0  0  0  0  0  0  0  # atno 17394 bound_to 11000
  141.1245  133.9406  157.2664 LP  0  0  0  0  0  0  0  0  0  0  0  0  # atno 17395 bound_to 11000

$$$$
