#       Name:                AV-unprocessed.smi:1769
#       Creating user name   scv26
#       Creation time:       Fri Mar 27 08:39:15 2020


#       File generated by GOLD software.
#

@<TRIPOS>MOLECULE
AV-unprocessed.smi:1769
    46    47     1
SMALL
NO_CHARGES


@<TRIPOS>ATOM
      1 ****        -4.5355  -1.5157  -0.3258 C.3            1 S1                 0.0000
      2 ****        -3.0442  -1.2359  -0.5258 C.2            1 S1                 0.0000
      3 ****        -2.3524  -2.1202  -1.0313 O.2            1 S1                 0.0000
      4 ****        -2.5374  -0.0397  -0.1413 N.am           1 S1                 0.0000
      5 ****        -3.2866   1.0203   0.5456 C.3            1 S1                 0.0000
      6 ****        -2.8061   1.0972   2.0061 C.3            1 S1                 0.0000
      7 ****        -1.2824   1.3191   2.0751 C.3            1 S1                 0.0000
      8 ****        -0.5151   0.2997   1.1999 C.3            1 S1                 0.0000
      9 ****         0.9862   0.6091   1.1542 C.2            1 S1                 0.0000
     10 ****         1.3800   1.7188   0.7939 O.2            1 S1                 0.0000
     11 ****         1.8124  -0.3926   1.4968 N.am           1 S1                 0.0000
     12 ****         3.2714  -0.3498   1.4320 C.3            1 S1                 0.0000
     13 ****         3.8151  -1.0157   0.1527 C.3            1 S1                 0.0000
     14 ****         3.2662  -0.4115  -1.1283 C.ar           1 S1                 0.0000
     15 ****         2.2215  -1.0387  -1.8387 C.ar           1 S1                 0.0000
     16 ****         1.7248  -0.4202  -3.0017 C.ar           1 S1                 0.0000
     17 ****         2.2996   0.8000  -3.4095 C.ar           1 S1                 0.0000
     18 ****         3.3046   1.4063  -2.7417 N.ar           1 S1                 0.0000
     19 ****         3.7724   0.8083  -1.6250 C.ar           1 S1                 0.0000
     20 ****        -1.1071   0.2784  -0.2273 C.3            1 S1                 0.0000
     21 ****        -4.8077  -1.4316   0.7268 H              1 S1                 0.0000
     22 ****        -4.7848  -2.5257  -0.6530 H              1 S1                 0.0000
     23 ****        -5.1404  -0.8188  -0.9062 H              1 S1                 0.0000
     24 ****        -3.1021   1.9707   0.0430 H              1 S1                 0.0000
     25 ****        -4.3665   0.8824   0.5162 H              1 S1                 0.0000
     26 ****        -3.3236   1.9014   2.5296 H              1 S1                 0.0000
     27 ****        -3.0654   0.1727   2.5235 H              1 S1                 0.0000
     28 ****        -1.0640   2.3349   1.7417 H              1 S1                 0.0000
     29 ****        -0.9465   1.2575   3.1110 H              1 S1                 0.0000
     30 ****        -0.6488  -0.6911   1.6390 H              1 S1                 0.0000
     31 ****         1.3972  -1.2687   1.7793 H              1 S1                 0.0000
     32 ****         3.6309   0.6784   1.4999 H              1 S1                 0.0000
     33 ****         3.6664  -0.8652   2.3076 H              1 S1                 0.0000
     34 ****         4.9030  -0.9415   0.1362 H              1 S1                 0.0000
     35 ****         3.5857  -2.0818   0.1684 H              1 S1                 0.0000
     36 ****         1.7964  -1.9691  -1.4918 H              1 S1                 0.0000
     37 ****         0.9192  -0.8678  -3.5649 H              1 S1                 0.0000
     38 ****         1.9422   1.3026  -4.2960 H              1 S1                 0.0000
     39 ****         4.5688   1.3226  -1.1075 H              1 S1                 0.0000
     40 ****        -0.5614  -0.4285  -0.8541 H              1 S1                 0.0000
     41 ****        -0.9856   1.2502  -0.7090 H              1 S1                 0.0000
     42 ****        -2.7685  -2.9897  -1.2976 LP             1 S1                 0.0000
     43 ****        -1.3745  -1.9689  -1.1755 LP             1 S1                 0.0000
     44 ****         0.7200   2.4221   0.5298 LP             1 S1                 0.0000
     45 ****         2.3598   1.9167   0.7655 LP             1 S1                 0.0000
     46 ****         3.6902   2.2708  -3.0640 LP             1 S1                 0.0000
@<TRIPOS>BOND
    1    1    2 1     
    2    1   21 1     
    3    1   22 1     
    4    1   23 1     
    5    2    3 2     
    6    2    4 am    
    7    4   20 1     
    8    4    5 1     
    9    5    6 1     
   10    5   24 1     
   11    5   25 1     
   12    6    7 1     
   13    6   26 1     
   14    6   27 1     
   15    7    8 1     
   16    7   28 1     
   17    7   29 1     
   18    8    9 1     
   19    8   20 1     
   20    8   30 1     
   21    9   10 2     
   22    9   11 am    
   23   11   12 1     
   24   11   31 1     
   25   12   13 1     
   26   12   32 1     
   27   12   33 1     
   28   13   14 1     
   29   13   34 1     
   30   13   35 1     
   31   14   19 ar    
   32   14   15 ar    
   33   15   16 ar    
   34   15   36 1     
   35   16   17 ar    
   36   16   37 1     
   37   17   18 ar    
   38   17   38 1     
   39   18   19 ar    
   40   19   39 1     
   41   20   40 1     
   42   20   41 1     
   43    3   42 1     
   44    3   43 1     
   45   10   44 1     
   46   10   45 1     
   47   18   46 1     
@<TRIPOS>SUBSTRUCTURE
      1 S1             1
@<TRIPOS>SET
LONE_PAIRS      STATIC     ATOMS    <user>   **** ""
5 42 43 44 45 46
DONOR_HYDROGENS      STATIC     ATOMS    <user>   **** ""
1 31
ATOM$BLUE        STATIC     ATOMS    COLORGROUP SYSTEM
5 42 43 44 45 46
ATOM$RED        STATIC     ATOMS    COLORGROUP SYSTEM
1 31
