AV-unprocessed.smi:3166|AV-procd|sdf|12095|dock4
  -GOLD-   2272017533D 1   1.00000     0.00000
 Structure written by MMmdl.
 40 41  0  0  0  0  0  0  0  0  1 V2000
  151.8423  139.5275  155.6947 C   0  0  0  0  0  0  0  0  0  0  0  0
  151.0619  140.5080  156.5949 C   0  0  2  0  0  0  0  0  0  0  0  0
  150.3058  141.5800  155.7826 C   0  0  0  0  0  0  0  0  0  0  0  0
  149.2923  141.0180  154.9065 N   0  0  0  0  0  0  0  0  0  0  0  0
  148.2279  141.6592  154.3076 C   0  0  0  0  0  0  0  0  0  0  0  0
  147.5526  140.7274  153.5728 C   0  0  0  0  0  0  0  0  0  0  0  0
  148.2945  139.5310  153.7808 C   0  0  0  0  0  0  0  0  0  0  0  0
  149.3360  139.7085  154.5776 N   0  0  0  0  0  0  0  0  0  0  0  0
  151.9373  141.1726  157.5654 N   0  0  0  0  0  0  0  0  0  0  0  0
  151.2775  142.1148  158.4745 C   0  0  0  0  0  0  0  0  0  0  0  0
  152.2310  142.6485  159.5678 C   0  0  0  0  0  0  0  0  0  0  0  0
  153.3026  143.2914  158.9012 O   0  0  0  0  0  0  0  0  0  0  0  0
  151.5367  143.6433  160.5335 C   0  0  0  0  0  0  0  0  0  0  0  0
  152.4357  144.0675  161.7090 C   0  0  0  0  0  0  0  0  0  0  0  0
  152.9723  142.8508  162.4754 C   0  0  0  0  0  0  0  0  0  0  0  0
  153.7185  141.8977  161.5322 C   0  0  0  0  0  0  0  0  0  0  0  0
  152.8220  141.4582  160.3608 C   0  0  0  0  0  0  0  0  0  0  0  0
  151.1912  139.0542  154.9597 H   0  0  0  0  0  0  0  0  0  0  0  0
  152.2939  138.7184  156.2674 H   0  0  0  0  0  0  0  0  0  0  0  0
  152.6367  140.0386  155.1502 H   0  0  0  0  0  0  0  0  0  0  0  0
  150.3153  139.9314  157.1428 H   0  0  0  0  0  0  0  0  0  0  0  0
  149.8113  142.2827  156.4548 H   0  0  0  0  0  0  0  0  0  0  0  0
  151.0080  142.1647  155.1850 H   0  0  0  0  0  0  0  0  0  0  0  0
  148.0399  142.7123  154.4563 H   0  0  0  0  0  0  0  0  0  0  0  0
  146.6653  140.8778  152.9760 H   0  0  0  0  0  0  0  0  0  0  0  0
  148.1089  138.5459  153.3786 H   0  0  0  0  0  0  0  0  0  0  0  0
  152.6882  141.6474  157.0746 H   0  0  0  0  0  0  0  0  0  0  0  0
  150.8947  142.9579  157.8980 H   0  0  0  0  0  0  0  0  0  0  0  0
  150.4136  141.6502  158.9496 H   0  0  0  0  0  0  0  0  0  0  0  0
  153.0976  144.2112  158.8287 H   0  0  0  0  0  0  0  0  0  0  0  0
  151.2097  144.5360  159.9992 H   0  0  0  0  0  0  0  0  0  0  0  0
  150.6326  143.1816  160.9329 H   0  0  0  0  0  0  0  0  0  0  0  0
  153.2711  144.6624  161.3378 H   0  0  0  0  0  0  0  0  0  0  0  0
  151.8771  144.7137  162.3864 H   0  0  0  0  0  0  0  0  0  0  0  0
  153.6367  143.1779  163.2757 H   0  0  0  0  0  0  0  0  0  0  0  0
  152.1462  142.3229  162.9535 H   0  0  0  0  0  0  0  0  0  0  0  0
  154.6148  142.3877  161.1496 H   0  0  0  0  0  0  0  0  0  0  0  0
  154.0609  141.0227  162.0853 H   0  0  0  0  0  0  0  0  0  0  0  0
  152.0069  140.8523  160.7592 H   0  0  0  0  0  0  0  0  0  0  0  0
  153.3849  140.8023  159.6953 H   0  0  0  0  0  0  0  0  0  0  0  0
  1  2  1  0  0  0  0
  1 18  1  0  0  0  0
  1 19  1  0  0  0  0
  1 20  1  0  0  0  0
  2  3  1  0  0  0  0
  2  9  1  0  0  0  0
  2 21  1  0  0  0  0
  3  4  1  0  0  0  0
  3 22  1  0  0  0  0
  3 23  1  0  0  0  0
  4  8  1  0  0  0  0
  4  5  1  0  0  0  0
  5  6  2  0  0  0  0
  5 24  1  0  0  0  0
  6  7  1  0  0  0  0
  6 25  1  0  0  0  0
  7  8  2  0  0  0  0
  7 26  1  0  0  0  0
  9 10  1  0  0  0  0
  9 27  1  0  0  0  0
 10 11  1  0  0  0  0
 10 28  1  0  0  0  0
 10 29  1  0  0  0  0
 11 17  1  0  0  0  0
 11 12  1  0  0  0  0
 11 13  1  0  0  0  0
 12 30  1  0  0  0  0
 13 14  1  0  0  0  0
 13 31  1  0  0  0  0
 13 32  1  0  0  0  0
 14 15  1  0  0  0  0
 14 33  1  0  0  0  0
 14 34  1  0  0  0  0
 15 16  1  0  0  0  0
 15 35  1  0  0  0  0
 15 36  1  0  0  0  0
 16 17  1  0  0  0  0
 16 37  1  0  0  0  0
 16 38  1  0  0  0  0
 17 39  1  0  0  0  0
 17 40  1  0  0  0  0
M  END
> <s_m_source_file>
AV-unprocessed.smi

> <i_m_source_file_index>
3166

> <i_lp_mmshare_version>
43012

> <i_f3d_flags>
0

> <s_epik_input>
bjFbY0hdW2NIXVtjSF1uMVtDSDJdW0NAQEhdKFtDSDNdKVtOSF1bQ0gyXUMyKFtPSF0pW0NIMl1bQ0gyXVtDSDJdW0NIMl1bQ0gyXTI=

> <s_epik_cmdline>
J2VwaWtfcHl0aG9uJywgJy1waCcsICc3LjAnLCAnLXRuJywgJzgnLCAnLW1hJywgJzIwMCcsICctbWV0YWxfYmluZGluZycsICctaW1hZScsICc8aW5maWxlLm1hZT4nLCAnLW9tYWUnLCAnPG91dGZpbGUubWFlPic=

> <r_lp_tautomer_probability>
1

> <r_epik_Ionization_Penalty>
2.35964

> <r_epik_Ionization_Penalty_Charging>
0

> <r_epik_Ionization_Penalty_Neutral>
2.35964

> <r_epik_State_Penalty>
2.51455

> <r_epik_Charging_Adjusted_Penalty>
2.51455

> <i_epik_Tot_Q>
0

> <i_epik_Tot_abs_Q>
0

> <r_epik_Metal_State_Penalty>
2.51451

> <b_epik_Metal_Only>
0

> <s_lp_Force_Field>
OPLS_2005

> <r_lp_Energy>
22.8123

> <b_lp_Chiralities_Consistent>
1

> <s_lp_Variant>
AV-unprocessed.smi:3166-3

> <Gold.Version>
5.8.1

> <Gold.Id.Protein>
6NUR|6NUR_protein|mol2

> <Gold.PLP.Fitness>
43.8419

> <Gold.PLP.PLP>
-40.0578

> <Gold.PLP.part.hbond>
0.0000

> <Gold.PLP.part.metal>
0.0000

> <Gold.PLP.part.buried>
-0.5460

> <Gold.PLP.part.nonpolar>
-40.1220

> <Gold.PLP.part.repulsive>
0.1194

> <Gold.PLP.ligand.clash>
0.0017

> <Gold.PLP.ligand.torsion>
0.2818

> <Gold.PLP.Chemscore.Hbond>
0.0000

> <Gold.PLP.Chemscore.CHOScore>
1.4372

> <Gold.PLP.Chemscore.Metal>
0.0000

> <Gold.Chemscore.Hbonds>
donor molecule, donor type, donor heavy atom, donor atom, acceptor molecule, acceptor atom, score
      L1  C     5    24       P1  8028  1.00
      L1  C     7    26       P1  7948  0.14

> <Gold.PLP.Chemscore.Internal.Correction>
0.0379

> <Gold.Rescore>
     Score         DG    S(hbond)    S(metal)    S(lipo)     H(rot)  DE(clash)    DE(int)     intcor
     12.05     -13.65       0.00        0.00     116.23       2.12       0.08       1.52       ----

> <Gold.Chemscore.Fitness>
12.0471

> <Gold.Chemscore.DG>
-13.6490

> <Gold.Chemscore.ZeroCoef>
-5.4800

> <Gold.Chemscore.Hbond>
0.0000

> <Gold.Chemscore.Metal>
0.0000

> <Gold.Chemscore.Lipo>
116.2278

> <Gold.Chemscore.Internal_Hbond>
0.0000

> <Gold.Chemscore.DEClash>
0.0840

> <Gold.Chemscore.DEInternal>
1.5179

> <Gold.Chemscore.Rot>
2.1209

> <Gold.Chemscore.Internal.Correction>
   9.000000E+99

> <Gold.Chemscore.Hbond.Weighted>
-0.0000

> <Gold.Chemscore.Metal.Weighted>
-0.0000

> <Gold.Chemscore.Lipo.Weighted>
-13.5986

> <Gold.Chemscore.Internal_Hbond.Weighted>
0.0000

> <Gold.Chemscore.DEClash.Weighted>
0.0840

> <Gold.Chemscore.DEInternal.Weighted>
1.5179

> <Gold.Chemscore.Rot.Weighted>
5.4296

> <Gold.Chemscore.Internal.Correction.Weighted>
   9.000000E+99

> <Gold.Protein.RotatedTorsions>
[ 6907 6896 6895 6894 ] final  -40.47 input  -60.11 | X-H torsion
[ 7974 7965 7964 7962 ] final  173.52 input  175.53 | X-H torsion
[ 8008 7997 7996 7995 ] final -126.32 input   59.86 | X-H torsion
[ 10167 10162 10161 10158 ] final  -32.05 input  -65.29 | X-H torsion
[ 10718 10713 10712 10709 ] final  -49.08 input   66.30 | X-H torsion
[ 10763 10752 10751 10750 ] final  112.16 input  -60.55 | X-H torsion
[ 11005 11000 10999 10996 ] final   -5.32 input  -57.11 | X-H torsion

> <Gold.Protein.ActiveResidues>
 VAL166  LYS551  ARG553  GLY616  TRP617  ASP618  TYR619  PRO620  LYS621  CYS622 
 ASP623  PHE694  ASN695  SER759  ASP760  ASP761  ALA762  ILE779  LEU786  VAL792 
 PHE793  MET794  SER795  GLU796  ALA797  LYS798  CYS799  TRP800  GLU811  SER814 

> <Gold.Protein.RotatedAtoms>
  150.9781  134.9141  159.7827 H   0  0  0  0  0  0  0  0  0  0  0  0  # atno 6907 bound_to 6896
  152.5213  134.3448  159.9240 H   0  0  0  0  0  0  0  0  0  0  0  0  # atno 6908 bound_to 6896
  151.3456  133.3904  159.2710 H   0  0  0  0  0  0  0  0  0  0  0  0  # atno 6909 bound_to 6896
  144.7242  139.9660  143.6436 H   0  0  0  0  0  0  0  0  0  0  0  0  # atno 7974 bound_to 7965
  155.2278  140.0424  157.2958 H   0  0  0  0  0  0  0  0  0  0  0  0  # atno 8008 bound_to 7997
  154.5908  140.2426  155.7894 H   0  0  0  0  0  0  0  0  0  0  0  0  # atno 8009 bound_to 7997
  156.2258  140.2955  156.0071 H   0  0  0  0  0  0  0  0  0  0  0  0  # atno 8010 bound_to 7997
  140.7227  143.3724  151.1753 H   0  0  0  0  0  0  0  0  0  0  0  0  # atno 10167 bound_to 10162
  156.1927  130.4153  149.9349 H   0  0  0  0  0  0  0  0  0  0  0  0  # atno 10718 bound_to 10713
  153.4739  135.3694  155.2406 H   0  0  0  0  0  0  0  0  0  0  0  0  # atno 10763 bound_to 10752
  154.8756  135.3938  154.3780 H   0  0  0  0  0  0  0  0  0  0  0  0  # atno 10764 bound_to 10752
  153.4372  135.7083  153.6257 H   0  0  0  0  0  0  0  0  0  0  0  0  # atno 10765 bound_to 10752
  140.6898  133.9081  155.8610 H   0  0  0  0  0  0  0  0  0  0  0  0  # atno 11005 bound_to 11000
  146.0600  139.3594  143.0587 LP  0  0  0  0  0  0  0  0  0  0  0  0  # atno 17320 bound_to 7965
  145.8104  140.9728  143.0951 LP  0  0  0  0  0  0  0  0  0  0  0  0  # atno 17321 bound_to 7965
  139.7298  143.9091  152.3015 LP  0  0  0  0  0  0  0  0  0  0  0  0  # atno 17342 bound_to 10162
  139.8876  144.6983  150.8807 LP  0  0  0  0  0  0  0  0  0  0  0  0  # atno 17343 bound_to 10162
  156.7084  130.8960  151.3607 LP  0  0  0  0  0  0  0  0  0  0  0  0  # atno 17370 bound_to 10713
  157.6939  130.9261  150.0589 LP  0  0  0  0  0  0  0  0  0  0  0  0  # atno 17371 bound_to 10713
  141.0250  134.0836  157.4078 LP  0  0  0  0  0  0  0  0  0  0  0  0  # atno 17394 bound_to 11000
  139.8927  135.0126  156.6858 LP  0  0  0  0  0  0  0  0  0  0  0  0  # atno 17395 bound_to 11000

$$$$
