AV-unprocessed.smi:304|AV-procd|sdf|2276|dock2
  -GOLD-   2262022173D 1   1.00000     0.00000
 Structure written by MMmdl.
 36 38  0  0  0  0  0  0  0  0  1 V2000
  149.8330  140.7982  153.3297 O   0  0  0  0  0  0  0  0  0  0  0  0
  149.2514  140.4933  154.5824 C   0  0  2  0  0  0  0  0  0  0  0  0
  147.7238  140.4819  154.4173 C   0  0  0  0  0  0  0  0  0  0  0  0
  147.3746  139.5349  153.4218 O   0  0  0  0  0  0  0  0  0  0  0  0
  146.2194  138.7844  153.7602 C   0  0  0  0  0  0  0  0  0  0  0  0
  146.0689  137.6981  152.7439 C   0  0  0  0  0  0  0  0  0  0  0  0
  145.7250  136.3910  152.9780 C   0  0  0  0  0  0  0  0  0  0  0  0
  145.6500  135.6062  151.7900 C   0  0  0  0  0  0  0  0  0  0  0  0
  145.9286  136.3265  150.6593 C   0  0  0  0  0  0  0  0  0  0  0  0
  146.2887  137.9894  151.0337 S   0  0  0  0  0  0  0  0  0  0  0  0
  149.7089  141.5384  155.6185 C   0  0  0  0  0  0  0  0  0  0  0  0
  150.4533  140.9476  156.7168 N   0  0  0  0  0  0  0  0  0  0  0  0
  150.6897  139.6377  156.9215 C   0  0  0  0  0  0  0  0  0  0  0  0
  151.3966  139.3068  157.9985 N   0  0  0  0  0  0  0  0  0  0  0  0
  151.6501  140.5475  158.5580 C   0  0  0  0  0  0  0  0  0  0  0  0
  152.3611  140.8974  159.7281 C   0  0  0  0  0  0  0  0  0  0  0  0
  152.4925  142.2495  160.1074 C   0  0  0  0  0  0  0  0  0  0  0  0
  153.1770  142.5672  161.2319 F   0  0  0  0  0  0  0  0  0  0  0  0
  151.9164  143.2708  159.3231 C   0  0  0  0  0  0  0  0  0  0  0  0
  152.0487  144.5665  159.6937 F   0  0  0  0  0  0  0  0  0  0  0  0
  151.2030  142.9464  158.1534 C   0  0  0  0  0  0  0  0  0  0  0  0
  151.0733  141.5961  157.7796 C   0  0  0  0  0  0  0  0  0  0  0  0
  149.4573  140.2241  152.6795 H   0  0  0  0  0  0  0  0  0  0  0  0
  149.5926  139.5069  154.9003 H   0  0  0  0  0  0  0  0  0  0  0  0
  147.2558  140.1780  155.3551 H   0  0  0  0  0  0  0  0  0  0  0  0
  147.3444  141.4761  154.1745 H   0  0  0  0  0  0  0  0  0  0  0  0
  146.3215  138.3565  154.7588 H   0  0  0  0  0  0  0  0  0  0  0  0
  145.3358  139.4239  153.7568 H   0  0  0  0  0  0  0  0  0  0  0  0
  145.5286  135.9735  153.9544 H   0  0  0  0  0  0  0  0  0  0  0  0
  145.3959  134.5565  151.8061 H   0  0  0  0  0  0  0  0  0  0  0  0
  145.9420  135.9851  149.6349 H   0  0  0  0  0  0  0  0  0  0  0  0
  150.3281  142.3014  155.1453 H   0  0  0  0  0  0  0  0  0  0  0  0
  148.8445  142.0563  156.0365 H   0  0  0  0  0  0  0  0  0  0  0  0
  150.3217  138.8843  156.2402 H   0  0  0  0  0  0  0  0  0  0  0  0
  152.8071  140.1240  160.3356 H   0  0  0  0  0  0  0  0  0  0  0  0
  150.7636  143.7263  157.5495 H   0  0  0  0  0  0  0  0  0  0  0  0
  1  2  1  0  0  0  0
  1 23  1  0  0  0  0
  2  3  1  0  0  0  0
  2 11  1  0  0  0  0
  2 24  1  0  0  0  0
  3  4  1  0  0  0  0
  3 25  1  0  0  0  0
  3 26  1  0  0  0  0
  4  5  1  0  0  0  0
  5  6  1  0  0  0  0
  5 27  1  0  0  0  0
  5 28  1  0  0  0  0
  6 10  1  0  0  0  0
  6  7  2  0  0  0  0
  7  8  1  0  0  0  0
  7 29  1  0  0  0  0
  8  9  2  0  0  0  0
  8 30  1  0  0  0  0
  9 10  1  0  0  0  0
  9 31  1  0  0  0  0
 11 12  1  0  0  0  0
 11 32  1  0  0  0  0
 11 33  1  0  0  0  0
 12 22  1  0  0  0  0
 12 13  1  0  0  0  0
 13 14  2  0  0  0  0
 13 34  1  0  0  0  0
 14 15  1  0  0  0  0
 15 22  2  0  0  0  0
 15 16  1  0  0  0  0
 16 17  2  0  0  0  0
 16 35  1  0  0  0  0
 17 18  1  0  0  0  0
 17 19  1  0  0  0  0
 19 20  1  0  0  0  0
 19 21  2  0  0  0  0
 21 22  1  0  0  0  0
 21 36  1  0  0  0  0
M  END
> <s_m_source_file>
AV-unprocessed.smi

> <i_m_source_file_index>
304

> <i_lp_mmshare_version>
43012

> <i_f3d_flags>
0

> <s_epik_input>
W2NIXTFjKEYpYyhGKVtjSF1jKGMxMiluKFtjSF1uMilbQ0gyXVtDQEhdKFtPSF0pW0NIMl1PW0NIMl1jM1tjSF1bY0hdW2NIXXMz

> <s_epik_cmdline>
J2VwaWtfcHl0aG9uJywgJy1waCcsICc3LjAnLCAnLXRuJywgJzgnLCAnLW1hJywgJzIwMCcsICctbWV0YWxfYmluZGluZycsICctaW1hZScsICc8aW5maWxlLm1hZT4nLCAnLW9tYWUnLCAnPG91dGZpbGUubWFlPic=

> <r_epik_Ionization_Penalty>
0.0152118

> <r_epik_Ionization_Penalty_Charging>
0

> <r_epik_Ionization_Penalty_Neutral>
0.0152118

> <r_epik_State_Penalty>
0.0119413

> <r_epik_Charging_Adjusted_Penalty>
0.0119413

> <i_epik_Tot_Q>
0

> <i_epik_Tot_abs_Q>
0

> <r_epik_Metal_State_Penalty>
1.20623e-05

> <b_epik_Metal_Only>
0

> <s_lp_Force_Field>
OPLS_2005

> <r_lp_Energy>
8.33782

> <b_lp_Chiralities_Consistent>
1

> <s_lp_Variant>
AV-unprocessed.smi:304-1

> <Gold.Version>
5.8.1

> <Gold.Id.Protein>
6NUR|6NUR_protein|mol2

> <Gold.PLP.Fitness>
49.9048

> <Gold.PLP.PLP>
-43.5376

> <Gold.PLP.part.hbond>
-1.6631

> <Gold.PLP.part.metal>
0.0000

> <Gold.PLP.part.buried>
-0.0496

> <Gold.PLP.part.nonpolar>
-41.4072

> <Gold.PLP.part.repulsive>
0.2013

> <Gold.PLP.ligand.clash>
0.0000

> <Gold.PLP.ligand.torsion>
1.3007

> <Gold.PLP.Chemscore.Hbond>
1.9280

> <Gold.PLP.Chemscore.CHOScore>
1.0000

> <Gold.PLP.Chemscore.Metal>
0.0000

> <Gold.Chemscore.Hbonds>
donor molecule, donor type, donor heavy atom, donor atom, acceptor molecule, acceptor atom, score
      L1  H     1    23       P1  7957  0.70
      P1  H  7989  7998       L1     1  0.27
      P1  H  8011  8017       L1     1  0.90
      L1  C     9    31       P1  7921  1.00

> <Gold.PLP.Chemscore.Internal.Correction>
0.1847

> <Gold.Rescore>
     Score         DG    S(hbond)    S(metal)    S(lipo)     H(rot)  DE(clash)    DE(int)     intcor
     13.20     -15.69       1.33        0.00     107.02       2.64       1.32       1.17       ----

> <Gold.Chemscore.Fitness>
13.1972

> <Gold.Chemscore.DG>
-15.6865

> <Gold.Chemscore.ZeroCoef>
-5.4800

> <Gold.Chemscore.Hbond>
1.3308

> <Gold.Chemscore.Metal>
0.0000

> <Gold.Chemscore.Lipo>
107.0151

> <Gold.Chemscore.Internal_Hbond>
0.0000

> <Gold.Chemscore.DEClash>
1.3210

> <Gold.Chemscore.DEInternal>
1.1682

> <Gold.Chemscore.Rot>
2.6403

> <Gold.Chemscore.Internal.Correction>
   9.000000E+99

> <Gold.Chemscore.Hbonds>
donor molecule, donor type, donor heavy atom, donor atom, acceptor molecule, acceptor atom, score
      L1  H     1    23       P1  7957  0.65
      P1  H  7989  7998       L1     1  0.21
      P1  H  8011  8017       L1     1  0.18

> <Gold.Chemscore.Hbond.Weighted>
-4.4449

> <Gold.Chemscore.Metal.Weighted>
-0.0000

> <Gold.Chemscore.Lipo.Weighted>
-12.5208

> <Gold.Chemscore.Internal_Hbond.Weighted>
0.0000

> <Gold.Chemscore.DEClash.Weighted>
1.3210

> <Gold.Chemscore.DEInternal.Weighted>
1.1682

> <Gold.Chemscore.Rot.Weighted>
6.7592

> <Gold.Chemscore.Internal.Correction.Weighted>
   9.000000E+99

> <Gold.Protein.RotatedTorsions>
[ 6907 6896 6895 6894 ] final   68.01 input  -60.11 | X-H torsion
[ 7974 7965 7964 7962 ] final  -56.66 input  175.53 | X-H torsion
[ 8008 7997 7996 7995 ] final   44.19 input   59.86 | X-H torsion
[ 10167 10162 10161 10158 ] final   61.66 input  -65.29 | X-H torsion
[ 10718 10713 10712 10709 ] final  109.92 input   66.30 | X-H torsion
[ 10763 10752 10751 10750 ] final  -88.04 input  -60.55 | X-H torsion
[ 11005 11000 10999 10996 ] final   95.00 input  -57.11 | X-H torsion

> <Gold.Protein.ActiveResidues>
 VAL166  LYS551  ARG553  GLY616  TRP617  ASP618  TYR619  PRO620  LYS621  CYS622 
 ASP623  PHE694  ASN695  SER759  ASP760  ASP761  ALA762  ILE779  LEU786  VAL792 
 PHE793  MET794  SER795  GLU796  ALA797  LYS798  CYS799  TRP800  GLU811  SER814 

> <Gold.Protein.RotatedAtoms>
  152.4591  134.5224  159.9786 H   0  0  0  0  0  0  0  0  0  0  0  0  # atno 6907 bound_to 6896
  151.5277  133.3449  159.2920 H   0  0  0  0  0  0  0  0  0  0  0  0  # atno 6908 bound_to 6896
  150.8547  134.7913  159.7099 H   0  0  0  0  0  0  0  0  0  0  0  0  # atno 6909 bound_to 6896
  145.8600  140.8292  142.9941 H   0  0  0  0  0  0  0  0  0  0  0  0  # atno 7974 bound_to 7965
  155.3151  140.3393  155.4242 H   0  0  0  0  0  0  0  0  0  0  0  0  # atno 8008 bound_to 7997
  156.1936  140.1707  156.8080 H   0  0  0  0  0  0  0  0  0  0  0  0  # atno 8009 bound_to 7997
  154.5472  140.0713  156.8592 H   0  0  0  0  0  0  0  0  0  0  0  0  # atno 8010 bound_to 7997
  140.1524  144.4450  150.6752 H   0  0  0  0  0  0  0  0  0  0  0  0  # atno 10167 bound_to 10162
  157.6519  131.0923  150.6524 H   0  0  0  0  0  0  0  0  0  0  0  0  # atno 10718 bound_to 10713
  154.6402  135.5391  153.7780 H   0  0  0  0  0  0  0  0  0  0  0  0  # atno 10763 bound_to 10752
  153.0330  135.6457  154.1171 H   0  0  0  0  0  0  0  0  0  0  0  0  # atno 10764 bound_to 10752
  154.1096  135.2927  155.3213 H   0  0  0  0  0  0  0  0  0  0  0  0  # atno 10765 bound_to 10752
  139.8793  134.8875  156.3946 H   0  0  0  0  0  0  0  0  0  0  0  0  # atno 11005 bound_to 11000
  144.6727  140.1082  143.7457 LP  0  0  0  0  0  0  0  0  0  0  0  0  # atno 17320 bound_to 7965
  145.9259  139.2575  143.1354 LP  0  0  0  0  0  0  0  0  0  0  0  0  # atno 17321 bound_to 7965
  140.6694  143.2280  151.5662 LP  0  0  0  0  0  0  0  0  0  0  0  0  # atno 17342 bound_to 10162
  139.5420  144.2623  152.1368 LP  0  0  0  0  0  0  0  0  0  0  0  0  # atno 17343 bound_to 10162
  156.6835  130.4574  149.5621 LP  0  0  0  0  0  0  0  0  0  0  0  0  # atno 17370 bound_to 10713
  156.1912  130.6561  151.1063 LP  0  0  0  0  0  0  0  0  0  0  0  0  # atno 17371 bound_to 10713
  140.9309  133.7580  156.0023 LP  0  0  0  0  0  0  0  0  0  0  0  0  # atno 17394 bound_to 11000
  140.8332  134.3154  157.5341 LP  0  0  0  0  0  0  0  0  0  0  0  0  # atno 17395 bound_to 11000

$$$$
