#       Name:                AV-unprocessed.smi:2358
#       Creating user name   scv26
#       Creation time:       Fri Mar 27 13:04:02 2020


#       File generated by GOLD software.
#

@<TRIPOS>MOLECULE
AV-unprocessed.smi:2358
    53    55     1
SMALL
NO_CHARGES


@<TRIPOS>ATOM
      1 ****        -6.3585  -0.5656   0.9610 C.3            1 S1                 0.0000
      2 ****        -5.3629   0.5761   0.9445 C.ar           1 S1                 0.0000
      3 ****        -5.7932   1.8987   1.1702 C.ar           1 S1                 0.0000
      4 ****        -4.8626   2.9556   1.1588 C.ar           1 S1                 0.0000
      5 ****        -5.3320   4.3751   1.4018 C.3            1 S1                 0.0000
      6 ****        -3.4997   2.6851   0.9202 C.ar           1 S1                 0.0000
      7 ****        -3.0524   1.3676   0.6920 C.ar           1 S1                 0.0000
      8 ****        -1.7030   1.1963   0.4685 O.3            1 S1                 0.0000
      9 ****        -1.2231  -0.1172   0.2135 C.3            1 S1                 0.0000
     10 ****         0.3004  -0.0599   0.0125 C.3            1 S1                 0.0000
     11 ****         0.5330   0.3777  -1.3128 O.3            1 S1                 0.0000
     12 ****         0.9551  -1.4500   0.1721 C.3            1 S1                 0.0000
     13 ****         2.3957  -1.3492   0.4345 N.am           1 S1                 0.0000
     14 ****         3.1820  -1.4804  -0.6961 N.2            1 S1                 0.0000
     15 ****         4.4712  -1.3931  -0.6223 C.2            1 S1                 0.0000
     16 ****         5.3410  -1.5091  -1.7807 N.pl3          1 S1                 0.0000
     17 ****         6.7118  -1.4613  -1.8679 C.2            1 S1                 0.0000
     18 ****         7.0162  -1.6187  -3.1961 C.2            1 S1                 0.0000
     19 ****         5.8248  -1.7553  -3.8590 N.pl3          1 S1                 1.0000
     20 ****         4.8035  -1.6887  -2.9980 C.2            1 S1                 0.0000
     21 ****         5.1083  -1.1660   0.6657 C.2            1 S1                 0.0000
     22 ****         4.3319  -1.0366   1.7632 C.2            1 S1                 0.0000
     23 ****         2.8741  -1.1193   1.6930 C.2            1 S1                 0.0000
     24 ****         2.1435  -0.9886   2.6744 O.2            1 S1                 0.0000
     25 ****        -3.9987   0.3119   0.7066 C.ar           1 S1                 0.0000
     26 ****        -7.3850  -0.1981   0.9799 H              1 S1                 0.0000
     27 ****        -6.2015  -1.1876   1.8424 H              1 S1                 0.0000
     28 ****        -6.2376  -1.1888   0.0746 H              1 S1                 0.0000
     29 ****        -6.8378   2.1051   1.3532 H              1 S1                 0.0000
     30 ****        -4.4917   5.0666   1.4717 H              1 S1                 0.0000
     31 ****        -5.8973   4.4332   2.3322 H              1 S1                 0.0000
     32 ****        -5.9771   4.7032   0.5864 H              1 S1                 0.0000
     33 ****        -2.7845   3.4948   0.9111 H              1 S1                 0.0000
     34 ****        -1.4496  -0.7363   1.0833 H              1 S1                 0.0000
     35 ****        -1.7146  -0.5652  -0.6523 H              1 S1                 0.0000
     36 ****         0.7333   0.6480   0.7208 H              1 S1                 0.0000
     37 ****         0.0872  -0.2089  -1.9045 H              1 S1                 0.0000
     38 ****         0.4885  -1.9892   0.9985 H              1 S1                 0.0000
     39 ****         0.7608  -2.0696  -0.7058 H              1 S1                 0.0000
     40 ****         7.3631  -1.3239  -1.0178 H              1 S1                 0.0000
     41 ****         7.9684  -1.6425  -3.7061 H              1 S1                 0.0000
     42 ****         3.7603  -1.7641  -3.2513 H              1 S1                 0.0000
     43 ****         6.1803  -1.0966   0.7614 H              1 S1                 0.0000
     44 ****         4.7994  -0.8650   2.7217 H              1 S1                 0.0000
     45 ****        -3.7003  -0.7119   0.5392 H              1 S1                 0.0000
     46 ****         5.7280  -1.8870  -4.8582 H              1 S1                 0.0000
     47 ****        -1.2236   1.5345   1.2783 LP             1 S1                 0.0000
     48 ****        -1.4601   1.7587  -0.3218 LP             1 S1                 0.0000
     49 ****         1.5145   0.3681  -1.5039 LP             1 S1                 0.0000
     50 ****         0.1800   1.3061  -1.4284 LP             1 S1                 0.0000
     51 ****         2.7486  -1.6449  -1.5821 LP             1 S1                 0.0000
     52 ****         1.1508  -1.0496   2.5704 LP             1 S1                 0.0000
     53 ****         2.5425  -0.8215   3.5760 LP             1 S1                 0.0000
@<TRIPOS>BOND
    1    1    2 1     
    2    1   26 1     
    3    1   27 1     
    4    1   28 1     
    5    2   25 ar    
    6    2    3 ar    
    7    3    4 ar    
    8    3   29 1     
    9    4    5 1     
   10    4    6 ar    
   11    5   30 1     
   12    5   31 1     
   13    5   32 1     
   14    6    7 ar    
   15    6   33 1     
   16    7    8 1     
   17    7   25 ar    
   18    8    9 1     
   19    9   10 1     
   20    9   34 1     
   21    9   35 1     
   22   10   11 1     
   23   10   12 1     
   24   10   36 1     
   25   11   37 1     
   26   12   13 1     
   27   12   38 1     
   28   12   39 1     
   29   13   23 am    
   30   13   14 1     
   31   14   15 2     
   32   15   16 1     
   33   15   21 1     
   34   16   20 1     
   35   16   17 1     
   36   17   18 2     
   37   17   40 1     
   38   18   19 1     
   39   18   41 1     
   40   19   20 2     
   41   19   46 1     
   42   20   42 1     
   43   21   22 2     
   44   21   43 1     
   45   22   23 1     
   46   22   44 1     
   47   23   24 2     
   48   25   45 1     
   49    8   47 1     
   50    8   48 1     
   51   11   49 1     
   52   11   50 1     
   53   14   51 1     
   54   24   52 1     
   55   24   53 1     
@<TRIPOS>SUBSTRUCTURE
      1 S1             1
@<TRIPOS>SET
LONE_PAIRS      STATIC     ATOMS    <user>   **** ""
7 47 48 49 50 51 52 53
DONOR_HYDROGENS      STATIC     ATOMS    <user>   **** ""
2 37 46
ATOM$BLUE        STATIC     ATOMS    COLORGROUP SYSTEM
7 47 48 49 50 51 52 53
ATOM$RED        STATIC     ATOMS    COLORGROUP SYSTEM
2 37 46
