AV-unprocessed.smi:3181|AV-procd|sdf|12144|dock4
  -GOLD-   2272017583D 1   1.00000     0.00000
 Structure written by MMmdl.
 42 43  0  0  0  0  0  0  0  0  2 V2000
  149.5626  141.4186  154.6723 C   0  0  0  0  0  0  0  0  0  0  0  0
  150.4531  141.3855  155.9253 C   0  0  1  0  0  0  0  0  0  0  0  0
  151.8252  140.7311  155.6540 C   0  0  0  0  0  0  0  0  0  0  0  0
  151.7175  139.3432  155.2451 N   0  0  0  0  0  0  0  0  0  0  0  0
  152.4779  138.2873  155.5403 C   0  0  0  0  0  0  0  0  0  0  0  0
  152.0638  137.1581  154.9831 N   0  0  0  0  0  0  0  0  0  0  0  0
  150.9626  137.6206  154.3193 C   0  0  0  0  0  0  0  0  0  0  0  0
  150.7087  138.9233  154.4467 N   0  0  0  0  0  0  0  0  0  0  0  0
  150.6369  142.7628  156.4372 N   0  3  0  0  0  0  0  0  0  0  0  0
  150.8328  142.8963  157.8996 C   0  0  2  0  0  0  0  0  0  0  0  0
  151.2547  144.3354  158.2336 C   0  0  0  0  0  0  0  0  0  0  0  0
  151.4728  144.5140  159.7416 C   0  0  0  0  0  0  0  0  0  0  0  0
  152.5233  143.5290  160.2925 C   0  0  1  0  0  0  0  0  0  0  0  0
  152.7171  143.7628  161.8012 C   0  0  0  0  0  0  0  0  0  0  0  0
  152.1294  142.0673  159.9519 C   0  0  2  0  0  0  0  0  0  0  0  0
  153.1731  141.0393  160.4249 C   0  0  0  0  0  0  0  0  0  0  0  0
  151.8823  141.9022  158.4374 C   0  0  0  0  0  0  0  0  0  0  0  0
  149.3360  140.4136  154.3152 H   0  0  0  0  0  0  0  0  0  0  0  0
  150.0434  141.9603  153.8571 H   0  0  0  0  0  0  0  0  0  0  0  0
  148.6106  141.9076  154.8814 H   0  0  0  0  0  0  0  0  0  0  0  0
  149.9253  140.7964  156.6771 H   0  0  0  0  0  0  0  0  0  0  0  0
  152.3551  141.2784  154.8731 H   0  0  0  0  0  0  0  0  0  0  0  0
  152.4579  140.7704  156.5411 H   0  0  0  0  0  0  0  0  0  0  0  0
  153.3527  138.3452  156.1717 H   0  0  0  0  0  0  0  0  0  0  0  0
  150.3286  136.9779  153.7262 H   0  0  0  0  0  0  0  0  0  0  0  0
  151.4110  143.1963  155.9544 H   0  0  0  0  0  0  0  0  0  0  0  0
  149.8752  142.7041  158.3867 H   0  0  0  0  0  0  0  0  0  0  0  0
  152.1733  144.5882  157.7018 H   0  0  0  0  0  0  0  0  0  0  0  0
  150.4945  145.0381  157.8900 H   0  0  0  0  0  0  0  0  0  0  0  0
  151.7837  145.5403  159.9411 H   0  0  0  0  0  0  0  0  0  0  0  0
  150.5254  144.3743  160.2644 H   0  0  0  0  0  0  0  0  0  0  0  0
  153.4731  143.7486  159.8022 H   0  0  0  0  0  0  0  0  0  0  0  0
  151.8250  143.4864  162.3642 H   0  0  0  0  0  0  0  0  0  0  0  0
  152.9278  144.8118  162.0108 H   0  0  0  0  0  0  0  0  0  0  0  0
  153.5548  143.1883  162.1960 H   0  0  0  0  0  0  0  0  0  0  0  0
  151.1933  141.8416  160.4651 H   0  0  0  0  0  0  0  0  0  0  0  0
  154.1565  141.2490  160.0034 H   0  0  0  0  0  0  0  0  0  0  0  0
  152.8924  140.0296  160.1236 H   0  0  0  0  0  0  0  0  0  0  0  0
  153.2684  141.0277  161.5104 H   0  0  0  0  0  0  0  0  0  0  0  0
  151.5562  140.8796  158.2464 H   0  0  0  0  0  0  0  0  0  0  0  0
  152.8216  142.0329  157.8974 H   0  0  0  0  0  0  0  0  0  0  0  0
  149.7971  143.2754  156.2082 H   0  0  0  0  0  0  0  0  0  0  0  0
  1  2  1  0  0  0  0
  1 18  1  0  0  0  0
  1 19  1  0  0  0  0
  1 20  1  0  0  0  0
  2  3  1  0  0  0  0
  2  9  1  0  0  0  0
  2 21  1  0  0  0  0
  3  4  1  0  0  0  0
  3 22  1  0  0  0  0
  3 23  1  0  0  0  0
  4  8  1  0  0  0  0
  4  5  1  0  0  0  0
  5  6  2  0  0  0  0
  5 24  1  0  0  0  0
  6  7  1  0  0  0  0
  7  8  2  0  0  0  0
  7 25  1  0  0  0  0
  9 10  1  0  0  0  0
  9 26  1  0  0  0  0
  9 42  1  0  0  0  0
 10 17  1  0  0  0  0
 10 11  1  0  0  0  0
 10 27  1  0  0  0  0
 11 12  1  0  0  0  0
 11 28  1  0  0  0  0
 11 29  1  0  0  0  0
 12 13  1  0  0  0  0
 12 30  1  0  0  0  0
 12 31  1  0  0  0  0
 13 14  1  0  0  0  0
 13 15  1  0  0  0  0
 13 32  1  0  0  0  0
 14 33  1  0  0  0  0
 14 34  1  0  0  0  0
 14 35  1  0  0  0  0
 15 16  1  0  0  0  0
 15 17  1  0  0  0  0
 15 36  1  0  0  0  0
 16 37  1  0  0  0  0
 16 38  1  0  0  0  0
 16 39  1  0  0  0  0
 17 40  1  0  0  0  0
 17 41  1  0  0  0  0
M  CHG  1   9   1
M  END
> <s_m_source_file>
AV-unprocessed.smi

> <i_m_source_file_index>
3181

> <i_lp_mmshare_version>
43012

> <i_f3d_flags>
0

> <s_epik_input>
bjFbY0hdbltjSF1uMVtDSDJdW0NAQEhdKFtDSDNdKVtOSF1bQ0BASF0yW0NIMl1bQ0gyXVtDQEBIXShbQ0gzXSlbQ0BASF0oW0NIM10pW0NIMl0y

> <s_epik_cmdline>
J2VwaWtfcHl0aG9uJywgJy1waCcsICc3LjAnLCAnLXRuJywgJzgnLCAnLW1hJywgJzIwMCcsICctbWV0YWxfYmluZGluZycsICctaW1hZScsICc8aW5maWxlLm1hZT4nLCAnLW9tYWUnLCAnPG91dGZpbGUubWFlPic=

> <r_lp_tautomer_probability>
1

> <r_epik_Ionization_Penalty>
0.000617007

> <r_epik_Ionization_Penalty_Charging>
0.000616215

> <r_epik_Ionization_Penalty_Neutral>
7.92544e-07

> <r_epik_State_Penalty>
0.000388807

> <r_epik_Charging_Adjusted_Penalty>
0.00100502

> <i_epik_Tot_Q>
1

> <i_epik_Tot_abs_Q>
1

> <r_epik_Metal_State_Penalty>
-0

> <b_epik_Metal_Only>
0

> <s_lp_Force_Field>
OPLS_2005

> <r_lp_Energy>
19.3641

> <b_lp_Chiralities_Consistent>
1

> <s_lp_Variant>
AV-unprocessed.smi:3181-10

> <Gold.Version>
5.8.1

> <Gold.Id.Protein>
6NUR|6NUR_protein|mol2

> <Gold.PLP.Fitness>
51.7271

> <Gold.PLP.PLP>
-40.9971

> <Gold.PLP.part.hbond>
-2.0000

> <Gold.PLP.part.metal>
0.0000

> <Gold.PLP.part.buried>
-3.6331

> <Gold.PLP.part.nonpolar>
-34.6678

> <Gold.PLP.part.repulsive>
0.3303

> <Gold.PLP.ligand.clash>
0.0000

> <Gold.PLP.ligand.torsion>
0.7254

> <Gold.PLP.Chemscore.Hbond>
2.9920

> <Gold.PLP.Chemscore.CHOScore>
1.0624

> <Gold.PLP.Chemscore.Metal>
0.0000

> <Gold.Chemscore.Hbonds>
donor molecule, donor type, donor heavy atom, donor atom, acceptor molecule, acceptor atom, score
      L1  H     9    42       P1  8028  2.00
      P1  H 10752 10764       L1     6  0.90
      L1  C     7    25       P1  7948  0.78
      L1  C     7    25       P1  7949  0.24

> <Gold.PLP.Chemscore.Internal.Correction>
0.0175

> <Gold.Rescore>
     Score         DG    S(hbond)    S(metal)    S(lipo)     H(rot)  DE(clash)    DE(int)     intcor
     15.99     -18.68       1.93        0.00     103.88       2.11       0.76       1.93       ----

> <Gold.Chemscore.Fitness>
15.9866

> <Gold.Chemscore.DG>
-18.6784

> <Gold.Chemscore.ZeroCoef>
-5.4800

> <Gold.Chemscore.Hbond>
1.9297

> <Gold.Chemscore.Metal>
0.0000

> <Gold.Chemscore.Lipo>
103.8754

> <Gold.Chemscore.Internal_Hbond>
0.0000

> <Gold.Chemscore.DEClash>
0.7628

> <Gold.Chemscore.DEInternal>
1.9291

> <Gold.Chemscore.Rot>
2.1095

> <Gold.Chemscore.Internal.Correction>
   9.000000E+99

> <Gold.Chemscore.Hbonds>
donor molecule, donor type, donor heavy atom, donor atom, acceptor molecule, acceptor atom, score
      L1  H     9    42       P1  8028  0.98
      P1  H 10752 10764       L1     6  0.88

> <Gold.Chemscore.Hbond.Weighted>
-6.4453

> <Gold.Chemscore.Metal.Weighted>
-0.0000

> <Gold.Chemscore.Lipo.Weighted>
-12.1534

> <Gold.Chemscore.Internal_Hbond.Weighted>
0.0000

> <Gold.Chemscore.DEClash.Weighted>
0.7628

> <Gold.Chemscore.DEInternal.Weighted>
1.9291

> <Gold.Chemscore.Rot.Weighted>
5.4003

> <Gold.Chemscore.Internal.Correction.Weighted>
   9.000000E+99

> <Gold.Protein.RotatedTorsions>
[ 6907 6896 6895 6894 ] final   62.71 input  -60.11 | X-H torsion
[ 7974 7965 7964 7962 ] final   27.98 input  175.53 | X-H torsion
[ 8008 7997 7996 7995 ] final   70.91 input   59.86 | X-H torsion
[ 10167 10162 10161 10158 ] final  168.10 input  -65.29 | X-H torsion
[ 10718 10713 10712 10709 ] final  -25.84 input   66.30 | X-H torsion
[ 10763 10752 10751 10750 ] final  -59.27 input  -60.55 | X-H torsion
[ 11005 11000 10999 10996 ] final -127.46 input  -57.11 | X-H torsion

> <Gold.Protein.ActiveResidues>
 VAL166  LYS551  ARG553  GLY616  TRP617  ASP618  TYR619  PRO620  LYS621  CYS622 
 ASP623  PHE694  ASN695  SER759  ASP760  ASP761  ALA762  ILE779  LEU786  VAL792 
 PHE793  MET794  SER795  GLU796  ALA797  LYS798  CYS799  TRP800  GLU811  SER814 

> <Gold.Protein.RotatedAtoms>
  152.4194  134.5983  159.9992 H   0  0  0  0  0  0  0  0  0  0  0  0  # atno 6907 bound_to 6896
  151.6137  133.3339  159.3081 H   0  0  0  0  0  0  0  0  0  0  0  0  # atno 6908 bound_to 6896
  150.8082  134.7259  159.6729 H   0  0  0  0  0  0  0  0  0  0  0  0  # atno 6909 bound_to 6896
  146.1754  139.7118  142.8938 H   0  0  0  0  0  0  0  0  0  0  0  0  # atno 7974 bound_to 7965
  155.7459  140.3489  155.5127 H   0  0  0  0  0  0  0  0  0  0  0  0  # atno 8008 bound_to 7997
  155.9050  140.1040  157.1343 H   0  0  0  0  0  0  0  0  0  0  0  0  # atno 8009 bound_to 7997
  154.4048  140.1279  156.4471 H   0  0  0  0  0  0  0  0  0  0  0  0  # atno 8010 bound_to 7997
  139.4960  144.3850  151.9580 H   0  0  0  0  0  0  0  0  0  0  0  0  # atno 10167 bound_to 10162
  156.4590  130.4500  149.6941 H   0  0  0  0  0  0  0  0  0  0  0  0  # atno 10718 bound_to 10713
  154.2511  135.6326  153.5240 H   0  0  0  0  0  0  0  0  0  0  0  0  # atno 10763 bound_to 10752
  152.9912  135.5565  154.5806 H   0  0  0  0  0  0  0  0  0  0  0  0  # atno 10764 bound_to 10752
  154.5334  135.2890  155.1135 H   0  0  0  0  0  0  0  0  0  0  0  0  # atno 10765 bound_to 10752
  140.9597  134.0953  157.3980 H   0  0  0  0  0  0  0  0  0  0  0  0  # atno 11005 bound_to 11000
  145.4225  141.0408  143.2956 LP  0  0  0  0  0  0  0  0  0  0  0  0  # atno 17320 bound_to 7965
  144.8228  139.5761  143.6979 LP  0  0  0  0  0  0  0  0  0  0  0  0  # atno 17321 bound_to 7965
  140.3287  144.3342  150.5992 LP  0  0  0  0  0  0  0  0  0  0  0  0  # atno 17342 bound_to 10162
  140.5663  143.2186  151.7678 LP  0  0  0  0  0  0  0  0  0  0  0  0  # atno 17343 bound_to 10162
  156.3736  130.7543  151.2529 LP  0  0  0  0  0  0  0  0  0  0  0  0  # atno 17370 bound_to 10713
  157.7499  131.0316  150.4188 LP  0  0  0  0  0  0  0  0  0  0  0  0  # atno 17371 bound_to 10713
  139.8874  135.0089  156.6558 LP  0  0  0  0  0  0  0  0  0  0  0  0  # atno 17394 bound_to 11000
  140.7485  133.8918  155.8329 LP  0  0  0  0  0  0  0  0  0  0  0  0  # atno 17395 bound_to 11000

$$$$
