#       Name:                AV-unprocessed.smi:424
#       Creating user name   scv26
#       Creation time:       Thu Mar 26 22:50:09 2020


#       File generated by GOLD software.
#

@<TRIPOS>MOLECULE
AV-unprocessed.smi:424
    40    41     1
SMALL
NO_CHARGES


@<TRIPOS>ATOM
      1 ****        -5.7164   0.6694   2.9201 C.3            1 S1                 0.0000
      2 ****        -4.9965  -0.0043   1.7406 C.3            1 S1                 0.0000
      3 ****        -3.5036   0.3324   1.6522 C.2            1 S1                 0.0000
      4 ****        -3.0045   1.1559   2.4192 O.2            1 S1                 0.0000
      5 ****        -2.8313  -0.3157   0.6832 N.am           1 S1                 0.0000
      6 ****        -1.4513  -0.2430   0.3480 C.ar           1 S1                 0.0000
      7 ****        -0.4399   0.2444   1.2083 C.ar           1 S1                 0.0000
      8 ****         0.8954   0.2435   0.7612 C.ar           1 S1                 0.0000
      9 ****         1.1944  -0.2489  -0.5310 C.ar           1 S1                 0.0000
     10 ****         2.5273  -0.2610  -0.9967 N.3            1 S1                 0.0000
     11 ****         3.2452   1.0079  -0.9035 C.3            1 S1                 0.0000
     12 ****         4.7503   0.7910  -1.1381 C.3            1 S1                 0.0000
     13 ****         4.9565   0.1257  -2.3799 O.3            1 S1                 0.0000
     14 ****         4.3418  -1.1581  -2.4002 C.3            1 S1                 0.0000
     15 ****         2.8221  -1.0057  -2.2197 C.3            1 S1                 0.0000
     16 ****         0.2242  -0.7309  -1.3457 N.ar           1 S1                 0.0000
     17 ****        -1.0542  -0.7272  -0.9141 C.ar           1 S1                 0.0000
     18 ****        -6.7674   0.3811   2.9443 H              1 S1                 0.0000
     19 ****        -5.6763   1.7566   2.8432 H              1 S1                 0.0000
     20 ****        -5.2745   0.3813   3.8749 H              1 S1                 0.0000
     21 ****        -5.1057  -1.0866   1.8217 H              1 S1                 0.0000
     22 ****        -5.4753   0.2899   0.8062 H              1 S1                 0.0000
     23 ****        -3.3895  -0.9031   0.0807 H              1 S1                 0.0000
     24 ****        -0.6518   0.6005   2.2040 H              1 S1                 0.0000
     25 ****         1.6725   0.5992   1.4209 H              1 S1                 0.0000
     26 ****         2.8462   1.6925  -1.6531 H              1 S1                 0.0000
     27 ****         3.1036   1.4828   0.0661 H              1 S1                 0.0000
     28 ****         5.2682   1.7499  -1.1595 H              1 S1                 0.0000
     29 ****         5.1899   0.2105  -0.3254 H              1 S1                 0.0000
     30 ****         4.5604  -1.6425  -3.3519 H              1 S1                 0.0000
     31 ****         4.7654  -1.7891  -1.6170 H              1 S1                 0.0000
     32 ****         2.3628  -1.9943  -2.1813 H              1 S1                 0.0000
     33 ****         2.3957  -0.4793  -3.0747 H              1 S1                 0.0000
     34 ****        -1.7845  -1.1244  -1.6040 H              1 S1                 0.0000
     35 ****        -3.5736   1.6095   3.1050 LP             1 S1                 0.0000
     36 ****        -2.0299   1.3712   2.3565 LP             1 S1                 0.0000
     37 ****         2.9269  -0.8466  -0.2914 LP             1 S1                 0.0000
     38 ****         5.9392   0.0164  -2.5293 LP             1 S1                 0.0000
     39 ****         4.5676   0.6824  -3.1139 LP             1 S1                 0.0000
     40 ****         0.4525  -1.0840  -2.2530 LP             1 S1                 0.0000
@<TRIPOS>BOND
    1    1    2 1     
    2    1   18 1     
    3    1   19 1     
    4    1   20 1     
    5    2    3 1     
    6    2   21 1     
    7    2   22 1     
    8    3    4 2     
    9    3    5 am    
   10    5    6 1     
   11    5   23 1     
   12    6   17 ar    
   13    6    7 ar    
   14    7    8 ar    
   15    7   24 1     
   16    8    9 ar    
   17    8   25 1     
   18    9   10 1     
   19    9   16 ar    
   20   10   15 1     
   21   10   11 1     
   22   11   12 1     
   23   11   26 1     
   24   11   27 1     
   25   12   13 1     
   26   12   28 1     
   27   12   29 1     
   28   13   14 1     
   29   14   15 1     
   30   14   30 1     
   31   14   31 1     
   32   15   32 1     
   33   15   33 1     
   34   16   17 ar    
   35   17   34 1     
   36    4   35 1     
   37    4   36 1     
   38   10   37 1     
   39   13   38 1     
   40   13   39 1     
   41   16   40 1     
@<TRIPOS>SUBSTRUCTURE
      1 S1             1
@<TRIPOS>SET
LONE_PAIRS      STATIC     ATOMS    <user>   **** ""
6 35 36 37 38 39 40
DONOR_HYDROGENS      STATIC     ATOMS    <user>   **** ""
1 23
ATOM$BLUE        STATIC     ATOMS    COLORGROUP SYSTEM
6 35 36 37 38 39 40
ATOM$RED        STATIC     ATOMS    COLORGROUP SYSTEM
1 23
