AV-unprocessed.smi:1973|AV-procd|sdf|7977|dock9
  -GOLD-   2272010153D 1   1.00000     0.00000
 Structure written by MMmdl.
 48 50  0  0  0  0  0  0  0  0  2 V2000
  152.5541  141.8742  158.9195 C   0  0  0  0  0  0  0  0  0  0  0  0
  151.1717  141.6278  158.7320 O   0  0  0  0  0  0  0  0  0  0  0  0
  150.9128  140.8360  157.5852 C   0  0  0  0  0  0  0  0  0  0  0  0
  151.6734  139.5081  157.7151 C   0  0  0  0  0  0  0  0  0  0  0  0
  151.3225  138.5843  156.6321 N   0  0  0  0  0  0  0  0  0  0  0  0
  150.9268  137.3309  157.0680 N   0  0  0  0  0  0  0  0  0  0  0  0
  150.6091  136.4151  156.2111 C   0  0  0  0  0  0  0  0  0  0  0  0
  150.1950  135.0501  156.6392 C   0  0  0  0  0  0  0  0  0  0  0  0
  149.8768  134.8008  157.8031 O   0  0  0  0  0  0  0  0  0  0  0  0
  150.1835  134.1199  155.6674 N   0  0  0  0  0  0  0  0  0  0  0  0
  149.7828  132.7284  155.8415 C   0  0  0  0  0  0  0  0  0  0  0  0
  149.2658  132.1130  154.5274 C   0  0  1  0  0  0  0  0  0  0  0  0
  148.3454  130.9050  154.7042 C   0  0  0  0  0  0  0  0  0  0  0  0
  147.5374  130.8504  153.4016 C   0  0  0  0  0  0  0  0  0  0  0  0
  147.6672  132.1803  152.7608 N   0  3  1  0  0  0  0  0  0  0  0  0
  146.3922  132.7492  152.2750 C   0  0  0  0  0  0  0  0  0  0  0  0
  145.6422  131.8335  151.3374 C   0  0  0  0  0  0  0  0  0  0  0  0
  146.3844  133.0345  150.7922 C   0  0  0  0  0  0  0  0  0  0  0  0
  148.3998  133.0575  153.6962 C   0  0  0  0  0  0  0  0  0  0  0  0
  150.6533  136.6837  154.7836 C   0  0  0  0  0  0  0  0  0  0  0  0
  151.0475  137.9093  154.3738 C   0  0  0  0  0  0  0  0  0  0  0  0
  151.4254  138.9591  155.3213 C   0  0  0  0  0  0  0  0  0  0  0  0
  151.8075  140.0755  154.9720 O   0  0  0  0  0  0  0  0  0  0  0  0
  152.6998  142.4876  159.8084 H   0  0  0  0  0  0  0  0  0  0  0  0
  152.9791  142.4080  158.0685 H   0  0  0  0  0  0  0  0  0  0  0  0
  153.1047  140.9431  159.0594 H   0  0  0  0  0  0  0  0  0  0  0  0
  149.8411  140.6528  157.4932 H   0  0  0  0  0  0  0  0  0  0  0  0
  151.2351  141.3661  156.6874 H   0  0  0  0  0  0  0  0  0  0  0  0
  152.7474  139.7023  157.7004 H   0  0  0  0  0  0  0  0  0  0  0  0
  151.4744  139.0560  158.6883 H   0  0  0  0  0  0  0  0  0  0  0  0
  150.4636  134.4039  154.7392 H   0  0  0  0  0  0  0  0  0  0  0  0
  150.6468  132.1708  156.2043 H   0  0  0  0  0  0  0  0  0  0  0  0
  149.0213  132.6559  156.6200 H   0  0  0  0  0  0  0  0  0  0  0  0
  150.1155  131.8096  153.9129 H   0  0  0  0  0  0  0  0  0  0  0  0
  148.8936  129.9821  154.8967 H   0  0  0  0  0  0  0  0  0  0  0  0
  147.6697  131.0710  155.5446 H   0  0  0  0  0  0  0  0  0  0  0  0
  147.9438  130.0998  152.7231 H   0  0  0  0  0  0  0  0  0  0  0  0
  146.4975  130.5866  153.6011 H   0  0  0  0  0  0  0  0  0  0  0  0
  145.8536  133.3957  152.9658 H   0  0  0  0  0  0  0  0  0  0  0  0
  146.0601  130.8490  151.1340 H   0  0  0  0  0  0  0  0  0  0  0  0
  144.5552  131.8833  151.3494 H   0  0  0  0  0  0  0  0  0  0  0  0
  145.7854  133.8744  150.4454 H   0  0  0  0  0  0  0  0  0  0  0  0
  147.2954  132.8483  150.2262 H   0  0  0  0  0  0  0  0  0  0  0  0
  147.6912  133.5798  154.3418 H   0  0  0  0  0  0  0  0  0  0  0  0
  148.9870  133.8066  153.1639 H   0  0  0  0  0  0  0  0  0  0  0  0
  150.3793  135.9282  154.0618 H   0  0  0  0  0  0  0  0  0  0  0  0
  151.0854  138.1231  153.3156 H   0  0  0  0  0  0  0  0  0  0  0  0
  148.2682  132.0499  151.9594 H   0  0  0  0  0  0  0  0  0  0  0  0
  1  2  1  0  0  0  0
  1 24  1  0  0  0  0
  1 25  1  0  0  0  0
  1 26  1  0  0  0  0
  2  3  1  0  0  0  0
  3  4  1  0  0  0  0
  3 27  1  0  0  0  0
  3 28  1  0  0  0  0
  4  5  1  0  0  0  0
  4 29  1  0  0  0  0
  4 30  1  0  0  0  0
  5 22  1  0  0  0  0
  5  6  1  0  0  0  0
  6  7  2  0  0  0  0
  7  8  1  0  0  0  0
  7 20  1  0  0  0  0
  8  9  2  0  0  0  0
  8 10  1  0  0  0  0
 10 11  1  0  0  0  0
 10 31  1  0  0  0  0
 11 12  1  0  0  0  0
 11 32  1  0  0  0  0
 11 33  1  0  0  0  0
 12 19  1  0  0  0  0
 12 13  1  0  0  0  0
 12 34  1  0  0  0  0
 13 14  1  0  0  0  0
 13 35  1  0  0  0  0
 13 36  1  0  0  0  0
 14 15  1  0  0  0  0
 14 37  1  0  0  0  0
 14 38  1  0  0  0  0
 15 16  1  0  0  0  0
 15 19  1  0  0  0  0
 15 48  1  0  0  0  0
 16 18  1  0  0  0  0
 16 17  1  0  0  0  0
 16 39  1  0  0  0  0
 17 18  1  0  0  0  0
 17 40  1  0  0  0  0
 17 41  1  0  0  0  0
 18 42  1  0  0  0  0
 18 43  1  0  0  0  0
 19 44  1  0  0  0  0
 19 45  1  0  0  0  0
 20 21  2  0  0  0  0
 20 46  1  0  0  0  0
 21 22  1  0  0  0  0
 21 47  1  0  0  0  0
 22 23  2  0  0  0  0
M  CHG  1  15   1
M  END
> <s_m_source_file>
AV-unprocessed.smi

> <i_m_source_file_index>
1973

> <i_lp_mmshare_version>
43012

> <i_f3d_flags>
0

> <s_epik_input>
W0NIM11PW0NIMl1bQ0gyXW4xbmMoW2NIXVtjSF1jMT1PKUMoPU8pW05IXVtDSDJdW0NAQEhdMltDSDJdW0NIMl1OKFtDSDJdMilbQ0hdM1tDSDJdW0NIMl0z

> <s_epik_cmdline>
J2VwaWtfcHl0aG9uJywgJy1waCcsICc3LjAnLCAnLXRuJywgJzgnLCAnLW1hJywgJzIwMCcsICctbWV0YWxfYmluZGluZycsICctaW1hZScsICc8aW5maWxlLm1hZT4nLCAnLW9tYWUnLCAnPG91dGZpbGUubWFlPic=

> <r_lp_tautomer_probability>
1

> <r_epik_Ionization_Penalty>
0.000225706

> <r_epik_Ionization_Penalty_Charging>
0.000223776

> <r_epik_Ionization_Penalty_Neutral>
1.93004e-06

> <r_epik_State_Penalty>
-0

> <r_epik_Charging_Adjusted_Penalty>
0.000223776

> <i_epik_Tot_Q>
1

> <i_epik_Tot_abs_Q>
1

> <r_epik_Metal_State_Penalty>
-0

> <b_epik_Metal_Only>
0

> <s_lp_Force_Field>
OPLS_2005

> <r_lp_Energy>
57.2407

> <b_lp_Chiralities_Consistent>
1

> <s_lp_Variant>
AV-unprocessed.smi:1973-2

> <Gold.Version>
5.8.1

> <Gold.Id.Protein>
6NUR|6NUR_protein|mol2

> <Gold.PLP.Fitness>
45.2304

> <Gold.PLP.PLP>
-38.8954

> <Gold.PLP.part.hbond>
-2.9982

> <Gold.PLP.part.metal>
0.0000

> <Gold.PLP.part.buried>
-5.2473

> <Gold.PLP.part.nonpolar>
-31.8085

> <Gold.PLP.part.repulsive>
0.1291

> <Gold.PLP.ligand.clash>
0.0000

> <Gold.PLP.ligand.torsion>
1.2934

> <Gold.PLP.Chemscore.Hbond>
2.5526

> <Gold.PLP.Chemscore.CHOScore>
0.0000

> <Gold.PLP.Chemscore.Metal>
0.0000

> <Gold.Chemscore.Hbonds>
donor molecule, donor type, donor heavy atom, donor atom, acceptor molecule, acceptor atom, score
      L1  H    15    48       P1 10747  0.65
      P1  H  6896  6908       L1     9  0.94
      P1  H  7989  7998       L1    23  0.93

> <Gold.PLP.Chemscore.Internal.Correction>
1.2641

> <Gold.Rescore>
     Score         DG    S(hbond)    S(metal)    S(lipo)     H(rot)  DE(clash)    DE(int)     intcor
     16.72     -19.30       2.69        0.00      84.37       1.97       0.15       2.43       ----

> <Gold.Chemscore.Fitness>
16.7211

> <Gold.Chemscore.DG>
-19.2985

> <Gold.Chemscore.ZeroCoef>
-5.4800

> <Gold.Chemscore.Hbond>
2.6925

> <Gold.Chemscore.Metal>
0.0000

> <Gold.Chemscore.Lipo>
84.3719

> <Gold.Chemscore.Internal_Hbond>
0.0000

> <Gold.Chemscore.DEClash>
0.1489

> <Gold.Chemscore.DEInternal>
2.4285

> <Gold.Chemscore.Rot>
1.9711

> <Gold.Chemscore.Internal.Correction>
   9.000000E+99

> <Gold.Chemscore.Hbonds>
donor molecule, donor type, donor heavy atom, donor atom, acceptor molecule, acceptor atom, score
      L1  H    15    48       P1 10747  0.62
      P1  H  6896  6908       L1     9  0.91
      P1  H  7989  7998       L1    23  0.89

> <Gold.Chemscore.Hbond.Weighted>
-8.9930

> <Gold.Chemscore.Metal.Weighted>
-0.0000

> <Gold.Chemscore.Lipo.Weighted>
-9.8715

> <Gold.Chemscore.Internal_Hbond.Weighted>
0.0000

> <Gold.Chemscore.DEClash.Weighted>
0.1489

> <Gold.Chemscore.DEInternal.Weighted>
2.4285

> <Gold.Chemscore.Rot.Weighted>
5.0460

> <Gold.Chemscore.Internal.Correction.Weighted>
   9.000000E+99

> <Gold.Protein.RotatedTorsions>
[ 6907 6896 6895 6894 ] final  145.59 input  -60.11 | X-H torsion
[ 7974 7965 7964 7962 ] final -172.36 input  175.53 | X-H torsion
[ 8008 7997 7996 7995 ] final -122.71 input   59.86 | X-H torsion
[ 10167 10162 10161 10158 ] final -149.98 input  -65.29 | X-H torsion
[ 10718 10713 10712 10709 ] final  116.80 input   66.30 | X-H torsion
[ 10763 10752 10751 10750 ] final -143.30 input  -60.55 | X-H torsion
[ 11005 11000 10999 10996 ] final   30.88 input  -57.11 | X-H torsion

> <Gold.Protein.ActiveResidues>
 VAL166  LYS551  ARG553  GLY616  TRP617  ASP618  TYR619  PRO620  LYS621  CYS622 
 ASP623  PHE694  ASN695  SER759  ASP760  ASP761  ALA762  ILE779  LEU786  VAL792 
 PHE793  MET794  SER795  GLU796  ALA797  LYS798  CYS799  TRP800  GLU811  SER814 

> <Gold.Protein.RotatedAtoms>
  152.1788  133.4693  159.4947 H   0  0  0  0  0  0  0  0  0  0  0  0  # atno 6907 bound_to 6896
  150.6931  134.1859  159.4275 H   0  0  0  0  0  0  0  0  0  0  0  0  # atno 6908 bound_to 6896
  151.9770  135.0048  160.0606 H   0  0  0  0  0  0  0  0  0  0  0  0  # atno 6909 bound_to 6896
  144.7147  140.1783  143.6361 H   0  0  0  0  0  0  0  0  0  0  0  0  # atno 7974 bound_to 7965
  155.1687  140.0407  157.2858 H   0  0  0  0  0  0  0  0  0  0  0  0  # atno 8008 bound_to 7997
  154.6285  140.2518  155.7436 H   0  0  0  0  0  0  0  0  0  0  0  0  # atno 8009 bound_to 7997
  156.2472  140.2880  156.0625 H   0  0  0  0  0  0  0  0  0  0  0  0  # atno 8010 bound_to 7997
  139.7394  143.8685  152.2558 H   0  0  0  0  0  0  0  0  0  0  0  0  # atno 10167 bound_to 10162
  157.6137  131.1030  150.7525 H   0  0  0  0  0  0  0  0  0  0  0  0  # atno 10718 bound_to 10713
  154.8475  135.3471  154.6166 H   0  0  0  0  0  0  0  0  0  0  0  0  # atno 10763 bound_to 10752
  153.6775  135.6982  153.5133 H   0  0  0  0  0  0  0  0  0  0  0  0  # atno 10764 bound_to 10752
  153.2694  135.4297  155.0929 H   0  0  0  0  0  0  0  0  0  0  0  0  # atno 10765 bound_to 10752
  140.2898  134.2878  155.7779 H   0  0  0  0  0  0  0  0  0  0  0  0  # atno 11005 bound_to 11000
  145.8879  139.2359  143.1566 LP  0  0  0  0  0  0  0  0  0  0  0  0  # atno 17320 bound_to 7965
  145.9931  140.8585  143.0056 LP  0  0  0  0  0  0  0  0  0  0  0  0  # atno 17321 bound_to 7965
  139.8631  144.7107  150.9076 LP  0  0  0  0  0  0  0  0  0  0  0  0  # atno 17342 bound_to 10162
  140.7783  143.3801  151.1493 LP  0  0  0  0  0  0  0  0  0  0  0  0  # atno 17343 bound_to 10162
  156.7897  130.4886  149.5387 LP  0  0  0  0  0  0  0  0  0  0  0  0  # atno 17370 bound_to 10713
  156.1250  130.6137  151.0250 LP  0  0  0  0  0  0  0  0  0  0  0  0  # atno 17371 bound_to 10713
  141.2148  133.7578  156.9607 LP  0  0  0  0  0  0  0  0  0  0  0  0  # atno 17394 bound_to 11000
  140.1206  134.9419  157.2198 LP  0  0  0  0  0  0  0  0  0  0  0  0  # atno 17395 bound_to 11000

$$$$
