AV-unprocessed.smi:863|AV-procd|sdf|3984|dock10
  -GOLD-   22720 1463D 1   1.00000     0.00000
 Structure written by MMmdl.
 42 44  0  0  0  0  0  0  0  0  1 V2000
  152.1553  139.7082  154.6842 O   0  0  0  0  0  0  0  0  0  0  0  0
  151.0379  139.3835  155.0861 C   0  0  0  0  0  0  0  0  0  0  0  0
  150.1749  138.4301  154.2589 C   0  0  0  0  0  0  0  0  0  0  0  0
  148.7391  138.8804  154.2772 C   0  0  0  0  0  0  0  0  0  0  0  0
  147.8780  139.1297  153.1723 C   0  0  0  0  0  0  0  0  0  0  0  0
  146.7063  139.5108  153.7597 C   0  0  0  0  0  0  0  0  0  0  0  0
  146.8283  139.5039  155.1111 O   0  0  0  0  0  0  0  0  0  0  0  0
  148.1303  139.1029  155.4325 N   0  0  0  0  0  0  0  0  0  0  0  0
  150.5078  139.8256  156.2375 N   0  0  0  0  0  0  0  0  0  0  0  0
  151.1654  140.7315  157.1743 C   0  0  2  0  0  0  0  0  0  0  0  0
  151.5030  139.9838  158.4688 C   0  0  0  0  0  0  0  0  0  0  0  0
  152.0895  140.9469  159.5097 C   0  0  0  0  0  0  0  0  0  0  0  0
  151.1955  142.0334  159.7442 O   0  0  0  0  0  0  0  0  0  0  0  0
  150.8554  142.8409  158.6094 C   0  0  0  0  0  0  0  0  0  0  0  0
  149.7692  143.8266  159.1009 C   0  0  0  0  0  0  0  0  0  0  0  0
  150.2989  144.8231  160.1470 C   0  0  0  0  0  0  0  0  0  0  0  0
  151.5133  145.5970  159.6166 C   0  0  0  0  0  0  0  0  0  0  0  0
  152.6127  144.6353  159.1457 C   0  0  0  0  0  0  0  0  0  0  0  0
  152.0764  143.6503  158.0940 C   0  0  0  0  0  0  0  0  0  0  0  0
  150.2585  141.9294  157.5092 C   0  0  0  0  0  0  0  0  0  0  0  0
  150.5560  138.3781  153.2378 H   0  0  0  0  0  0  0  0  0  0  0  0
  150.2606  137.4239  154.6707 H   0  0  0  0  0  0  0  0  0  0  0  0
  148.0876  139.0409  152.1168 H   0  0  0  0  0  0  0  0  0  0  0  0
  145.7428  139.8051  153.3707 H   0  0  0  0  0  0  0  0  0  0  0  0
  149.5843  139.5031  156.4883 H   0  0  0  0  0  0  0  0  0  0  0  0
  152.0950  141.0853  156.7259 H   0  0  0  0  0  0  0  0  0  0  0  0
  150.6032  139.5211  158.8769 H   0  0  0  0  0  0  0  0  0  0  0  0
  152.2076  139.1758  158.2685 H   0  0  0  0  0  0  0  0  0  0  0  0
  152.2432  140.4206  160.4518 H   0  0  0  0  0  0  0  0  0  0  0  0
  153.0699  141.3080  159.2001 H   0  0  0  0  0  0  0  0  0  0  0  0
  149.3726  144.3846  158.2513 H   0  0  0  0  0  0  0  0  0  0  0  0
  148.9267  143.2764  159.5218 H   0  0  0  0  0  0  0  0  0  0  0  0
  149.5089  145.5207  160.4266 H   0  0  0  0  0  0  0  0  0  0  0  0
  150.5742  144.2899  161.0579 H   0  0  0  0  0  0  0  0  0  0  0  0
  151.2067  146.2370  158.7881 H   0  0  0  0  0  0  0  0  0  0  0  0
  151.9021  146.2581  160.3915 H   0  0  0  0  0  0  0  0  0  0  0  0
  153.4466  145.2019  158.7310 H   0  0  0  0  0  0  0  0  0  0  0  0
  153.0093  144.0833  159.9988 H   0  0  0  0  0  0  0  0  0  0  0  0
  152.8846  142.9983  157.7662 H   0  0  0  0  0  0  0  0  0  0  0  0
  151.7825  144.2130  157.2070 H   0  0  0  0  0  0  0  0  0  0  0  0
  150.0542  142.5135  156.6109 H   0  0  0  0  0  0  0  0  0  0  0  0
  149.2928  141.5498  157.8473 H   0  0  0  0  0  0  0  0  0  0  0  0
  1  2  2  0  0  0  0
  2  3  1  0  0  0  0
  2  9  1  0  0  0  0
  3  4  1  0  0  0  0
  3 21  1  0  0  0  0
  3 22  1  0  0  0  0
  4  8  2  0  0  0  0
  4  5  1  0  0  0  0
  5  6  2  0  0  0  0
  5 23  1  0  0  0  0
  6  7  1  0  0  0  0
  6 24  1  0  0  0  0
  7  8  1  0  0  0  0
  9 10  1  0  0  0  0
  9 25  1  0  0  0  0
 10 20  1  0  0  0  0
 10 11  1  0  0  0  0
 10 26  1  0  0  0  0
 11 12  1  0  0  0  0
 11 27  1  0  0  0  0
 11 28  1  0  0  0  0
 12 13  1  0  0  0  0
 12 29  1  0  0  0  0
 12 30  1  0  0  0  0
 13 14  1  0  0  0  0
 14 19  1  0  0  0  0
 14 15  1  0  0  0  0
 14 20  1  0  0  0  0
 15 16  1  0  0  0  0
 15 31  1  0  0  0  0
 15 32  1  0  0  0  0
 16 17  1  0  0  0  0
 16 33  1  0  0  0  0
 16 34  1  0  0  0  0
 17 18  1  0  0  0  0
 17 35  1  0  0  0  0
 17 36  1  0  0  0  0
 18 19  1  0  0  0  0
 18 37  1  0  0  0  0
 18 38  1  0  0  0  0
 19 39  1  0  0  0  0
 19 40  1  0  0  0  0
 20 41  1  0  0  0  0
 20 42  1  0  0  0  0
M  END
> <s_m_source_file>
AV-unprocessed.smi

> <i_m_source_file_index>
863

> <i_lp_mmshare_version>
43012

> <i_f3d_flags>
0

> <s_epik_input>
bjFvW2NIXVtjSF1jMVtDSDJdQyg9TylbTkhdW0NAQEhdKFtDSDJdMilbQ0gyXVtDSDJdT0MyM1tDSDJdW0NIMl1bQ0gyXVtDSDJdW0NIMl0z

> <s_epik_cmdline>
J2VwaWtfcHl0aG9uJywgJy1waCcsICc3LjAnLCAnLXRuJywgJzgnLCAnLW1hJywgJzIwMCcsICctbWV0YWxfYmluZGluZycsICctaW1hZScsICc8aW5maWxlLm1hZT4nLCAnLW9tYWUnLCAnPG91dGZpbGUubWFlPic=

> <r_lp_tautomer_probability>
1

> <r_epik_Ionization_Penalty>
1.10177e-07

> <r_epik_Ionization_Penalty_Charging>
0

> <r_epik_Ionization_Penalty_Neutral>
1.10177e-07

> <r_epik_State_Penalty>
-0

> <r_epik_Charging_Adjusted_Penalty>
0

> <i_epik_Tot_Q>
0

> <i_epik_Tot_abs_Q>
0

> <r_epik_Metal_State_Penalty>
-0

> <b_epik_Metal_Only>
0

> <s_lp_Force_Field>
OPLS_2005

> <r_lp_Energy>
15.5763

> <b_lp_Chiralities_Consistent>
1

> <s_lp_Variant>
AV-unprocessed.smi:863-1

> <Gold.Version>
5.8.1

> <Gold.Id.Protein>
6NUR|6NUR_protein|mol2

> <Gold.PLP.Fitness>
41.0474

> <Gold.PLP.PLP>
-36.1828

> <Gold.PLP.part.hbond>
-2.0000

> <Gold.PLP.part.metal>
0.0000

> <Gold.PLP.part.buried>
-4.5913

> <Gold.PLP.part.nonpolar>
-30.2486

> <Gold.PLP.part.repulsive>
0.1491

> <Gold.PLP.ligand.clash>
0.0000

> <Gold.PLP.ligand.torsion>
0.3879

> <Gold.PLP.Chemscore.Hbond>
0.8800

> <Gold.PLP.Chemscore.CHOScore>
1.0000

> <Gold.PLP.Chemscore.Metal>
0.0000

> <Gold.Chemscore.Hbonds>
donor molecule, donor type, donor heavy atom, donor atom, acceptor molecule, acceptor atom, score
      P1  H  7989  7998       L1     1  0.76
      L1  C     6    24       P1 10175  1.00

> <Gold.PLP.Chemscore.Internal.Correction>
0.0004

> <Gold.Rescore>
     Score         DG    S(hbond)    S(metal)    S(lipo)     H(rot)  DE(clash)    DE(int)     intcor
     16.75     -17.46       0.83        0.00     109.72       1.42       0.31       0.39       ----

> <Gold.Chemscore.Fitness>
16.7528

> <Gold.Chemscore.DG>
-17.4581

> <Gold.Chemscore.ZeroCoef>
-5.4800

> <Gold.Chemscore.Hbond>
0.8282

> <Gold.Chemscore.Metal>
0.0000

> <Gold.Chemscore.Lipo>
109.7250

> <Gold.Chemscore.Internal_Hbond>
0.0000

> <Gold.Chemscore.DEClash>
0.3128

> <Gold.Chemscore.DEInternal>
0.3926

> <Gold.Chemscore.Rot>
1.4164

> <Gold.Chemscore.Internal.Correction>
   9.000000E+99

> <Gold.Chemscore.Hbonds>
donor molecule, donor type, donor heavy atom, donor atom, acceptor molecule, acceptor atom, score
      P1  H  7989  7998       L1     1  0.17

> <Gold.Chemscore.Hbond.Weighted>
-2.7662

> <Gold.Chemscore.Metal.Weighted>
-0.0000

> <Gold.Chemscore.Lipo.Weighted>
-12.8378

> <Gold.Chemscore.Internal_Hbond.Weighted>
0.0000

> <Gold.Chemscore.DEClash.Weighted>
0.3128

> <Gold.Chemscore.DEInternal.Weighted>
0.3926

> <Gold.Chemscore.Rot.Weighted>
3.6259

> <Gold.Chemscore.Internal.Correction.Weighted>
   9.000000E+99

> <Gold.Protein.RotatedTorsions>
[ 6907 6896 6895 6894 ] final -128.30 input  -60.11 | X-H torsion
[ 7974 7965 7964 7962 ] final   46.27 input  175.53 | X-H torsion
[ 8008 7997 7996 7995 ] final  -59.47 input   59.86 | X-H torsion
[ 10167 10162 10161 10158 ] final  161.56 input  -65.29 | X-H torsion
[ 10718 10713 10712 10709 ] final   -5.15 input   66.30 | X-H torsion
[ 10763 10752 10751 10750 ] final  132.08 input  -60.55 | X-H torsion
[ 11005 11000 10999 10996 ] final  -43.23 input  -57.11 | X-H torsion

> <Gold.Protein.ActiveResidues>
 VAL166  LYS551  ARG553  GLY616  TRP617  ASP618  TYR619  PRO620  LYS621  CYS622 
 ASP623  PHE694  ASN695  SER759  ASP760  ASP761  ALA762  ILE779  LEU786  VAL792 
 PHE793  MET794  SER795  GLU796  ALA797  LYS798  CYS799  TRP800  GLU811  SER814 

> <Gold.Protein.RotatedAtoms>
  150.9165  133.6933  159.2842 H   0  0  0  0  0  0  0  0  0  0  0  0  # atno 6907 bound_to 6896
  151.4402  135.1018  159.9677 H   0  0  0  0  0  0  0  0  0  0  0  0  # atno 6908 bound_to 6896
  152.4957  133.8574  159.7288 H   0  0  0  0  0  0  0  0  0  0  0  0  # atno 6909 bound_to 6896
  146.0405  139.4874  142.9781 H   0  0  0  0  0  0  0  0  0  0  0  0  # atno 7974 bound_to 7965
  154.4354  140.1061  156.6121 H   0  0  0  0  0  0  0  0  0  0  0  0  # atno 8008 bound_to 7997
  155.5798  140.3490  155.4518 H   0  0  0  0  0  0  0  0  0  0  0  0  # atno 8009 bound_to 7997
  156.0327  140.1264  157.0230 H   0  0  0  0  0  0  0  0  0  0  0  0  # atno 8010 bound_to 7997
  139.4850  144.4525  151.8812 H   0  0  0  0  0  0  0  0  0  0  0  0  # atno 10167 bound_to 10162
  156.7508  130.5239  149.5804 H   0  0  0  0  0  0  0  0  0  0  0  0  # atno 10718 bound_to 10713
  153.7849  135.3163  155.3371 H   0  0  0  0  0  0  0  0  0  0  0  0  # atno 10763 bound_to 10752
  154.8147  135.4644  154.0615 H   0  0  0  0  0  0  0  0  0  0  0  0  # atno 10764 bound_to 10752
  153.1915  135.6909  153.8432 H   0  0  0  0  0  0  0  0  0  0  0  0  # atno 10765 bound_to 10752
  141.0370  133.6796  156.2705 H   0  0  0  0  0  0  0  0  0  0  0  0  # atno 11005 bound_to 11000
  145.6892  141.0169  143.1564 LP  0  0  0  0  0  0  0  0  0  0  0  0  # atno 17320 bound_to 7965
  144.7072  139.8513  143.7426 LP  0  0  0  0  0  0  0  0  0  0  0  0  # atno 17321 bound_to 7965
  140.3982  144.2527  150.5895 LP  0  0  0  0  0  0  0  0  0  0  0  0  # atno 17342 bound_to 10162
  140.5082  143.2298  151.8576 LP  0  0  0  0  0  0  0  0  0  0  0  0  # atno 17343 bound_to 10162
  156.1403  130.6240  151.0457 LP  0  0  0  0  0  0  0  0  0  0  0  0  # atno 17370 bound_to 10713
  157.6778  131.0846  150.7449 LP  0  0  0  0  0  0  0  0  0  0  0  0  # atno 17371 bound_to 10713
  140.6304  134.5270  157.5559 LP  0  0  0  0  0  0  0  0  0  0  0  0  # atno 17394 bound_to 11000
  139.9248  134.8078  156.1102 LP  0  0  0  0  0  0  0  0  0  0  0  0  # atno 17395 bound_to 11000

$$$$
