AV-unprocessed.smi:1244|AV-procd|sdf|5232|dock3
  -GOLD-   22720 4333D 1   1.00000     0.00000
 Structure written by MMmdl.
 56 58  0  0  0  0  0  0  0  0  3 V2000
  152.9102  138.6764  154.7633 C   0  0  0  0  0  0  0  0  0  0  0  0
  151.4637  138.4005  154.3380 C   0  0  1  0  0  0  0  0  0  0  0  0
  150.8543  137.2060  155.0954 C   0  0  0  0  0  0  0  0  0  0  0  0
  149.4324  137.0172  154.7154 N   0  3  1  0  0  0  0  0  0  0  0  0
  148.7959  135.8523  155.3791 C   0  0  0  0  0  0  0  0  0  0  0  0
  149.3984  134.5133  154.9121 C   0  0  0  0  0  0  0  0  0  0  0  0
  148.4269  133.7079  154.1806 N   0  0  0  0  0  0  0  0  0  0  0  0
  148.5579  132.3969  153.9318 C   0  0  0  0  0  0  0  0  0  0  0  0
  149.5028  131.7202  154.3376 O   0  0  0  0  0  0  0  0  0  0  0  0
  147.5481  131.9356  153.1751 N   0  0  0  0  0  0  0  0  0  0  0  0
  147.3930  130.6234  152.6455 C   0  0  0  0  0  0  0  0  0  0  0  0
  148.1054  129.5257  153.1930 C   0  0  0  0  0  0  0  0  0  0  0  0
  147.9531  128.2411  152.6380 C   0  0  0  0  0  0  0  0  0  0  0  0
  147.0863  128.0716  151.5449 C   0  0  0  0  0  0  0  0  0  0  0  0
  146.4072  129.1316  151.0596 N   0  3  0  0  0  0  0  0  0  0  0  0
  146.4999  130.3894  151.5594 C   0  0  0  0  0  0  0  0  0  0  0  0
  145.7199  131.3994  150.9520 N   0  0  0  0  0  0  0  0  0  0  0  0
  145.8391  131.6671  149.5235 C   0  0  0  0  0  0  0  0  0  0  0  0
  144.6348  132.5413  149.1838 C   0  0  0  0  0  0  0  0  0  0  0  0
  143.5559  131.9891  150.1110 C   0  0  0  0  0  0  0  0  0  0  0  0
  144.3313  131.5728  151.3656 C   0  0  0  0  0  0  0  0  0  0  0  0
  148.6743  138.2734  154.9243 C   0  0  0  0  0  0  0  0  0  0  0  0
  149.3422  139.4407  154.1721 C   0  0  1  0  0  0  0  0  0  0  0  0
  148.6332  140.7751  154.4280 C   0  0  0  0  0  0  0  0  0  0  0  0
  150.6911  139.5648  154.6088 O   0  0  0  0  0  0  0  0  0  0  0  0
  153.5470  137.8114  154.5759 H   0  0  0  0  0  0  0  0  0  0  0  0
  152.9715  138.9131  155.8260 H   0  0  0  0  0  0  0  0  0  0  0  0
  153.3252  139.5195  154.2103 H   0  0  0  0  0  0  0  0  0  0  0  0
  151.4502  138.2010  153.2648 H   0  0  0  0  0  0  0  0  0  0  0  0
  151.4300  136.3083  154.8724 H   0  0  0  0  0  0  0  0  0  0  0  0
  150.9244  137.3702  156.1722 H   0  0  0  0  0  0  0  0  0  0  0  0
  148.8705  135.9645  156.4618 H   0  0  0  0  0  0  0  0  0  0  0  0
  147.7303  135.8432  155.1443 H   0  0  0  0  0  0  0  0  0  0  0  0
  150.2479  134.6996  154.2546 H   0  0  0  0  0  0  0  0  0  0  0  0
  149.7803  133.9312  155.7513 H   0  0  0  0  0  0  0  0  0  0  0  0
  147.6192  134.1888  153.8118 H   0  0  0  0  0  0  0  0  0  0  0  0
  146.8947  132.6253  152.8340 H   0  0  0  0  0  0  0  0  0  0  0  0
  148.7673  129.6512  154.0368 H   0  0  0  0  0  0  0  0  0  0  0  0
  148.4959  127.4000  153.0438 H   0  0  0  0  0  0  0  0  0  0  0  0
  146.9102  127.1267  151.0514 H   0  0  0  0  0  0  0  0  0  0  0  0
  146.7804  132.1652  149.2886 H   0  0  0  0  0  0  0  0  0  0  0  0
  145.7885  130.7374  148.9549 H   0  0  0  0  0  0  0  0  0  0  0  0
  144.8451  133.5818  149.4353 H   0  0  0  0  0  0  0  0  0  0  0  0
  144.3592  132.4949  148.1300 H   0  0  0  0  0  0  0  0  0  0  0  0
  142.7654  132.7098  150.3217 H   0  0  0  0  0  0  0  0  0  0  0  0
  143.0968  131.1109  149.6546 H   0  0  0  0  0  0  0  0  0  0  0  0
  143.9163  130.6649  151.8054 H   0  0  0  0  0  0  0  0  0  0  0  0
  144.2841  132.3662  152.1117 H   0  0  0  0  0  0  0  0  0  0  0  0
  147.6500  138.1481  154.5704 H   0  0  0  0  0  0  0  0  0  0  0  0
  148.6203  138.4927  155.9923 H   0  0  0  0  0  0  0  0  0  0  0  0
  149.3299  139.2421  153.0988 H   0  0  0  0  0  0  0  0  0  0  0  0
  147.5964  140.7399  154.0929 H   0  0  0  0  0  0  0  0  0  0  0  0
  149.1269  141.5872  153.8935 H   0  0  0  0  0  0  0  0  0  0  0  0
  148.6337  141.0266  155.4889 H   0  0  0  0  0  0  0  0  0  0  0  0
  149.4100  136.8355  153.7219 H   0  0  0  0  0  0  0  0  0  0  0  0
  145.7793  128.9743  150.2711 H   0  0  0  0  0  0  0  0  0  0  0  0
  1  2  1  0  0  0  0
  1 26  1  0  0  0  0
  1 27  1  0  0  0  0
  1 28  1  0  0  0  0
  2 25  1  0  0  0  0
  2  3  1  0  0  0  0
  2 29  1  0  0  0  0
  3  4  1  0  0  0  0
  3 30  1  0  0  0  0
  3 31  1  0  0  0  0
  4  5  1  0  0  0  0
  4 22  1  0  0  0  0
  4 55  1  0  0  0  0
  5  6  1  0  0  0  0
  5 32  1  0  0  0  0
  5 33  1  0  0  0  0
  6  7  1  0  0  0  0
  6 34  1  0  0  0  0
  6 35  1  0  0  0  0
  7  8  1  0  0  0  0
  7 36  1  0  0  0  0
  8  9  2  0  0  0  0
  8 10  1  0  0  0  0
 10 11  1  0  0  0  0
 10 37  1  0  0  0  0
 11 16  1  0  0  0  0
 11 12  2  0  0  0  0
 12 13  1  0  0  0  0
 12 38  1  0  0  0  0
 13 14  2  0  0  0  0
 13 39  1  0  0  0  0
 14 15  1  0  0  0  0
 14 40  1  0  0  0  0
 15 16  2  0  0  0  0
 15 56  1  0  0  0  0
 16 17  1  0  0  0  0
 17 21  1  0  0  0  0
 17 18  1  0  0  0  0
 18 19  1  0  0  0  0
 18 41  1  0  0  0  0
 18 42  1  0  0  0  0
 19 20  1  0  0  0  0
 19 43  1  0  0  0  0
 19 44  1  0  0  0  0
 20 21  1  0  0  0  0
 20 45  1  0  0  0  0
 20 46  1  0  0  0  0
 21 47  1  0  0  0  0
 21 48  1  0  0  0  0
 22 23  1  0  0  0  0
 22 49  1  0  0  0  0
 22 50  1  0  0  0  0
 23 24  1  0  0  0  0
 23 25  1  0  0  0  0
 23 51  1  0  0  0  0
 24 52  1  0  0  0  0
 24 53  1  0  0  0  0
 24 54  1  0  0  0  0
M  CHG  1   4   1
M  CHG  1  15   1
M  END
> <s_m_source_file>
AV-unprocessed.smi

> <i_m_source_file_index>
1244

> <i_lp_mmshare_version>
43012

> <i_f3d_flags>
0

> <s_epik_input>
W0NIM11bQ0BASF0xW0NIMl1OKFtDSDJdW0NASF0oTzEpW0NIM10pW0NIMl1bQ0gyXVtOSF1DKD1PKVtOSF1jMltjSF1bY0hdW2NIXW5jMk4zW0NIMl1bQ0gyXVtDSDJdW0NIMl0z

> <s_epik_cmdline>
J2VwaWtfcHl0aG9uJywgJy1waCcsICc3LjAnLCAnLXRuJywgJzgnLCAnLW1hJywgJzIwMCcsICctbWV0YWxfYmluZGluZycsICctaW1hZScsICc8aW5maWxlLm1hZT4nLCAnLW9tYWUnLCAnPG91dGZpbGUubWFlPic=

> <r_lp_tautomer_probability>
0.999994

> <r_epik_Ionization_Penalty>
1.81601

> <r_epik_Ionization_Penalty_Charging>
1.81599

> <r_epik_Ionization_Penalty_Neutral>
2.01972e-05

> <r_epik_State_Penalty>
1.85672

> <r_epik_Charging_Adjusted_Penalty>
3.6727

> <i_epik_Tot_Q>
2

> <i_epik_Tot_abs_Q>
2

> <r_epik_Metal_State_Penalty>
1.93796

> <b_epik_Metal_Only>
0

> <s_lp_Force_Field>
OPLS_2005

> <r_lp_Energy>
51.4993

> <b_lp_Chiralities_Consistent>
1

> <s_lp_Variant>
AV-unprocessed.smi:1244-12

> <Gold.Version>
5.8.1

> <Gold.Id.Protein>
6NUR|6NUR_protein|mol2

> <Gold.PLP.Fitness>
50.3498

> <Gold.PLP.PLP>
-42.8209

> <Gold.PLP.part.hbond>
-2.7885

> <Gold.PLP.part.metal>
0.0000

> <Gold.PLP.part.buried>
1.8666

> <Gold.PLP.part.nonpolar>
-41.2000

> <Gold.PLP.part.repulsive>
0.3762

> <Gold.PLP.ligand.clash>
0.0000

> <Gold.PLP.ligand.torsion>
0.9443

> <Gold.PLP.Chemscore.Hbond>
3.0000

> <Gold.PLP.Chemscore.CHOScore>
0.0000

> <Gold.PLP.Chemscore.Metal>
0.0000

> <Gold.Chemscore.Hbonds>
donor molecule, donor type, donor heavy atom, donor atom, acceptor molecule, acceptor atom, score
      L1  H     4    55       P1  7948  2.00
      P1  H  7989  7998       L1    25  1.00

> <Gold.PLP.Chemscore.Internal.Correction>
0.4175

> <Gold.Rescore>
     Score         DG    S(hbond)    S(metal)    S(lipo)     H(rot)  DE(clash)    DE(int)     intcor
     15.04     -19.95       1.20        0.00     125.02       1.63       2.70       2.21       ----

> <Gold.Chemscore.Fitness>
15.0386

> <Gold.Chemscore.DG>
-19.9475

> <Gold.Chemscore.ZeroCoef>
-5.4800

> <Gold.Chemscore.Hbond>
1.2009

> <Gold.Chemscore.Metal>
0.0000

> <Gold.Chemscore.Lipo>
125.0198

> <Gold.Chemscore.Internal_Hbond>
0.0000

> <Gold.Chemscore.DEClash>
2.6968

> <Gold.Chemscore.DEInternal>
2.2121

> <Gold.Chemscore.Rot>
1.6293

> <Gold.Chemscore.Internal.Correction>
   9.000000E+99

> <Gold.Chemscore.Hbonds>
donor molecule, donor type, donor heavy atom, donor atom, acceptor molecule, acceptor atom, score
      L1  H     4    55       P1  7948  0.90
      P1  H  7989  7998       L1    25  0.19

> <Gold.Chemscore.Hbond.Weighted>
-4.0111

> <Gold.Chemscore.Metal.Weighted>
-0.0000

> <Gold.Chemscore.Lipo.Weighted>
-14.6273

> <Gold.Chemscore.Internal_Hbond.Weighted>
0.0000

> <Gold.Chemscore.DEClash.Weighted>
2.6968

> <Gold.Chemscore.DEInternal.Weighted>
2.2121

> <Gold.Chemscore.Rot.Weighted>
4.1709

> <Gold.Chemscore.Internal.Correction.Weighted>
   9.000000E+99

> <Gold.Protein.RotatedTorsions>
[ 6907 6896 6895 6894 ] final  -31.32 input  -60.11 | X-H torsion
[ 7974 7965 7964 7962 ] final   83.25 input  175.53 | X-H torsion
[ 8008 7997 7996 7995 ] final  129.41 input   59.86 | X-H torsion
[ 10167 10162 10161 10158 ] final  -23.50 input  -65.29 | X-H torsion
[ 10718 10713 10712 10709 ] final  -23.34 input   66.30 | X-H torsion
[ 10763 10752 10751 10750 ] final  143.45 input  -60.55 | X-H torsion
[ 11005 11000 10999 10996 ] final -147.96 input  -57.11 | X-H torsion

> <Gold.Protein.ActiveResidues>
 VAL166  LYS551  ARG553  GLY616  TRP617  ASP618  TYR619  PRO620  LYS621  CYS622 
 ASP623  PHE694  ASN695  SER759  ASP760  ASP761  ALA762  ILE779  LEU786  VAL792 
 PHE793  MET794  SER795  GLU796  ALA797  LYS798  CYS799  TRP800  GLU811  SER814 

> <Gold.Protein.RotatedAtoms>
  151.0936  134.9931  159.8414 H   0  0  0  0  0  0  0  0  0  0  0  0  # atno 6907 bound_to 6896
  152.5431  134.2035  159.8732 H   0  0  0  0  0  0  0  0  0  0  0  0  # atno 6908 bound_to 6896
  151.2073  133.4532  159.2631 H   0  0  0  0  0  0  0  0  0  0  0  0  # atno 6909 bound_to 6896
  145.6144  139.2374  143.2174 H   0  0  0  0  0  0  0  0  0  0  0  0  # atno 7974 bound_to 7965
  156.2935  140.2621  156.2595 H   0  0  0  0  0  0  0  0  0  0  0  0  # atno 8008 bound_to 7997
  154.9803  140.0390  157.2293 H   0  0  0  0  0  0  0  0  0  0  0  0  # atno 8009 bound_to 7997
  154.7778  140.2789  155.6092 H   0  0  0  0  0  0  0  0  0  0  0  0  # atno 8010 bound_to 7997
  140.7288  143.4437  151.0618 H   0  0  0  0  0  0  0  0  0  0  0  0  # atno 10167 bound_to 10162
  156.4924  130.4569  149.6748 H   0  0  0  0  0  0  0  0  0  0  0  0  # atno 10718 bound_to 10713
  153.9726  135.2949  155.3426 H   0  0  0  0  0  0  0  0  0  0  0  0  # atno 10763 bound_to 10752
  154.7314  135.5066  153.8972 H   0  0  0  0  0  0  0  0  0  0  0  0  # atno 10764 bound_to 10752
  153.0892  135.6703  153.9999 H   0  0  0  0  0  0  0  0  0  0  0  0  # atno 10765 bound_to 10752
  140.7662  134.3242  157.5088 H   0  0  0  0  0  0  0  0  0  0  0  0  # atno 11005 bound_to 11000
  146.1480  140.6966  142.9336 LP  0  0  0  0  0  0  0  0  0  0  0  0  # atno 17320 bound_to 7965
  144.7257  140.4515  143.6975 LP  0  0  0  0  0  0  0  0  0  0  0  0  # atno 17321 bound_to 7965
  139.8107  143.7955  152.3171 LP  0  0  0  0  0  0  0  0  0  0  0  0  # atno 17342 bound_to 10162
  139.8003  144.7376  150.9833 LP  0  0  0  0  0  0  0  0  0  0  0  0  # atno 17343 bound_to 10162
  156.3413  130.7383  151.2329 LP  0  0  0  0  0  0  0  0  0  0  0  0  # atno 17370 bound_to 10713
  157.7472  131.0403  150.4590 LP  0  0  0  0  0  0  0  0  0  0  0  0  # atno 17371 bound_to 10713
  139.8763  134.9232  156.3320 LP  0  0  0  0  0  0  0  0  0  0  0  0  # atno 17394 bound_to 11000
  140.9617  133.7384  156.0410 LP  0  0  0  0  0  0  0  0  0  0  0  0  # atno 17395 bound_to 11000

$$$$
