AV-unprocessed.smi:546|AV-procd|sdf|2885|dock2
  -GOLD-   2262023383D 1   1.00000     0.00000
 Structure written by MMmdl.
 52 54  0  0  0  0  0  0  0  0  1 V2000
  153.1391  138.8263  154.5565 C   0  0  0  0  0  0  0  0  0  0  0  0
  151.6999  138.4013  154.2579 C   0  0  0  0  0  0  0  0  0  0  0  0
  150.8598  139.5322  154.3974 O   0  0  0  0  0  0  0  0  0  0  0  0
  150.6980  139.9448  155.7440 C   0  0  0  0  0  0  0  0  0  0  0  0
  150.2572  141.4152  155.7817 C   0  0  0  0  0  0  0  0  0  0  0  0
  149.3390  141.6708  156.8866 N   0  0  0  0  0  0  0  0  0  0  0  0
  149.6200  142.1591  158.1256 C   0  0  0  0  0  0  0  0  0  0  0  0
  150.9221  142.4406  158.5476 N   0  0  0  0  0  0  0  0  0  0  0  0
  151.6314  143.6898  158.2512 C   0  0  0  0  0  0  0  0  0  0  0  0
  152.6105  144.1362  159.3624 C   0  0  1  0  0  0  0  0  0  0  0  0
  151.9085  144.7203  160.5990 C   0  0  0  0  0  0  0  0  0  0  0  0
  153.5778  142.9958  159.7203 C   0  0  0  0  0  0  0  0  0  0  0  0
  152.8155  141.6903  159.9946 C   0  0  2  0  0  0  0  0  0  0  0  0
  153.7776  140.5286  160.2771 C   0  0  0  0  0  0  0  0  0  0  0  0
  151.8896  141.3741  158.8067 C   0  0  0  0  0  0  0  0  0  0  0  0
  148.5461  142.3736  158.8917 N   0  0  0  0  0  0  0  0  0  0  0  0
  147.4948  141.9661  158.0864 C   0  0  0  0  0  0  0  0  0  0  0  0
  147.9478  141.5399  156.8802 C   0  0  0  0  0  0  0  0  0  0  0  0
  147.0406  141.0789  155.8186 C   0  0  0  0  0  0  0  0  0  0  0  0
  147.4219  140.6930  154.7159 O   0  0  0  0  0  0  0  0  0  0  0  0
  145.7348  141.1255  156.1771 N   0  0  0  0  0  0  0  0  0  0  0  0
  145.2145  141.5425  157.3713 C   0  0  0  0  0  0  0  0  0  0  0  0
  143.9964  141.5330  157.5484 O   0  0  0  0  0  0  0  0  0  0  0  0
  146.0929  141.9629  158.3367 N   0  0  0  0  0  0  0  0  0  0  0  0
  145.5902  142.4260  159.6314 C   0  0  0  0  0  0  0  0  0  0  0  0
  145.0691  140.8200  155.4823 H   0  0  0  0  0  0  0  0  0  0  0  0
  153.8233  137.9836  154.4592 H   0  0  0  0  0  0  0  0  0  0  0  0
  153.2290  139.2161  155.5708 H   0  0  0  0  0  0  0  0  0  0  0  0
  153.4666  139.6059  153.8686 H   0  0  0  0  0  0  0  0  0  0  0  0
  151.6292  138.0009  153.2457 H   0  0  0  0  0  0  0  0  0  0  0  0
  151.3921  137.6154  154.9491 H   0  0  0  0  0  0  0  0  0  0  0  0
  149.9556  139.3194  156.2414 H   0  0  0  0  0  0  0  0  0  0  0  0
  151.6405  139.8268  156.2810 H   0  0  0  0  0  0  0  0  0  0  0  0
  151.1218  142.0706  155.8660 H   0  0  0  0  0  0  0  0  0  0  0  0
  149.7894  141.6903  154.8424 H   0  0  0  0  0  0  0  0  0  0  0  0
  152.1924  143.5344  157.3286 H   0  0  0  0  0  0  0  0  0  0  0  0
  150.9242  144.4867  158.0242 H   0  0  0  0  0  0  0  0  0  0  0  0
  153.2108  144.9482  158.9503 H   0  0  0  0  0  0  0  0  0  0  0  0
  151.2670  143.9875  161.0856 H   0  0  0  0  0  0  0  0  0  0  0  0
  151.2946  145.5804  160.3318 H   0  0  0  0  0  0  0  0  0  0  0  0
  152.6363  145.0600  161.3363 H   0  0  0  0  0  0  0  0  0  0  0  0
  154.2662  142.8407  158.8882 H   0  0  0  0  0  0  0  0  0  0  0  0
  154.1928  143.2702  160.5781 H   0  0  0  0  0  0  0  0  0  0  0  0
  152.1971  141.8244  160.8827 H   0  0  0  0  0  0  0  0  0  0  0  0
  154.4280  140.3353  159.4234 H   0  0  0  0  0  0  0  0  0  0  0  0
  153.2309  139.6105  160.4934 H   0  0  0  0  0  0  0  0  0  0  0  0
  154.4117  140.7448  161.1373 H   0  0  0  0  0  0  0  0  0  0  0  0
  151.3497  140.4482  159.0099 H   0  0  0  0  0  0  0  0  0  0  0  0
  152.4756  141.1979  157.9034 H   0  0  0  0  0  0  0  0  0  0  0  0
  144.9722  141.6597  160.1014 H   0  0  0  0  0  0  0  0  0  0  0  0
  144.9827  143.3227  159.5043 H   0  0  0  0  0  0  0  0  0  0  0  0
  146.3907  142.6684  160.3302 H   0  0  0  0  0  0  0  0  0  0  0  0
  1  2  1  0  0  0  0
  1 27  1  0  0  0  0
  1 28  1  0  0  0  0
  1 29  1  0  0  0  0
  2  3  1  0  0  0  0
  2 30  1  0  0  0  0
  2 31  1  0  0  0  0
  3  4  1  0  0  0  0
  4  5  1  0  0  0  0
  4 32  1  0  0  0  0
  4 33  1  0  0  0  0
  5  6  1  0  0  0  0
  5 34  1  0  0  0  0
  5 35  1  0  0  0  0
  6 18  1  0  0  0  0
  6  7  1  0  0  0  0
  7  8  1  0  0  0  0
  7 16  2  0  0  0  0
  8 15  1  0  0  0  0
  8  9  1  0  0  0  0
  9 10  1  0  0  0  0
  9 36  1  0  0  0  0
  9 37  1  0  0  0  0
 10 11  1  0  0  0  0
 10 12  1  0  0  0  0
 10 38  1  0  0  0  0
 11 39  1  0  0  0  0
 11 40  1  0  0  0  0
 11 41  1  0  0  0  0
 12 13  1  0  0  0  0
 12 42  1  0  0  0  0
 12 43  1  0  0  0  0
 13 14  1  0  0  0  0
 13 15  1  0  0  0  0
 13 44  1  0  0  0  0
 14 45  1  0  0  0  0
 14 46  1  0  0  0  0
 14 47  1  0  0  0  0
 15 48  1  0  0  0  0
 15 49  1  0  0  0  0
 16 17  1  0  0  0  0
 17 24  1  0  0  0  0
 17 18  2  0  0  0  0
 18 19  1  0  0  0  0
 19 20  2  0  0  0  0
 19 21  1  0  0  0  0
 21 26  1  0  0  0  0
 21 22  1  0  0  0  0
 22 23  2  0  0  0  0
 22 24  1  0  0  0  0
 24 25  1  0  0  0  0
 25 50  1  0  0  0  0
 25 51  1  0  0  0  0
 25 52  1  0  0  0  0
M  END
> <s_m_source_file>
AV-unprocessed.smi

> <i_m_source_file_index>
546

> <i_lp_mmshare_version>
43012

> <i_f3d_flags>
0

> <s_epik_input>
W0NIM11uMWMoPU8pW25IXWMoPU8pYyhjMTIpbihbQ0gyXVtDSDJdT1tDSDJdW0NIM10pYyhuMilOM1tDSDJdW0NAQEhdKFtDSDNdKVtDSDJdW0NAQEhdKFtDSDNdKVtDSDJdMw==

> <s_epik_cmdline>
J2VwaWtfcHl0aG9uJywgJy1waCcsICc3LjAnLCAnLXRuJywgJzgnLCAnLW1hJywgJzIwMCcsICctbWV0YWxfYmluZGluZycsICctaW1hZScsICc8aW5maWxlLm1hZT4nLCAnLW9tYWUnLCAnPG91dGZpbGUubWFlPic=

> <r_lp_tautomer_probability>
1

> <r_epik_Ionization_Penalty>
0.000576472

> <r_epik_Ionization_Penalty_Charging>
0.000118943

> <r_epik_Ionization_Penalty_Neutral>
0.000457529

> <r_epik_State_Penalty>
-0

> <r_epik_Charging_Adjusted_Penalty>
0.000118943

> <i_epik_Tot_Q>
0

> <i_epik_Tot_abs_Q>
0

> <r_epik_Metal_State_Penalty>
0.0916165

> <b_epik_Metal_Only>
0

> <s_lp_Force_Field>
OPLS_2005

> <r_lp_Energy>
39.3864

> <b_lp_Chiralities_Consistent>
1

> <s_lp_Variant>
AV-unprocessed.smi:546-3

> <Gold.Version>
5.8.1

> <Gold.Id.Protein>
6NUR|6NUR_protein|mol2

> <Gold.PLP.Fitness>
45.8642

> <Gold.PLP.PLP>
-46.5938

> <Gold.PLP.part.hbond>
-1.6559

> <Gold.PLP.part.metal>
0.0000

> <Gold.PLP.part.buried>
-7.5715

> <Gold.PLP.part.nonpolar>
-38.5407

> <Gold.PLP.part.repulsive>
0.3616

> <Gold.PLP.ligand.clash>
0.0000

> <Gold.PLP.ligand.torsion>
2.1216

> <Gold.PLP.Chemscore.Hbond>
1.0000

> <Gold.PLP.Chemscore.CHOScore>
0.0000

> <Gold.PLP.Chemscore.Metal>
0.0000

> <Gold.Chemscore.Hbonds>
donor molecule, donor type, donor heavy atom, donor atom, acceptor molecule, acceptor atom, score
      P1  H  7989  7998       L1     3  1.00

> <Gold.PLP.Chemscore.Internal.Correction>
0.5136

> <Gold.Rescore>
     Score         DG    S(hbond)    S(metal)    S(lipo)     H(rot)  DE(clash)    DE(int)     intcor
     16.16     -18.09       0.94        0.00     114.62       1.55       0.02       1.91       ----

> <Gold.Chemscore.Fitness>
16.1628

> <Gold.Chemscore.DG>
-18.0864

> <Gold.Chemscore.ZeroCoef>
-5.4800

> <Gold.Chemscore.Hbond>
0.9446

> <Gold.Chemscore.Metal>
0.0000

> <Gold.Chemscore.Lipo>
114.6201

> <Gold.Chemscore.Internal_Hbond>
0.0000

> <Gold.Chemscore.DEClash>
0.0181

> <Gold.Chemscore.DEInternal>
1.9055

> <Gold.Chemscore.Rot>
1.5465

> <Gold.Chemscore.Internal.Correction>
   9.000000E+99

> <Gold.Chemscore.Hbonds>
donor molecule, donor type, donor heavy atom, donor atom, acceptor molecule, acceptor atom, score
      P1  H  7989  7998       L1     3  0.39

> <Gold.Chemscore.Hbond.Weighted>
-3.1550

> <Gold.Chemscore.Metal.Weighted>
-0.0000

> <Gold.Chemscore.Lipo.Weighted>
-13.4105

> <Gold.Chemscore.Internal_Hbond.Weighted>
0.0000

> <Gold.Chemscore.DEClash.Weighted>
0.0181

> <Gold.Chemscore.DEInternal.Weighted>
1.9055

> <Gold.Chemscore.Rot.Weighted>
3.9591

> <Gold.Chemscore.Internal.Correction.Weighted>
   9.000000E+99

> <Gold.Protein.RotatedTorsions>
[ 6907 6896 6895 6894 ] final -114.71 input  -60.11 | X-H torsion
[ 7974 7965 7964 7962 ] final  -86.01 input  175.53 | X-H torsion
[ 8008 7997 7996 7995 ] final   38.12 input   59.86 | X-H torsion
[ 10167 10162 10161 10158 ] final  120.58 input  -65.29 | X-H torsion
[ 10718 10713 10712 10709 ] final  -32.51 input   66.30 | X-H torsion
[ 10763 10752 10751 10750 ] final  -35.06 input  -60.55 | X-H torsion
[ 11005 11000 10999 10996 ] final   29.53 input  -57.11 | X-H torsion

> <Gold.Protein.ActiveResidues>
 VAL166  LYS551  ARG553  GLY616  TRP617  ASP618  TYR619  PRO620  LYS621  CYS622 
 ASP623  PHE694  ASN695  SER759  ASP760  ASP761  ALA762  ILE779  LEU786  VAL792 
 PHE793  MET794  SER795  GLU796  ALA797  LYS798  CYS799  TRP800  GLU811  SER814 

> <Gold.Protein.RotatedAtoms>
  150.7922  133.8762  159.3272 H   0  0  0  0  0  0  0  0  0  0  0  0  # atno 6907 bound_to 6896
  151.6597  135.0989  160.0186 H   0  0  0  0  0  0  0  0  0  0  0  0  # atno 6908 bound_to 6896
  152.3999  133.6762  159.6342 H   0  0  0  0  0  0  0  0  0  0  0  0  # atno 6909 bound_to 6896
  145.4856  140.9555  143.1840 H   0  0  0  0  0  0  0  0  0  0  0  0  # atno 7974 bound_to 7965
  155.2150  140.3326  155.4323 H   0  0  0  0  0  0  0  0  0  0  0  0  # atno 8008 bound_to 7997
  156.2356  140.1870  156.7177 H   0  0  0  0  0  0  0  0  0  0  0  0  # atno 8009 bound_to 7997
  154.6053  140.0617  156.9408 H   0  0  0  0  0  0  0  0  0  0  0  0  # atno 8010 bound_to 7997
  139.5973  144.7046  151.3146 H   0  0  0  0  0  0  0  0  0  0  0  0  # atno 10167 bound_to 10162
  156.3740  130.4344  149.7522 H   0  0  0  0  0  0  0  0  0  0  0  0  # atno 10718 bound_to 10713
  153.8570  135.6843  153.4786 H   0  0  0  0  0  0  0  0  0  0  0  0  # atno 10763 bound_to 10752
  153.1364  135.4676  154.9426 H   0  0  0  0  0  0  0  0  0  0  0  0  # atno 10764 bound_to 10752
  154.7776  135.3258  154.8008 H   0  0  0  0  0  0  0  0  0  0  0  0  # atno 10765 bound_to 10752
  140.3039  134.2725  155.7748 H   0  0  0  0  0  0  0  0  0  0  0  0  # atno 11005 bound_to 11000
  144.7863  139.6419  143.7132 LP  0  0  0  0  0  0  0  0  0  0  0  0  # atno 17320 bound_to 7965
  146.2315  139.5823  142.9552 LP  0  0  0  0  0  0  0  0  0  0  0  0  # atno 17321 bound_to 7965
  140.7222  143.7104  150.7774 LP  0  0  0  0  0  0  0  0  0  0  0  0  # atno 17342 bound_to 10162
  140.0673  143.5095  152.2597 LP  0  0  0  0  0  0  0  0  0  0  0  0  # atno 17343 bound_to 10162
  156.4639  130.7964  151.2984 LP  0  0  0  0  0  0  0  0  0  0  0  0  # atno 17370 bound_to 10713
  157.7486  131.0057  150.3124 LP  0  0  0  0  0  0  0  0  0  0  0  0  # atno 17371 bound_to 10713
  141.2122  133.7664  156.9808 LP  0  0  0  0  0  0  0  0  0  0  0  0  # atno 17394 bound_to 11000
  140.1084  134.9492  157.2029 LP  0  0  0  0  0  0  0  0  0  0  0  0  # atno 17395 bound_to 11000

$$$$
