AV-unprocessed.smi:11|AV-procd|sdf|57|dock10
  -GOLD-   2262015173D 1   1.00000     0.00000
 Structure written by MMmdl.
 34 36  0  0  0  0  0  0  0  0  2 V2000
  149.2505  139.0737  157.5111 C   0  0  0  0  0  0  0  0  0  0  0  0
  149.4452  138.9279  155.9927 C   0  0  0  0  0  0  0  0  0  0  0  0
  150.3319  140.0123  155.3312 C   0  0  1  0  0  0  0  0  0  0  0  0
  150.4702  139.7060  153.9577 O   0  0  0  0  0  0  0  0  0  0  0  0
  149.8190  141.4467  155.5323 C   0  0  0  0  0  0  0  0  0  0  0  0
  150.3912  141.8335  156.8948 C   0  0  0  0  0  0  0  0  0  0  0  0
  151.6683  141.1383  156.9697 N   0  0  0  0  0  0  0  0  0  0  0  0
  152.3922  141.0592  158.1764 C   0  0  0  0  0  0  0  0  0  0  0  0
  153.1171  139.9308  158.4106 N   0  0  0  0  0  0  0  0  0  0  0  0
  153.8426  139.7575  159.5245 C   0  0  0  0  0  0  0  0  0  0  0  0
  153.9065  140.6742  160.4950 N   0  3  0  0  0  0  0  0  0  0  0  0
  153.1873  141.8099  160.3106 C   0  0  0  0  0  0  0  0  0  0  0  0
  153.0695  142.8988  161.1489 N   0  0  0  0  0  0  0  0  0  0  0  0
  152.2255  143.8401  160.5854 C   0  0  0  0  0  0  0  0  0  0  0  0
  151.7847  143.3756  159.3715 C   0  0  0  0  0  0  0  0  0  0  0  0
  152.3917  142.0833  159.1678 C   0  0  0  0  0  0  0  0  0  0  0  0
  151.7229  140.0623  155.9889 C   0  0  0  0  0  0  0  0  0  0  0  0
  153.5137  143.0204  162.0480 H   0  0  0  0  0  0  0  0  0  0  0  0
  148.5760  138.3028  157.8839 H   0  0  0  0  0  0  0  0  0  0  0  0
  148.8159  140.0393  157.7695 H   0  0  0  0  0  0  0  0  0  0  0  0
  150.1891  138.9702  158.0540 H   0  0  0  0  0  0  0  0  0  0  0  0
  149.8587  137.9398  155.7878 H   0  0  0  0  0  0  0  0  0  0  0  0
  148.4616  138.9381  155.5209 H   0  0  0  0  0  0  0  0  0  0  0  0
  149.7238  140.0547  153.4945 H   0  0  0  0  0  0  0  0  0  0  0  0
  150.2451  142.1041  154.7723 H   0  0  0  0  0  0  0  0  0  0  0  0
  148.7364  141.5533  155.4811 H   0  0  0  0  0  0  0  0  0  0  0  0
  150.5157  142.9126  156.9892 H   0  0  0  0  0  0  0  0  0  0  0  0
  149.7319  141.4910  157.6936 H   0  0  0  0  0  0  0  0  0  0  0  0
  154.4089  138.8495  159.6719 H   0  0  0  0  0  0  0  0  0  0  0  0
  152.0039  144.7660  161.0965 H   0  0  0  0  0  0  0  0  0  0  0  0
  151.1104  143.8810  158.6963 H   0  0  0  0  0  0  0  0  0  0  0  0
  151.9856  139.1036  156.4376 H   0  0  0  0  0  0  0  0  0  0  0  0
  152.4924  140.3155  155.2583 H   0  0  0  0  0  0  0  0  0  0  0  0
  154.4615  140.5317  161.3388 H   0  0  0  0  0  0  0  0  0  0  0  0
  1  2  1  0  0  0  0
  1 19  1  0  0  0  0
  1 20  1  0  0  0  0
  1 21  1  0  0  0  0
  2  3  1  0  0  0  0
  2 22  1  0  0  0  0
  2 23  1  0  0  0  0
  3 17  1  0  0  0  0
  3  4  1  0  0  0  0
  3  5  1  0  0  0  0
  4 24  1  0  0  0  0
  5  6  1  0  0  0  0
  5 25  1  0  0  0  0
  5 26  1  0  0  0  0
  6  7  1  0  0  0  0
  6 27  1  0  0  0  0
  6 28  1  0  0  0  0
  7  8  1  0  0  0  0
  7 17  1  0  0  0  0
  8 16  1  0  0  0  0
  8  9  2  0  0  0  0
  9 10  1  0  0  0  0
 10 11  2  0  0  0  0
 10 29  1  0  0  0  0
 11 12  1  0  0  0  0
 11 34  1  0  0  0  0
 12 16  2  0  0  0  0
 12 13  1  0  0  0  0
 13 18  1  0  0  0  0
 13 14  1  0  0  0  0
 14 15  2  0  0  0  0
 14 30  1  0  0  0  0
 15 16  1  0  0  0  0
 15 31  1  0  0  0  0
 17 32  1  0  0  0  0
 17 33  1  0  0  0  0
M  CHG  1  11   1
M  END
> <s_m_source_file>
AV-unprocessed.smi

> <i_m_source_file_index>
11

> <i_lp_mmshare_version>
43012

> <i_f3d_flags>
0

> <s_epik_input>
W0NIM11bQ0gyXVtDQEBdMShbT0hdKVtDSDJdW0NIMl1OKFtDSDJdMSljKG5bY0hdbjIpYyhjMjMpW2NIXVtjSF1bbkhdMw==

> <s_epik_cmdline>
J2VwaWtfcHl0aG9uJywgJy1waCcsICc3LjAnLCAnLXRuJywgJzgnLCAnLW1hJywgJzIwMCcsICctbWV0YWxfYmluZGluZycsICctaW1hZScsICc8aW5maWxlLm1hZT4nLCAnLW9tYWUnLCAnPG91dGZpbGUubWFlPic=

> <r_lp_tautomer_probability>
1.75997e-05

> <r_epik_Ionization_Penalty>
1.53257

> <r_epik_Ionization_Penalty_Charging>
1.53255

> <r_epik_Ionization_Penalty_Neutral>
1.78556e-05

> <r_epik_State_Penalty>
1.6253

> <r_epik_Charging_Adjusted_Penalty>
3.15785

> <i_epik_Tot_Q>
1

> <i_epik_Tot_abs_Q>
1

> <r_epik_Metal_State_Penalty>
1.66891

> <b_epik_Metal_Only>
0

> <s_lp_Force_Field>
OPLS_2005

> <r_lp_Energy>
33.1489

> <b_lp_Chiralities_Consistent>
1

> <s_lp_Variant>
AV-unprocessed.smi:11-3

> <Gold.Version>
5.8.1

> <Gold.Id.Protein>
6NUR|6NUR_protein|mol2

> <Gold.PLP.Fitness>
38.6522

> <Gold.PLP.PLP>
-32.4297

> <Gold.PLP.part.hbond>
-3.0000

> <Gold.PLP.part.metal>
0.0000

> <Gold.PLP.part.buried>
-3.9631

> <Gold.PLP.part.nonpolar>
-25.0572

> <Gold.PLP.part.repulsive>
0.0868

> <Gold.PLP.ligand.clash>
0.0000

> <Gold.PLP.ligand.torsion>
0.2319

> <Gold.PLP.Chemscore.Hbond>
2.1498

> <Gold.PLP.Chemscore.CHOScore>
0.0000

> <Gold.PLP.Chemscore.Metal>
0.0000

> <Gold.Chemscore.Hbonds>
donor molecule, donor type, donor heavy atom, donor atom, acceptor molecule, acceptor atom, score
      L1  H     4    24       P1  7957  0.11
      P1  H  7989  7998       L1     4  0.90
      P1  H  7997  8008       L1     9  0.99

> <Gold.PLP.Chemscore.Internal.Correction>
0.2371

> <Gold.Rescore>
     Score         DG    S(hbond)    S(metal)    S(lipo)     H(rot)  DE(clash)    DE(int)     intcor
     11.74     -12.04       0.92        0.00      61.37       1.44       0.07       0.23       ----

> <Gold.Chemscore.Fitness>
11.7429

> <Gold.Chemscore.DG>
-12.0405

> <Gold.Chemscore.ZeroCoef>
-5.4800

> <Gold.Chemscore.Hbond>
0.9176

> <Gold.Chemscore.Metal>
0.0000

> <Gold.Chemscore.Lipo>
61.3689

> <Gold.Chemscore.Internal_Hbond>
0.0000

> <Gold.Chemscore.DEClash>
0.0685

> <Gold.Chemscore.DEInternal>
0.2291

> <Gold.Chemscore.Rot>
1.4392

> <Gold.Chemscore.Internal.Correction>
   9.000000E+99

> <Gold.Chemscore.Hbonds>
donor molecule, donor type, donor heavy atom, donor atom, acceptor molecule, acceptor atom, score
      L1  H     4    24       P1  7957  0.10
      P1  H  7989  7998       L1     4  0.06
      P1  H  7997  8008       L1     9  0.12

> <Gold.Chemscore.Hbond.Weighted>
-3.0647

> <Gold.Chemscore.Metal.Weighted>
-0.0000

> <Gold.Chemscore.Lipo.Weighted>
-7.1802

> <Gold.Chemscore.Internal_Hbond.Weighted>
0.0000

> <Gold.Chemscore.DEClash.Weighted>
0.0685

> <Gold.Chemscore.DEInternal.Weighted>
0.2291

> <Gold.Chemscore.Rot.Weighted>
3.6844

> <Gold.Chemscore.Internal.Correction.Weighted>
   9.000000E+99

> <Gold.Protein.RotatedTorsions>
[ 6907 6896 6895 6894 ] final  -34.59 input  -60.11 | X-H torsion
[ 7974 7965 7964 7962 ] final  112.41 input  175.53 | X-H torsion
[ 8008 7997 7996 7995 ] final  -77.83 input   59.86 | X-H torsion
[ 10167 10162 10161 10158 ] final  -32.31 input  -65.29 | X-H torsion
[ 10718 10713 10712 10709 ] final  154.66 input   66.30 | X-H torsion
[ 10763 10752 10751 10750 ] final -107.89 input  -60.55 | X-H torsion
[ 11005 11000 10999 10996 ] final  -59.61 input  -57.11 | X-H torsion

> <Gold.Protein.ActiveResidues>
 VAL166  LYS551  ARG553  GLY616  TRP617  ASP618  TYR619  PRO620  LYS621  CYS622 
 ASP623  PHE694  ASN695  SER759  ASP760  ASP761  ALA762  ILE779  LEU786  VAL792 
 PHE793  MET794  SER795  GLU796  ALA797  LYS798  CYS799  TRP800  GLU811  SER814 

> <Gold.Protein.RotatedAtoms>
  151.0507  134.9670  159.8209 H   0  0  0  0  0  0  0  0  0  0  0  0  # atno 6907 bound_to 6896
  152.5380  134.2541  159.8920 H   0  0  0  0  0  0  0  0  0  0  0  0  # atno 6908 bound_to 6896
  151.2557  133.4284  159.2647 H   0  0  0  0  0  0  0  0  0  0  0  0  # atno 6909 bound_to 6896
  145.2299  139.2824  143.4174 H   0  0  0  0  0  0  0  0  0  0  0  0  # atno 7974 bound_to 7965
  154.5632  140.0704  156.8852 H   0  0  0  0  0  0  0  0  0  0  0  0  # atno 8008 bound_to 7997
  155.2771  140.3369  155.4243 H   0  0  0  0  0  0  0  0  0  0  0  0  # atno 8009 bound_to 7997
  156.2060  140.1740  156.7785 H   0  0  0  0  0  0  0  0  0  0  0  0  # atno 8010 bound_to 7997
  140.7223  143.3704  151.1789 H   0  0  0  0  0  0  0  0  0  0  0  0  # atno 10167 bound_to 10162
  157.2286  131.0734  151.1867 H   0  0  0  0  0  0  0  0  0  0  0  0  # atno 10718 bound_to 10713
  154.8103  135.4658  154.0498 H   0  0  0  0  0  0  0  0  0  0  0  0  # atno 10763 bound_to 10752
  153.1934  135.6858  153.8329 H   0  0  0  0  0  0  0  0  0  0  0  0  # atno 10764 bound_to 10752
  153.7839  135.3252  155.3347 H   0  0  0  0  0  0  0  0  0  0  0  0  # atno 10765 bound_to 10752
  141.1255  133.6617  156.5098 H   0  0  0  0  0  0  0  0  0  0  0  0  # atno 11005 bound_to 11000
  146.3355  140.2630  142.8602 LP  0  0  0  0  0  0  0  0  0  0  0  0  # atno 17320 bound_to 7965
  144.9686  140.8347  143.5469 LP  0  0  0  0  0  0  0  0  0  0  0  0  # atno 17321 bound_to 7965
  139.7274  143.9126  152.3007 LP  0  0  0  0  0  0  0  0  0  0  0  0  # atno 17342 bound_to 10162
  139.8904  144.6969  150.8777 LP  0  0  0  0  0  0  0  0  0  0  0  0  # atno 17343 bound_to 10162
  157.3501  130.7078  149.6435 LP  0  0  0  0  0  0  0  0  0  0  0  0  # atno 17370 bound_to 10713
  155.9677  130.4255  150.4656 LP  0  0  0  0  0  0  0  0  0  0  0  0  # atno 17371 bound_to 10713
  140.4378  134.7043  157.4976 LP  0  0  0  0  0  0  0  0  0  0  0  0  # atno 17394 bound_to 11000
  140.0250  134.6491  155.9186 LP  0  0  0  0  0  0  0  0  0  0  0  0  # atno 17395 bound_to 11000

$$$$
