#       Name:                AV-unprocessed.smi:2284
#       Creating user name   scv26
#       Creation time:       Fri Mar 27 12:41:54 2020


#       File generated by GOLD software.
#

@<TRIPOS>MOLECULE
AV-unprocessed.smi:2284
    51    52     1
SMALL
NO_CHARGES


@<TRIPOS>ATOM
      1 ****        -6.3887  -0.7213   0.9264 C.3            1 S1                 0.0000
      2 ****        -5.2014   0.2157   0.8398 C.ar           1 S1                 0.0000
      3 ****        -5.3935   1.6109   0.8244 C.ar           1 S1                 0.0000
      4 ****        -4.2842   2.4722   0.7458 C.ar           1 S1                 0.0000
      5 ****        -2.9777   1.9452   0.6815 C.ar           1 S1                 0.0000
      6 ****        -1.7909   2.8869   0.5942 C.3            1 S1                 0.0000
      7 ****        -2.7714   0.5465   0.6939 C.ar           1 S1                 0.0000
      8 ****        -1.4691   0.0986   0.6282 O.3            1 S1                 0.0000
      9 ****        -1.2333  -1.2986   0.5190 C.3            1 S1                 0.0000
     10 ****         0.2790  -1.5190   0.3673 C.3            1 S1                 0.0000
     11 ****         0.5094  -2.9116   0.4356 O.3            1 S1                 0.0000
     12 ****         0.8159  -0.9831  -0.9806 C.3            1 S1                 0.0000
     13 ****         2.2090  -0.5216  -0.8711 N.am           1 S1                 0.0000
     14 ****         2.3943   0.8004  -0.4318 C.2            1 S1                 0.0000
     15 ****         3.5739   1.3094  -0.2883 N.2            1 S1                 0.0000
     16 ****         4.7045   0.5374  -0.5706 C.2            1 S1                 0.0000
     17 ****         6.0395   1.2321  -0.3697 C.3            1 S1                 0.0000
     18 ****         4.5933  -0.7512  -0.9949 C.2            1 S1                 0.0000
     19 ****         5.7891  -1.6388  -1.3172 C.3            1 S1                 0.0000
     20 ****         3.2567  -1.3461  -1.1584 C.2            1 S1                 0.0000
     21 ****         3.0841  -2.5085  -1.5297 O.2            1 S1                 0.0000
     22 ****        -3.8965  -0.3127   0.7751 C.ar           1 S1                 0.0000
     23 ****        -7.3305  -0.1719   0.9438 H              1 S1                 0.0000
     24 ****        -6.3289  -1.3237   1.8332 H              1 S1                 0.0000
     25 ****        -6.4027  -1.3933   0.0680 H              1 S1                 0.0000
     26 ****        -6.3897   2.0261   0.8730 H              1 S1                 0.0000
     27 ****        -4.4415   3.5409   0.7344 H              1 S1                 0.0000
     28 ****        -1.2263   2.7012  -0.3200 H              1 S1                 0.0000
     29 ****        -1.1255   2.7372   1.4449 H              1 S1                 0.0000
     30 ****        -2.1076   3.9301   0.5911 H              1 S1                 0.0000
     31 ****        -1.5920  -1.7982   1.4207 H              1 S1                 0.0000
     32 ****        -1.7634  -1.7176  -0.3383 H              1 S1                 0.0000
     33 ****         0.7861  -1.0445   1.2087 H              1 S1                 0.0000
     34 ****         0.0806  -3.3249  -0.2982 H              1 S1                 0.0000
     35 ****         0.6926  -1.7254  -1.7716 H              1 S1                 0.0000
     36 ****         0.2001  -0.1462  -1.3164 H              1 S1                 0.0000
     37 ****         1.4794   1.3564  -0.2181 H              1 S1                 0.0000
     38 ****         6.5905   1.2792  -1.3093 H              1 S1                 0.0000
     39 ****         6.6431   0.6956   0.3630 H              1 S1                 0.0000
     40 ****         5.9062   2.2529  -0.0091 H              1 S1                 0.0000
     41 ****         5.7946  -2.5120  -0.6640 H              1 S1                 0.0000
     42 ****         6.7455  -1.1326  -1.1971 H              1 S1                 0.0000
     43 ****         5.7311  -1.9879  -2.3488 H              1 S1                 0.0000
     44 ****        -3.7821  -1.3860   0.7922 H              1 S1                 0.0000
     45 ****        -1.0080   0.4111   1.4587 LP             1 S1                 0.0000
     46 ****        -1.0488   0.5314  -0.1693 LP             1 S1                 0.0000
     47 ****         0.1371  -3.2730   1.2904 LP             1 S1                 0.0000
     48 ****         1.4921  -3.0926   0.3971 LP             1 S1                 0.0000
     49 ****         3.6773   2.2537   0.0241 LP             1 S1                 0.0000
     50 ****         2.1567  -2.8697  -1.6272 LP             1 S1                 0.0000
     51 ****         3.8714  -3.0904  -1.7335 LP             1 S1                 0.0000
@<TRIPOS>BOND
    1    1    2 1     
    2    1   23 1     
    3    1   24 1     
    4    1   25 1     
    5    2   22 ar    
    6    2    3 ar    
    7    3    4 ar    
    8    3   26 1     
    9    4    5 ar    
   10    4   27 1     
   11    5    6 1     
   12    5    7 ar    
   13    6   28 1     
   14    6   29 1     
   15    6   30 1     
   16    7    8 1     
   17    7   22 ar    
   18    8    9 1     
   19    9   10 1     
   20    9   31 1     
   21    9   32 1     
   22   10   11 1     
   23   10   12 1     
   24   10   33 1     
   25   11   34 1     
   26   12   13 1     
   27   12   35 1     
   28   12   36 1     
   29   13   20 am    
   30   13   14 1     
   31   14   15 2     
   32   14   37 1     
   33   15   16 1     
   34   16   17 1     
   35   16   18 2     
   36   17   38 1     
   37   17   39 1     
   38   17   40 1     
   39   18   19 1     
   40   18   20 1     
   41   19   41 1     
   42   19   42 1     
   43   19   43 1     
   44   20   21 2     
   45   22   44 1     
   46    8   45 1     
   47    8   46 1     
   48   11   47 1     
   49   11   48 1     
   50   15   49 1     
   51   21   50 1     
   52   21   51 1     
@<TRIPOS>SUBSTRUCTURE
      1 S1             1
@<TRIPOS>SET
LONE_PAIRS      STATIC     ATOMS    <user>   **** ""
7 45 46 47 48 49 50 51
DONOR_HYDROGENS      STATIC     ATOMS    <user>   **** ""
1 34
ATOM$BLUE        STATIC     ATOMS    COLORGROUP SYSTEM
7 45 46 47 48 49 50 51
ATOM$RED        STATIC     ATOMS    COLORGROUP SYSTEM
1 34
