AV-unprocessed.smi:1006|AV-procd|sdf|4394|dock8
  -GOLD-   22720 2323D 1   1.00000     0.00000
 Structure written by MMmdl.
 46 48  0  0  0  0  0  0  0  0  2 V2000
  148.8259  132.4312  158.3333 C   0  0  0  0  0  0  0  0  0  0  0  0
  149.3011  133.2456  157.1489 C   0  0  0  0  0  0  0  0  0  0  0  0
  148.7316  133.0865  155.8664 C   0  0  0  0  0  0  0  0  0  0  0  0
  149.2569  133.9046  154.8441 C   0  0  0  0  0  0  0  0  0  0  0  0
  148.7646  133.8251  153.5441 N   0  0  0  0  0  0  0  0  0  0  0  0
  150.2465  134.7926  155.0806 N   0  0  0  0  0  0  0  0  0  0  0  0
  150.7044  134.8472  156.3337 C   0  0  0  0  0  0  0  0  0  0  0  0
  151.9788  136.0388  156.6510 S   0  0  0  0  0  0  0  0  0  0  0  0
  151.5495  137.2443  155.3665 C   0  0  0  0  0  0  0  0  0  0  0  0
  152.1995  138.6210  155.5979 C   0  0  2  0  0  0  0  0  0  0  0  0
  153.6059  138.4909  155.5580 O   0  0  0  0  0  0  0  0  0  0  0  0
  151.8227  139.2689  156.9459 C   0  0  0  0  0  0  0  0  0  0  0  0
  151.3474  140.6525  156.8042 N   0  0  0  0  0  0  0  0  0  0  0  0
  150.6763  141.2346  155.7736 C   0  0  0  0  0  0  0  0  0  0  0  0
  150.4466  142.5329  156.1138 N   0  3  0  0  0  0  0  0  0  0  0  0
  150.9777  142.7843  157.3805 C   0  0  0  0  0  0  0  0  0  0  0  0
  150.9883  143.9423  158.1488 C   0  0  0  0  0  0  0  0  0  0  0  0
  151.6073  143.8694  159.4171 C   0  0  0  0  0  0  0  0  0  0  0  0
  151.6306  145.1158  160.2855 C   0  0  0  0  0  0  0  0  0  0  0  0
  152.1923  142.6606  159.8751 C   0  0  0  0  0  0  0  0  0  0  0  0
  152.8456  142.5894  161.2449 C   0  0  0  0  0  0  0  0  0  0  0  0
  152.1790  141.4963  159.0747 C   0  0  0  0  0  0  0  0  0  0  0  0
  151.5611  141.5832  157.8289 C   0  0  0  0  0  0  0  0  0  0  0  0
  150.2931  134.1332  157.3831 N   0  0  0  0  0  0  0  0  0  0  0  0
  148.0206  131.7541  158.0477 H   0  0  0  0  0  0  0  0  0  0  0  0
  148.4554  133.0881  159.1208 H   0  0  0  0  0  0  0  0  0  0  0  0
  149.6448  131.8358  158.7375 H   0  0  0  0  0  0  0  0  0  0  0  0
  147.9391  132.3766  155.6785 H   0  0  0  0  0  0  0  0  0  0  0  0
  148.0236  133.1843  153.2993 H   0  0  0  0  0  0  0  0  0  0  0  0
  149.2014  134.3310  152.7873 H   0  0  0  0  0  0  0  0  0  0  0  0
  151.8770  136.8262  154.4152 H   0  0  0  0  0  0  0  0  0  0  0  0
  150.4638  137.3359  155.3181 H   0  0  0  0  0  0  0  0  0  0  0  0
  151.9052  139.2926  154.7902 H   0  0  0  0  0  0  0  0  0  0  0  0
  153.8608  137.7779  156.1235 H   0  0  0  0  0  0  0  0  0  0  0  0
  151.0693  138.6816  157.4713 H   0  0  0  0  0  0  0  0  0  0  0  0
  152.6953  139.2979  157.5999 H   0  0  0  0  0  0  0  0  0  0  0  0
  150.3760  140.7520  154.8546 H   0  0  0  0  0  0  0  0  0  0  0  0
  150.5375  144.8578  157.7946 H   0  0  0  0  0  0  0  0  0  0  0  0
  152.6553  145.3862  160.5422 H   0  0  0  0  0  0  0  0  0  0  0  0
  151.0739  144.9486  161.2083 H   0  0  0  0  0  0  0  0  0  0  0  0
  151.1812  145.9674  159.7735 H   0  0  0  0  0  0  0  0  0  0  0  0
  153.2163  141.5864  161.4586 H   0  0  0  0  0  0  0  0  0  0  0  0
  152.1304  142.8513  162.0250 H   0  0  0  0  0  0  0  0  0  0  0  0
  153.6899  143.2765  161.3025 H   0  0  0  0  0  0  0  0  0  0  0  0
  152.6229  140.5775  159.4280 H   0  0  0  0  0  0  0  0  0  0  0  0
  149.9586  143.1952  155.5244 H   0  0  0  0  0  0  0  0  0  0  0  0
  1  2  1  0  0  0  0
  1 25  1  0  0  0  0
  1 26  1  0  0  0  0
  1 27  1  0  0  0  0
  2 24  1  0  0  0  0
  2  3  2  0  0  0  0
  3  4  1  0  0  0  0
  3 28  1  0  0  0  0
  4  5  1  0  0  0  0
  4  6  2  0  0  0  0
  5 29  1  0  0  0  0
  5 30  1  0  0  0  0
  6  7  1  0  0  0  0
  7  8  1  0  0  0  0
  7 24  2  0  0  0  0
  8  9  1  0  0  0  0
  9 10  1  0  0  0  0
  9 31  1  0  0  0  0
  9 32  1  0  0  0  0
 10 11  1  0  0  0  0
 10 12  1  0  0  0  0
 10 33  1  0  0  0  0
 11 34  1  0  0  0  0
 12 13  1  0  0  0  0
 12 35  1  0  0  0  0
 12 36  1  0  0  0  0
 13 23  1  0  0  0  0
 13 14  1  0  0  0  0
 14 15  2  0  0  0  0
 14 37  1  0  0  0  0
 15 16  1  0  0  0  0
 15 46  1  0  0  0  0
 16 23  2  0  0  0  0
 16 17  1  0  0  0  0
 17 18  2  0  0  0  0
 17 38  1  0  0  0  0
 18 19  1  0  0  0  0
 18 20  1  0  0  0  0
 19 39  1  0  0  0  0
 19 40  1  0  0  0  0
 19 41  1  0  0  0  0
 20 21  1  0  0  0  0
 20 22  2  0  0  0  0
 21 42  1  0  0  0  0
 21 43  1  0  0  0  0
 21 44  1  0  0  0  0
 22 23  1  0  0  0  0
 22 45  1  0  0  0  0
M  CHG  1  15   1
M  END
> <s_m_source_file>
AV-unprocessed.smi

> <i_m_source_file_index>
1006

> <i_lp_mmshare_version>
43012

> <i_f3d_flags>
0

> <s_epik_input>
W0NIM11jMVtjSF1jKFtOSDJdKW5jKG4xKVNbQ0gyXVtDQEhdKFtPSF0pW0NIMl1uKFtjSF1uMiljKGMyMylbY0hdYyhbQ0gzXSljKFtjSF0zKVtDSDNd

> <s_epik_cmdline>
J2VwaWtfcHl0aG9uJywgJy1waCcsICc3LjAnLCAnLXRuJywgJzgnLCAnLW1hJywgJzIwMCcsICctbWV0YWxfYmluZGluZycsICctaW1hZScsICc8aW5maWxlLm1hZT4nLCAnLW9tYWUnLCAnPG91dGZpbGUubWFlPic=

> <r_epik_Ionization_Penalty>
1.4378

> <r_epik_Ionization_Penalty_Charging>
1.06724

> <r_epik_Ionization_Penalty_Neutral>
0.370564

> <r_epik_State_Penalty>
1.48666

> <r_epik_Charging_Adjusted_Penalty>
2.5539

> <i_epik_Tot_Q>
1

> <i_epik_Tot_abs_Q>
1

> <r_epik_Metal_State_Penalty>
1.38026

> <b_epik_Metal_Only>
0

> <s_lp_Force_Field>
OPLS_2005

> <r_lp_Energy>
8.71661

> <b_lp_Chiralities_Consistent>
1

> <s_lp_Variant>
AV-unprocessed.smi:1006-5

> <Gold.Version>
5.8.1

> <Gold.Id.Protein>
6NUR|6NUR_protein|mol2

> <Gold.PLP.Fitness>
57.6257

> <Gold.PLP.PLP>
-46.0515

> <Gold.PLP.part.hbond>
-3.8683

> <Gold.PLP.part.metal>
0.0000

> <Gold.PLP.part.buried>
-7.4112

> <Gold.PLP.part.nonpolar>
-36.5457

> <Gold.PLP.part.repulsive>
0.2350

> <Gold.PLP.ligand.clash>
0.0000

> <Gold.PLP.ligand.torsion>
1.5131

> <Gold.PLP.Chemscore.Hbond>
4.8560

> <Gold.PLP.Chemscore.CHOScore>
0.0000

> <Gold.PLP.Chemscore.Metal>
0.0000

> <Gold.Chemscore.Hbonds>
donor molecule, donor type, donor heavy atom, donor atom, acceptor molecule, acceptor atom, score
      L1  H     5    30       P1  7948  0.03
      L1  H    15    46       P1  8028  1.63
      P1  H  6896  6907       L1    24  0.77
      P1  H  7997  8010       L1    11  0.78

> <Gold.PLP.Chemscore.Internal.Correction>
0.0325

> <Gold.Rescore>
     Score         DG    S(hbond)    S(metal)    S(lipo)     H(rot)  DE(clash)    DE(int)     intcor
     18.50     -19.92       2.66        0.00     110.78       2.89       0.01       1.42       ----

> <Gold.Chemscore.Fitness>
18.5007

> <Gold.Chemscore.DG>
-19.9236

> <Gold.Chemscore.ZeroCoef>
-5.4800

> <Gold.Chemscore.Hbond>
2.6597

> <Gold.Chemscore.Metal>
0.0000

> <Gold.Chemscore.Lipo>
110.7777

> <Gold.Chemscore.Internal_Hbond>
0.0000

> <Gold.Chemscore.DEClash>
0.0060

> <Gold.Chemscore.DEInternal>
1.4168

> <Gold.Chemscore.Rot>
2.8910

> <Gold.Chemscore.Internal.Correction>
   9.000000E+99

> <Gold.Chemscore.Hbonds>
donor molecule, donor type, donor heavy atom, donor atom, acceptor molecule, acceptor atom, score
      L1  H    15    46       P1  8028  0.81
      P1  H  6896  6907       L1    24  0.45
      P1  H  7997  8010       L1    11  0.47

> <Gold.Chemscore.Hbond.Weighted>
-8.8835

> <Gold.Chemscore.Metal.Weighted>
-0.0000

> <Gold.Chemscore.Lipo.Weighted>
-12.9610

> <Gold.Chemscore.Internal_Hbond.Weighted>
0.0000

> <Gold.Chemscore.DEClash.Weighted>
0.0060

> <Gold.Chemscore.DEInternal.Weighted>
1.4168

> <Gold.Chemscore.Rot.Weighted>
7.4009

> <Gold.Chemscore.Internal.Correction.Weighted>
   9.000000E+99

> <Gold.Protein.RotatedTorsions>
[ 6907 6896 6895 6894 ] final -105.41 input  -60.11 | X-H torsion
[ 7974 7965 7964 7962 ] final -107.24 input  175.53 | X-H torsion
[ 8008 7997 7996 7995 ] final   92.41 input   59.86 | X-H torsion
[ 10167 10162 10161 10158 ] final  148.81 input  -65.29 | X-H torsion
[ 10718 10713 10712 10709 ] final -178.44 input   66.30 | X-H torsion
[ 10763 10752 10751 10750 ] final -139.74 input  -60.55 | X-H torsion
[ 11005 11000 10999 10996 ] final  -82.74 input  -57.11 | X-H torsion

> <Gold.Protein.ActiveResidues>
 VAL166  LYS551  ARG553  GLY616  TRP617  ASP618  TYR619  PRO620  LYS621  CYS622 
 ASP623  PHE694  ASN695  SER759  ASP760  ASP761  ALA762  ILE779  LEU786  VAL792 
 PHE793  MET794  SER795  GLU796  ALA797  LYS798  CYS799  TRP800  GLU811  SER814 

> <Gold.Protein.RotatedAtoms>
  150.7335  134.0131  159.3676 H   0  0  0  0  0  0  0  0  0  0  0  0  # atno 6907 bound_to 6896
  151.8092  135.0684  160.0420 H   0  0  0  0  0  0  0  0  0  0  0  0  # atno 6908 bound_to 6896
  152.3085  133.5692  159.5701 H   0  0  0  0  0  0  0  0  0  0  0  0  # atno 6909 bound_to 6896
  145.2078  140.9083  143.3332 H   0  0  0  0  0  0  0  0  0  0  0  0  # atno 7974 bound_to 7965
  156.0350  140.3326  155.7181 H   0  0  0  0  0  0  0  0  0  0  0  0  # atno 8008 bound_to 7997
  155.5828  140.0638  157.2796 H   0  0  0  0  0  0  0  0  0  0  0  0  # atno 8009 bound_to 7997
  154.4369  140.1841  156.0982 H   0  0  0  0  0  0  0  0  0  0  0  0  # atno 8010 bound_to 7997
  139.4870  144.5651  151.7160 H   0  0  0  0  0  0  0  0  0  0  0  0  # atno 10167 bound_to 10162
  156.8444  130.9697  151.3097 H   0  0  0  0  0  0  0  0  0  0  0  0  # atno 10718 bound_to 10713
  154.8600  135.3573  154.5595 H   0  0  0  0  0  0  0  0  0  0  0  0  # atno 10763 bound_to 10752
  153.6211  135.7006  153.5315 H   0  0  0  0  0  0  0  0  0  0  0  0  # atno 10764 bound_to 10752
  153.3128  135.4173  155.1311 H   0  0  0  0  0  0  0  0  0  0  0  0  # atno 10765 bound_to 10752
  141.1661  133.7259  156.8616 H   0  0  0  0  0  0  0  0  0  0  0  0  # atno 11005 bound_to 11000
  144.9885  139.3712  143.6226 LP  0  0  0  0  0  0  0  0  0  0  0  0  # atno 17320 bound_to 7965
  146.3404  139.9057  142.8787 LP  0  0  0  0  0  0  0  0  0  0  0  0  # atno 17321 bound_to 7965
  140.5227  144.0853  150.6028 LP  0  0  0  0  0  0  0  0  0  0  0  0  # atno 17342 bound_to 10162
  140.3817  143.2799  152.0163 LP  0  0  0  0  0  0  0  0  0  0  0  0  # atno 17343 bound_to 10162
  157.6338  130.8750  149.9322 LP  0  0  0  0  0  0  0  0  0  0  0  0  # atno 17370 bound_to 10713
  156.0863  130.3668  150.0482 LP  0  0  0  0  0  0  0  0  0  0  0  0  # atno 17371 bound_to 10713
  140.1844  134.9010  157.2987 LP  0  0  0  0  0  0  0  0  0  0  0  0  # atno 17394 bound_to 11000
  140.2359  134.3853  155.7501 LP  0  0  0  0  0  0  0  0  0  0  0  0  # atno 17395 bound_to 11000

$$$$
