AV-unprocessed.smi:2816|AV-procd|sdf|10843|dock10
  -GOLD-   2272015283D 1   1.00000     0.00000
 Structure written by MMmdl.
 43 45  0  0  0  0  0  0  0  0  1 V2000
  137.4182  138.2538  154.6768 C   0  0  0  0  0  0  0  0  0  0  0  0
  138.7806  138.6264  154.0667 C   0  0  0  0  0  0  0  0  0  0  0  0
  138.9144  137.9838  152.6740 C   0  0  0  0  0  0  0  0  0  0  0  0
  138.8933  140.1587  153.9643 C   0  0  0  0  0  0  0  0  0  0  0  0
  140.1066  137.9604  155.1912 S   0  0  0  0  0  0  0  0  0  0  0  0
  141.0081  139.0660  155.5524 O   0  0  0  0  0  0  0  0  0  0  0  0
  139.4457  137.1956  156.2608 O   0  0  0  0  0  0  0  0  0  0  0  0
  141.0508  136.7977  154.2033 C   0  0  0  0  0  0  0  0  0  0  0  0
  142.0672  137.2643  153.3455 C   0  0  0  0  0  0  0  0  0  0  0  0
  142.8134  136.3151  152.6227 C   0  0  0  0  0  0  0  0  0  0  0  0
  142.5241  134.9400  152.7919 C   0  0  0  0  0  0  0  0  0  0  0  0
  143.2138  133.9172  152.1248 N   0  0  0  0  0  0  0  0  0  0  0  0
  144.5594  134.1214  151.6001 C   0  0  1  0  0  0  0  0  0  0  0  0
  145.6135  133.1743  152.1857 C   0  0  0  0  0  0  0  0  0  0  0  0
  146.2355  132.5734  150.9174 C   0  0  1  0  0  0  0  0  0  0  0  0
  145.3080  131.5345  150.2755 C   0  0  0  0  0  0  0  0  0  0  0  0
  144.2110  132.4204  149.6889 C   0  0  0  0  0  0  0  0  0  0  0  0
  144.6842  133.8277  150.0941 C   0  0  2  0  0  0  0  0  0  0  0  0
  146.0881  133.6496  150.0056 O   0  0  0  0  0  0  0  0  0  0  0  0
  141.4869  134.5909  153.6839 C   0  0  0  0  0  0  0  0  0  0  0  0
  140.7651  135.4906  154.3841 N   0  0  0  0  0  0  0  0  0  0  0  0
  136.5938  138.6195  154.0639 H   0  0  0  0  0  0  0  0  0  0  0  0
  137.3018  138.6794  155.6739 H   0  0  0  0  0  0  0  0  0  0  0  0
  137.3063  137.1728  154.7669 H   0  0  0  0  0  0  0  0  0  0  0  0
  138.8645  136.8960  152.7303 H   0  0  0  0  0  0  0  0  0  0  0  0
  139.8594  138.2470  152.1992 H   0  0  0  0  0  0  0  0  0  0  0  0
  138.1157  138.3145  152.0095 H   0  0  0  0  0  0  0  0  0  0  0  0
  138.0748  140.5734  153.3752 H   0  0  0  0  0  0  0  0  0  0  0  0
  139.8207  140.4652  153.4821 H   0  0  0  0  0  0  0  0  0  0  0  0
  138.8583  140.6283  154.9478 H   0  0  0  0  0  0  0  0  0  0  0  0
  142.2751  138.3190  153.2440 H   0  0  0  0  0  0  0  0  0  0  0  0
  143.5928  136.6544  151.9577 H   0  0  0  0  0  0  0  0  0  0  0  0
  142.8621  132.9718  152.1783 H   0  0  0  0  0  0  0  0  0  0  0  0
  144.8598  135.1560  151.7702 H   0  0  0  0  0  0  0  0  0  0  0  0
  146.3539  133.7388  152.7535 H   0  0  0  0  0  0  0  0  0  0  0  0
  145.2005  132.4048  152.8398 H   0  0  0  0  0  0  0  0  0  0  0  0
  147.2615  132.2290  151.0478 H   0  0  0  0  0  0  0  0  0  0  0  0
  145.8232  130.9891  149.4840 H   0  0  0  0  0  0  0  0  0  0  0  0
  144.9285  130.8116  150.9985 H   0  0  0  0  0  0  0  0  0  0  0  0
  144.1891  132.3230  148.6029 H   0  0  0  0  0  0  0  0  0  0  0  0
  143.2185  132.1746  150.0665 H   0  0  0  0  0  0  0  0  0  0  0  0
  144.2949  134.6229  149.4577 H   0  0  0  0  0  0  0  0  0  0  0  0
  141.2316  133.5541  153.8479 H   0  0  0  0  0  0  0  0  0  0  0  0
  1  2  1  0  0  0  0
  1 22  1  0  0  0  0
  1 23  1  0  0  0  0
  1 24  1  0  0  0  0
  2  3  1  0  0  0  0
  2  4  1  0  0  0  0
  2  5  1  0  0  0  0
  3 25  1  0  0  0  0
  3 26  1  0  0  0  0
  3 27  1  0  0  0  0
  4 28  1  0  0  0  0
  4 29  1  0  0  0  0
  4 30  1  0  0  0  0
  5  6  2  0  0  0  0
  5  7  2  0  0  0  0
  5  8  1  0  0  0  0
  8 21  1  0  0  0  0
  8  9  2  0  0  0  0
  9 10  1  0  0  0  0
  9 31  1  0  0  0  0
 10 11  2  0  0  0  0
 10 32  1  0  0  0  0
 11 12  1  0  0  0  0
 11 20  1  0  0  0  0
 12 13  1  0  0  0  0
 12 33  1  0  0  0  0
 13 18  1  0  0  0  0
 13 14  1  0  0  0  0
 13 34  1  0  0  0  0
 14 15  1  0  0  0  0
 14 35  1  0  0  0  0
 14 36  1  0  0  0  0
 15 19  1  0  0  0  0
 15 16  1  0  0  0  0
 15 37  1  0  0  0  0
 16 17  1  0  0  0  0
 16 38  1  0  0  0  0
 16 39  1  0  0  0  0
 17 18  1  0  0  0  0
 17 40  1  0  0  0  0
 17 41  1  0  0  0  0
 18 19  1  0  0  0  0
 18 42  1  0  0  0  0
 20 21  2  0  0  0  0
 20 43  1  0  0  0  0
M  END
> <s_m_source_file>
AV-unprocessed.smi

> <i_m_source_file_index>
2816

> <i_lp_mmshare_version>
43012

> <i_f3d_flags>
0

> <s_epik_input>
W0NIM11DKFtDSDNdKShbQ0gzXSlTKD1PKSg9TyljMVtjSF1bY0hdYyhbY0hdbjEpW05IXVtDQEhdKFtDSDJdW0NAQEhdMjMpW0NAQEhdKE8zKVtDSDJdW0NIMl0y

> <s_epik_cmdline>
J2VwaWtfcHl0aG9uJywgJy1waCcsICc3LjAnLCAnLXRuJywgJzgnLCAnLW1hJywgJzIwMCcsICctbWV0YWxfYmluZGluZycsICctaW1hZScsICc8aW5maWxlLm1hZT4nLCAnLW9tYWUnLCAnPG91dGZpbGUubWFlPic=

> <r_lp_tautomer_probability>
1

> <r_epik_Ionization_Penalty>
1.94439e-07

> <r_epik_Ionization_Penalty_Charging>
0

> <r_epik_Ionization_Penalty_Neutral>
1.94439e-07

> <r_epik_State_Penalty>
-0

> <r_epik_Charging_Adjusted_Penalty>
0

> <i_epik_Tot_Q>
0

> <i_epik_Tot_abs_Q>
0

> <r_epik_Metal_State_Penalty>
-0

> <b_epik_Metal_Only>
0

> <s_lp_Force_Field>
OPLS_2005

> <r_lp_Energy>
43.8741

> <b_lp_Chiralities_Consistent>
1

> <s_lp_Variant>
AV-unprocessed.smi:2816-2

> <Gold.Version>
5.8.1

> <Gold.Id.Protein>
6NUR|6NUR_protein|mol2

> <Gold.PLP.Fitness>
40.1848

> <Gold.PLP.PLP>
-35.7417

> <Gold.PLP.part.hbond>
-2.1609

> <Gold.PLP.part.metal>
0.0000

> <Gold.PLP.part.buried>
-5.5326

> <Gold.PLP.part.nonpolar>
-29.5215

> <Gold.PLP.part.repulsive>
0.5340

> <Gold.PLP.ligand.clash>
0.0000

> <Gold.PLP.ligand.torsion>
1.2359

> <Gold.PLP.Chemscore.Hbond>
1.0000

> <Gold.PLP.Chemscore.CHOScore>
0.5640

> <Gold.PLP.Chemscore.Metal>
0.0000

> <Gold.Chemscore.Hbonds>
donor molecule, donor type, donor heavy atom, donor atom, acceptor molecule, acceptor atom, score
      P1  H 11000 11005       L1    21  0.88
      L1  C    20    43       P1 10957  0.99

> <Gold.PLP.Chemscore.Internal.Correction>
2.2229

> <Gold.Rescore>
     Score         DG    S(hbond)    S(metal)    S(lipo)     H(rot)  DE(clash)    DE(int)     intcor
     14.82     -16.17       0.61        0.00      99.01       1.15       0.21       1.14       ----

> <Gold.Chemscore.Fitness>
14.8224

> <Gold.Chemscore.DG>
-16.1742

> <Gold.Chemscore.ZeroCoef>
-5.4800

> <Gold.Chemscore.Hbond>
0.6128

> <Gold.Chemscore.Metal>
0.0000

> <Gold.Chemscore.Lipo>
99.0074

> <Gold.Chemscore.Internal_Hbond>
0.0000

> <Gold.Chemscore.DEClash>
0.2070

> <Gold.Chemscore.DEInternal>
1.1448

> <Gold.Chemscore.Rot>
1.1471

> <Gold.Chemscore.Internal.Correction>
   9.000000E+99

> <Gold.Chemscore.Hbonds>
donor molecule, donor type, donor heavy atom, donor atom, acceptor molecule, acceptor atom, score
      P1  H 11000 11005       L1    21  0.48

> <Gold.Chemscore.Hbond.Weighted>
-2.0469

> <Gold.Chemscore.Metal.Weighted>
-0.0000

> <Gold.Chemscore.Lipo.Weighted>
-11.5839

> <Gold.Chemscore.Internal_Hbond.Weighted>
0.0000

> <Gold.Chemscore.DEClash.Weighted>
0.2070

> <Gold.Chemscore.DEInternal.Weighted>
1.1448

> <Gold.Chemscore.Rot.Weighted>
2.9366

> <Gold.Chemscore.Internal.Correction.Weighted>
   9.000000E+99

> <Gold.Protein.RotatedTorsions>
[ 6907 6896 6895 6894 ] final -127.74 input  -60.11 | X-H torsion
[ 7974 7965 7964 7962 ] final  -84.52 input  175.53 | X-H torsion
[ 8008 7997 7996 7995 ] final   14.30 input   59.86 | X-H torsion
[ 10167 10162 10161 10158 ] final  -17.02 input  -65.29 | X-H torsion
[ 10718 10713 10712 10709 ] final  119.93 input   66.30 | X-H torsion
[ 10763 10752 10751 10750 ] final -125.25 input  -60.55 | X-H torsion
[ 11005 11000 10999 10996 ] final   54.51 input  -57.11 | X-H torsion

> <Gold.Protein.ActiveResidues>
 VAL166  LYS551  ARG553  GLY616  TRP617  ASP618  TYR619  PRO620  LYS621  CYS622 
 ASP623  PHE694  ASN695  SER759  ASP760  ASP761  ALA762  ILE779  LEU786  VAL792 
 PHE793  MET794  SER795  GLU796  ALA797  LYS798  CYS799  TRP800  GLU811  SER814 

> <Gold.Protein.RotatedAtoms>
  150.9105  133.7003  159.2855 H   0  0  0  0  0  0  0  0  0  0  0  0  # atno 6907 bound_to 6896
  151.4491  135.1027  159.9702 H   0  0  0  0  0  0  0  0  0  0  0  0  # atno 6908 bound_to 6896
  152.4927  133.8495  159.7249 H   0  0  0  0  0  0  0  0  0  0  0  0  # atno 6909 bound_to 6896
  145.5055  140.9544  143.1736 H   0  0  0  0  0  0  0  0  0  0  0  0  # atno 7974 bound_to 7965
  154.8465  140.2923  155.5625 H   0  0  0  0  0  0  0  0  0  0  0  0  # atno 8008 bound_to 7997
  156.3014  140.2504  156.3349 H   0  0  0  0  0  0  0  0  0  0  0  0  # atno 8009 bound_to 7997
  154.9068  140.0390  157.1913 H   0  0  0  0  0  0  0  0  0  0  0  0  # atno 8010 bound_to 7997
  140.7242  143.5057  150.9813 H   0  0  0  0  0  0  0  0  0  0  0  0  # atno 10167 bound_to 10162
  157.5927  131.1062  150.7965 H   0  0  0  0  0  0  0  0  0  0  0  0  # atno 10718 bound_to 10713
  154.8733  135.4036  154.3237 H   0  0  0  0  0  0  0  0  0  0  0  0  # atno 10763 bound_to 10752
  153.4061  135.7019  153.6397 H   0  0  0  0  0  0  0  0  0  0  0  0  # atno 10764 bound_to 10752
  153.5119  135.3705  155.2561 H   0  0  0  0  0  0  0  0  0  0  0  0  # atno 10765 bound_to 10752
  140.0681  134.5508  155.9077 H   0  0  0  0  0  0  0  0  0  0  0  0  # atno 11005 bound_to 11000
  144.7756  139.6637  143.7176 LP  0  0  0  0  0  0  0  0  0  0  0  0  # atno 17320 bound_to 7965
  146.2199  139.5617  142.9625 LP  0  0  0  0  0  0  0  0  0  0  0  0  # atno 17321 bound_to 7965
  139.8769  143.7122  152.3161 LP  0  0  0  0  0  0  0  0  0  0  0  0  # atno 17342 bound_to 10162
  139.7390  144.7564  151.0682 LP  0  0  0  0  0  0  0  0  0  0  0  0  # atno 17343 bound_to 10162
  156.8384  130.5039  149.5324 LP  0  0  0  0  0  0  0  0  0  0  0  0  # atno 17370 bound_to 10713
  156.0984  130.5950  150.9852 LP  0  0  0  0  0  0  0  0  0  0  0  0  # atno 17371 bound_to 10713
  141.2001  133.6610  156.5878 LP  0  0  0  0  0  0  0  0  0  0  0  0  # atno 17394 bound_to 11000
  140.3668  134.7640  157.4572 LP  0  0  0  0  0  0  0  0  0  0  0  0  # atno 17395 bound_to 11000

$$$$
