#       Name:                AV-unprocessed.smi:2100
#       Creating user name   scv26
#       Creation time:       Fri Mar 27 11:30:10 2020


#       File generated by GOLD software.
#

@<TRIPOS>MOLECULE
AV-unprocessed.smi:2100
    46    47     1
SMALL
NO_CHARGES


@<TRIPOS>ATOM
      1 ****        -0.5709   4.6834  -1.4086 C.3            1 S1                 0.0000
      2 ****        -1.1401   3.6857  -0.3941 C.3            1 S1                 0.0000
      3 ****        -0.9373   2.2294  -0.8456 C.3            1 S1                 0.0000
      4 ****        -1.6061   1.2969   0.0757 N.3            1 S1                 0.0000
      5 ****        -1.2074  -0.3819  -0.0567 S.o2           1 S1                 0.0000
      6 ****        -1.8996  -1.1214   1.0100 O.2            1 S1                 0.0000
      7 ****        -1.3396  -0.7862  -1.4647 O.2            1 S1                 0.0000
      8 ****         0.4691  -0.3073   0.3494 N.3            1 S1                 0.0000
      9 ****         1.2151  -1.5418   0.5999 C.3            1 S1                 0.0000
     10 ****         1.4708  -2.3210  -0.7001 C.3            1 S1                 0.0000
     11 ****         2.2918  -3.5740  -0.4611 C.ar           1 S1                 0.0000
     12 ****         3.6759  -3.5932  -0.7364 C.ar           1 S1                 0.0000
     13 ****         4.3927  -4.7799  -0.4878 C.ar           1 S1                 0.0000
     14 ****         3.7021  -5.8948   0.0251 C.ar           1 S1                 0.0000
     15 ****         2.3192  -5.7732   0.2675 C.ar           1 S1                 0.0000
     16 ****         1.6226  -4.6404   0.0325 N.ar           1 S1                 0.0000
     17 ****        -3.0212   1.6294   0.3015 C.3            1 S1                 0.0000
     18 ****        -3.2019   3.1112   0.6840 C.3            1 S1                 0.0000
     19 ****        -2.8060   3.4172   2.1398 C.3            1 S1                 0.0000
     20 ****        -2.5290   3.9569  -0.2457 O.3            1 S1                 0.0000
     21 ****         0.4984   4.5284  -1.5548 H              1 S1                 0.0000
     22 ****        -0.7140   5.7091  -1.0678 H              1 S1                 0.0000
     23 ****        -1.0597   4.5834  -2.3782 H              1 S1                 0.0000
     24 ****        -0.6288   3.8469   0.5551 H              1 S1                 0.0000
     25 ****        -1.3414   2.0817  -1.8482 H              1 S1                 0.0000
     26 ****         0.1278   2.0052  -0.8974 H              1 S1                 0.0000
     27 ****         0.6719   0.4299   1.0241 H              1 S1                 0.0000
     28 ****         2.1662  -1.2788   1.0636 H              1 S1                 0.0000
     29 ****         0.6691  -2.1532   1.3194 H              1 S1                 0.0000
     30 ****         0.5277  -2.6137  -1.1628 H              1 S1                 0.0000
     31 ****         1.9840  -1.6851  -1.4230 H              1 S1                 0.0000
     32 ****         4.1784  -2.7205  -1.1271 H              1 S1                 0.0000
     33 ****         5.4530  -4.8335  -0.6862 H              1 S1                 0.0000
     34 ****         4.2192  -6.8208   0.2283 H              1 S1                 0.0000
     35 ****         1.7577  -6.6077   0.6606 H              1 S1                 0.0000
     36 ****        -3.5754   1.4128  -0.6128 H              1 S1                 0.0000
     37 ****        -3.4364   0.9885   1.0795 H              1 S1                 0.0000
     38 ****        -4.2621   3.3488   0.5920 H              1 S1                 0.0000
     39 ****        -3.4418   2.8693   2.8357 H              1 S1                 0.0000
     40 ****        -2.9175   4.4794   2.3586 H              1 S1                 0.0000
     41 ****        -1.7758   3.1356   2.3562 H              1 S1                 0.0000
     42 ****        -1.1627   1.4736   0.9544 LP             1 S1                 0.0000
     43 ****         0.8593  -0.0643  -0.5387 LP             1 S1                 0.0000
     44 ****         0.6411  -4.5916   0.2180 LP             1 S1                 0.0000
     45 ****        -2.9654   3.8482  -1.1389 LP             1 S1                 0.0000
     46 ****        -2.6311   4.9028   0.0623 LP             1 S1                 0.0000
@<TRIPOS>BOND
    1    1    2 1     
    2    1   21 1     
    3    1   22 1     
    4    1   23 1     
    5    2   20 1     
    6    2    3 1     
    7    2   24 1     
    8    3    4 1     
    9    3   25 1     
   10    3   26 1     
   11    4    5 1     
   12    4   17 1     
   13    5    6 2     
   14    5    7 2     
   15    5    8 1     
   16    8    9 1     
   17    8   27 1     
   18    9   10 1     
   19    9   28 1     
   20    9   29 1     
   21   10   11 1     
   22   10   30 1     
   23   10   31 1     
   24   11   16 ar    
   25   11   12 ar    
   26   12   13 ar    
   27   12   32 1     
   28   13   14 ar    
   29   13   33 1     
   30   14   15 ar    
   31   14   34 1     
   32   15   16 ar    
   33   15   35 1     
   34   17   18 1     
   35   17   36 1     
   36   17   37 1     
   37   18   19 1     
   38   18   20 1     
   39   18   38 1     
   40   19   39 1     
   41   19   40 1     
   42   19   41 1     
   43    4   42 1     
   44    8   43 1     
   45   16   44 1     
   46   20   45 1     
   47   20   46 1     
@<TRIPOS>SUBSTRUCTURE
      1 S1             1
@<TRIPOS>SET
LONE_PAIRS      STATIC     ATOMS    <user>   **** ""
7 42 6 7 43 44 45 46
DONOR_HYDROGENS      STATIC     ATOMS    <user>   **** ""
1 27
ATOM$BLUE        STATIC     ATOMS    COLORGROUP SYSTEM
7 42 6 7 43 44 45 46
ATOM$RED        STATIC     ATOMS    COLORGROUP SYSTEM
1 27
