AV-unprocessed.smi:1041|AV-procd|sdf|4530|dock6
  -GOLD-   22720 2553D 1   1.00000     0.00000
 Structure written by MMmdl.
 53 54  0  0  0  0  0  0  0  0  2 V2000
  144.0744  132.0827  150.3904 C   0  0  0  0  0  0  0  0  0  0  0  0
  144.3310  133.0934  151.3500 O   0  0  0  0  0  0  0  0  0  0  0  0
  145.6001  133.7002  151.1731 C   0  0  0  0  0  0  0  0  0  0  0  0
  146.6528  132.8918  151.9472 C   0  0  0  0  0  0  0  0  0  0  0  0
  147.5351  133.7512  152.7774 N   0  3  2  0  0  0  0  0  0  0  0  0
  148.7531  133.0315  153.2299 C   0  0  0  0  0  0  0  0  0  0  0  0
  149.7186  133.9753  153.9653 C   0  0  0  0  0  0  0  0  0  0  0  0
  149.0311  134.6643  155.1612 C   0  0  1  0  0  0  0  0  0  0  0  0
  149.9625  135.6482  155.8943 C   0  0  0  0  0  0  0  0  0  0  0  0
  149.9038  136.9714  155.2884 N   0  0  0  0  0  0  0  0  0  0  0  0
  150.9597  137.6657  154.8422 C   0  0  0  0  0  0  0  0  0  0  0  0
  152.1102  137.2296  154.8406 O   0  0  0  0  0  0  0  0  0  0  0  0
  150.6681  139.0762  154.3293 C   0  0  0  0  0  0  0  0  0  0  0  0
  150.7666  140.1790  155.3823 C   0  0  0  0  0  0  0  0  0  0  0  0
  149.9021  141.2240  155.4370 C   0  0  0  0  0  0  0  0  0  0  0  0
  148.7415  141.4267  154.4788 C   0  0  0  0  0  0  0  0  0  0  0  0
  150.0296  142.2093  156.3998 N   0  0  0  0  0  0  0  0  0  0  0  0
  151.0695  142.0986  157.3075 C   0  0  0  0  0  0  0  0  0  0  0  0
  151.1177  143.2261  158.3154 C   0  0  0  0  0  0  0  0  0  0  0  0
  151.9482  141.1430  157.3341 N   0  0  0  0  0  0  0  0  0  0  0  0
  151.8642  140.1188  156.3770 C   0  0  0  0  0  0  0  0  0  0  0  0
  152.6920  139.2086  156.3676 O   0  0  0  0  0  0  0  0  0  0  0  0
  147.7563  135.3677  154.6651 C   0  0  0  0  0  0  0  0  0  0  0  0
  146.8298  134.3939  153.9178 C   0  0  0  0  0  0  0  0  0  0  0  0
  149.3626  142.9678  156.4060 H   0  0  0  0  0  0  0  0  0  0  0  0
  143.0911  131.6479  150.5689 H   0  0  0  0  0  0  0  0  0  0  0  0
  144.8126  131.2820  150.4532 H   0  0  0  0  0  0  0  0  0  0  0  0
  144.0837  132.4882  149.3780 H   0  0  0  0  0  0  0  0  0  0  0  0
  145.8479  133.7736  150.1143 H   0  0  0  0  0  0  0  0  0  0  0  0
  145.5714  134.7187  151.5634 H   0  0  0  0  0  0  0  0  0  0  0  0
  146.1707  132.1443  152.5786 H   0  0  0  0  0  0  0  0  0  0  0  0
  147.2517  132.3391  151.2219 H   0  0  0  0  0  0  0  0  0  0  0  0
  148.4682  132.2027  153.8801 H   0  0  0  0  0  0  0  0  0  0  0  0
  149.2667  132.5986  152.3707 H   0  0  0  0  0  0  0  0  0  0  0  0
  150.5875  133.4066  154.2985 H   0  0  0  0  0  0  0  0  0  0  0  0
  150.0927  134.7282  153.2701 H   0  0  0  0  0  0  0  0  0  0  0  0
  148.7326  133.8922  155.8725 H   0  0  0  0  0  0  0  0  0  0  0  0
  149.6863  135.7014  156.9491 H   0  0  0  0  0  0  0  0  0  0  0  0
  150.9936  135.2951  155.8530 H   0  0  0  0  0  0  0  0  0  0  0  0
  148.9957  137.4103  155.2380 H   0  0  0  0  0  0  0  0  0  0  0  0
  151.3631  139.2978  153.5189 H   0  0  0  0  0  0  0  0  0  0  0  0
  149.6855  139.0827  153.8561 H   0  0  0  0  0  0  0  0  0  0  0  0
  148.0356  140.5997  154.5542 H   0  0  0  0  0  0  0  0  0  0  0  0
  149.1006  141.4819  153.4510 H   0  0  0  0  0  0  0  0  0  0  0  0
  148.1996  142.3489  154.6928 H   0  0  0  0  0  0  0  0  0  0  0  0
  151.9137  143.0652  159.0434 H   0  0  0  0  0  0  0  0  0  0  0  0
  150.1726  143.2957  158.8549 H   0  0  0  0  0  0  0  0  0  0  0  0
  151.3014  144.1761  157.8128 H   0  0  0  0  0  0  0  0  0  0  0  0
  147.2210  135.8061  155.5082 H   0  0  0  0  0  0  0  0  0  0  0  0
  148.0224  136.1950  154.0054 H   0  0  0  0  0  0  0  0  0  0  0  0
  145.9572  134.9424  153.5656 H   0  0  0  0  0  0  0  0  0  0  0  0
  146.4638  133.6260  154.6013 H   0  0  0  0  0  0  0  0  0  0  0  0
  147.8571  134.4934  152.1721 H   0  0  0  0  0  0  0  0  0  0  0  0
  1  2  1  0  0  0  0
  1 26  1  0  0  0  0
  1 27  1  0  0  0  0
  1 28  1  0  0  0  0
  2  3  1  0  0  0  0
  3  4  1  0  0  0  0
  3 29  1  0  0  0  0
  3 30  1  0  0  0  0
  4  5  1  0  0  0  0
  4 31  1  0  0  0  0
  4 32  1  0  0  0  0
  5 24  1  0  0  0  0
  5  6  1  0  0  0  0
  5 53  1  0  0  0  0
  6  7  1  0  0  0  0
  6 33  1  0  0  0  0
  6 34  1  0  0  0  0
  7  8  1  0  0  0  0
  7 35  1  0  0  0  0
  7 36  1  0  0  0  0
  8  9  1  0  0  0  0
  8 23  1  0  0  0  0
  8 37  1  0  0  0  0
  9 10  1  0  0  0  0
  9 38  1  0  0  0  0
  9 39  1  0  0  0  0
 10 11  1  0  0  0  0
 10 40  1  0  0  0  0
 11 12  2  0  0  0  0
 11 13  1  0  0  0  0
 13 41  1  0  0  0  0
 13 42  1  0  0  0  0
 13 14  1  0  0  0  0
 14 21  1  0  0  0  0
 14 15  2  0  0  0  0
 15 16  1  0  0  0  0
 15 17  1  0  0  0  0
 16 43  1  0  0  0  0
 16 44  1  0  0  0  0
 16 45  1  0  0  0  0
 17 25  1  0  0  0  0
 17 18  1  0  0  0  0
 18 19  1  0  0  0  0
 18 20  2  0  0  0  0
 19 46  1  0  0  0  0
 19 47  1  0  0  0  0
 19 48  1  0  0  0  0
 20 21  1  0  0  0  0
 21 22  2  0  0  0  0
 23 24  1  0  0  0  0
 23 49  1  0  0  0  0
 23 50  1  0  0  0  0
 24 51  1  0  0  0  0
 24 52  1  0  0  0  0
M  CHG  1   5   1
M  END
> <s_m_source_file>
AV-unprocessed.smi

> <i_m_source_file_index>
1041

> <i_lp_mmshare_version>
43012

> <i_f3d_flags>
0

> <s_epik_input>
W0NIM11PW0NIMl1bQ0gyXU4xW0NIMl1bQ0gyXVtDSF0oW0NIMl1bQ0gyXTEpW0NIMl1bTkhdQyg9TylbQ0gyXWMyYyhbQ0gzXSluYyhbQ0gzXSlbbkhdYzI9Tw==

> <s_epik_cmdline>
J2VwaWtfcHl0aG9uJywgJy1waCcsICc3LjAnLCAnLXRuJywgJzgnLCAnLW1hJywgJzIwMCcsICctbWV0YWxfYmluZGluZycsICctaW1hZScsICc8aW5maWxlLm1hZT4nLCAnLW9tYWUnLCAnPG91dGZpbGUubWFlPic=

> <r_lp_tautomer_probability>
0.156392

> <r_epik_Ionization_Penalty>
0.0240251

> <r_epik_Ionization_Penalty_Charging>
0.0239146

> <r_epik_Ionization_Penalty_Neutral>
0.000110474

> <r_epik_State_Penalty>
1.15942

> <r_epik_Charging_Adjusted_Penalty>
1.18333

> <i_epik_Tot_Q>
1

> <i_epik_Tot_abs_Q>
1

> <r_epik_Metal_State_Penalty>
1.33297

> <b_epik_Metal_Only>
0

> <s_lp_Force_Field>
OPLS_2005

> <r_lp_Energy>
24.2188

> <b_lp_Chiralities_Consistent>
1

> <s_lp_Variant>
AV-unprocessed.smi:1041-3

> <Gold.Version>
5.8.1

> <Gold.Id.Protein>
6NUR|6NUR_protein|mol2

> <Gold.PLP.Fitness>
54.6450

> <Gold.PLP.PLP>
-43.0687

> <Gold.PLP.part.hbond>
-4.0000

> <Gold.PLP.part.metal>
0.0000

> <Gold.PLP.part.buried>
-3.5529

> <Gold.PLP.part.nonpolar>
-34.5855

> <Gold.PLP.part.repulsive>
0.3199

> <Gold.PLP.ligand.clash>
0.0000

> <Gold.PLP.ligand.torsion>
1.5539

> <Gold.PLP.Chemscore.Hbond>
4.8640

> <Gold.PLP.Chemscore.CHOScore>
0.0000

> <Gold.PLP.Chemscore.Metal>
0.0000

> <Gold.Chemscore.Hbonds>
donor molecule, donor type, donor heavy atom, donor atom, acceptor molecule, acceptor atom, score
      L1  H     5    53       P1  7948  2.00
      L1  H    17    25       P1  8028  0.93
      P1  H  7997  8009       L1    22  1.00
      P1  H 10752 10763       L1    12  0.85

> <Gold.PLP.Chemscore.Internal.Correction>
0.0921

> <Gold.Rescore>
     Score         DG    S(hbond)    S(metal)    S(lipo)     H(rot)  DE(clash)    DE(int)     intcor
     14.99     -19.30       3.08        0.00      83.50       2.43       0.15       4.16       ----

> <Gold.Chemscore.Fitness>
14.9863

> <Gold.Chemscore.DG>
-19.3029

> <Gold.Chemscore.ZeroCoef>
-5.4800

> <Gold.Chemscore.Hbond>
3.0756

> <Gold.Chemscore.Metal>
0.0000

> <Gold.Chemscore.Lipo>
83.4961

> <Gold.Chemscore.Internal_Hbond>
0.0000

> <Gold.Chemscore.DEClash>
0.1537

> <Gold.Chemscore.DEInternal>
4.1629

> <Gold.Chemscore.Rot>
2.4291

> <Gold.Chemscore.Internal.Correction>
   9.000000E+99

> <Gold.Chemscore.Hbonds>
donor molecule, donor type, donor heavy atom, donor atom, acceptor molecule, acceptor atom, score
      L1  H     5    53       P1  7948  0.31
      L1  H    17    25       P1  8028  0.88
      P1  H  7997  8009       L1    22  0.50
      P1  H 10752 10763       L1    12  0.83

> <Gold.Chemscore.Hbond.Weighted>
-10.2724

> <Gold.Chemscore.Metal.Weighted>
-0.0000

> <Gold.Chemscore.Lipo.Weighted>
-9.7690

> <Gold.Chemscore.Internal_Hbond.Weighted>
0.0000

> <Gold.Chemscore.DEClash.Weighted>
0.1537

> <Gold.Chemscore.DEInternal.Weighted>
4.1629

> <Gold.Chemscore.Rot.Weighted>
6.2186

> <Gold.Chemscore.Internal.Correction.Weighted>
   9.000000E+99

> <Gold.Protein.RotatedTorsions>
[ 6907 6896 6895 6894 ] final  147.08 input  -60.11 | X-H torsion
[ 7974 7965 7964 7962 ] final   15.66 input  175.53 | X-H torsion
[ 8008 7997 7996 7995 ] final -179.81 input   59.86 | X-H torsion
[ 10167 10162 10161 10158 ] final  -44.64 input  -65.29 | X-H torsion
[ 10718 10713 10712 10709 ] final   58.06 input   66.30 | X-H torsion
[ 10763 10752 10751 10750 ] final   55.39 input  -60.55 | X-H torsion
[ 11005 11000 10999 10996 ] final -150.59 input  -57.11 | X-H torsion

> <Gold.Protein.ActiveResidues>
 VAL166  LYS551  ARG553  GLY616  TRP617  ASP618  TYR619  PRO620  LYS621  CYS622 
 ASP623  PHE694  ASN695  SER759  ASP760  ASP761  ALA762  ILE779  LEU786  VAL792 
 PHE793  MET794  SER795  GLU796  ALA797  LYS798  CYS799  TRP800  GLU811  SER814 

> <Gold.Protein.RotatedAtoms>
  152.1595  133.4573  159.4853 H   0  0  0  0  0  0  0  0  0  0  0  0  # atno 6907 bound_to 6896
  150.6905  134.2089  159.4360 H   0  0  0  0  0  0  0  0  0  0  0  0  # atno 6908 bound_to 6896
  151.9990  134.9938  160.0615 H   0  0  0  0  0  0  0  0  0  0  0  0  # atno 6909 bound_to 6896
  146.2272  139.8862  142.8562 H   0  0  0  0  0  0  0  0  0  0  0  0  # atno 7974 bound_to 7965
  156.0348  140.1290  157.0219 H   0  0  0  0  0  0  0  0  0  0  0  0  # atno 8008 bound_to 7997
  154.4365  140.1042  156.6222 H   0  0  0  0  0  0  0  0  0  0  0  0  # atno 8009 bound_to 7997
  155.5753  140.3467  155.4528 H   0  0  0  0  0  0  0  0  0  0  0  0  # atno 8010 bound_to 7997
  140.6889  143.2920  151.3524 H   0  0  0  0  0  0  0  0  0  0  0  0  # atno 10167 bound_to 10162
  157.5565  130.8804  149.9044 H   0  0  0  0  0  0  0  0  0  0  0  0  # atno 10718 bound_to 10713
  152.9816  135.5712  154.5059 H   0  0  0  0  0  0  0  0  0  0  0  0  # atno 10763 bound_to 10752
  154.4571  135.2780  155.1742 H   0  0  0  0  0  0  0  0  0  0  0  0  # atno 10764 bound_to 10752
  154.3345  135.6242  153.5620 H   0  0  0  0  0  0  0  0  0  0  0  0  # atno 10765 bound_to 10752
  140.7386  134.3540  157.5152 H   0  0  0  0  0  0  0  0  0  0  0  0  # atno 11005 bound_to 11000
  145.2463  141.0028  143.3907 LP  0  0  0  0  0  0  0  0  0  0  0  0  # atno 17320 bound_to 7965
  144.9411  139.4188  143.6448 LP  0  0  0  0  0  0  0  0  0  0  0  0  # atno 17321 bound_to 7965
  139.6272  144.0790  152.2445 LP  0  0  0  0  0  0  0  0  0  0  0  0  # atno 17342 bound_to 10162
  140.0254  144.6122  150.7532 LP  0  0  0  0  0  0  0  0  0  0  0  0  # atno 17343 bound_to 10162
  156.0624  130.3698  150.0954 LP  0  0  0  0  0  0  0  0  0  0  0  0  # atno 17370 bound_to 10713
  156.9122  130.9655  151.3561 LP  0  0  0  0  0  0  0  0  0  0  0  0  # atno 17371 bound_to 10713
  139.8811  134.9065  156.2925 LP  0  0  0  0  0  0  0  0  0  0  0  0  # atno 17394 bound_to 11000
  140.9857  133.7239  156.0739 LP  0  0  0  0  0  0  0  0  0  0  0  0  # atno 17395 bound_to 11000

$$$$
