AV-unprocessed.smi:2655|AV-procd|sdf|10302|dock1
  -GOLD-   2272014313D 1   1.00000     0.00000
 Structure written by MMmdl.
 33 34  0  0  0  0  0  0  0  0  2 V2000
  150.0833  140.8071  155.4757 C   0  0  0  0  0  0  0  0  0  0  0  0
  151.2665  139.9577  155.8881 C   0  0  0  0  0  0  0  0  0  0  0  0
  152.1744  140.4134  156.8091 N   0  0  0  0  0  0  0  0  0  0  0  0
  153.1487  139.4460  157.0102 N   0  5  0  0  0  0  0  0  0  0  0  0
  152.8199  138.4082  156.2001 C   0  0  0  0  0  0  0  0  0  0  0  0
  153.4250  137.3451  156.0740 O   0  0  0  0  0  0  0  0  0  0  0  0
  151.6131  138.7402  155.4748 C   0  0  0  0  0  0  0  0  0  0  0  0
  150.9113  137.8318  154.4827 C   0  0  0  0  0  0  0  0  0  0  0  0
  150.7604  136.3990  155.0185 C   0  0  0  0  0  0  0  0  0  0  0  0
  149.8992  135.5947  154.1598 N   0  0  0  0  0  0  0  0  0  0  0  0
  149.5182  134.3352  154.4165 C   0  0  0  0  0  0  0  0  0  0  0  0
  149.8637  133.7136  155.4215 O   0  0  0  0  0  0  0  0  0  0  0  0
  148.7258  133.8593  153.4413 N   0  0  0  0  0  0  0  0  0  0  0  0
  148.1064  132.5858  153.3515 C   0  0  0  0  0  0  0  0  0  0  0  0
  147.1626  132.1734  152.3661 C   0  0  0  0  0  0  0  0  0  0  0  0
  146.8912  130.8829  152.7229 C   0  0  0  0  0  0  0  0  0  0  0  0
  145.9984  129.8381  152.1466 C   0  0  0  0  0  0  0  0  0  0  0  0
  147.6038  130.5370  153.8285 O   0  0  0  0  0  0  0  0  0  0  0  0
  148.3797  131.6328  154.2237 N   0  0  0  0  0  0  0  0  0  0  0  0
  150.0994  140.9775  154.3989 H   0  0  0  0  0  0  0  0  0  0  0  0
  150.1014  141.7751  155.9773 H   0  0  0  0  0  0  0  0  0  0  0  0
  149.1505  140.3045  155.7317 H   0  0  0  0  0  0  0  0  0  0  0  0
  151.4804  137.8250  153.5526 H   0  0  0  0  0  0  0  0  0  0  0  0
  149.9344  138.2547  154.2447 H   0  0  0  0  0  0  0  0  0  0  0  0
  151.7380  135.9247  155.1209 H   0  0  0  0  0  0  0  0  0  0  0  0
  150.3196  136.4173  156.0156 H   0  0  0  0  0  0  0  0  0  0  0  0
  149.5707  136.0308  153.3106 H   0  0  0  0  0  0  0  0  0  0  0  0
  148.5379  134.4853  152.6722 H   0  0  0  0  0  0  0  0  0  0  0  0
  146.7455  132.7165  151.5317 H   0  0  0  0  0  0  0  0  0  0  0  0
  145.6331  130.1373  151.1640 H   0  0  0  0  0  0  0  0  0  0  0  0
  145.1359  129.6687  152.7912 H   0  0  0  0  0  0  0  0  0  0  0  0
  146.5297  128.8927  152.0356 H   0  0  0  0  0  0  0  0  0  0  0  0
  152.1325  141.3095  157.2731 H   0  0  0  0  0  0  0  0  0  0  0  0
  1 20  1  0  0  0  0
  1 21  1  0  0  0  0
  1 22  1  0  0  0  0
  1  2  1  0  0  0  0
  2  7  2  0  0  0  0
  2  3  1  0  0  0  0
  3  4  1  0  0  0  0
  3 33  1  0  0  0  0
  4  5  1  0  0  0  0
  5  7  1  0  0  0  0
  5  6  2  0  0  0  0
  7  8  1  0  0  0  0
  8  9  1  0  0  0  0
  8 23  1  0  0  0  0
  8 24  1  0  0  0  0
  9 10  1  0  0  0  0
  9 25  1  0  0  0  0
  9 26  1  0  0  0  0
 10 11  1  0  0  0  0
 10 27  1  0  0  0  0
 11 12  2  0  0  0  0
 11 13  1  0  0  0  0
 13 14  1  0  0  0  0
 13 28  1  0  0  0  0
 14 19  2  0  0  0  0
 14 15  1  0  0  0  0
 15 16  2  0  0  0  0
 15 29  1  0  0  0  0
 16 17  1  0  0  0  0
 16 18  1  0  0  0  0
 17 30  1  0  0  0  0
 17 31  1  0  0  0  0
 17 32  1  0  0  0  0
 18 19  1  0  0  0  0
M  CHG  1   4  -1
M  END
> <s_m_source_file>
AV-unprocessed.smi

> <i_m_source_file_index>
2655

> <i_lp_mmshare_version>
43012

> <i_f3d_flags>
0

> <s_epik_input>
W0NIM11DMT1OW05IXUMoPU8pW0NASF0xW0NIMl1bQ0gyXVtOSF1DKD1PKVtOSF1jMltjSF1jKFtDSDNdKW9uMg==

> <s_epik_cmdline>
J2VwaWtfcHl0aG9uJywgJy1waCcsICc3LjAnLCAnLXRuJywgJzgnLCAnLW1hJywgJzIwMCcsICctbWV0YWxfYmluZGluZycsICctaW1hZScsICc8aW5maWxlLm1hZT4nLCAnLW9tYWUnLCAnPG91dGZpbGUubWFlPic=

> <r_lp_tautomer_probability>
0.00220696

> <r_epik_Ionization_Penalty>
4.81787

> <r_epik_Ionization_Penalty_Charging>
2.1236

> <r_epik_Ionization_Penalty_Neutral>
2.69427

> <r_epik_State_Penalty>
2.7337

> <r_epik_Charging_Adjusted_Penalty>
4.8573

> <i_epik_Tot_Q>
-1

> <i_epik_Tot_abs_Q>
1

> <r_epik_Metal_State_Penalty>
2.0342

> <b_epik_Metal_Only>
1

> <s_lp_Force_Field>
OPLS_2005

> <r_lp_Energy>
14.0901

> <b_lp_Chiralities_Consistent>
1

> <s_lp_Variant>
AV-unprocessed.smi:2655-5

> <Gold.Version>
5.8.1

> <Gold.Id.Protein>
6NUR|6NUR_protein|mol2

> <Gold.PLP.Fitness>
41.0741

> <Gold.PLP.PLP>
-28.6201

> <Gold.PLP.part.hbond>
-4.8168

> <Gold.PLP.part.metal>
0.0000

> <Gold.PLP.part.buried>
0.6198

> <Gold.PLP.part.nonpolar>
-23.8179

> <Gold.PLP.part.repulsive>
0.3615

> <Gold.PLP.ligand.clash>
0.0000

> <Gold.PLP.ligand.torsion>
0.1874

> <Gold.PLP.Chemscore.Hbond>
4.2728

> <Gold.PLP.Chemscore.CHOScore>
0.0000

> <Gold.PLP.Chemscore.Metal>
0.0000

> <Gold.Chemscore.Hbonds>
donor molecule, donor type, donor heavy atom, donor atom, acceptor molecule, acceptor atom, score
      L1  H    10    27       P1  7948  0.95
      L1  H    13    28       P1  7948  0.68
      P1  H  7997  8008       L1     4  1.89
      P1  H 10752 10765       L1     6  0.42

> <Gold.PLP.Chemscore.Internal.Correction>
0.0106

> <Gold.Rescore>
     Score         DG    S(hbond)    S(metal)    S(lipo)     H(rot)  DE(clash)    DE(int)     intcor
     12.57     -15.10       2.57        0.00      49.42       1.85       0.00       2.53       ----

> <Gold.Chemscore.Fitness>
12.5744

> <Gold.Chemscore.DG>
-15.1026

> <Gold.Chemscore.ZeroCoef>
-5.4800

> <Gold.Chemscore.Hbond>
2.5679

> <Gold.Chemscore.Metal>
0.0000

> <Gold.Chemscore.Lipo>
49.4241

> <Gold.Chemscore.Internal_Hbond>
0.0000

> <Gold.Chemscore.DEClash>
0.0013

> <Gold.Chemscore.DEInternal>
2.5269

> <Gold.Chemscore.Rot>
1.8504

> <Gold.Chemscore.Internal.Correction>
   9.000000E+99

> <Gold.Chemscore.Hbonds>
donor molecule, donor type, donor heavy atom, donor atom, acceptor molecule, acceptor atom, score
      L1  H    10    27       P1  7948  0.20
      L1  H    13    28       P1  7948  0.08
      P1  H  7997  8008       L1     4  0.14
      P1  H 10752 10765       L1     6  0.40

> <Gold.Chemscore.Hbond.Weighted>
-8.5769

> <Gold.Chemscore.Metal.Weighted>
-0.0000

> <Gold.Chemscore.Lipo.Weighted>
-5.7826

> <Gold.Chemscore.Internal_Hbond.Weighted>
0.0000

> <Gold.Chemscore.DEClash.Weighted>
0.0013

> <Gold.Chemscore.DEInternal.Weighted>
2.5269

> <Gold.Chemscore.Rot.Weighted>
4.7369

> <Gold.Chemscore.Internal.Correction.Weighted>
   9.000000E+99

> <Gold.Protein.RotatedTorsions>
[ 6907 6896 6895 6894 ] final -138.52 input  -60.11 | X-H torsion
[ 7974 7965 7964 7962 ] final   14.15 input  175.53 | X-H torsion
[ 8008 7997 7996 7995 ] final  -43.46 input   59.86 | X-H torsion
[ 10167 10162 10161 10158 ] final  153.46 input  -65.29 | X-H torsion
[ 10718 10713 10712 10709 ] final  174.55 input   66.30 | X-H torsion
[ 10763 10752 10751 10750 ] final -130.82 input  -60.55 | X-H torsion
[ 11005 11000 10999 10996 ] final  128.71 input  -57.11 | X-H torsion

> <Gold.Protein.ActiveResidues>
 VAL166  LYS551  ARG553  GLY616  TRP617  ASP618  TYR619  PRO620  LYS621  CYS622 
 ASP623  PHE694  ASN695  SER759  ASP760  ASP761  ALA762  ILE779  LEU786  VAL792 
 PHE793  MET794  SER795  GLU796  ALA797  LYS798  CYS799  TRP800  GLU811  SER814 

> <Gold.Protein.RotatedAtoms>
  151.0361  133.5747  159.2655 H   0  0  0  0  0  0  0  0  0  0  0  0  # atno 6907 bound_to 6896
  151.2811  135.0713  159.9179 H   0  0  0  0  0  0  0  0  0  0  0  0  # atno 6908 bound_to 6896
  152.5355  134.0075  159.7977 H   0  0  0  0  0  0  0  0  0  0  0  0  # atno 6909 bound_to 6896
  146.2312  139.9084  142.8528 H   0  0  0  0  0  0  0  0  0  0  0  0  # atno 7974 bound_to 7965
  154.3997  140.1447  156.3522 H   0  0  0  0  0  0  0  0  0  0  0  0  # atno 8008 bound_to 7997
  155.8258  140.3467  155.5521 H   0  0  0  0  0  0  0  0  0  0  0  0  # atno 8009 bound_to 7997
  155.8240  140.0902  157.1823 H   0  0  0  0  0  0  0  0  0  0  0  0  # atno 8010 bound_to 7997
  139.4827  144.5271  151.7783 H   0  0  0  0  0  0  0  0  0  0  0  0  # atno 10167 bound_to 10162
  156.9480  131.0022  151.2955 H   0  0  0  0  0  0  0  0  0  0  0  0  # atno 10718 bound_to 10713
  154.8754  135.3850  154.4145 H   0  0  0  0  0  0  0  0  0  0  0  0  # atno 10763 bound_to 10752
  153.4855  135.7030  153.5919 H   0  0  0  0  0  0  0  0  0  0  0  0  # atno 10764 bound_to 10752
  153.4315  135.3877  155.2141 H   0  0  0  0  0  0  0  0  0  0  0  0  # atno 10765 bound_to 10752
  139.9575  134.9610  156.9041 H   0  0  0  0  0  0  0  0  0  0  0  0  # atno 11005 bound_to 11000
  145.2254  140.9952  143.4021 LP  0  0  0  0  0  0  0  0  0  0  0  0  # atno 17320 bound_to 7965
  144.9575  139.4016  143.6372 LP  0  0  0  0  0  0  0  0  0  0  0  0  # atno 17321 bound_to 7965
  140.4793  144.1473  150.5930 LP  0  0  0  0  0  0  0  0  0  0  0  0  # atno 17342 bound_to 10162
  140.4296  143.2574  151.9612 LP  0  0  0  0  0  0  0  0  0  0  0  0  # atno 17343 bound_to 10162
  157.5741  130.8331  149.8432 LP  0  0  0  0  0  0  0  0  0  0  0  0  # atno 17370 bound_to 10713
  156.0375  130.3747  150.1521 LP  0  0  0  0  0  0  0  0  0  0  0  0  # atno 17371 bound_to 10713
  140.5575  134.0567  155.7388 LP  0  0  0  0  0  0  0  0  0  0  0  0  # atno 17394 bound_to 11000
  141.1248  133.9400  157.2656 LP  0  0  0  0  0  0  0  0  0  0  0  0  # atno 17395 bound_to 11000

$$$$
