AV-unprocessed.smi:1602|AV-procd|sdf|6442|dock1
  -GOLD-   22720 7 93D 1   1.00000     0.00000
 Structure written by MMmdl.
 35 36  0  0  0  0  0  0  0  0  2 V2000
  150.2027  140.6829  157.7935 C   0  0  0  0  0  0  0  0  0  0  0  0
  151.6486  141.1481  157.5495 C   0  0  1  0  0  0  0  0  0  0  0  0
  152.3016  141.8257  158.7846 C   0  0  0  0  0  0  0  0  0  0  0  0
  151.8958  143.2073  159.0361 N   0  0  0  0  0  0  0  0  0  0  0  0
  152.3084  144.0579  160.0444 C   0  0  0  0  0  0  0  0  0  0  0  0
  151.6350  145.2359  159.8913 C   0  0  0  0  0  0  0  0  0  0  0  0
  150.8082  145.0061  158.7568 C   0  0  0  0  0  0  0  0  0  0  0  0
  150.9570  143.7917  158.2550 N   0  0  0  0  0  0  0  0  0  0  0  0
  152.4573  140.0158  157.1205 N   0  5  0  0  0  0  0  0  0  0  0  0
  151.9244  139.0488  155.9326 S   0  0  0  0  0  0  0  0  0  0  0  0
  151.0310  139.7164  154.9718 O   0  0  0  0  0  0  0  0  0  0  0  0
  152.9817  138.1774  155.3940 O   0  0  0  0  0  0  0  0  0  0  0  0
  150.9006  138.0375  156.9058 N   0  0  0  0  0  0  0  0  0  0  0  0
  151.3424  137.7873  158.2887 C   0  0  0  0  0  0  0  0  0  0  0  0
  150.2509  137.0770  159.1055 C   0  0  0  0  0  0  0  0  0  0  0  0
  149.8376  135.8913  158.4449 O   0  0  0  0  0  0  0  0  0  0  0  0
  149.2642  136.1823  157.1799 C   0  0  0  0  0  0  0  0  0  0  0  0
  150.3059  136.8460  156.2653 C   0  0  0  0  0  0  0  0  0  0  0  0
  149.5884  141.5026  158.1656 H   0  0  0  0  0  0  0  0  0  0  0  0
  150.1547  139.8722  158.5214 H   0  0  0  0  0  0  0  0  0  0  0  0
  149.7421  140.3237  156.8731 H   0  0  0  0  0  0  0  0  0  0  0  0
  151.6149  141.9090  156.7687 H   0  0  0  0  0  0  0  0  0  0  0  0
  152.1159  141.2337  159.6826 H   0  0  0  0  0  0  0  0  0  0  0  0
  153.3842  141.8274  158.6531 H   0  0  0  0  0  0  0  0  0  0  0  0
  153.0441  143.7567  160.7754 H   0  0  0  0  0  0  0  0  0  0  0  0
  151.7179  146.1244  160.4991 H   0  0  0  0  0  0  0  0  0  0  0  0
  150.1046  145.6790  158.2895 H   0  0  0  0  0  0  0  0  0  0  0  0
  152.2481  137.1803  158.2635 H   0  0  0  0  0  0  0  0  0  0  0  0
  151.6007  138.7292  158.7720 H   0  0  0  0  0  0  0  0  0  0  0  0
  150.6346  136.8156  160.0918 H   0  0  0  0  0  0  0  0  0  0  0  0
  149.3958  137.7361  159.2640 H   0  0  0  0  0  0  0  0  0  0  0  0
  148.9130  135.2535  156.7301 H   0  0  0  0  0  0  0  0  0  0  0  0
  148.3902  136.8246  157.3007 H   0  0  0  0  0  0  0  0  0  0  0  0
  149.8354  137.1141  155.3199 H   0  0  0  0  0  0  0  0  0  0  0  0
  151.1022  136.1380  156.0329 H   0  0  0  0  0  0  0  0  0  0  0  0
  1  2  1  0  0  0  0
  1 19  1  0  0  0  0
  1 20  1  0  0  0  0
  1 21  1  0  0  0  0
  2  3  1  0  0  0  0
  2  9  1  0  0  0  0
  2 22  1  0  0  0  0
  3  4  1  0  0  0  0
  3 23  1  0  0  0  0
  3 24  1  0  0  0  0
  4  8  1  0  0  0  0
  4  5  1  0  0  0  0
  5  6  2  0  0  0  0
  5 25  1  0  0  0  0
  6  7  1  0  0  0  0
  6 26  1  0  0  0  0
  7  8  2  0  0  0  0
  7 27  1  0  0  0  0
  9 10  1  0  0  0  0
 10 11  2  0  0  0  0
 10 12  2  0  0  0  0
 10 13  1  0  0  0  0
 13 18  1  0  0  0  0
 13 14  1  0  0  0  0
 14 15  1  0  0  0  0
 14 28  1  0  0  0  0
 14 29  1  0  0  0  0
 15 16  1  0  0  0  0
 15 30  1  0  0  0  0
 15 31  1  0  0  0  0
 16 17  1  0  0  0  0
 17 18  1  0  0  0  0
 17 32  1  0  0  0  0
 17 33  1  0  0  0  0
 18 34  1  0  0  0  0
 18 35  1  0  0  0  0
M  CHG  1   9  -1
M  END
> <s_m_source_file>
AV-unprocessed.smi

> <i_m_source_file_index>
1602

> <i_lp_mmshare_version>
43012

> <i_f3d_flags>
0

> <s_epik_input>
bjFbY0hdW2NIXVtjSF1uMVtDSDJdW0NAQEhdKFtDSDNdKVtOSF1TKD1PKSg9TylOMltDSDJdW0NIMl1PW0NIMl1bQ0gyXTI=

> <s_epik_cmdline>
J2VwaWtfcHl0aG9uJywgJy1waCcsICc3LjAnLCAnLXRuJywgJzgnLCAnLW1hJywgJzIwMCcsICctbWV0YWxfYmluZGluZycsICctaW1hZScsICc8aW5maWxlLm1hZT4nLCAnLW9tYWUnLCAnPG91dGZpbGUubWFlPic=

> <r_lp_tautomer_probability>
1

> <r_epik_Ionization_Penalty>
1.03144

> <r_epik_Ionization_Penalty_Charging>
1.03142

> <r_epik_Ionization_Penalty_Neutral>
2.21579e-05

> <r_epik_State_Penalty>
1.0826

> <r_epik_Charging_Adjusted_Penalty>
2.11402

> <i_epik_Tot_Q>
-1

> <i_epik_Tot_abs_Q>
1

> <r_epik_Metal_State_Penalty>
0.386234

> <b_epik_Metal_Only>
0

> <s_lp_Force_Field>
OPLS_2005

> <r_lp_Energy>
7.84511

> <b_lp_Chiralities_Consistent>
1

> <s_lp_Variant>
AV-unprocessed.smi:1602-4

> <Gold.Version>
5.8.1

> <Gold.Id.Protein>
6NUR|6NUR_protein|mol2

> <Gold.PLP.Fitness>
45.3606

> <Gold.PLP.PLP>
-31.5194

> <Gold.PLP.part.hbond>
-3.3211

> <Gold.PLP.part.metal>
0.0000

> <Gold.PLP.part.buried>
-6.0256

> <Gold.PLP.part.nonpolar>
-22.0225

> <Gold.PLP.part.repulsive>
0.2136

> <Gold.PLP.ligand.clash>
0.0000

> <Gold.PLP.ligand.torsion>
1.3529

> <Gold.PLP.Chemscore.Hbond>
4.0000

> <Gold.PLP.Chemscore.CHOScore>
1.0000

> <Gold.PLP.Chemscore.Metal>
0.0000

> <Gold.Chemscore.Hbonds>
donor molecule, donor type, donor heavy atom, donor atom, acceptor molecule, acceptor atom, score
      P1  H  6896  6907       L1    16  0.95
      P1  H  7989  7998       L1    11  1.00
      P1  H  7997  8010       L1     9  1.50
      L1  C     7    27       P1  8029  1.00

> <Gold.PLP.Chemscore.Internal.Correction>
1.5471

> <Gold.Rescore>
     Score         DG    S(hbond)    S(metal)    S(lipo)     H(rot)  DE(clash)    DE(int)     intcor
     14.80     -17.42       2.39        0.00      70.28       1.67       0.01       2.61       ----

> <Gold.Chemscore.Fitness>
14.8018

> <Gold.Chemscore.DG>
-17.4215

> <Gold.Chemscore.ZeroCoef>
-5.4800

> <Gold.Chemscore.Hbond>
2.3924

> <Gold.Chemscore.Metal>
0.0000

> <Gold.Chemscore.Lipo>
70.2839

> <Gold.Chemscore.Internal_Hbond>
0.0000

> <Gold.Chemscore.DEClash>
0.0073

> <Gold.Chemscore.DEInternal>
2.6124

> <Gold.Chemscore.Rot>
1.6688

> <Gold.Chemscore.Internal.Correction>
   9.000000E+99

> <Gold.Chemscore.Hbonds>
donor molecule, donor type, donor heavy atom, donor atom, acceptor molecule, acceptor atom, score
      P1  H  6896  6907       L1    16  0.21
      P1  H  7989  7998       L1    11  0.98
      P1  H  7997  8010       L1     9  0.09

> <Gold.Chemscore.Hbond.Weighted>
-7.9906

> <Gold.Chemscore.Metal.Weighted>
-0.0000

> <Gold.Chemscore.Lipo.Weighted>
-8.2232

> <Gold.Chemscore.Internal_Hbond.Weighted>
0.0000

> <Gold.Chemscore.DEClash.Weighted>
0.0073

> <Gold.Chemscore.DEInternal.Weighted>
2.6124

> <Gold.Chemscore.Rot.Weighted>
4.2722

> <Gold.Chemscore.Internal.Correction.Weighted>
   9.000000E+99

> <Gold.Protein.RotatedTorsions>
[ 6907 6896 6895 6894 ] final  -68.62 input  -60.11 | X-H torsion
[ 7974 7965 7964 7962 ] final  119.32 input  175.53 | X-H torsion
[ 8008 7997 7996 7995 ] final   72.47 input   59.86 | X-H torsion
[ 10167 10162 10161 10158 ] final  134.82 input  -65.29 | X-H torsion
[ 10718 10713 10712 10709 ] final   79.44 input   66.30 | X-H torsion
[ 10763 10752 10751 10750 ] final  172.53 input  -60.55 | X-H torsion
[ 11005 11000 10999 10996 ] final  -49.36 input  -57.11 | X-H torsion

> <Gold.Protein.ActiveResidues>
 VAL166  LYS551  ARG553  GLY616  TRP617  ASP618  TYR619  PRO620  LYS621  CYS622 
 ASP623  PHE694  ASN695  SER759  ASP760  ASP761  ALA762  ILE779  LEU786  VAL792 
 PHE793  MET794  SER795  GLU796  ALA797  LYS798  CYS799  TRP800  GLU811  SER814 

> <Gold.Protein.RotatedAtoms>
  150.7347  134.5713  159.5891 H   0  0  0  0  0  0  0  0  0  0  0  0  # atno 6907 bound_to 6896
  152.3151  134.7446  160.0336 H   0  0  0  0  0  0  0  0  0  0  0  0  # atno 6908 bound_to 6896
  151.7981  133.3331  159.3555 H   0  0  0  0  0  0  0  0  0  0  0  0  # atno 6909 bound_to 6896
  145.1445  139.3247  143.4598 H   0  0  0  0  0  0  0  0  0  0  0  0  # atno 7974 bound_to 7965
  155.7693  140.3485  155.5238 H   0  0  0  0  0  0  0  0  0  0  0  0  # atno 8008 bound_to 7997
  155.8838  140.1006  157.1488 H   0  0  0  0  0  0  0  0  0  0  0  0  # atno 8009 bound_to 7997
  154.4027  140.1317  156.4217 H   0  0  0  0  0  0  0  0  0  0  0  0  # atno 8010 bound_to 7997
  139.5241  144.6548  151.5194 H   0  0  0  0  0  0  0  0  0  0  0  0  # atno 10167 bound_to 10162
  157.6777  130.9914  150.1933 H   0  0  0  0  0  0  0  0  0  0  0  0  # atno 10718 bound_to 10713
  154.4273  135.2759  155.1936 H   0  0  0  0  0  0  0  0  0  0  0  0  # atno 10763 bound_to 10752
  154.3856  135.6077  153.5818 H   0  0  0  0  0  0  0  0  0  0  0  0  # atno 10764 bound_to 10752
  152.9835  135.5891  154.4579 H   0  0  0  0  0  0  0  0  0  0  0  0  # atno 10765 bound_to 10752
  141.0754  133.6667  156.3574 H   0  0  0  0  0  0  0  0  0  0  0  0  # atno 11005 bound_to 11000
  146.3501  140.1496  142.8592 LP  0  0  0  0  0  0  0  0  0  0  0  0  # atno 17320 bound_to 7965
  145.0496  140.9008  143.5003 LP  0  0  0  0  0  0  0  0  0  0  0  0  # atno 17321 bound_to 7965
  140.6369  143.8966  150.6656 LP  0  0  0  0  0  0  0  0  0  0  0  0  # atno 17342 bound_to 10162
  140.2288  143.3752  152.1583 LP  0  0  0  0  0  0  0  0  0  0  0  0  # atno 17343 bound_to 10162
  156.2640  130.3714  149.8101 LP  0  0  0  0  0  0  0  0  0  0  0  0  # atno 17370 bound_to 10713
  156.5838  130.8477  151.3390 LP  0  0  0  0  0  0  0  0  0  0  0  0  # atno 17371 bound_to 10713
  140.5584  134.5959  157.5427 LP  0  0  0  0  0  0  0  0  0  0  0  0  # atno 17394 bound_to 11000
  139.9567  134.7523  156.0327 LP  0  0  0  0  0  0  0  0  0  0  0  0  # atno 17395 bound_to 11000

$$$$
