#       Name:                AV-unprocessed.smi:1420
#       Creating user name   scv26
#       Creation time:       Fri Mar 27 05:43:35 2020


#       File generated by GOLD software.
#

@<TRIPOS>MOLECULE
AV-unprocessed.smi:1420
    44    45     1
SMALL
NO_CHARGES


@<TRIPOS>ATOM
      1 ****        -0.7738   1.9170  -1.1280 C.3            1 S1                 0.0000
      2 ****        -0.8716   0.4049  -0.8200 C.3            1 S1                 0.0000
      3 ****         0.4714  -0.1110  -0.2289 C.3            1 S1                 0.0000
      4 ****         0.9031   0.6324   0.9512 N.am           1 S1                 0.0000
      5 ****         0.3842   0.4969   2.1818 C.2            1 S1                 0.0000
      6 ****        -0.5341  -0.2782   2.4474 O.2            1 S1                 0.0000
      7 ****         0.9877   1.3750   3.2791 C.3            1 S1                 0.0000
      8 ****         2.3265   0.9348   3.6294 N.pl3          1 S1                 0.0000
      9 ****         2.6975  -0.0888   4.4767 C.2            1 S1                 0.0000
     10 ****         4.0622  -0.1323   4.4880 C.2            1 S1                 0.0000
     11 ****         4.4416   0.9176   3.6054 C.2            1 S1                 0.0000
     12 ****         3.4010   1.5538   3.0920 N.2            1 S1                 0.0000
     13 ****        -1.3211  -0.3442  -2.0398 N.4            1 S1                 1.0000
     14 ****        -1.0172  -1.8022  -2.0481 C.3            1 S1                 0.0000
     15 ****        -1.4983  -2.4648  -3.3511 C.3            1 S1                 0.0000
     16 ****        -2.8875  -2.2340  -3.5287 O.3            1 S1                 0.0000
     17 ****        -3.1728  -0.8479  -3.6384 C.3            1 S1                 0.0000
     18 ****        -2.7653  -0.1375  -2.3377 C.3            1 S1                 0.0000
     19 ****        -0.4756   2.4915  -0.2511 H              1 S1                 0.0000
     20 ****        -1.7220   2.3431  -1.4503 H              1 S1                 0.0000
     21 ****        -0.0404   2.1108  -1.9113 H              1 S1                 0.0000
     22 ****        -1.6353   0.2617  -0.0539 H              1 S1                 0.0000
     23 ****         0.4042  -1.1605   0.0604 H              1 S1                 0.0000
     24 ****         1.2622  -0.0403  -0.9765 H              1 S1                 0.0000
     25 ****         1.6600   1.2903   0.8281 H              1 S1                 0.0000
     26 ****         1.0176   2.4153   2.9506 H              1 S1                 0.0000
     27 ****         0.3631   1.3389   4.1729 H              1 S1                 0.0000
     28 ****         1.9671  -0.6943   4.9935 H              1 S1                 0.0000
     29 ****         4.6935  -0.8107   5.0425 H              1 S1                 0.0000
     30 ****         5.4353   1.2336   3.3239 H              1 S1                 0.0000
     31 ****         0.0558  -1.9760  -1.9763 H              1 S1                 0.0000
     32 ****        -1.4879  -2.2800  -1.1873 H              1 S1                 0.0000
     33 ****        -0.9413  -2.0852  -4.2093 H              1 S1                 0.0000
     34 ****        -1.3228  -3.5401  -3.3110 H              1 S1                 0.0000
     35 ****        -2.6550  -0.4191  -4.4981 H              1 S1                 0.0000
     36 ****        -4.2411  -0.7219  -3.8153 H              1 S1                 0.0000
     37 ****        -3.3662  -0.5164  -1.5092 H              1 S1                 0.0000
     38 ****        -3.0001   0.9202  -2.4388 H              1 S1                 0.0000
     39 ****        -0.8036   0.0457  -2.8147 H              1 S1                 0.0000
     40 ****        -0.9318  -0.8475   1.7279 LP             1 S1                 0.0000
     41 ****        -0.8826  -0.3387   3.3828 LP             1 S1                 0.0000
     42 ****         3.4081   2.3207   2.4503 LP             1 S1                 0.0000
     43 ****        -3.3822  -2.6067  -2.7436 LP             1 S1                 0.0000
     44 ****        -3.1899  -2.6953  -4.3628 LP             1 S1                 0.0000
@<TRIPOS>BOND
    1    1    2 1     
    2    1   19 1     
    3    1   20 1     
    4    1   21 1     
    5    2    3 1     
    6    2   13 1     
    7    2   22 1     
    8    3    4 1     
    9    3   23 1     
   10    3   24 1     
   11    4    5 am    
   12    4   25 1     
   13    5    6 2     
   14    5    7 1     
   15    7    8 1     
   16    7   26 1     
   17    7   27 1     
   18    8   12 1     
   19    8    9 1     
   20    9   10 2     
   21    9   28 1     
   22   10   11 1     
   23   10   29 1     
   24   11   12 2     
   25   11   30 1     
   26   13   18 1     
   27   13   14 1     
   28   13   39 1     
   29   14   15 1     
   30   14   31 1     
   31   14   32 1     
   32   15   16 1     
   33   15   33 1     
   34   15   34 1     
   35   16   17 1     
   36   17   18 1     
   37   17   35 1     
   38   17   36 1     
   39   18   37 1     
   40   18   38 1     
   41    6   40 1     
   42    6   41 1     
   43   12   42 1     
   44   16   43 1     
   45   16   44 1     
@<TRIPOS>SUBSTRUCTURE
      1 S1             1
@<TRIPOS>SET
LONE_PAIRS      STATIC     ATOMS    <user>   **** ""
5 40 41 42 43 44
DONOR_HYDROGENS      STATIC     ATOMS    <user>   **** ""
2 25 39
ATOM$BLUE        STATIC     ATOMS    COLORGROUP SYSTEM
5 40 41 42 43 44
ATOM$RED        STATIC     ATOMS    COLORGROUP SYSTEM
2 25 39
