AV-unprocessed.smi:1695|AV-procd|sdf|6796|dock3
  -GOLD-   22720 7563D 1   1.00000     0.00000
 Structure written by MMmdl.
 52 54  0  0  0  0  0  0  0  0  3 V2000
  153.2511  141.9971  160.4862 C   0  0  0  0  0  0  0  0  0  0  0  0
  152.3938  141.7256  159.2613 C   0  0  0  0  0  0  0  0  0  0  0  0
  152.2563  140.3916  158.8166 C   0  0  0  0  0  0  0  0  0  0  0  0
  151.4663  140.1753  157.6938 C   0  0  0  0  0  0  0  0  0  0  0  0
  151.1343  138.9959  157.0245 N   0  3  0  0  0  0  0  0  0  0  0  0
  150.3211  139.2845  155.9715 C   0  0  0  0  0  0  0  0  0  0  0  0
  150.1383  140.6336  155.9492 N   0  0  0  0  0  0  0  0  0  0  0  0
  149.3408  141.4619  155.0296 C   0  0  0  0  0  0  0  0  0  0  0  0
  147.8138  141.2443  155.1336 C   0  0  1  0  0  0  0  0  0  0  0  0
  147.2901  142.0850  156.1432 O   0  0  0  0  0  0  0  0  0  0  0  0
  147.0636  141.5281  153.8131 C   0  0  0  0  0  0  0  0  0  0  0  0
  146.3809  140.3259  153.2685 N   0  3  1  0  0  0  0  0  0  0  0  0
  147.1451  139.6938  152.1622 C   0  0  0  0  0  0  0  0  0  0  0  0
  146.3472  138.5458  151.5210 C   0  0  0  0  0  0  0  0  0  0  0  0
  145.9491  137.4887  152.5688 C   0  0  2  0  0  0  0  0  0  0  0  0
  145.0981  136.3777  151.9393 C   0  0  0  0  0  0  0  0  0  0  0  0
  144.1069  136.7537  151.1273 N   0  0  0  0  0  0  0  0  0  0  0  0
  145.3316  135.1953  152.1824 O   0  0  0  0  0  0  0  0  0  0  0  0
  145.1917  138.1807  153.7179 C   0  0  0  0  0  0  0  0  0  0  0  0
  146.0189  139.3313  154.3134 C   0  0  0  0  0  0  0  0  0  0  0  0
  150.8255  141.2299  157.0144 C   0  0  0  0  0  0  0  0  0  0  0  0
  150.9487  142.5501  157.4424 C   0  0  0  0  0  0  0  0  0  0  0  0
  151.7476  142.7911  158.5831 C   0  0  0  0  0  0  0  0  0  0  0  0
  151.9006  144.2215  159.0715 C   0  0  0  0  0  0  0  0  0  0  0  0
  153.6563  141.0743  160.9026 H   0  0  0  0  0  0  0  0  0  0  0  0
  152.6635  142.4832  161.2653 H   0  0  0  0  0  0  0  0  0  0  0  0
  154.0907  142.6435  160.2298 H   0  0  0  0  0  0  0  0  0  0  0  0
  152.7433  139.5751  159.3296 H   0  0  0  0  0  0  0  0  0  0  0  0
  149.8982  138.5707  155.2794 H   0  0  0  0  0  0  0  0  0  0  0  0
  149.5741  142.5021  155.2603 H   0  0  0  0  0  0  0  0  0  0  0  0
  149.6918  141.2987  154.0098 H   0  0  0  0  0  0  0  0  0  0  0  0
  147.6542  140.2142  155.4497 H   0  0  0  0  0  0  0  0  0  0  0  0
  147.8114  142.8719  156.1899 H   0  0  0  0  0  0  0  0  0  0  0  0
  146.3311  142.3172  153.9906 H   0  0  0  0  0  0  0  0  0  0  0  0
  147.7502  141.9182  153.0600 H   0  0  0  0  0  0  0  0  0  0  0  0
  147.3714  140.4378  151.3972 H   0  0  0  0  0  0  0  0  0  0  0  0
  148.1004  139.3261  152.5402 H   0  0  0  0  0  0  0  0  0  0  0  0
  145.4581  138.9544  151.0374 H   0  0  0  0  0  0  0  0  0  0  0  0
  146.9422  138.0849  150.7312 H   0  0  0  0  0  0  0  0  0  0  0  0
  146.8600  137.0437  152.9735 H   0  0  0  0  0  0  0  0  0  0  0  0
  143.5177  136.0607  150.6890 H   0  0  0  0  0  0  0  0  0  0  0  0
  143.9487  137.7363  150.9542 H   0  0  0  0  0  0  0  0  0  0  0  0
  144.2363  138.5719  153.3631 H   0  0  0  0  0  0  0  0  0  0  0  0
  144.9569  137.4578  154.5005 H   0  0  0  0  0  0  0  0  0  0  0  0
  146.9269  138.9386  154.7741 H   0  0  0  0  0  0  0  0  0  0  0  0
  145.4434  139.8034  155.1088 H   0  0  0  0  0  0  0  0  0  0  0  0
  150.4594  143.3627  156.9263 H   0  0  0  0  0  0  0  0  0  0  0  0
  151.3648  144.9223  158.4305 H   0  0  0  0  0  0  0  0  0  0  0  0
  152.9507  144.5144  159.0796 H   0  0  0  0  0  0  0  0  0  0  0  0
  151.5041  144.3247  160.0820 H   0  0  0  0  0  0  0  0  0  0  0  0
  145.5174  140.6506  152.8574 H   0  0  0  0  0  0  0  0  0  0  0  0
  151.4332  138.0610  157.2718 H   0  0  0  0  0  0  0  0  0  0  0  0
  1  2  1  0  0  0  0
  1 25  1  0  0  0  0
  1 26  1  0  0  0  0
  1 27  1  0  0  0  0
  2 23  1  0  0  0  0
  2  3  2  0  0  0  0
  3  4  1  0  0  0  0
  3 28  1  0  0  0  0
  4 21  2  0  0  0  0
  4  5  1  0  0  0  0
  5  6  2  0  0  0  0
  5 52  1  0  0  0  0
  6  7  1  0  0  0  0
  6 29  1  0  0  0  0
  7  8  1  0  0  0  0
  7 21  1  0  0  0  0
  8  9  1  0  0  0  0
  8 30  1  0  0  0  0
  8 31  1  0  0  0  0
  9 10  1  0  0  0  0
  9 11  1  0  0  0  0
  9 32  1  0  0  0  0
 10 33  1  0  0  0  0
 11 12  1  0  0  0  0
 11 34  1  0  0  0  0
 11 35  1  0  0  0  0
 12 20  1  0  0  0  0
 12 13  1  0  0  0  0
 12 51  1  0  0  0  0
 13 14  1  0  0  0  0
 13 36  1  0  0  0  0
 13 37  1  0  0  0  0
 14 15  1  0  0  0  0
 14 38  1  0  0  0  0
 14 39  1  0  0  0  0
 15 16  1  0  0  0  0
 15 19  1  0  0  0  0
 15 40  1  0  0  0  0
 16 17  1  0  0  0  0
 16 18  2  0  0  0  0
 17 41  1  0  0  0  0
 17 42  1  0  0  0  0
 19 20  1  0  0  0  0
 19 43  1  0  0  0  0
 19 44  1  0  0  0  0
 20 45  1  0  0  0  0
 20 46  1  0  0  0  0
 21 22  1  0  0  0  0
 22 23  2  0  0  0  0
 22 47  1  0  0  0  0
 23 24  1  0  0  0  0
 24 48  1  0  0  0  0
 24 49  1  0  0  0  0
 24 50  1  0  0  0  0
M  CHG  1   5   1
M  CHG  1  12   1
M  END
> <s_m_source_file>
AV-unprocessed.smi

> <i_m_source_file_index>
1695

> <i_lp_mmshare_version>
43012

> <i_f3d_flags>
0

> <s_epik_input>
W0NIM11jKFtjSF0xKWMoW0NIM10pW2NIXWMoYzEyKW4oW2NIXW4yKVtDSDJdW0NASF0oW09IXSlbQ0gyXU4zW0NIMl1bQ0gyXVtDSF0oQyg9TylbTkgyXSlbQ0gyXVtDSDJdMw==

> <s_epik_cmdline>
J2VwaWtfcHl0aG9uJywgJy1waCcsICc3LjAnLCAnLXRuJywgJzgnLCAnLW1hJywgJzIwMCcsICctbWV0YWxfYmluZGluZycsICctaW1hZScsICc8aW5maWxlLm1hZT4nLCAnLW9tYWUnLCAnPG91dGZpbGUubWFlPic=

> <r_epik_Ionization_Penalty>
1.20173

> <r_epik_Ionization_Penalty_Charging>
1.20172

> <r_epik_Ionization_Penalty_Neutral>
1.7852e-06

> <r_epik_State_Penalty>
1.28089

> <r_epik_Charging_Adjusted_Penalty>
2.48261

> <i_epik_Tot_Q>
2

> <i_epik_Tot_abs_Q>
2

> <r_epik_Metal_State_Penalty>
1.35652

> <b_epik_Metal_Only>
0

> <s_lp_Force_Field>
OPLS_2005

> <r_lp_Energy>
30.0744

> <b_lp_Chiralities_Consistent>
1

> <s_lp_Variant>
AV-unprocessed.smi:1695-8

> <Gold.Version>
5.8.1

> <Gold.Id.Protein>
6NUR|6NUR_protein|mol2

> <Gold.PLP.Fitness>
52.8431

> <Gold.PLP.PLP>
-45.1253

> <Gold.PLP.part.hbond>
-3.0000

> <Gold.PLP.part.metal>
0.0000

> <Gold.PLP.part.buried>
0.5505

> <Gold.PLP.part.nonpolar>
-44.2079

> <Gold.PLP.part.repulsive>
0.1677

> <Gold.PLP.ligand.clash>
0.0589

> <Gold.PLP.ligand.torsion>
2.0282

> <Gold.PLP.Chemscore.Hbond>
3.9280

> <Gold.PLP.Chemscore.CHOScore>
0.0000

> <Gold.PLP.Chemscore.Metal>
0.0000

> <Gold.Chemscore.Hbonds>
donor molecule, donor type, donor heavy atom, donor atom, acceptor molecule, acceptor atom, score
      L1  H    10    33       P1  8028  0.63
      L1  H    12    51       P1 10175  2.00
      L1  H    17    42       P1 10171  0.54

> <Gold.PLP.Chemscore.Internal.Correction>
0.0490

> <Gold.Rescore>
     Score         DG    S(hbond)    S(metal)    S(lipo)     H(rot)  DE(clash)    DE(int)     intcor
     17.70     -21.16       2.61        0.00     123.23       2.91       0.96       2.50       ----

> <Gold.Chemscore.Fitness>
17.7020

> <Gold.Chemscore.DG>
-21.1598

> <Gold.Chemscore.ZeroCoef>
-5.4800

> <Gold.Chemscore.Hbond>
2.6104

> <Gold.Chemscore.Metal>
0.0000

> <Gold.Chemscore.Lipo>
123.2261

> <Gold.Chemscore.Internal_Hbond>
0.0000

> <Gold.Chemscore.DEClash>
0.9574

> <Gold.Chemscore.DEInternal>
2.5004

> <Gold.Chemscore.Rot>
2.9127

> <Gold.Chemscore.Internal.Correction>
   9.000000E+99

> <Gold.Chemscore.Hbonds>
donor molecule, donor type, donor heavy atom, donor atom, acceptor molecule, acceptor atom, score
      L1  H    10    33       P1  8028  0.25
      L1  H    12    51       P1 10175  0.58
      L1  H    17    42       P1 10171  0.54

> <Gold.Chemscore.Hbond.Weighted>
-8.7189

> <Gold.Chemscore.Metal.Weighted>
-0.0000

> <Gold.Chemscore.Lipo.Weighted>
-14.4175

> <Gold.Chemscore.Internal_Hbond.Weighted>
0.0000

> <Gold.Chemscore.DEClash.Weighted>
0.9574

> <Gold.Chemscore.DEInternal.Weighted>
2.5004

> <Gold.Chemscore.Rot.Weighted>
7.4565

> <Gold.Chemscore.Internal.Correction.Weighted>
   9.000000E+99

> <Gold.Protein.RotatedTorsions>
[ 6907 6896 6895 6894 ] final  123.24 input  -60.11 | X-H torsion
[ 7974 7965 7964 7962 ] final  157.65 input  175.53 | X-H torsion
[ 8008 7997 7996 7995 ] final   64.74 input   59.86 | X-H torsion
[ 10167 10162 10161 10158 ] final  -87.74 input  -65.29 | X-H torsion
[ 10718 10713 10712 10709 ] final   86.95 input   66.30 | X-H torsion
[ 10763 10752 10751 10750 ] final   20.48 input  -60.55 | X-H torsion
[ 11005 11000 10999 10996 ] final -168.03 input  -57.11 | X-H torsion

> <Gold.Protein.ActiveResidues>
 VAL166  LYS551  ARG553  GLY616  TRP617  ASP618  TYR619  PRO620  LYS621  CYS622 
 ASP623  PHE694  ASN695  SER759  ASP760  ASP761  ALA762  ILE779  LEU786  VAL792 
 PHE793  MET794  SER795  GLU796  ALA797  LYS798  CYS799  TRP800  GLU811  SER814 

> <Gold.Protein.RotatedAtoms>
  152.4178  133.7066  159.6454 H   0  0  0  0  0  0  0  0  0  0  0  0  # atno 6907 bound_to 6896
  150.8054  133.8508  159.3213 H   0  0  0  0  0  0  0  0  0  0  0  0  # atno 6908 bound_to 6896
  151.6233  135.1032  160.0158 H   0  0  0  0  0  0  0  0  0  0  0  0  # atno 6909 bound_to 6896
  144.7891  139.7369  143.6228 H   0  0  0  0  0  0  0  0  0  0  0  0  # atno 7974 bound_to 7965
  155.6508  140.3497  155.4747 H   0  0  0  0  0  0  0  0  0  0  0  0  # atno 8008 bound_to 7997
  155.9849  140.1182  157.0715 H   0  0  0  0  0  0  0  0  0  0  0  0  # atno 8009 bound_to 7997
  154.4202  140.1131  156.5472 H   0  0  0  0  0  0  0  0  0  0  0  0  # atno 8010 bound_to 7997
  140.3815  143.2746  151.9378 H   0  0  0  0  0  0  0  0  0  0  0  0  # atno 10167 bound_to 10162
  157.6935  131.0236  150.3050 H   0  0  0  0  0  0  0  0  0  0  0  0  # atno 10718 bound_to 10713
  153.1074  135.6688  153.9562 H   0  0  0  0  0  0  0  0  0  0  0  0  # atno 10763 bound_to 10752
  153.9115  135.3024  155.3450 H   0  0  0  0  0  0  0  0  0  0  0  0  # atno 10764 bound_to 10752
  154.7495  135.5042  153.9339 H   0  0  0  0  0  0  0  0  0  0  0  0  # atno 10765 bound_to 10752
  140.5466  134.5470  157.5112 H   0  0  0  0  0  0  0  0  0  0  0  0  # atno 11005 bound_to 11000
  146.2136  139.5509  142.9665 LP  0  0  0  0  0  0  0  0  0  0  0  0  # atno 17320 bound_to 7965
  145.5842  141.0378  143.2105 LP  0  0  0  0  0  0  0  0  0  0  0  0  # atno 17321 bound_to 7965
  139.4795  144.5814  151.7926 LP  0  0  0  0  0  0  0  0  0  0  0  0  # atno 17342 bound_to 10162
  140.4933  144.1279  150.5955 LP  0  0  0  0  0  0  0  0  0  0  0  0  # atno 17343 bound_to 10162
  156.3560  130.3839  149.7290 LP  0  0  0  0  0  0  0  0  0  0  0  0  # atno 17370 bound_to 10713
  156.4752  130.8015  151.3032 LP  0  0  0  0  0  0  0  0  0  0  0  0  # atno 17371 bound_to 10713
  139.9477  134.7673  156.0523 LP  0  0  0  0  0  0  0  0  0  0  0  0  # atno 17394 bound_to 11000
  141.1196  133.6617  156.3182 LP  0  0  0  0  0  0  0  0  0  0  0  0  # atno 17395 bound_to 11000

$$$$
