AV-unprocessed.smi:54|AV-procd|sdf|531|dock4
  -GOLD-   2262016403D 1   1.00000     0.00000
 Structure written by MMmdl.
 44 46  0  0  0  0  0  0  0  0  1 V2000
  152.1229  144.9180  158.9036 C   0  0  0  0  0  0  0  0  0  0  0  0
  151.6526  143.6412  159.6189 C   0  0  0  0  0  0  0  0  0  0  0  0
  152.7383  143.0978  160.5619 C   0  0  0  0  0  0  0  0  0  0  0  0
  151.2398  142.5724  158.6009 C   0  0  0  0  0  0  0  0  0  0  0  0
  150.1444  142.5958  158.0382 O   0  0  0  0  0  0  0  0  0  0  0  0
  152.2230  141.5316  158.3564 N   0  0  0  0  0  0  0  0  0  0  0  0
  152.1181  140.4967  157.4913 C   0  0  0  0  0  0  0  0  0  0  0  0
  151.2125  140.4559  156.5258 N   0  0  0  0  0  0  0  0  0  0  0  0
  151.2620  139.3443  155.7329 C   0  0  0  0  0  0  0  0  0  0  0  0
  152.1543  138.2983  155.8542 C   0  0  0  0  0  0  0  0  0  0  0  0
  151.9104  137.3433  154.8749 N   0  0  0  0  0  0  0  0  0  0  0  0
  150.9053  137.8304  154.2035 C   0  0  0  0  0  0  0  0  0  0  0  0
  150.4399  139.0393  154.6632 N   0  0  0  0  0  0  0  0  0  0  0  0
  149.3180  139.8507  154.0876 C   0  0  2  0  0  0  0  0  0  0  0  0
  148.9706  140.8392  155.0129 O   0  0  0  0  0  0  0  0  0  0  0  0
  147.6438  140.6374  155.4970 C   0  0  1  0  0  0  0  0  0  0  0  0
  146.9979  141.9667  155.9270 C   0  0  0  0  0  0  0  0  0  0  0  0
  147.7597  142.5677  156.9526 O   0  0  0  0  0  0  0  0  0  0  0  0
  146.9514  139.9033  154.3415 C   0  0  1  0  0  0  0  0  0  0  0  0
  146.4928  140.8304  153.3691 O   0  0  0  0  0  0  0  0  0  0  0  0
  148.0658  139.0014  153.8155 C   0  0  1  0  0  0  0  0  0  0  0  0
  147.8907  138.6849  152.4474 O   0  0  0  0  0  0  0  0  0  0  0  0
  153.1457  138.3268  156.8913 C   0  0  0  0  0  0  0  0  0  0  0  0
  154.0098  137.4894  157.1418 O   0  0  0  0  0  0  0  0  0  0  0  0
  153.0577  139.4836  157.6762 N   0  0  0  0  0  0  0  0  0  0  0  0
  149.7326  140.3193  153.1940 H   0  0  0  0  0  0  0  0  0  0  0  0
  147.6729  139.9637  156.3516 H   0  0  0  0  0  0  0  0  0  0  0  0
  146.0954  139.3239  154.6889 H   0  0  0  0  0  0  0  0  0  0  0  0
  148.0971  138.0814  154.3988 H   0  0  0  0  0  0  0  0  0  0  0  0
  151.3543  145.3026  158.2325 H   0  0  0  0  0  0  0  0  0  0  0  0
  153.0229  144.7395  158.3136 H   0  0  0  0  0  0  0  0  0  0  0  0
  152.3512  145.7052  159.6228 H   0  0  0  0  0  0  0  0  0  0  0  0
  150.7787  143.8935  160.2215 H   0  0  0  0  0  0  0  0  0  0  0  0
  152.4072  142.1888  161.0659 H   0  0  0  0  0  0  0  0  0  0  0  0
  152.9841  143.8276  161.3334 H   0  0  0  0  0  0  0  0  0  0  0  0
  153.6580  142.8645  160.0237 H   0  0  0  0  0  0  0  0  0  0  0  0
  153.0644  141.5768  158.9120 H   0  0  0  0  0  0  0  0  0  0  0  0
  150.4761  137.3185  153.3544 H   0  0  0  0  0  0  0  0  0  0  0  0
  146.8918  142.6509  155.0846 H   0  0  0  0  0  0  0  0  0  0  0  0
  146.0003  141.7856  156.3286 H   0  0  0  0  0  0  0  0  0  0  0  0
  148.3183  143.2246  156.5659 H   0  0  0  0  0  0  0  0  0  0  0  0
  145.5769  140.6639  153.2064 H   0  0  0  0  0  0  0  0  0  0  0  0
  148.3997  139.2925  151.9327 H   0  0  0  0  0  0  0  0  0  0  0  0
  153.7278  139.5727  158.4256 H   0  0  0  0  0  0  0  0  0  0  0  0
  1  2  1  0  0  0  0
  1 30  1  0  0  0  0
  1 31  1  0  0  0  0
  1 32  1  0  0  0  0
  2  3  1  0  0  0  0
  2  4  1  0  0  0  0
  2 33  1  0  0  0  0
  3 34  1  0  0  0  0
  3 35  1  0  0  0  0
  3 36  1  0  0  0  0
  4  5  2  0  0  0  0
  4  6  1  0  0  0  0
  6 37  1  0  0  0  0
  6  7  1  0  0  0  0
  7 25  1  0  0  0  0
  7  8  2  0  0  0  0
  8  9  1  0  0  0  0
  9 13  1  0  0  0  0
  9 10  2  0  0  0  0
 10 11  1  0  0  0  0
 10 23  1  0  0  0  0
 11 12  2  0  0  0  0
 12 13  1  0  0  0  0
 12 38  1  0  0  0  0
 13 14  1  0  0  0  0
 14 26  1  0  0  0  0
 14 21  1  0  0  0  0
 14 15  1  0  0  0  0
 15 16  1  0  0  0  0
 16 27  1  0  0  0  0
 16 17  1  0  0  0  0
 16 19  1  0  0  0  0
 17 18  1  0  0  0  0
 17 39  1  0  0  0  0
 17 40  1  0  0  0  0
 18 41  1  0  0  0  0
 19 28  1  0  0  0  0
 19 20  1  0  0  0  0
 19 21  1  0  0  0  0
 20 42  1  0  0  0  0
 21 29  1  0  0  0  0
 21 22  1  0  0  0  0
 22 43  1  0  0  0  0
 23 24  2  0  0  0  0
 23 25  1  0  0  0  0
 25 44  1  0  0  0  0
M  END
> <s_m_source_file>
AV-unprocessed.smi

> <i_m_source_file_index>
54

> <i_lp_mmshare_version>
43012

> <i_f3d_flags>
0

> <s_epik_input>
W0NIM11bQ0hdKFtDSDNdKUMoPU8pW05IXWMobjEpW25IXWMoPU8pYyhjMTIpbltjSF1uMltDQEBIXTNPW0NASF0oW0NIMl1bT0hdKVtDQEBIXShbT0hdKVtDQEhdM1tPSF0=

> <s_epik_cmdline>
J2VwaWtfcHl0aG9uJywgJy1waCcsICc3LjAnLCAnLXRuJywgJzgnLCAnLW1hJywgJzIwMCcsICctbWV0YWxfYmluZGluZycsICctaW1hZScsICc8aW5maWxlLm1hZT4nLCAnLW9tYWUnLCAnPG91dGZpbGUubWFlPic=

> <r_lp_tautomer_probability>
0.85571

> <r_epik_Ionization_Penalty>
0.0316551

> <r_epik_Ionization_Penalty_Charging>
0.0316043

> <r_epik_Ionization_Penalty_Neutral>
5.07097e-05

> <r_epik_State_Penalty>
3.15494e-07

> <r_epik_Charging_Adjusted_Penalty>
0.0316047

> <i_epik_Tot_Q>
0

> <i_epik_Tot_abs_Q>
0

> <r_epik_Metal_State_Penalty>
0.421206

> <b_epik_Metal_Only>
0

> <s_epik_Chemistry_Notes>
This compound contains an acetal/aminal-like group ( X-CH(R)-Y where X, Y are N, S, or O) that may be acid/base labile, releasing an aldehyde.

> <s_lp_Force_Field>
OPLS_2005

> <r_lp_Energy>
45.4171

> <b_lp_Chiralities_Consistent>
1

> <s_lp_Variant>
AV-unprocessed.smi:54-3

> <Gold.Version>
5.8.1

> <Gold.Id.Protein>
6NUR|6NUR_protein|mol2

> <Gold.PLP.Fitness>
50.1116

> <Gold.PLP.PLP>
-37.1689

> <Gold.PLP.part.hbond>
-5.0000

> <Gold.PLP.part.metal>
0.0000

> <Gold.PLP.part.buried>
-3.5410

> <Gold.PLP.part.nonpolar>
-30.8518

> <Gold.PLP.part.repulsive>
2.6183

> <Gold.PLP.ligand.clash>
0.0000

> <Gold.PLP.ligand.torsion>
0.9812

> <Gold.PLP.Chemscore.Hbond>
3.9350

> <Gold.PLP.Chemscore.CHOScore>
1.0231

> <Gold.PLP.Chemscore.Metal>
0.0000

> <Gold.Chemscore.Hbonds>
donor molecule, donor type, donor heavy atom, donor atom, acceptor molecule, acceptor atom, score
      L1  H    18    41       P1  8028  1.00
      L1  H    20    42       P1 10175  0.99
      L1  H    22    43       P1  7957  1.00
      P1  H 10752 10764       L1    11  0.90
      L1  C    12    38       P1  7948  0.57
      L1  C    12    38       P1  7949  0.45

> <Gold.PLP.Chemscore.Internal.Correction>
0.0309

> <Gold.Rescore>
     Score         DG    S(hbond)    S(metal)    S(lipo)     H(rot)  DE(clash)    DE(int)     intcor
      8.78     -13.93       3.62        0.00      57.50       4.05       1.52       3.63       ----

> <Gold.Chemscore.Fitness>
8.7831

> <Gold.Chemscore.DG>
-13.9299

> <Gold.Chemscore.ZeroCoef>
-5.4800

> <Gold.Chemscore.Hbond>
3.6193

> <Gold.Chemscore.Metal>
0.0000

> <Gold.Chemscore.Lipo>
57.5012

> <Gold.Chemscore.Internal_Hbond>
0.0000

> <Gold.Chemscore.DEClash>
1.5216

> <Gold.Chemscore.DEInternal>
3.6251

> <Gold.Chemscore.Rot>
4.0493

> <Gold.Chemscore.Internal.Correction>
   9.000000E+99

> <Gold.Chemscore.Hbonds>
donor molecule, donor type, donor heavy atom, donor atom, acceptor molecule, acceptor atom, score
      L1  H    18    41       P1  8028  0.45
      L1  H    20    42       P1 10175  0.76
      L1  H    22    43       P1  7957  0.98
      P1  H 10752 10764       L1    11  0.83

> <Gold.Chemscore.Hbond.Weighted>
-12.0885

> <Gold.Chemscore.Metal.Weighted>
-0.0000

> <Gold.Chemscore.Lipo.Weighted>
-6.7276

> <Gold.Chemscore.Internal_Hbond.Weighted>
0.0000

> <Gold.Chemscore.DEClash.Weighted>
1.5216

> <Gold.Chemscore.DEInternal.Weighted>
3.6251

> <Gold.Chemscore.Rot.Weighted>
10.3662

> <Gold.Chemscore.Internal.Correction.Weighted>
   9.000000E+99

> <Gold.Protein.RotatedTorsions>
[ 6907 6896 6895 6894 ] final -159.57 input  -60.11 | X-H torsion
[ 7974 7965 7964 7962 ] final  -83.84 input  175.53 | X-H torsion
[ 8008 7997 7996 7995 ] final -125.76 input   59.86 | X-H torsion
[ 10167 10162 10161 10158 ] final  156.31 input  -65.29 | X-H torsion
[ 10718 10713 10712 10709 ] final -171.84 input   66.30 | X-H torsion
[ 10763 10752 10751 10750 ] final  -65.18 input  -60.55 | X-H torsion
[ 11005 11000 10999 10996 ] final  175.11 input  -57.11 | X-H torsion

> <Gold.Protein.ActiveResidues>
 VAL166  LYS551  ARG553  GLY616  TRP617  ASP618  TYR619  PRO620  LYS621  CYS622 
 ASP623  PHE694  ASN695  SER759  ASP760  ASP761  ALA762  ILE779  LEU786  VAL792 
 PHE793  MET794  SER795  GLU796  ALA797  LYS798  CYS799  TRP800  GLU811  SER814 

> <Gold.Protein.RotatedAtoms>
  151.3356  133.3983  159.2666 H   0  0  0  0  0  0  0  0  0  0  0  0  # atno 6907 bound_to 6896
  150.9920  134.9253  159.7915 H   0  0  0  0  0  0  0  0  0  0  0  0  # atno 6908 bound_to 6896
  152.5250  134.3321  159.9239 H   0  0  0  0  0  0  0  0  0  0  0  0  # atno 6909 bound_to 6896
  145.5146  140.9537  143.1688 H   0  0  0  0  0  0  0  0  0  0  0  0  # atno 7974 bound_to 7965
  155.2186  140.0421  157.2945 H   0  0  0  0  0  0  0  0  0  0  0  0  # atno 8008 bound_to 7997
  154.5964  140.2440  155.7822 H   0  0  0  0  0  0  0  0  0  0  0  0  # atno 8009 bound_to 7997
  156.2293  140.2944  156.0156 H   0  0  0  0  0  0  0  0  0  0  0  0  # atno 8010 bound_to 7997
  139.4821  144.5020  151.8154 H   0  0  0  0  0  0  0  0  0  0  0  0  # atno 10167 bound_to 10162
  156.7468  130.9363  151.3113 H   0  0  0  0  0  0  0  0  0  0  0  0  # atno 10718 bound_to 10713
  154.3412  135.6156  153.5597 H   0  0  0  0  0  0  0  0  0  0  0  0  # atno 10763 bound_to 10752
  152.9804  135.5770  154.4850 H   0  0  0  0  0  0  0  0  0  0  0  0  # atno 10764 bound_to 10752
  154.4555  135.2854  155.1728 H   0  0  0  0  0  0  0  0  0  0  0  0  # atno 10765 bound_to 10752
  140.3586  134.7132  157.4316 H   0  0  0  0  0  0  0  0  0  0  0  0  # atno 11005 bound_to 11000
  144.7709  139.6738  143.7195 LP  0  0  0  0  0  0  0  0  0  0  0  0  # atno 17320 bound_to 7965
  146.2145  139.5524  142.9659 LP  0  0  0  0  0  0  0  0  0  0  0  0  # atno 17321 bound_to 7965
  140.4514  144.1849  150.5898 LP  0  0  0  0  0  0  0  0  0  0  0  0  # atno 17342 bound_to 10162
  140.4580  143.2460  151.9258 LP  0  0  0  0  0  0  0  0  0  0  0  0  # atno 17343 bound_to 10162
  157.6794  130.9126  150.0230 LP  0  0  0  0  0  0  0  0  0  0  0  0  # atno 17370 bound_to 10713
  156.1427  130.3642  149.9557 LP  0  0  0  0  0  0  0  0  0  0  0  0  # atno 17371 bound_to 10713
  140.0645  134.5949  155.8711 LP  0  0  0  0  0  0  0  0  0  0  0  0  # atno 17394 bound_to 11000
  141.1991  133.6605  156.5825 LP  0  0  0  0  0  0  0  0  0  0  0  0  # atno 17395 bound_to 11000

$$$$
