#       Name:                AV-unprocessed.smi:9
#       Creating user name   scv26
#       Creation time:       Thu Mar 26 15:16:43 2020


#       File generated by GOLD software.
#

@<TRIPOS>MOLECULE
AV-unprocessed.smi:9
    43    45     1
SMALL
NO_CHARGES


@<TRIPOS>ATOM
      1 ****        -5.1075   0.6567  -1.4190 O.2            1 S1                 0.0000
      2 ****        -3.9473   1.0589  -1.3556 C.2            1 S1                 0.0000
      3 ****        -3.5667   2.3748  -1.3280 N.pl3          1 S1                -1.0000
      4 ****        -2.2147   2.7280  -1.2527 C.2            1 S1                 0.0000
      5 ****        -1.9180   4.2237  -1.2239 C.3            1 S1                 0.0000
      6 ****        -0.6051   4.4661  -1.2022 F              1 S1                 0.0000
      7 ****        -2.4259   4.8225  -2.3021 F              1 S1                 0.0000
      8 ****        -2.4561   4.7845  -0.1402 F              1 S1                 0.0000
      9 ****        -1.2235   1.8968  -1.2050 N.2            1 S1                 0.0000
     10 ****        -1.5724   0.5643  -1.2302 C.2            1 S1                 0.0000
     11 ****        -2.8423   0.0656  -1.3033 C.2            1 S1                 0.0000
     12 ****        -2.8374  -1.3246  -1.3181 N.2            1 S1                 0.0000
     13 ****        -1.5347  -1.5999  -1.2509 C.2            1 S1                 0.0000
     14 ****        -0.7173  -0.5294  -1.1859 N.pl3          1 S1                 0.0000
     15 ****         0.7364  -0.5309  -1.1070 C.3            1 S1                 0.0000
     16 ****         1.2982  -0.5404   0.3383 C.3            1 S1                 0.0000
     17 ****         0.9208   0.6807   0.9468 O.3            1 S1                 0.0000
     18 ****         0.7424  -1.7173   1.1707 C.3            1 S1                 0.0000
     19 ****         1.4933  -1.8819   2.4957 C.3            1 S1                 0.0000
     20 ****         3.0035  -1.9449   2.2423 C.3            1 S1                 0.0000
     21 ****         3.4162  -0.7515   1.5913 O.3            1 S1                 0.0000
     22 ****         2.8448  -0.5722   0.2975 C.3            1 S1                 0.0000
     23 ****        -1.1624  -2.6137  -1.2431 H              1 S1                 0.0000
     24 ****         1.0950  -1.4079  -1.6476 H              1 S1                 0.0000
     25 ****         1.1114   0.3339  -1.6562 H              1 S1                 0.0000
     26 ****         1.2931   0.7098   1.8149 H              1 S1                 0.0000
     27 ****        -0.3236  -1.5917   1.3644 H              1 S1                 0.0000
     28 ****         0.8442  -2.6401   0.5980 H              1 S1                 0.0000
     29 ****         1.2669  -1.0465   3.1592 H              1 S1                 0.0000
     30 ****         1.1583  -2.7855   3.0056 H              1 S1                 0.0000
     31 ****         3.5388  -2.0330   3.1878 H              1 S1                 0.0000
     32 ****         3.2676  -2.8164   1.6413 H              1 S1                 0.0000
     33 ****         3.1869  -1.3867  -0.3429 H              1 S1                 0.0000
     34 ****         3.2386   0.3468  -0.1387 H              1 S1                 0.0000
     35 ****        -5.2962  -0.3252  -1.4347 LP             1 S1                 0.0000
     36 ****        -5.8625   1.3116  -1.4549 LP             1 S1                 0.0000
     37 ****        -4.2634   3.0914  -1.3621 LP             1 S1                 0.0000
     38 ****        -0.2721   2.2004  -1.1535 LP             1 S1                 0.0000
     39 ****        -3.6117  -1.9555  -1.3667 LP             1 S1                 0.0000
     40 ****        -0.0761   0.7349   1.0050 LP             1 S1                 0.0000
     41 ****         1.2652   1.4480   0.4059 LP             1 S1                 0.0000
     42 ****         4.4114  -0.7728   1.4958 LP             1 S1                 0.0000
     43 ****         3.1527   0.0260   2.1623 LP             1 S1                 0.0000
@<TRIPOS>BOND
    1    1    2 2     
    2    2   11 1     
    3    2    3 1     
    4    3    4 1     
    5    4    5 1     
    6    4    9 2     
    7    5    6 1     
    8    5    7 1     
    9    5    8 1     
   10    9   10 1     
   11   10   14 1     
   12   10   11 2     
   13   11   12 1     
   14   12   13 2     
   15   13   14 1     
   16   13   23 1     
   17   14   15 1     
   18   15   16 1     
   19   15   24 1     
   20   15   25 1     
   21   16   22 1     
   22   16   17 1     
   23   16   18 1     
   24   17   26 1     
   25   18   19 1     
   26   18   27 1     
   27   18   28 1     
   28   19   20 1     
   29   19   29 1     
   30   19   30 1     
   31   20   21 1     
   32   20   31 1     
   33   20   32 1     
   34   21   22 1     
   35   22   33 1     
   36   22   34 1     
   37    1   35 1     
   38    1   36 1     
   39    3   37 1     
   40    9   38 1     
   41   12   39 1     
   42   17   40 1     
   43   17   41 1     
   44   21   42 1     
   45   21   43 1     
@<TRIPOS>SUBSTRUCTURE
      1 S1             1
@<TRIPOS>SET
LONE_PAIRS      STATIC     ATOMS    <user>   **** ""
9 35 36 37 38 39 40 41 42 43
DONOR_HYDROGENS      STATIC     ATOMS    <user>   **** ""
1 26
ATOM$BLUE        STATIC     ATOMS    COLORGROUP SYSTEM
9 35 36 37 38 39 40 41 42 43
ATOM$RED        STATIC     ATOMS    COLORGROUP SYSTEM
1 26
