AV-unprocessed.smi:3349|AV-procd|sdf|12936|dock9
  -GOLD-   2272019363D 1   1.00000     0.00000
 Structure written by MMmdl.
 41 42  0  0  0  0  0  0  0  0  2 V2000
  151.2063  140.4050  157.9258 C   0  0  0  0  0  0  0  0  0  0  0  0
  151.7467  141.7731  157.4388 C   0  0  1  0  0  0  0  0  0  0  0  0
  151.0669  142.1725  156.1013 C   0  0  0  0  0  0  0  0  0  0  0  0
  149.6451  141.8490  156.0811 N   0  0  0  0  0  0  0  0  0  0  0  0
  148.9706  141.4373  154.9971 C   0  0  0  0  0  0  0  0  0  0  0  0
  149.5057  141.2584  153.9023 O   0  0  0  0  0  0  0  0  0  0  0  0
  147.4637  141.2047  155.1878 C   0  0  2  0  0  0  0  0  0  0  0  0
  146.5974  142.0519  154.2370 C   0  0  0  0  0  0  0  0  0  0  0  0
  147.0935  141.4344  156.5778 N   0  0  0  0  0  0  0  0  0  0  0  0
  146.7374  140.5808  157.5421 C   0  0  0  0  0  0  0  0  0  0  0  0
  146.4488  141.1651  158.6964 N   0  0  0  0  0  0  0  0  0  0  0  0
  146.6636  142.4694  158.3518 C   0  0  0  0  0  0  0  0  0  0  0  0
  147.0465  142.6862  157.0934 N   0  0  0  0  0  0  0  0  0  0  0  0
  151.5949  142.8307  158.4947 N   0  3  0  0  0  0  0  0  0  0  0  0
  152.5065  142.6425  159.6588 C   0  0  0  0  0  0  0  0  0  0  0  0
  152.3005  143.7351  160.7212 C   0  0  0  0  0  0  0  0  0  0  0  0
  152.5012  145.0118  160.1373 O   0  0  0  0  0  0  0  0  0  0  0  0
  151.5539  145.2598  159.1113 C   0  0  0  0  0  0  0  0  0  0  0  0
  151.7196  144.2258  157.9845 C   0  0  0  0  0  0  0  0  0  0  0  0
  151.2482  139.6425  157.1483 H   0  0  0  0  0  0  0  0  0  0  0  0
  150.1677  140.4829  158.2487 H   0  0  0  0  0  0  0  0  0  0  0  0
  151.7882  139.9979  158.7509 H   0  0  0  0  0  0  0  0  0  0  0  0
  152.8140  141.6585  157.2420 H   0  0  0  0  0  0  0  0  0  0  0  0
  151.2104  143.2392  155.9193 H   0  0  0  0  0  0  0  0  0  0  0  0
  151.4996  141.6358  155.2580 H   0  0  0  0  0  0  0  0  0  0  0  0
  149.1314  141.9698  156.9425 H   0  0  0  0  0  0  0  0  0  0  0  0
  147.2708  140.1552  154.9560 H   0  0  0  0  0  0  0  0  0  0  0  0
  146.8588  141.8684  153.1942 H   0  0  0  0  0  0  0  0  0  0  0  0
  146.7125  143.1199  154.4262 H   0  0  0  0  0  0  0  0  0  0  0  0
  145.5410  141.8088  154.3554 H   0  0  0  0  0  0  0  0  0  0  0  0
  146.6840  139.5120  157.3950 H   0  0  0  0  0  0  0  0  0  0  0  0
  146.5307  143.2839  159.0485 H   0  0  0  0  0  0  0  0  0  0  0  0
  152.3320  141.6846  160.1450 H   0  0  0  0  0  0  0  0  0  0  0  0
  153.5425  142.6476  159.3165 H   0  0  0  0  0  0  0  0  0  0  0  0
  151.3035  143.6709  161.1604 H   0  0  0  0  0  0  0  0  0  0  0  0
  153.0139  143.6054  161.5353 H   0  0  0  0  0  0  0  0  0  0  0  0
  150.5412  145.2352  159.5172 H   0  0  0  0  0  0  0  0  0  0  0  0
  151.7133  146.2655  158.7218 H   0  0  0  0  0  0  0  0  0  0  0  0
  152.6885  144.3528  157.4990 H   0  0  0  0  0  0  0  0  0  0  0  0
  150.9518  144.4427  157.2441 H   0  0  0  0  0  0  0  0  0  0  0  0
  150.6538  142.7449  158.8515 H   0  0  0  0  0  0  0  0  0  0  0  0
  1  2  1  0  0  0  0
  1 20  1  0  0  0  0
  1 21  1  0  0  0  0
  1 22  1  0  0  0  0
  2  3  1  0  0  0  0
  2 14  1  0  0  0  0
  2 23  1  0  0  0  0
  3  4  1  0  0  0  0
  3 24  1  0  0  0  0
  3 25  1  0  0  0  0
  4  5  1  0  0  0  0
  4 26  1  0  0  0  0
  5  6  2  0  0  0  0
  5  7  1  0  0  0  0
  7  8  1  0  0  0  0
  7  9  1  0  0  0  0
  7 27  1  0  0  0  0
  8 28  1  0  0  0  0
  8 29  1  0  0  0  0
  8 30  1  0  0  0  0
  9 13  1  0  0  0  0
  9 10  1  0  0  0  0
 10 11  2  0  0  0  0
 10 31  1  0  0  0  0
 11 12  1  0  0  0  0
 12 13  2  0  0  0  0
 12 32  1  0  0  0  0
 14 19  1  0  0  0  0
 14 15  1  0  0  0  0
 14 41  1  0  0  0  0
 15 16  1  0  0  0  0
 15 33  1  0  0  0  0
 15 34  1  0  0  0  0
 16 17  1  0  0  0  0
 16 35  1  0  0  0  0
 16 36  1  0  0  0  0
 17 18  1  0  0  0  0
 18 19  1  0  0  0  0
 18 37  1  0  0  0  0
 18 38  1  0  0  0  0
 19 39  1  0  0  0  0
 19 40  1  0  0  0  0
M  CHG  1  14   1
M  END
> <s_m_source_file>
AV-unprocessed.smi

> <i_m_source_file_index>
3349

> <i_lp_mmshare_version>
43012

> <i_f3d_flags>
0

> <s_epik_input>
W0NIMl0xW0NIMl1PW0NIMl1bQ0gyXU4xW0NASF0oW0NIM10pW0NIMl1bTkhdQyg9TylbQ0BIXShbQ0gzXSluMltjSF1uW2NIXW4y

> <s_epik_cmdline>
J2VwaWtfcHl0aG9uJywgJy1waCcsICc3LjAnLCAnLXRuJywgJzgnLCAnLW1hJywgJzIwMCcsICctbWV0YWxfYmluZGluZycsICctaW1hZScsICc8aW5maWxlLm1hZT4nLCAnLW9tYWUnLCAnPG91dGZpbGUubWFlPic=

> <r_lp_tautomer_probability>
1

> <r_epik_Ionization_Penalty>
0.71326

> <r_epik_Ionization_Penalty_Charging>
0.713252

> <r_epik_Ionization_Penalty_Neutral>
8.10337e-06

> <r_epik_State_Penalty>
0.737017

> <r_epik_Charging_Adjusted_Penalty>
1.45027

> <i_epik_Tot_Q>
1

> <i_epik_Tot_abs_Q>
1

> <r_epik_Metal_State_Penalty>
0.73702

> <b_epik_Metal_Only>
0

> <s_lp_Force_Field>
OPLS_2005

> <r_lp_Energy>
26.8661

> <b_lp_Chiralities_Consistent>
1

> <s_lp_Variant>
AV-unprocessed.smi:3349-6

> <Gold.Version>
5.8.1

> <Gold.Id.Protein>
6NUR|6NUR_protein|mol2

> <Gold.PLP.Fitness>
36.4452

> <Gold.PLP.PLP>
-33.8588

> <Gold.PLP.part.hbond>
-3.8839

> <Gold.PLP.part.metal>
0.0000

> <Gold.PLP.part.buried>
-4.8317

> <Gold.PLP.part.nonpolar>
-25.8627

> <Gold.PLP.part.repulsive>
1.1493

> <Gold.PLP.ligand.clash>
0.0000

> <Gold.PLP.ligand.torsion>
0.8329

> <Gold.PLP.Chemscore.Hbond>
1.3772

> <Gold.PLP.Chemscore.CHOScore>
0.0000

> <Gold.PLP.Chemscore.Metal>
0.0000

> <Gold.Chemscore.Hbonds>
donor molecule, donor type, donor heavy atom, donor atom, acceptor molecule, acceptor atom, score
      P1  H  6934  6946       L1    11  0.45
      P1  H  7989  7998       L1     6  0.19
      P1  H  8011  8017       L1     6  0.82

> <Gold.PLP.Chemscore.Internal.Correction>
0.1205

> <Gold.Rescore>
     Score         DG    S(hbond)    S(metal)    S(lipo)     H(rot)  DE(clash)    DE(int)     intcor
     10.20     -12.34       1.44        0.00      75.13       2.63       0.28       1.85       ----

> <Gold.Chemscore.Fitness>
10.1999

> <Gold.Chemscore.DG>
-12.3389

> <Gold.Chemscore.ZeroCoef>
-5.4800

> <Gold.Chemscore.Hbond>
1.4398

> <Gold.Chemscore.Metal>
0.0000

> <Gold.Chemscore.Lipo>
75.1296

> <Gold.Chemscore.Internal_Hbond>
0.0000

> <Gold.Chemscore.DEClash>
0.2843

> <Gold.Chemscore.DEInternal>
1.8547

> <Gold.Chemscore.Rot>
2.6329

> <Gold.Chemscore.Internal.Correction>
   9.000000E+99

> <Gold.Chemscore.Hbonds>
donor molecule, donor type, donor heavy atom, donor atom, acceptor molecule, acceptor atom, score
      P1  H  6934  6946       L1    11  0.36
      P1  H  7989  7998       L1     6  0.20
      P1  H  8011  8017       L1     6  0.80

> <Gold.Chemscore.Hbond.Weighted>
-4.8090

> <Gold.Chemscore.Metal.Weighted>
-0.0000

> <Gold.Chemscore.Lipo.Weighted>
-8.7902

> <Gold.Chemscore.Internal_Hbond.Weighted>
0.0000

> <Gold.Chemscore.DEClash.Weighted>
0.2843

> <Gold.Chemscore.DEInternal.Weighted>
1.8547

> <Gold.Chemscore.Rot.Weighted>
6.7403

> <Gold.Chemscore.Internal.Correction.Weighted>
   9.000000E+99

> <Gold.Protein.RotatedTorsions>
[ 6907 6896 6895 6894 ] final  -23.52 input  -60.11 | X-H torsion
[ 7974 7965 7964 7962 ] final   23.20 input  175.53 | X-H torsion
[ 8008 7997 7996 7995 ] final -154.92 input   59.86 | X-H torsion
[ 10167 10162 10161 10158 ] final   33.95 input  -65.29 | X-H torsion
[ 10718 10713 10712 10709 ] final -140.01 input   66.30 | X-H torsion
[ 10763 10752 10751 10750 ] final -147.06 input  -60.55 | X-H torsion
[ 11005 11000 10999 10996 ] final  108.08 input  -57.11 | X-H torsion

> <Gold.Protein.ActiveResidues>
 VAL166  LYS551  ARG553  GLY616  TRP617  ASP618  TYR619  PRO620  LYS621  CYS622 
 ASP623  PHE694  ASN695  SER759  ASP760  ASP761  ALA762  ILE779  LEU786  VAL792 
 PHE793  MET794  SER795  GLU796  ALA797  LYS798  CYS799  TRP800  GLU811  SER814 

> <Gold.Protein.RotatedAtoms>
  151.2029  135.0450  159.8879 H   0  0  0  0  0  0  0  0  0  0  0  0  # atno 6907 bound_to 6896
  152.5431  134.0830  159.8254 H   0  0  0  0  0  0  0  0  0  0  0  0  # atno 6908 bound_to 6896
  151.0973  133.5222  159.2643 H   0  0  0  0  0  0  0  0  0  0  0  0  # atno 6909 bound_to 6896
  146.1995  139.7777  142.8772 H   0  0  0  0  0  0  0  0  0  0  0  0  # atno 7974 bound_to 7965
  155.6938  140.0758  157.2437 H   0  0  0  0  0  0  0  0  0  0  0  0  # atno 8008 bound_to 7997
  154.4084  140.1660  156.2168 H   0  0  0  0  0  0  0  0  0  0  0  0  # atno 8009 bound_to 7997
  155.9428  140.3383  155.6345 H   0  0  0  0  0  0  0  0  0  0  0  0  # atno 8010 bound_to 7997
  140.4360  144.1256  150.6166 H   0  0  0  0  0  0  0  0  0  0  0  0  # atno 10167 bound_to 10162
  156.3173  130.7515  151.1605 H   0  0  0  0  0  0  0  0  0  0  0  0  # atno 10718 bound_to 10713
  154.8305  135.3370  154.6760 H   0  0  0  0  0  0  0  0  0  0  0  0  # atno 10763 bound_to 10752
  153.7380  135.6947  153.4978 H   0  0  0  0  0  0  0  0  0  0  0  0  # atno 10764 bound_to 10752
  153.2264  135.4431  155.0498 H   0  0  0  0  0  0  0  0  0  0  0  0  # atno 10765 bound_to 10752
  139.8838  134.9420  156.5917 H   0  0  0  0  0  0  0  0  0  0  0  0  # atno 11005 bound_to 11000
  145.3533  141.0312  143.3326 LP  0  0  0  0  0  0  0  0  0  0  0  0  # atno 17320 bound_to 7965
  144.8651  139.5119  143.6794 LP  0  0  0  0  0  0  0  0  0  0  0  0  # atno 17321 bound_to 7965
  140.4373  143.2542  151.9519 LP  0  0  0  0  0  0  0  0  0  0  0  0  # atno 17342 bound_to 10162
  139.4787  144.5688  151.8122 LP  0  0  0  0  0  0  0  0  0  0  0  0  # atno 17343 bound_to 10162
  157.7404  131.0517  150.5166 LP  0  0  0  0  0  0  0  0  0  0  0  0  # atno 17370 bound_to 10713
  156.5314  130.4185  149.6200 LP  0  0  0  0  0  0  0  0  0  0  0  0  # atno 17371 bound_to 10713
  140.7950  133.8551  155.8678 LP  0  0  0  0  0  0  0  0  0  0  0  0  # atno 17394 bound_to 11000
  140.9643  134.1614  157.4628 LP  0  0  0  0  0  0  0  0  0  0  0  0  # atno 17395 bound_to 11000

$$$$
