AV-unprocessed.smi:2355|AV-procd|sdf|9386|dock8
  -GOLD-   2272013 13D 1   1.00000     0.00000
 Structure written by MMmdl.
 48 49  0  0  0  0  0  0  0  0  1 V2000
  144.5796  132.7064  150.2055 C   0  0  0  0  0  0  0  0  0  0  0  0
  144.4372  133.8680  151.1663 C   0  0  0  0  0  0  0  0  0  0  0  0
  143.2463  134.0614  151.8920 C   0  0  0  0  0  0  0  0  0  0  0  0
  143.1734  135.1618  152.7682 C   0  0  0  0  0  0  0  0  0  0  0  0
  141.9242  135.4302  153.5810 C   0  0  0  0  0  0  0  0  0  0  0  0
  144.1882  136.0356  152.9391 N   0  0  0  0  0  0  0  0  0  0  0  0
  145.3396  135.8603  152.2445 C   0  0  0  0  0  0  0  0  0  0  0  0
  146.4644  136.7206  152.3556 N   0  0  0  0  0  0  0  0  0  0  0  0
  146.5438  137.9035  152.9903 C   0  0  0  0  0  0  0  0  0  0  0  0
  145.6177  138.4567  153.5847 O   0  0  0  0  0  0  0  0  0  0  0  0
  147.7751  138.4273  152.8915 N   0  0  0  0  0  0  0  0  0  0  0  0
  148.1921  139.7126  153.4516 C   0  0  1  0  0  0  0  0  0  0  0  0
  147.1746  140.7924  153.0433 C   0  0  0  0  0  0  0  0  0  0  0  0
  148.4191  139.6236  154.9964 C   0  0  2  0  0  0  0  0  0  0  0  0
  148.4677  141.0493  155.6056 C   0  0  0  0  0  0  0  0  0  0  0  0
  149.5760  138.7861  155.3931 N   0  0  0  0  0  0  0  0  0  0  0  0
  149.3035  137.3516  155.2470 C   0  0  0  0  0  0  0  0  0  0  0  0
  150.5052  136.4724  155.6324 C   0  0  0  0  0  0  0  0  0  0  0  0
  151.6322  136.8341  154.8467 O   0  0  0  0  0  0  0  0  0  0  0  0
  151.9825  138.2007  155.0148 C   0  0  0  0  0  0  0  0  0  0  0  0
  150.7912  139.0953  154.6304 C   0  0  0  0  0  0  0  0  0  0  0  0
  145.4962  134.7806  151.3465 C   0  0  0  0  0  0  0  0  0  0  0  0
  143.8193  131.9473  150.3914 H   0  0  0  0  0  0  0  0  0  0  0  0
  145.5588  132.2388  150.3124 H   0  0  0  0  0  0  0  0  0  0  0  0
  144.4741  133.0538  149.1777 H   0  0  0  0  0  0  0  0  0  0  0  0
  142.4115  133.3850  151.7797 H   0  0  0  0  0  0  0  0  0  0  0  0
  141.2108  134.6104  153.4921 H   0  0  0  0  0  0  0  0  0  0  0  0
  141.4393  136.3443  153.2374 H   0  0  0  0  0  0  0  0  0  0  0  0
  142.1740  135.5489  154.6357 H   0  0  0  0  0  0  0  0  0  0  0  0
  147.3043  136.3984  151.8984 H   0  0  0  0  0  0  0  0  0  0  0  0
  148.4752  137.9058  152.3846 H   0  0  0  0  0  0  0  0  0  0  0  0
  149.1288  139.9521  152.9504 H   0  0  0  0  0  0  0  0  0  0  0  0
  147.4710  141.7745  153.4122 H   0  0  0  0  0  0  0  0  0  0  0  0
  146.1778  140.5784  153.4292 H   0  0  0  0  0  0  0  0  0  0  0  0
  147.0970  140.8638  151.9581 H   0  0  0  0  0  0  0  0  0  0  0  0
  147.5271  139.1503  155.4099 H   0  0  0  0  0  0  0  0  0  0  0  0
  147.6763  141.6944  155.2261 H   0  0  0  0  0  0  0  0  0  0  0  0
  149.4187  141.5402  155.3968 H   0  0  0  0  0  0  0  0  0  0  0  0
  148.3327  141.0327  156.6865 H   0  0  0  0  0  0  0  0  0  0  0  0
  148.4708  137.0527  155.8817 H   0  0  0  0  0  0  0  0  0  0  0  0
  149.0119  137.1337  154.2185 H   0  0  0  0  0  0  0  0  0  0  0  0
  150.7395  136.5801  156.6927 H   0  0  0  0  0  0  0  0  0  0  0  0
  150.2752  135.4208  155.4607 H   0  0  0  0  0  0  0  0  0  0  0  0
  152.2845  138.3835  156.0473 H   0  0  0  0  0  0  0  0  0  0  0  0
  152.8431  138.4265  154.3852 H   0  0  0  0  0  0  0  0  0  0  0  0
  150.5934  138.9966  153.5619 H   0  0  0  0  0  0  0  0  0  0  0  0
  151.1042  140.1230  154.8025 H   0  0  0  0  0  0  0  0  0  0  0  0
  146.4184  134.6524  150.7980 H   0  0  0  0  0  0  0  0  0  0  0  0
  1  2  1  0  0  0  0
  1 23  1  0  0  0  0
  1 24  1  0  0  0  0
  1 25  1  0  0  0  0
  2 22  1  0  0  0  0
  2  3  2  0  0  0  0
  3  4  1  0  0  0  0
  3 26  1  0  0  0  0
  4  5  1  0  0  0  0
  4  6  2  0  0  0  0
  5 27  1  0  0  0  0
  5 28  1  0  0  0  0
  5 29  1  0  0  0  0
  6  7  1  0  0  0  0
  7  8  1  0  0  0  0
  7 22  2  0  0  0  0
  8  9  1  0  0  0  0
  8 30  1  0  0  0  0
  9 10  2  0  0  0  0
  9 11  1  0  0  0  0
 11 12  1  0  0  0  0
 11 31  1  0  0  0  0
 12 13  1  0  0  0  0
 12 14  1  0  0  0  0
 12 32  1  0  0  0  0
 13 33  1  0  0  0  0
 13 34  1  0  0  0  0
 13 35  1  0  0  0  0
 14 15  1  0  0  0  0
 14 16  1  0  0  0  0
 14 36  1  0  0  0  0
 15 37  1  0  0  0  0
 15 38  1  0  0  0  0
 15 39  1  0  0  0  0
 16 21  1  0  0  0  0
 16 17  1  0  0  0  0
 17 18  1  0  0  0  0
 17 40  1  0  0  0  0
 17 41  1  0  0  0  0
 18 19  1  0  0  0  0
 18 42  1  0  0  0  0
 18 43  1  0  0  0  0
 19 20  1  0  0  0  0
 20 21  1  0  0  0  0
 20 44  1  0  0  0  0
 20 45  1  0  0  0  0
 21 46  1  0  0  0  0
 21 47  1  0  0  0  0
 22 48  1  0  0  0  0
M  END
> <s_m_source_file>
AV-unprocessed.smi

> <i_m_source_file_index>
2355

> <i_lp_mmshare_version>
43012

> <i_f3d_flags>
0

> <s_epik_input>
W0NIM11jMVtjSF1jKFtDSDNdKW5jKFtjSF0xKVtOSF1DKD1PKVtOSF1bQ0BIXShbQ0gzXSlbQ0BIXShbQ0gzXSlOMltDSDJdW0NIMl1PW0NIMl1bQ0gyXTI=

> <s_epik_cmdline>
J2VwaWtfcHl0aG9uJywgJy1waCcsICc3LjAnLCAnLXRuJywgJzgnLCAnLW1hJywgJzIwMCcsICctbWV0YWxfYmluZGluZycsICctaW1hZScsICc8aW5maWxlLm1hZT4nLCAnLW9tYWUnLCAnPG91dGZpbGUubWFlPic=

> <r_epik_Ionization_Penalty>
0.266238

> <r_epik_Ionization_Penalty_Charging>
0

> <r_epik_Ionization_Penalty_Neutral>
0.266238

> <r_epik_State_Penalty>
0.257924

> <r_epik_Charging_Adjusted_Penalty>
0.257924

> <i_epik_Tot_Q>
0

> <i_epik_Tot_abs_Q>
0

> <r_epik_Metal_State_Penalty>
0.257904

> <b_epik_Metal_Only>
0

> <s_lp_Force_Field>
OPLS_2005

> <r_lp_Energy>
33.1774

> <b_lp_Chiralities_Consistent>
1

> <s_lp_Variant>
AV-unprocessed.smi:2355-2

> <Gold.Version>
5.8.1

> <Gold.Id.Protein>
6NUR|6NUR_protein|mol2

> <Gold.PLP.Fitness>
41.6999

> <Gold.PLP.PLP>
-34.4314

> <Gold.PLP.part.hbond>
-4.0000

> <Gold.PLP.part.metal>
0.0000

> <Gold.PLP.part.buried>
-3.4610

> <Gold.PLP.part.nonpolar>
-28.2972

> <Gold.PLP.part.repulsive>
0.6713

> <Gold.PLP.ligand.clash>
0.0000

> <Gold.PLP.ligand.torsion>
0.6496

> <Gold.PLP.Chemscore.Hbond>
2.8240

> <Gold.PLP.Chemscore.CHOScore>
0.0000

> <Gold.PLP.Chemscore.Metal>
0.0000

> <Gold.Chemscore.Hbonds>
donor molecule, donor type, donor heavy atom, donor atom, acceptor molecule, acceptor atom, score
      L1  H     8    30       P1  7948  1.00
      L1  H    11    31       P1  7948  0.90
      P1  H 10752 10763       L1    19  1.00

> <Gold.PLP.Chemscore.Internal.Correction>
0.0957

> <Gold.Rescore>
     Score         DG    S(hbond)    S(metal)    S(lipo)     H(rot)  DE(clash)    DE(int)     intcor
     17.02     -20.52       2.89        0.00      76.70       1.40       0.01       3.49       ----

> <Gold.Chemscore.Fitness>
17.0217

> <Gold.Chemscore.DG>
-20.5243

> <Gold.Chemscore.ZeroCoef>
-5.4800

> <Gold.Chemscore.Hbond>
2.8917

> <Gold.Chemscore.Metal>
0.0000

> <Gold.Chemscore.Lipo>
76.6986

> <Gold.Chemscore.Internal_Hbond>
0.0000

> <Gold.Chemscore.DEClash>
0.0106

> <Gold.Chemscore.DEInternal>
3.4920

> <Gold.Chemscore.Rot>
1.4015

> <Gold.Chemscore.Internal.Correction>
   9.000000E+99

> <Gold.Chemscore.Hbonds>
donor molecule, donor type, donor heavy atom, donor atom, acceptor molecule, acceptor atom, score
      L1  H     8    30       P1  7948  0.96
      L1  H    11    31       P1  7948  0.88
      P1  H 10752 10763       L1    19  0.93

> <Gold.Chemscore.Hbond.Weighted>
-9.6584

> <Gold.Chemscore.Metal.Weighted>
-0.0000

> <Gold.Chemscore.Lipo.Weighted>
-8.9737

> <Gold.Chemscore.Internal_Hbond.Weighted>
0.0000

> <Gold.Chemscore.DEClash.Weighted>
0.0106

> <Gold.Chemscore.DEInternal.Weighted>
3.4920

> <Gold.Chemscore.Rot.Weighted>
3.5878

> <Gold.Chemscore.Internal.Correction.Weighted>
   9.000000E+99

> <Gold.Protein.RotatedTorsions>
[ 6907 6896 6895 6894 ] final -176.74 input  -60.11 | X-H torsion
[ 7974 7965 7964 7962 ] final   69.28 input  175.53 | X-H torsion
[ 8008 7997 7996 7995 ] final  -53.75 input   59.86 | X-H torsion
[ 10167 10162 10161 10158 ] final -119.10 input  -65.29 | X-H torsion
[ 10718 10713 10712 10709 ] final -160.15 input   66.30 | X-H torsion
[ 10763 10752 10751 10750 ] final   58.97 input  -60.55 | X-H torsion
[ 11005 11000 10999 10996 ] final -143.10 input  -57.11 | X-H torsion

> <Gold.Protein.ActiveResidues>
 VAL166  LYS551  ARG553  GLY616  TRP617  ASP618  TYR619  PRO620  LYS621  CYS622 
 ASP623  PHE694  ASN695  SER759  ASP760  ASP761  ALA762  ILE779  LEU786  VAL792 
 PHE793  MET794  SER795  GLU796  ALA797  LYS798  CYS799  TRP800  GLU811  SER814 

> <Gold.Protein.RotatedAtoms>
  151.6096  133.3348  159.3064 H   0  0  0  0  0  0  0  0  0  0  0  0  # atno 6907 bound_to 6896
  150.8163  134.7351  159.6744 H   0  0  0  0  0  0  0  0  0  0  0  0  # atno 6908 bound_to 6896
  152.4259  134.5874  160.0016 H   0  0  0  0  0  0  0  0  0  0  0  0  # atno 6909 bound_to 6896
  145.7924  139.2940  143.1203 H   0  0  0  0  0  0  0  0  0  0  0  0  # atno 7974 bound_to 7965
  154.4142  140.1192  156.5205 H   0  0  0  0  0  0  0  0  0  0  0  0  # atno 8008 bound_to 7997
  155.6708  140.3496  155.4798 H   0  0  0  0  0  0  0  0  0  0  0  0  # atno 8009 bound_to 7997
  155.9635  140.1127  157.0865 H   0  0  0  0  0  0  0  0  0  0  0  0  # atno 8010 bound_to 7997
  140.0503  143.5067  152.2085 H   0  0  0  0  0  0  0  0  0  0  0  0  # atno 10167 bound_to 10162
  156.5781  130.8717  151.2857 H   0  0  0  0  0  0  0  0  0  0  0  0  # atno 10718 bound_to 10713
  152.9883  135.5588  154.5639 H   0  0  0  0  0  0  0  0  0  0  0  0  # atno 10763 bound_to 10752
  154.5052  135.2799  155.1390 H   0  0  0  0  0  0  0  0  0  0  0  0  # atno 10764 bound_to 10752
  154.2804  135.6346  153.5398 H   0  0  0  0  0  0  0  0  0  0  0  0  # atno 10765 bound_to 10752
  140.8159  134.2689  157.4921 H   0  0  0  0  0  0  0  0  0  0  0  0  # atno 11005 bound_to 11000
  145.9963  140.8559  143.0041 LP  0  0  0  0  0  0  0  0  0  0  0  0  # atno 17320 bound_to 7965
  144.6780  140.2288  143.7358 LP  0  0  0  0  0  0  0  0  0  0  0  0  # atno 17321 bound_to 7965
  139.5957  144.7566  151.3291 LP  0  0  0  0  0  0  0  0  0  0  0  0  # atno 17342 bound_to 10162
  140.7220  143.7110  150.7770 LP  0  0  0  0  0  0  0  0  0  0  0  0  # atno 17343 bound_to 10162
  157.7333  130.9728  150.1970 LP  0  0  0  0  0  0  0  0  0  0  0  0  # atno 17370 bound_to 10713
  156.2656  130.3716  149.8085 LP  0  0  0  0  0  0  0  0  0  0  0  0  # atno 17371 bound_to 10713
  139.8711  134.9509  156.4068 LP  0  0  0  0  0  0  0  0  0  0  0  0  # atno 17394 bound_to 11000
  140.9149  133.7685  155.9836 LP  0  0  0  0  0  0  0  0  0  0  0  0  # atno 17395 bound_to 11000

$$$$
