AV-unprocessed.smi:194|AV-procd|sdf|1521|dock8
  -GOLD-   2262019363D 1   1.00000     0.00000
 Structure written by MMmdl.
 53 55  0  0  0  0  0  0  0  0  1 V2000
  153.2955  141.0924  161.0301 C   0  0  0  0  0  0  0  0  0  0  0  0
  152.5969  141.1436  159.6482 C   0  0  1  0  0  0  0  0  0  0  0  0
  153.0854  142.3758  158.8488 C   0  0  0  0  0  0  0  0  0  0  0  0
  152.3032  143.9124  159.5389 S   0  0  1  0  0  0  0  0  0  0  0  0
  151.5197  144.4822  157.9585 C   0  0  0  0  0  0  0  0  0  0  0  0
  151.1684  143.4566  160.4578 O   0  0  0  0  0  0  0  0  0  0  0  0
  152.7990  139.9012  158.8828 N   0  0  0  0  0  0  0  0  0  0  0  0
  154.1354  139.3117  158.8878 C   0  0  0  0  0  0  0  0  0  0  0  0
  152.2988  139.9003  157.6265 C   0  0  0  0  0  0  0  0  0  0  0  0
  152.9163  139.1140  156.7109 N   0  0  0  0  0  0  0  0  0  0  0  0
  152.4593  139.0689  155.4559 C   0  0  0  0  0  0  0  0  0  0  0  0
  151.4259  139.7216  154.9191 N   0  0  0  0  0  0  0  0  0  0  0  0
  150.8125  140.5248  155.8359 C   0  0  0  0  0  0  0  0  0  0  0  0
  151.1787  140.6697  157.2033 C   0  0  0  0  0  0  0  0  0  0  0  0
  150.3203  141.5609  157.8344 N   0  0  0  0  0  0  0  0  0  0  0  0
  149.4886  141.9171  156.8943 C   0  0  0  0  0  0  0  0  0  0  0  0
  149.7216  141.3587  155.6568 N   0  0  0  0  0  0  0  0  0  0  0  0
  148.9452  141.5776  154.4446 C   0  0  0  0  0  0  0  0  0  0  0  0
  147.4471  141.1494  154.5074 C   0  0  0  0  0  0  0  0  0  0  0  0
  146.8645  140.9462  153.0762 C   0  0  0  0  0  0  0  0  0  0  0  0
  147.3431  139.7868  152.4248 O   0  0  0  0  0  0  0  0  0  0  0  0
  147.2624  139.8875  155.3893 C   0  0  0  0  0  0  0  0  0  0  0  0
  145.7891  139.6226  155.7435 C   0  0  0  0  0  0  0  0  0  0  0  0
  145.2479  140.7502  156.4192 O   0  0  0  0  0  0  0  0  0  0  0  0
  145.2420  141.9230  155.6161 C   0  0  0  0  0  0  0  0  0  0  0  0
  146.6810  142.2994  155.2113 C   0  0  0  0  0  0  0  0  0  0  0  0
  153.1613  142.0166  161.5906 H   0  0  0  0  0  0  0  0  0  0  0  0
  154.3680  140.9266  160.9225 H   0  0  0  0  0  0  0  0  0  0  0  0
  152.8991  140.2980  161.6626 H   0  0  0  0  0  0  0  0  0  0  0  0
  151.5242  141.2566  159.8092 H   0  0  0  0  0  0  0  0  0  0  0  0
  154.1721  142.4603  158.8798 H   0  0  0  0  0  0  0  0  0  0  0  0
  152.7918  142.3209  157.8012 H   0  0  0  0  0  0  0  0  0  0  0  0
  152.2767  144.6273  157.1878 H   0  0  0  0  0  0  0  0  0  0  0  0
  151.0004  145.4273  158.1168 H   0  0  0  0  0  0  0  0  0  0  0  0
  150.7979  143.7459  157.6050 H   0  0  0  0  0  0  0  0  0  0  0  0
  154.2856  138.6200  158.0568 H   0  0  0  0  0  0  0  0  0  0  0  0
  154.2938  138.7475  159.8068 H   0  0  0  0  0  0  0  0  0  0  0  0
  154.8998  140.0869  158.8243 H   0  0  0  0  0  0  0  0  0  0  0  0
  152.9986  138.4158  154.7857 H   0  0  0  0  0  0  0  0  0  0  0  0
  148.6822  142.6127  157.0754 H   0  0  0  0  0  0  0  0  0  0  0  0
  149.0208  142.6382  154.2010 H   0  0  0  0  0  0  0  0  0  0  0  0
  149.4457  141.0535  153.6292 H   0  0  0  0  0  0  0  0  0  0  0  0
  145.7800  140.8590  153.0950 H   0  0  0  0  0  0  0  0  0  0  0  0
  147.0860  141.8120  152.4512 H   0  0  0  0  0  0  0  0  0  0  0  0
  148.2234  139.9516  152.1234 H   0  0  0  0  0  0  0  0  0  0  0  0
  147.6894  139.0050  154.9127 H   0  0  0  0  0  0  0  0  0  0  0  0
  147.8128  140.0174  156.3220 H   0  0  0  0  0  0  0  0  0  0  0  0
  145.1994  139.3908  154.8559 H   0  0  0  0  0  0  0  0  0  0  0  0
  145.7171  138.7569  156.4021 H   0  0  0  0  0  0  0  0  0  0  0  0
  144.5985  141.7803  154.7481 H   0  0  0  0  0  0  0  0  0  0  0  0
  144.7989  142.7343  156.1938 H   0  0  0  0  0  0  0  0  0  0  0  0
  147.2122  142.5882  156.1196 H   0  0  0  0  0  0  0  0  0  0  0  0
  146.6654  143.1884  154.5793 H   0  0  0  0  0  0  0  0  0  0  0  0
  1  2  1  0  0  0  0
  1 27  1  0  0  0  0
  1 28  1  0  0  0  0
  1 29  1  0  0  0  0
  2  3  1  0  0  0  0
  2  7  1  0  0  0  0
  2 30  1  0  0  0  0
  3  4  1  0  0  0  0
  3 31  1  0  0  0  0
  3 32  1  0  0  0  0
  4  5  1  0  0  0  0
  4  6  2  0  0  0  0
  5 33  1  0  0  0  0
  5 34  1  0  0  0  0
  5 35  1  0  0  0  0
  7  8  1  0  0  0  0
  7  9  1  0  0  0  0
  8 36  1  0  0  0  0
  8 37  1  0  0  0  0
  8 38  1  0  0  0  0
  9 14  1  0  0  0  0
  9 10  2  0  0  0  0
 10 11  1  0  0  0  0
 11 12  2  0  0  0  0
 11 39  1  0  0  0  0
 12 13  1  0  0  0  0
 13 17  1  0  0  0  0
 13 14  2  0  0  0  0
 14 15  1  0  0  0  0
 15 16  2  0  0  0  0
 16 17  1  0  0  0  0
 16 40  1  0  0  0  0
 17 18  1  0  0  0  0
 18 19  1  0  0  0  0
 18 41  1  0  0  0  0
 18 42  1  0  0  0  0
 19 26  1  0  0  0  0
 19 20  1  0  0  0  0
 19 22  1  0  0  0  0
 20 21  1  0  0  0  0
 20 43  1  0  0  0  0
 20 44  1  0  0  0  0
 21 45  1  0  0  0  0
 22 23  1  0  0  0  0
 22 46  1  0  0  0  0
 22 47  1  0  0  0  0
 23 24  1  0  0  0  0
 23 48  1  0  0  0  0
 23 49  1  0  0  0  0
 24 25  1  0  0  0  0
 25 26  1  0  0  0  0
 25 50  1  0  0  0  0
 25 51  1  0  0  0  0
 26 52  1  0  0  0  0
 26 53  1  0  0  0  0
M  END
> <s_m_source_file>
AV-unprocessed.smi

> <i_m_source_file_index>
194

> <i_lp_mmshare_version>
43012

> <i_f3d_flags>
0

> <s_epik_input>
W0NIM11bU0BAXSg9TylbQ0gyXVtDQEBIXShbQ0gzXSlOKFtDSDNdKWMobltjSF1uMSljKGMxMiluW2NIXW4yW0NIMl1DMyhbQ0gyXVtPSF0pW0NIMl1bQ0gyXU9bQ0gyXVtDSDJdMw==

> <s_epik_cmdline>
J2VwaWtfcHl0aG9uJywgJy1waCcsICc3LjAnLCAnLXRuJywgJzgnLCAnLW1hJywgJzIwMCcsICctbWV0YWxfYmluZGluZycsICctaW1hZScsICc8aW5maWxlLm1hZT4nLCAnLW9tYWUnLCAnPG91dGZpbGUubWFlPic=

> <r_lp_tautomer_probability>
1

> <r_epik_Ionization_Penalty>
0.00101625

> <r_epik_Ionization_Penalty_Charging>
0

> <r_epik_Ionization_Penalty_Neutral>
0.00101625

> <r_epik_State_Penalty>
0.000568005

> <r_epik_Charging_Adjusted_Penalty>
0.000568005

> <i_epik_Tot_Q>
0

> <i_epik_Tot_abs_Q>
0

> <r_epik_Metal_State_Penalty>
-0

> <b_epik_Metal_Only>
0

> <s_lp_Force_Field>
OPLS_2005

> <r_lp_Energy>
31.1686

> <b_lp_Chiralities_Consistent>
1

> <s_lp_Variant>
AV-unprocessed.smi:194-2

> <Gold.Version>
5.8.1

> <Gold.Id.Protein>
6NUR|6NUR_protein|mol2

> <Gold.PLP.Fitness>
54.6209

> <Gold.PLP.PLP>
-45.6181

> <Gold.PLP.part.hbond>
-3.2464

> <Gold.PLP.part.metal>
0.0000

> <Gold.PLP.part.buried>
-2.2550

> <Gold.PLP.part.nonpolar>
-38.6625

> <Gold.PLP.part.repulsive>
0.2053

> <Gold.PLP.ligand.clash>
0.0000

> <Gold.PLP.ligand.torsion>
1.4145

> <Gold.PLP.Chemscore.Hbond>
3.0000

> <Gold.PLP.Chemscore.CHOScore>
0.7310

> <Gold.PLP.Chemscore.Metal>
0.0000

> <Gold.Chemscore.Hbonds>
donor molecule, donor type, donor heavy atom, donor atom, acceptor molecule, acceptor atom, score
      L1  H    21    45       P1  7957  1.00
      P1  H  7989  7998       L1    12  1.00
      P1  H  7997  8008       L1    10  0.65
      L1  C    16    40       P1  8028  0.65

> <Gold.PLP.Chemscore.Internal.Correction>
0.6388

> <Gold.Rescore>
     Score         DG    S(hbond)    S(metal)    S(lipo)     H(rot)  DE(clash)    DE(int)     intcor
      7.51     -10.36       1.02        0.00      84.95       3.31       0.48       2.37       ----

> <Gold.Chemscore.Fitness>
7.5078

> <Gold.Chemscore.DG>
-10.3588

> <Gold.Chemscore.ZeroCoef>
-5.4800

> <Gold.Chemscore.Hbond>
1.0218

> <Gold.Chemscore.Metal>
0.0000

> <Gold.Chemscore.Lipo>
84.9474

> <Gold.Chemscore.Internal_Hbond>
0.0000

> <Gold.Chemscore.DEClash>
0.4786

> <Gold.Chemscore.DEInternal>
2.3723

> <Gold.Chemscore.Rot>
3.3098

> <Gold.Chemscore.Internal.Correction>
   9.000000E+99

> <Gold.Chemscore.Hbonds>
donor molecule, donor type, donor heavy atom, donor atom, acceptor molecule, acceptor atom, score
      L1  H    21    45       P1  7957  1.00
      P1  H  7989  7998       L1    12  0.34
      P1  H  7997  8008       L1    10  0.04

> <Gold.Chemscore.Hbond.Weighted>
-3.4129

> <Gold.Chemscore.Metal.Weighted>
-0.0000

> <Gold.Chemscore.Lipo.Weighted>
-9.9388

> <Gold.Chemscore.Internal_Hbond.Weighted>
0.0000

> <Gold.Chemscore.DEClash.Weighted>
0.4786

> <Gold.Chemscore.DEInternal.Weighted>
2.3723

> <Gold.Chemscore.Rot.Weighted>
8.4730

> <Gold.Chemscore.Internal.Correction.Weighted>
   9.000000E+99

> <Gold.Protein.RotatedTorsions>
[ 6907 6896 6895 6894 ] final -157.30 input  -60.11 | X-H torsion
[ 7974 7965 7964 7962 ] final  -69.61 input  175.53 | X-H torsion
[ 8008 7997 7996 7995 ] final  -70.58 input   59.86 | X-H torsion
[ 10167 10162 10161 10158 ] final  111.02 input  -65.29 | X-H torsion
[ 10718 10713 10712 10709 ] final   47.99 input   66.30 | X-H torsion
[ 10763 10752 10751 10750 ] final -170.75 input  -60.55 | X-H torsion
[ 11005 11000 10999 10996 ] final  -95.03 input  -57.11 | X-H torsion

> <Gold.Protein.ActiveResidues>
 VAL166  LYS551  ARG553  GLY616  TRP617  ASP618  TYR619  PRO620  LYS621  CYS622 
 ASP623  PHE694  ASN695  SER759  ASP760  ASP761  ALA762  ILE779  LEU786  VAL792 
 PHE793  MET794  SER795  GLU796  ALA797  LYS798  CYS799  TRP800  GLU811  SER814 

> <Gold.Protein.RotatedAtoms>
  151.3007  133.4123  159.2639 H   0  0  0  0  0  0  0  0  0  0  0  0  # atno 6907 bound_to 6896
  151.0197  134.9460  159.8063 H   0  0  0  0  0  0  0  0  0  0  0  0  # atno 6908 bound_to 6896
  152.5321  134.2971  159.9117 H   0  0  0  0  0  0  0  0  0  0  0  0  # atno 6909 bound_to 6896
  145.7015  140.9114  143.0728 H   0  0  0  0  0  0  0  0  0  0  0  0  # atno 7974 bound_to 7965
  154.5023  140.0831  156.7822 H   0  0  0  0  0  0  0  0  0  0  0  0  # atno 8008 bound_to 7997
  155.3975  140.3435  155.4237 H   0  0  0  0  0  0  0  0  0  0  0  0  # atno 8009 bound_to 7997
  156.1471  140.1547  156.8816 H   0  0  0  0  0  0  0  0  0  0  0  0  # atno 8010 bound_to 7997
  139.6643  144.7128  151.1806 H   0  0  0  0  0  0  0  0  0  0  0  0  # atno 10167 bound_to 10162
  157.4641  130.8214  149.7917 H   0  0  0  0  0  0  0  0  0  0  0  0  # atno 10718 bound_to 10713
  154.6381  135.2895  155.0136 H   0  0  0  0  0  0  0  0  0  0  0  0  # atno 10763 bound_to 10752
  154.1273  135.6539  153.4919 H   0  0  0  0  0  0  0  0  0  0  0  0  # atno 10764 bound_to 10752
  153.0312  135.5302  154.7236 H   0  0  0  0  0  0  0  0  0  0  0  0  # atno 10765 bound_to 10752
  141.1454  133.7997  157.0379 H   0  0  0  0  0  0  0  0  0  0  0  0  # atno 11005 bound_to 11000
  144.6967  139.8954  143.7455 LP  0  0  0  0  0  0  0  0  0  0  0  0  # atno 17320 bound_to 7965
  146.0793  139.3781  143.0474 LP  0  0  0  0  0  0  0  0  0  0  0  0  # atno 17321 bound_to 7965
  140.7593  143.5944  150.8763 LP  0  0  0  0  0  0  0  0  0  0  0  0  # atno 17342 bound_to 10162
  139.9604  143.6170  152.3004 LP  0  0  0  0  0  0  0  0  0  0  0  0  # atno 17343 bound_to 10162
  156.0042  130.3864  150.2492 LP  0  0  0  0  0  0  0  0  0  0  0  0  # atno 17370 bound_to 10713
  157.0671  131.0106  151.3203 LP  0  0  0  0  0  0  0  0  0  0  0  0  # atno 17371 bound_to 10713
  140.0711  134.9701  157.1469 LP  0  0  0  0  0  0  0  0  0  0  0  0  # atno 17394 bound_to 11000
  140.3709  134.2391  155.7178 LP  0  0  0  0  0  0  0  0  0  0  0  0  # atno 17395 bound_to 11000

$$$$
