AV-unprocessed.smi:2527|AV-procd|sdf|9945|dock3
  -GOLD-   2272013583D 1   1.00000     0.00000
 Structure written by MMmdl.
 35 37  0  0  0  0  0  0  0  0  2 V2000
  147.4773  141.7400  154.1315 C   0  0  0  0  0  0  0  0  0  0  0  0
  148.8557  141.4385  154.0100 O   0  0  0  0  0  0  0  0  0  0  0  0
  149.4229  140.9790  155.2264 C   0  0  0  0  0  0  0  0  0  0  0  0
  150.4069  142.0273  155.7644 C   0  0  0  0  0  0  0  0  0  0  0  0
  151.2676  141.4852  156.8058 N   0  0  0  0  0  0  0  0  0  0  0  0
  151.9491  140.3123  156.7967 C   0  0  0  0  0  0  0  0  0  0  0  0
  151.8728  139.2170  155.4085 S   0  0  0  0  0  0  0  0  0  0  0  0
  152.4727  137.6810  156.1719 C   0  0  0  0  0  0  0  0  0  0  0  0
  151.9288  137.4331  157.5612 C   0  0  0  0  0  0  0  0  0  0  0  0
  150.6162  137.7210  157.7985 N   0  0  0  0  0  0  0  0  0  0  0  0
  150.3870  137.4131  159.0709 C   0  0  0  0  0  0  0  0  0  0  0  0
  149.2861  137.5588  159.5977 O   0  0  0  0  0  0  0  0  0  0  0  0
  151.5338  136.9415  159.6192 N   0  5  0  0  0  0  0  0  0  0  0  0
  152.5328  136.9676  158.5922 N   0  0  0  0  0  0  0  0  0  0  0  0
  152.6716  140.0641  157.8911 N   0  0  0  0  0  0  0  0  0  0  0  0
  152.4396  141.1751  158.6760 C   0  0  0  0  0  0  0  0  0  0  0  0
  152.9260  141.5103  159.9596 C   0  0  0  0  0  0  0  0  0  0  0  0
  152.5491  142.7242  160.5711 C   0  0  0  0  0  0  0  0  0  0  0  0
  153.1536  143.1192  162.1379 Cl  0  0  0  0  0  0  0  0  0  0  0  0
  151.6818  143.6170  159.9079 C   0  0  0  0  0  0  0  0  0  0  0  0
  151.1849  143.3007  158.6290 C   0  0  0  0  0  0  0  0  0  0  0  0
  151.5642  142.0875  158.0243 C   0  0  0  0  0  0  0  0  0  0  0  0
  149.9583  138.0941  157.1306 H   0  0  0  0  0  0  0  0  0  0  0  0
  147.0937  142.0893  153.1728 H   0  0  0  0  0  0  0  0  0  0  0  0
  147.3089  142.5265  154.8683 H   0  0  0  0  0  0  0  0  0  0  0  0
  146.9050  140.8582  154.4222 H   0  0  0  0  0  0  0  0  0  0  0  0
  148.6361  140.8012  155.9610 H   0  0  0  0  0  0  0  0  0  0  0  0
  149.9378  140.0306  155.0642 H   0  0  0  0  0  0  0  0  0  0  0  0
  151.0333  142.3995  154.9534 H   0  0  0  0  0  0  0  0  0  0  0  0
  149.8700  142.8928  156.1529 H   0  0  0  0  0  0  0  0  0  0  0  0
  152.2110  136.8425  155.5253 H   0  0  0  0  0  0  0  0  0  0  0  0
  153.5612  137.7123  156.2293 H   0  0  0  0  0  0  0  0  0  0  0  0
  153.5916  140.8322  160.4729 H   0  0  0  0  0  0  0  0  0  0  0  0
  151.3982  144.5463  160.3800 H   0  0  0  0  0  0  0  0  0  0  0  0
  150.5239  143.9846  158.1176 H   0  0  0  0  0  0  0  0  0  0  0  0
  1  2  1  0  0  0  0
  1 24  1  0  0  0  0
  1 25  1  0  0  0  0
  1 26  1  0  0  0  0
  2  3  1  0  0  0  0
  3  4  1  0  0  0  0
  3 27  1  0  0  0  0
  3 28  1  0  0  0  0
  4  5  1  0  0  0  0
  4 29  1  0  0  0  0
  4 30  1  0  0  0  0
  5 22  1  0  0  0  0
  5  6  1  0  0  0  0
  6  7  1  0  0  0  0
  6 15  2  0  0  0  0
  7  8  1  0  0  0  0
  8 31  1  0  0  0  0
  8 32  1  0  0  0  0
  8  9  1  0  0  0  0
  9 14  2  0  0  0  0
  9 10  1  0  0  0  0
 10 11  1  0  0  0  0
 10 23  1  0  0  0  0
 11 13  1  0  0  0  0
 11 12  2  0  0  0  0
 13 14  1  0  0  0  0
 15 16  1  0  0  0  0
 16 22  2  0  0  0  0
 16 17  1  0  0  0  0
 17 18  2  0  0  0  0
 17 33  1  0  0  0  0
 18 19  1  0  0  0  0
 18 20  1  0  0  0  0
 20 21  2  0  0  0  0
 20 34  1  0  0  0  0
 21 22  1  0  0  0  0
 21 35  1  0  0  0  0
M  CHG  1  13  -1
M  END
> <s_m_source_file>
AV-unprocessed.smi

> <i_m_source_file_index>
2527

> <i_lp_mmshare_version>
43012

> <i_f3d_flags>
0

> <s_epik_input>
W2NIXTFjKENsKVtjSF1bY0hdYyhjMTIpbihbQ0gyXVtDSDJdT1tDSDNdKWMobjIpU1tDSDJdYzNuYyg9TylbbkhdW25IXTM=

> <s_epik_cmdline>
J2VwaWtfcHl0aG9uJywgJy1waCcsICc3LjAnLCAnLXRuJywgJzgnLCAnLW1hJywgJzIwMCcsICctbWV0YWxfYmluZGluZycsICctaW1hZScsICc8aW5maWxlLm1hZT4nLCAnLW9tYWUnLCAnPG91dGZpbGUubWFlPic=

> <r_lp_tautomer_probability>
0.999897

> <r_epik_Ionization_Penalty>
2.94119

> <r_epik_Ionization_Penalty_Charging>
1.40065e-06

> <r_epik_Ionization_Penalty_Neutral>
2.94119

> <r_epik_State_Penalty>
4.57578

> <r_epik_Charging_Adjusted_Penalty>
4.57578

> <i_epik_Tot_Q>
-1

> <i_epik_Tot_abs_Q>
1

> <r_epik_Metal_State_Penalty>
2.1052

> <b_epik_Metal_Only>
1

> <s_lp_Force_Field>
OPLS_2005

> <r_lp_Energy>
14.3955

> <b_lp_Chiralities_Consistent>
1

> <s_lp_Variant>
AV-unprocessed.smi:2527-4

> <Gold.Version>
5.8.1

> <Gold.Id.Protein>
6NUR|6NUR_protein|mol2

> <Gold.PLP.Fitness>
51.1345

> <Gold.PLP.PLP>
-42.4714

> <Gold.PLP.part.hbond>
-4.1159

> <Gold.PLP.part.metal>
0.0000

> <Gold.PLP.part.buried>
-5.6698

> <Gold.PLP.part.nonpolar>
-31.5631

> <Gold.PLP.part.repulsive>
0.2278

> <Gold.PLP.ligand.clash>
0.0000

> <Gold.PLP.ligand.torsion>
1.1756

> <Gold.PLP.Chemscore.Hbond>
3.6390

> <Gold.PLP.Chemscore.CHOScore>
0.0000

> <Gold.PLP.Chemscore.Metal>
0.0000

> <Gold.Chemscore.Hbonds>
donor molecule, donor type, donor heavy atom, donor atom, acceptor molecule, acceptor atom, score
      P1  H  6896  6907       L1    13  2.00
      P1  H  6931  6943       L1    12  0.02
      P1  H  7997  8009       L1    15  0.78
      P1  H  8011  8017       L1     2  0.49

> <Gold.PLP.Chemscore.Internal.Correction>
0.0974

> <Gold.Rescore>
     Score         DG    S(hbond)    S(metal)    S(lipo)     H(rot)  DE(clash)    DE(int)     intcor
     13.39     -16.55       1.83        0.00     103.74       2.81       0.73       2.43       ----

> <Gold.Chemscore.Fitness>
13.3904

> <Gold.Chemscore.DG>
-16.5513

> <Gold.Chemscore.ZeroCoef>
-5.4800

> <Gold.Chemscore.Hbond>
1.8338

> <Gold.Chemscore.Metal>
0.0000

> <Gold.Chemscore.Lipo>
103.7427

> <Gold.Chemscore.Internal_Hbond>
0.0000

> <Gold.Chemscore.DEClash>
0.7291

> <Gold.Chemscore.DEInternal>
2.4318

> <Gold.Chemscore.Rot>
2.8092

> <Gold.Chemscore.Internal.Correction>
   9.000000E+99

> <Gold.Chemscore.Hbonds>
donor molecule, donor type, donor heavy atom, donor atom, acceptor molecule, acceptor atom, score
      P1  H  6896  6907       L1    13  0.21
      P1  H  6931  6943       L1    12  0.03
      P1  H  7997  8009       L1    15  0.13
      P1  H  8011  8017       L1     2  0.41

> <Gold.Chemscore.Hbond.Weighted>
-6.1250

> <Gold.Chemscore.Metal.Weighted>
-0.0000

> <Gold.Chemscore.Lipo.Weighted>
-12.1379

> <Gold.Chemscore.Internal_Hbond.Weighted>
0.0000

> <Gold.Chemscore.DEClash.Weighted>
0.7291

> <Gold.Chemscore.DEInternal.Weighted>
2.4318

> <Gold.Chemscore.Rot.Weighted>
7.1916

> <Gold.Chemscore.Internal.Correction.Weighted>
   9.000000E+99

> <Gold.Protein.RotatedTorsions>
[ 6907 6896 6895 6894 ] final  -21.30 input  -60.11 | X-H torsion
[ 7974 7965 7964 7962 ] final  102.34 input  175.53 | X-H torsion
[ 8008 7997 7996 7995 ] final  157.05 input   59.86 | X-H torsion
[ 10167 10162 10161 10158 ] final  -51.44 input  -65.29 | X-H torsion
[ 10718 10713 10712 10709 ] final   -6.04 input   66.30 | X-H torsion
[ 10763 10752 10751 10750 ] final  131.51 input  -60.55 | X-H torsion
[ 11005 11000 10999 10996 ] final   72.24 input  -57.11 | X-H torsion

> <Gold.Protein.ActiveResidues>
 VAL166  LYS551  ARG553  GLY616  TRP617  ASP618  TYR619  PRO620  LYS621  CYS622 
 ASP623  PHE694  ASN695  SER759  ASP760  ASP761  ALA762  ILE779  LEU786  VAL792 
 PHE793  MET794  SER795  GLU796  ALA797  LYS798  CYS799  TRP800  GLU811  SER814 

> <Gold.Protein.RotatedAtoms>
  151.2354  135.0569  159.9003 H   0  0  0  0  0  0  0  0  0  0  0  0  # atno 6907 bound_to 6896
  152.5400  134.0492  159.8112 H   0  0  0  0  0  0  0  0  0  0  0  0  # atno 6908 bound_to 6896
  151.0678  133.5442  159.2661 H   0  0  0  0  0  0  0  0  0  0  0  0  # atno 6909 bound_to 6896
  145.3604  139.2419  143.3510 H   0  0  0  0  0  0  0  0  0  0  0  0  # atno 7974 bound_to 7965
  156.2387  140.1896  156.7049 H   0  0  0  0  0  0  0  0  0  0  0  0  # atno 8008 bound_to 7997
  154.6154  140.0616  156.9575 H   0  0  0  0  0  0  0  0  0  0  0  0  # atno 8009 bound_to 7997
  155.1947  140.3287  155.4355 H   0  0  0  0  0  0  0  0  0  0  0  0  # atno 8010 bound_to 7997
  140.6588  143.2620  151.4503 H   0  0  0  0  0  0  0  0  0  0  0  0  # atno 10167 bound_to 10162
  156.7377  130.5200  149.5831 H   0  0  0  0  0  0  0  0  0  0  0  0  # atno 10718 bound_to 10713
  153.7755  135.3176  155.3358 H   0  0  0  0  0  0  0  0  0  0  0  0  # atno 10763 bound_to 10752
  154.8181  135.4622  154.0703 H   0  0  0  0  0  0  0  0  0  0  0  0  # atno 10764 bound_to 10752
  153.1975  135.6917  153.8358 H   0  0  0  0  0  0  0  0  0  0  0  0  # atno 10765 bound_to 10752
  139.9501  134.7242  156.0883 H   0  0  0  0  0  0  0  0  0  0  0  0  # atno 11005 bound_to 11000
  146.2930  140.4237  142.8732 LP  0  0  0  0  0  0  0  0  0  0  0  0  # atno 17320 bound_to 7965
  144.8651  140.7194  143.6083 LP  0  0  0  0  0  0  0  0  0  0  0  0  # atno 17321 bound_to 7965
  139.5817  144.1695  152.1976 LP  0  0  0  0  0  0  0  0  0  0  0  0  # atno 17342 bound_to 10162
  140.1022  144.5529  150.6981 LP  0  0  0  0  0  0  0  0  0  0  0  0  # atno 17343 bound_to 10162
  156.1485  130.6294  151.0564 LP  0  0  0  0  0  0  0  0  0  0  0  0  # atno 17370 bound_to 10713
  157.6832  131.0832  150.7315 LP  0  0  0  0  0  0  0  0  0  0  0  0  # atno 17371 bound_to 10713
  141.1162  133.6627  156.3100 LP  0  0  0  0  0  0  0  0  0  0  0  0  # atno 17394 bound_to 11000
  140.5739  134.5813  157.5464 LP  0  0  0  0  0  0  0  0  0  0  0  0  # atno 17395 bound_to 11000

$$$$
