AV-unprocessed.smi:2669|AV-procd|sdf|10343|dock2
  -GOLD-   2272014363D 1   1.00000     0.00000
 Structure written by MMmdl.
 39 41  0  0  0  0  0  0  0  0  1 V2000
  148.7989  133.4466  154.1848 C   0  0  0  0  0  0  0  0  0  0  0  0
  147.6499  134.1680  153.6609 N   0  0  0  0  0  0  0  0  0  0  0  0
  146.8474  133.5995  152.6620 C   0  0  0  0  0  0  0  0  0  0  0  0
  147.0118  132.2991  152.3248 N   0  0  0  0  0  0  0  0  0  0  0  0
  146.2274  131.7972  151.3625 C   0  0  0  0  0  0  0  0  0  0  0  0
  145.2650  132.4059  150.6527 N   0  0  0  0  0  0  0  0  0  0  0  0
  145.0917  133.6933  150.9814 C   0  0  0  0  0  0  0  0  0  0  0  0
  144.1721  134.5582  150.4134 N   0  0  0  0  0  0  0  0  0  0  0  0
  144.4094  135.6826  151.0840 C   0  0  0  0  0  0  0  0  0  0  0  0
  145.3742  135.6558  152.0241 N   0  0  0  0  0  0  0  0  0  0  0  0
  145.7829  136.7691  152.8646 C   0  0  0  0  0  0  0  0  0  0  0  0
  146.1596  138.0216  152.0484 C   0  0  2  0  0  0  0  0  0  0  0  0
  147.0770  137.6792  151.0284 O   0  0  0  0  0  0  0  0  0  0  0  0
  146.7896  139.1196  152.9177 C   0  0  0  0  0  0  0  0  0  0  0  0
  148.0568  138.6720  153.3809 O   0  0  0  0  0  0  0  0  0  0  0  0
  148.7304  139.4514  154.2963 C   0  0  0  0  0  0  0  0  0  0  0  0
  149.9848  138.9807  154.7367 C   0  0  0  0  0  0  0  0  0  0  0  0
  150.7430  139.7132  155.6702 C   0  0  0  0  0  0  0  0  0  0  0  0
  150.2506  140.9309  156.1754 C   0  0  0  0  0  0  0  0  0  0  0  0
  151.1774  141.8319  157.3182 Cl  0  0  0  0  0  0  0  0  0  0  0  0
  148.9998  141.4120  155.7458 C   0  0  0  0  0  0  0  0  0  0  0  0
  148.2417  140.6786  154.8122 C   0  0  0  0  0  0  0  0  0  0  0  0
  145.8603  134.3492  151.9903 C   0  0  0  0  0  0  0  0  0  0  0  0
  149.3388  134.0725  154.8952 H   0  0  0  0  0  0  0  0  0  0  0  0
  149.4846  133.1728  153.3823 H   0  0  0  0  0  0  0  0  0  0  0  0
  148.4823  132.5395  154.7006 H   0  0  0  0  0  0  0  0  0  0  0  0
  147.5305  135.1414  153.9023 H   0  0  0  0  0  0  0  0  0  0  0  0
  146.3928  130.7572  151.1239 H   0  0  0  0  0  0  0  0  0  0  0  0
  143.8466  136.5819  150.8803 H   0  0  0  0  0  0  0  0  0  0  0  0
  144.9579  137.0004  153.5396 H   0  0  0  0  0  0  0  0  0  0  0  0
  146.6104  136.4538  153.4992 H   0  0  0  0  0  0  0  0  0  0  0  0
  145.2677  138.4206  151.5633 H   0  0  0  0  0  0  0  0  0  0  0  0
  147.7185  137.0850  151.3874 H   0  0  0  0  0  0  0  0  0  0  0  0
  146.8900  140.0412  152.3413 H   0  0  0  0  0  0  0  0  0  0  0  0
  146.1452  139.3242  153.7745 H   0  0  0  0  0  0  0  0  0  0  0  0
  150.3709  138.0474  154.3535 H   0  0  0  0  0  0  0  0  0  0  0  0
  151.7022  139.3390  155.9968 H   0  0  0  0  0  0  0  0  0  0  0  0
  148.6185  142.3460  156.1319 H   0  0  0  0  0  0  0  0  0  0  0  0
  147.2872  141.0802  154.5083 H   0  0  0  0  0  0  0  0  0  0  0  0
  1  2  1  0  0  0  0
  1 24  1  0  0  0  0
  1 25  1  0  0  0  0
  1 26  1  0  0  0  0
  2  3  1  0  0  0  0
  2 27  1  0  0  0  0
  3 23  1  0  0  0  0
  3  4  2  0  0  0  0
  4  5  1  0  0  0  0
  5  6  2  0  0  0  0
  5 28  1  0  0  0  0
  6  7  1  0  0  0  0
  7 23  2  0  0  0  0
  7  8  1  0  0  0  0
  8  9  2  0  0  0  0
  9 10  1  0  0  0  0
  9 29  1  0  0  0  0
 10 11  1  0  0  0  0
 10 23  1  0  0  0  0
 11 12  1  0  0  0  0
 11 30  1  0  0  0  0
 11 31  1  0  0  0  0
 12 13  1  0  0  0  0
 12 14  1  0  0  0  0
 12 32  1  0  0  0  0
 13 33  1  0  0  0  0
 14 15  1  0  0  0  0
 14 34  1  0  0  0  0
 14 35  1  0  0  0  0
 15 16  1  0  0  0  0
 16 22  1  0  0  0  0
 16 17  2  0  0  0  0
 17 18  1  0  0  0  0
 17 36  1  0  0  0  0
 18 19  2  0  0  0  0
 18 37  1  0  0  0  0
 19 20  1  0  0  0  0
 19 21  1  0  0  0  0
 21 22  2  0  0  0  0
 21 38  1  0  0  0  0
 22 39  1  0  0  0  0
M  END
> <s_m_source_file>
AV-unprocessed.smi

> <i_m_source_file_index>
2669

> <i_lp_mmshare_version>
43012

> <i_f3d_flags>
0

> <s_epik_input>
bjFbY0hdbmMoW05IXVtDSDNdKWMoYzEyKW4oW2NIXW4yKVtDSDJdW0NASF0oW09IXSlbQ0gyXU9jM1tjSF1bY0hdYyhDbClbY0hdW2NIXTM=

> <s_epik_cmdline>
J2VwaWtfcHl0aG9uJywgJy1waCcsICc3LjAnLCAnLXRuJywgJzgnLCAnLW1hJywgJzIwMCcsICctbWV0YWxfYmluZGluZycsICctaW1hZScsICc8aW5maWxlLm1hZT4nLCAnLW9tYWUnLCAnPG91dGZpbGUubWFlPic=

> <r_lp_tautomer_probability>
1

> <r_epik_Ionization_Penalty>
0.00733592

> <r_epik_Ionization_Penalty_Charging>
0

> <r_epik_Ionization_Penalty_Neutral>
0.00733592

> <r_epik_State_Penalty>
-0

> <r_epik_Charging_Adjusted_Penalty>
0

> <i_epik_Tot_Q>
0

> <i_epik_Tot_abs_Q>
0

> <r_epik_Metal_State_Penalty>
-0

> <b_epik_Metal_Only>
0

> <s_lp_Force_Field>
OPLS_2005

> <r_lp_Energy>
12.7517

> <b_lp_Chiralities_Consistent>
1

> <s_lp_Variant>
AV-unprocessed.smi:2669-1

> <Gold.Version>
5.8.1

> <Gold.Id.Protein>
6NUR|6NUR_protein|mol2

> <Gold.PLP.Fitness>
45.4200

> <Gold.PLP.PLP>
-38.1305

> <Gold.PLP.part.hbond>
-2.9472

> <Gold.PLP.part.metal>
0.0000

> <Gold.PLP.part.buried>
-1.8726

> <Gold.PLP.part.nonpolar>
-35.8288

> <Gold.PLP.part.repulsive>
3.7836

> <Gold.PLP.ligand.clash>
0.0000

> <Gold.PLP.ligand.torsion>
0.1336

> <Gold.PLP.Chemscore.Hbond>
1.0000

> <Gold.PLP.Chemscore.CHOScore>
1.4736

> <Gold.PLP.Chemscore.Metal>
0.0000

> <Gold.Chemscore.Hbonds>
donor molecule, donor type, donor heavy atom, donor atom, acceptor molecule, acceptor atom, score
      L1  H    13    33       P1  7948  1.00
      P1  H  7954  7966       L1    13  0.15
      L1  C     5    28       P1 10747  0.23
      L1  C     9    29       P1 10171  1.00

> <Gold.PLP.Chemscore.Internal.Correction>
0.1358

> <Gold.Rescore>
     Score         DG    S(hbond)    S(metal)    S(lipo)     H(rot)  DE(clash)    DE(int)     intcor
      8.70      -8.96       1.00        0.00      66.43       2.97       0.02       0.24       ----

> <Gold.Chemscore.Fitness>
8.6953

> <Gold.Chemscore.DG>
-8.9613

> <Gold.Chemscore.ZeroCoef>
-5.4800

> <Gold.Chemscore.Hbond>
0.9953

> <Gold.Chemscore.Metal>
0.0000

> <Gold.Chemscore.Lipo>
66.4264

> <Gold.Chemscore.Internal_Hbond>
0.0000

> <Gold.Chemscore.DEClash>
0.0239

> <Gold.Chemscore.DEInternal>
0.2422

> <Gold.Chemscore.Rot>
2.9746

> <Gold.Chemscore.Internal.Correction>
   9.000000E+99

> <Gold.Chemscore.Hbonds>
donor molecule, donor type, donor heavy atom, donor atom, acceptor molecule, acceptor atom, score
      L1  H    13    33       P1  7948  0.93

> <Gold.Chemscore.Hbond.Weighted>
-3.3244

> <Gold.Chemscore.Metal.Weighted>
-0.0000

> <Gold.Chemscore.Lipo.Weighted>
-7.7719

> <Gold.Chemscore.Internal_Hbond.Weighted>
0.0000

> <Gold.Chemscore.DEClash.Weighted>
0.0239

> <Gold.Chemscore.DEInternal.Weighted>
0.2422

> <Gold.Chemscore.Rot.Weighted>
7.6150

> <Gold.Chemscore.Internal.Correction.Weighted>
   9.000000E+99

> <Gold.Protein.RotatedTorsions>
[ 6907 6896 6895 6894 ] final  107.27 input  -60.11 | X-H torsion
[ 7974 7965 7964 7962 ] final -156.92 input  175.53 | X-H torsion
[ 8008 7997 7996 7995 ] final  -33.47 input   59.86 | X-H torsion
[ 10167 10162 10161 10158 ] final  -16.59 input  -65.29 | X-H torsion
[ 10718 10713 10712 10709 ] final  127.71 input   66.30 | X-H torsion
[ 10763 10752 10751 10750 ] final -161.79 input  -60.55 | X-H torsion
[ 11005 11000 10999 10996 ] final -107.50 input  -57.11 | X-H torsion

> <Gold.Protein.ActiveResidues>
 VAL166  LYS551  ARG553  GLY616  TRP617  ASP618  TYR619  PRO620  LYS621  CYS622 
 ASP623  PHE694  ASN695  SER759  ASP760  ASP761  ALA762  ILE779  LEU786  VAL792 
 PHE793  MET794  SER795  GLU796  ALA797  LYS798  CYS799  TRP800  GLU811  SER814 

> <Gold.Protein.RotatedAtoms>
  152.5161  133.9260  159.7556 H   0  0  0  0  0  0  0  0  0  0  0  0  # atno 6907 bound_to 6896
  150.9621  133.6426  159.2759 H   0  0  0  0  0  0  0  0  0  0  0  0  # atno 6908 bound_to 6896
  151.3667  135.0920  159.9505 H   0  0  0  0  0  0  0  0  0  0  0  0  # atno 6909 bound_to 6896
  144.7571  140.4041  143.6004 H   0  0  0  0  0  0  0  0  0  0  0  0  # atno 7974 bound_to 7965
  154.4148  140.1710  156.1893 H   0  0  0  0  0  0  0  0  0  0  0  0  # atno 8008 bound_to 7997
  155.9616  140.3393  155.6472 H   0  0  0  0  0  0  0  0  0  0  0  0  # atno 8009 bound_to 7997
  155.6740  140.0715  157.2500 H   0  0  0  0  0  0  0  0  0  0  0  0  # atno 8010 bound_to 7997
  140.7236  143.5100  150.9761 H   0  0  0  0  0  0  0  0  0  0  0  0  # atno 10167 bound_to 10162
  157.5309  131.1098  150.9011 H   0  0  0  0  0  0  0  0  0  0  0  0  # atno 10718 bound_to 10713
  154.7272  135.3038  154.8951 H   0  0  0  0  0  0  0  0  0  0  0  0  # atno 10763 bound_to 10752
  153.9805  135.6731  153.4754 H   0  0  0  0  0  0  0  0  0  0  0  0  # atno 10764 bound_to 10752
  153.0885  135.4971  154.8564 H   0  0  0  0  0  0  0  0  0  0  0  0  # atno 10765 bound_to 10752
  141.0950  133.8987  157.1984 H   0  0  0  0  0  0  0  0  0  0  0  0  # atno 11005 bound_to 11000
  145.6742  139.1605  143.2737 LP  0  0  0  0  0  0  0  0  0  0  0  0  # atno 17320 bound_to 7965
  146.1594  140.6811  142.9285 LP  0  0  0  0  0  0  0  0  0  0  0  0  # atno 17321 bound_to 7965
  139.8814  143.7067  152.3156 LP  0  0  0  0  0  0  0  0  0  0  0  0  # atno 17342 bound_to 10162
  139.7351  144.7573  151.0740 LP  0  0  0  0  0  0  0  0  0  0  0  0  # atno 17343 bound_to 10162
  156.9593  130.5449  149.5285 LP  0  0  0  0  0  0  0  0  0  0  0  0  # atno 17370 bound_to 10713
  156.0421  130.5503  150.8796 LP  0  0  0  0  0  0  0  0  0  0  0  0  # atno 17371 bound_to 10713
  139.9785  135.0106  156.9691 LP  0  0  0  0  0  0  0  0  0  0  0  0  # atno 17394 bound_to 11000
  140.5161  134.0954  155.7281 LP  0  0  0  0  0  0  0  0  0  0  0  0  # atno 17395 bound_to 11000

$$$$
