AV-unprocessed.smi:3209|AV-procd|sdf|12271|dock3
  -GOLD-   2272018103D 1   1.00000     0.00000
 Structure written by MMmdl.
 37 39  0  0  0  0  0  0  0  0  2 V2000
  152.9676  142.4199  161.5548 C   0  0  0  0  0  0  0  0  0  0  0  0
  152.4306  143.1682  160.3831 C   0  0  0  0  0  0  0  0  0  0  0  0
  152.3499  142.6566  159.1519 N   0  0  0  0  0  0  0  0  0  0  0  0
  151.8109  143.5577  158.2283 C   0  0  0  0  0  0  0  0  0  0  0  0
  151.6500  143.1509  156.7951 C   0  0  0  0  0  0  0  0  0  0  0  0
  150.8712  141.8368  156.6475 C   0  0  0  0  0  0  0  0  0  0  0  0
  149.4887  142.0885  156.1938 N   0  3  0  0  0  0  0  0  0  0  0  0
  149.1979  141.6237  154.8200 C   0  0  1  0  0  0  0  0  0  0  0  0
  149.3913  140.1056  154.6128 C   0  0  0  0  0  0  0  0  0  0  0  0
  148.0486  139.6762  153.9890 C   0  0  1  0  0  0  0  0  0  0  0  0
  146.9720  139.6515  155.0880 C   0  0  0  0  0  0  0  0  0  0  0  0
  146.7496  141.1477  155.3736 C   0  0  0  0  0  0  0  0  0  0  0  0
  147.7281  141.8370  154.3973 C   0  0  2  0  0  0  0  0  0  0  0  0
  147.6454  140.9109  153.1878 C   0  0  0  0  0  0  0  0  0  0  0  0
  151.4793  144.7684  158.7838 C   0  0  0  0  0  0  0  0  0  0  0  0
  151.8348  144.8201  160.4887 S   0  0  0  0  0  0  0  0  0  0  0  0
  153.4425  141.4921  161.2344 H   0  0  0  0  0  0  0  0  0  0  0  0
  152.1591  142.1796  162.2451 H   0  0  0  0  0  0  0  0  0  0  0  0
  153.7065  143.0270  162.0780 H   0  0  0  0  0  0  0  0  0  0  0  0
  151.1392  143.9410  156.2430 H   0  0  0  0  0  0  0  0  0  0  0  0
  152.6303  143.0458  156.3284 H   0  0  0  0  0  0  0  0  0  0  0  0
  151.3717  141.1863  155.9289 H   0  0  0  0  0  0  0  0  0  0  0  0
  150.8499  141.3078  157.6010 H   0  0  0  0  0  0  0  0  0  0  0  0
  148.8446  141.6398  156.8295 H   0  0  0  0  0  0  0  0  0  0  0  0
  149.8390  142.1721  154.1270 H   0  0  0  0  0  0  0  0  0  0  0  0
  150.2184  139.9180  153.9269 H   0  0  0  0  0  0  0  0  0  0  0  0
  149.5983  139.5651  155.5375 H   0  0  0  0  0  0  0  0  0  0  0  0
  148.1075  138.7507  153.4153 H   0  0  0  0  0  0  0  0  0  0  0  0
  146.0535  139.1914  154.7208 H   0  0  0  0  0  0  0  0  0  0  0  0
  147.2907  139.0992  155.9730 H   0  0  0  0  0  0  0  0  0  0  0  0
  145.7205  141.4264  155.1429 H   0  0  0  0  0  0  0  0  0  0  0  0
  146.9303  141.4056  156.4173 H   0  0  0  0  0  0  0  0  0  0  0  0
  147.4793  142.8784  154.1913 H   0  0  0  0  0  0  0  0  0  0  0  0
  148.3528  141.1630  152.3958 H   0  0  0  0  0  0  0  0  0  0  0  0
  146.6427  140.8419  152.7617 H   0  0  0  0  0  0  0  0  0  0  0  0
  151.0480  145.6311  158.2974 H   0  0  0  0  0  0  0  0  0  0  0  0
  149.3308  143.0856  156.2264 H   0  0  0  0  0  0  0  0  0  0  0  0
  1  2  1  0  0  0  0
  1 17  1  0  0  0  0
  1 18  1  0  0  0  0
  1 19  1  0  0  0  0
  2 16  1  0  0  0  0
  2  3  2  0  0  0  0
  3  4  1  0  0  0  0
  4  5  1  0  0  0  0
  4 15  2  0  0  0  0
  5  6  1  0  0  0  0
  5 20  1  0  0  0  0
  5 21  1  0  0  0  0
  6  7  1  0  0  0  0
  6 22  1  0  0  0  0
  6 23  1  0  0  0  0
  7  8  1  0  0  0  0
  7 24  1  0  0  0  0
  7 37  1  0  0  0  0
  8 13  1  0  0  0  0
  8  9  1  0  0  0  0
  8 25  1  0  0  0  0
  9 10  1  0  0  0  0
  9 26  1  0  0  0  0
  9 27  1  0  0  0  0
 10 14  1  0  0  0  0
 10 11  1  0  0  0  0
 10 28  1  0  0  0  0
 11 12  1  0  0  0  0
 11 29  1  0  0  0  0
 11 30  1  0  0  0  0
 12 13  1  0  0  0  0
 12 31  1  0  0  0  0
 12 32  1  0  0  0  0
 13 14  1  0  0  0  0
 13 33  1  0  0  0  0
 14 34  1  0  0  0  0
 14 35  1  0  0  0  0
 15 16  1  0  0  0  0
 15 36  1  0  0  0  0
M  CHG  1   7   1
M  END
> <s_m_source_file>
AV-unprocessed.smi

> <i_m_source_file_index>
3209

> <i_lp_mmshare_version>
43012

> <i_f3d_flags>
0

> <s_epik_input>
W0NIM11jMW5jKFtjSF1zMSlbQ0gyXVtDSDJdW05IXVtDQEhdKFtDSDJdW0NASF0yMylbQ0BIXShbQ0gyXTMpW0NIMl1bQ0gyXTI=

> <s_epik_cmdline>
J2VwaWtfcHl0aG9uJywgJy1waCcsICc3LjAnLCAnLXRuJywgJzgnLCAnLW1hJywgJzIwMCcsICctbWV0YWxfYmluZGluZycsICctaW1hZScsICc8aW5maWxlLm1hZT4nLCAnLW9tYWUnLCAnPG91dGZpbGUubWFlPic=

> <r_lp_tautomer_probability>
1

> <r_epik_Ionization_Penalty>
0.000342479

> <r_epik_Ionization_Penalty_Charging>
0.000317129

> <r_epik_Ionization_Penalty_Neutral>
2.535e-05

> <r_epik_State_Penalty>
-0

> <r_epik_Charging_Adjusted_Penalty>
0.000317129

> <i_epik_Tot_Q>
1

> <i_epik_Tot_abs_Q>
1

> <r_epik_Metal_State_Penalty>
-0

> <b_epik_Metal_Only>
0

> <s_lp_Force_Field>
OPLS_2005

> <r_lp_Energy>
49.0881

> <b_lp_Chiralities_Consistent>
1

> <s_lp_Variant>
AV-unprocessed.smi:3209-4

> <Gold.Version>
5.8.1

> <Gold.Id.Protein>
6NUR|6NUR_protein|mol2

> <Gold.PLP.Fitness>
42.3304

> <Gold.PLP.PLP>
-37.7326

> <Gold.PLP.part.hbond>
-1.0000

> <Gold.PLP.part.metal>
0.0000

> <Gold.PLP.part.buried>
-2.9895

> <Gold.PLP.part.nonpolar>
-33.2903

> <Gold.PLP.part.repulsive>
0.0897

> <Gold.PLP.ligand.clash>
0.0000

> <Gold.PLP.ligand.torsion>
0.7199

> <Gold.PLP.Chemscore.Hbond>
2.0000

> <Gold.PLP.Chemscore.CHOScore>
0.0000

> <Gold.PLP.Chemscore.Metal>
0.0000

> <Gold.Chemscore.Hbonds>
donor molecule, donor type, donor heavy atom, donor atom, acceptor molecule, acceptor atom, score
      L1  H     7    37       P1  8028  2.00

> <Gold.PLP.Chemscore.Internal.Correction>
0.0377

> <Gold.Rescore>
     Score         DG    S(hbond)    S(metal)    S(lipo)     H(rot)  DE(clash)    DE(int)     intcor
     17.33     -19.50       1.00        0.00     120.03       1.31       1.42       0.74       ----

> <Gold.Chemscore.Fitness>
17.3312

> <Gold.Chemscore.DG>
-19.4980

> <Gold.Chemscore.ZeroCoef>
-5.4800

> <Gold.Chemscore.Hbond>
0.9970

> <Gold.Chemscore.Metal>
0.0000

> <Gold.Chemscore.Lipo>
120.0331

> <Gold.Chemscore.Internal_Hbond>
0.0000

> <Gold.Chemscore.DEClash>
1.4237

> <Gold.Chemscore.DEInternal>
0.7432

> <Gold.Chemscore.Rot>
1.3108

> <Gold.Chemscore.Internal.Correction>
   9.000000E+99

> <Gold.Chemscore.Hbonds>
donor molecule, donor type, donor heavy atom, donor atom, acceptor molecule, acceptor atom, score
      L1  H     7    37       P1  8028  0.99

> <Gold.Chemscore.Hbond.Weighted>
-3.3299

> <Gold.Chemscore.Metal.Weighted>
-0.0000

> <Gold.Chemscore.Lipo.Weighted>
-14.0439

> <Gold.Chemscore.Internal_Hbond.Weighted>
0.0000

> <Gold.Chemscore.DEClash.Weighted>
1.4237

> <Gold.Chemscore.DEInternal.Weighted>
0.7432

> <Gold.Chemscore.Rot.Weighted>
3.3558

> <Gold.Chemscore.Internal.Correction.Weighted>
   9.000000E+99

> <Gold.Protein.RotatedTorsions>
[ 6907 6896 6895 6894 ] final  -40.72 input  -60.11 | X-H torsion
[ 7974 7965 7964 7962 ] final   86.11 input  175.53 | X-H torsion
[ 8008 7997 7996 7995 ] final -171.63 input   59.86 | X-H torsion
[ 10167 10162 10161 10158 ] final  -52.51 input  -65.29 | X-H torsion
[ 10718 10713 10712 10709 ] final  -97.62 input   66.30 | X-H torsion
[ 10763 10752 10751 10750 ] final  126.37 input  -60.55 | X-H torsion
[ 11005 11000 10999 10996 ] final  -13.85 input  -57.11 | X-H torsion

> <Gold.Protein.ActiveResidues>
 VAL166  LYS551  ARG553  GLY616  TRP617  ASP618  TYR619  PRO620  LYS621  CYS622 
 ASP623  PHE694  ASN695  SER759  ASP760  ASP761  ALA762  ILE779  LEU786  VAL792 
 PHE793  MET794  SER795  GLU796  ALA797  LYS798  CYS799  TRP800  GLU811  SER814 

> <Gold.Protein.RotatedAtoms>
  150.9751  134.9117  159.7810 H   0  0  0  0  0  0  0  0  0  0  0  0  # atno 6907 bound_to 6896
  152.5203  134.3487  159.9253 H   0  0  0  0  0  0  0  0  0  0  0  0  # atno 6908 bound_to 6896
  151.3495  133.3890  159.2713 H   0  0  0  0  0  0  0  0  0  0  0  0  # atno 6909 bound_to 6896
  145.5766  139.2320  143.2376 H   0  0  0  0  0  0  0  0  0  0  0  0  # atno 7974 bound_to 7965
  155.9341  140.1096  157.1108 H   0  0  0  0  0  0  0  0  0  0  0  0  # atno 8008 bound_to 7997
  154.4076  140.1232  156.4907 H   0  0  0  0  0  0  0  0  0  0  0  0  # atno 8009 bound_to 7997
  155.7043  140.3471  155.4948 H   0  0  0  0  0  0  0  0  0  0  0  0  # atno 8010 bound_to 7997
  140.6533  143.2581  151.4659 H   0  0  0  0  0  0  0  0  0  0  0  0  # atno 10167 bound_to 10162
  156.0088  130.5202  150.6401 H   0  0  0  0  0  0  0  0  0  0  0  0  # atno 10718 bound_to 10713
  153.6922  135.3297  155.3205 H   0  0  0  0  0  0  0  0  0  0  0  0  # atno 10763 bound_to 10752
  154.8437  135.4434  154.1497 H   0  0  0  0  0  0  0  0  0  0  0  0  # atno 10764 bound_to 10752
  153.2541  135.6984  153.7725 H   0  0  0  0  0  0  0  0  0  0  0  0  # atno 10765 bound_to 10752
  140.7804  133.8368  155.9286 H   0  0  0  0  0  0  0  0  0  0  0  0  # atno 11005 bound_to 11000
  146.1746  140.6593  142.9217 LP  0  0  0  0  0  0  0  0  0  0  0  0  # atno 17320 bound_to 7965
  144.7413  140.4949  143.6867 LP  0  0  0  0  0  0  0  0  0  0  0  0  # atno 17321 bound_to 7965
  139.5752  144.1837  152.1892 LP  0  0  0  0  0  0  0  0  0  0  0  0  # atno 17342 bound_to 10162
  140.1145  144.5428  150.6903 LP  0  0  0  0  0  0  0  0  0  0  0  0  # atno 17343 bound_to 10162
  157.4183  131.0833  151.1155 LP  0  0  0  0  0  0  0  0  0  0  0  0  # atno 17370 bound_to 10713
  157.1765  130.6290  149.5658 LP  0  0  0  0  0  0  0  0  0  0  0  0  # atno 17371 bound_to 10713
  140.9488  134.1805  157.4743 LP  0  0  0  0  0  0  0  0  0  0  0  0  # atno 17394 bound_to 11000
  139.8743  134.9901  156.5488 LP  0  0  0  0  0  0  0  0  0  0  0  0  # atno 17395 bound_to 11000

$$$$
