#       Name:                AV-unprocessed.smi:2107
#       Creating user name   scv26
#       Creation time:       Fri Mar 27 11:33:45 2020


#       File generated by GOLD software.
#

@<TRIPOS>MOLECULE
AV-unprocessed.smi:2107
    51    52     1
SMALL
NO_CHARGES


@<TRIPOS>ATOM
      1 ****        -2.9426   3.0614  -0.5094 C.3            1 S1                 0.0000
      2 ****        -2.3025   2.9272  -1.8977 C.3            1 S1                 0.0000
      3 ****        -1.6863   1.5980  -2.0880 N.pl3          1 S1                 0.0000
      4 ****        -2.3746   0.7216  -3.0535 C.3            1 S1                 0.0000
      5 ****        -3.7686   0.3105  -2.5578 C.3            1 S1                 0.0000
      6 ****         0.0381   1.4464  -1.9266 S.o2           1 S1                 0.0000
      7 ****         0.3980   0.0230  -2.0251 O.2            1 S1                 0.0000
      8 ****         0.6718   2.4564  -2.7876 O.2            1 S1                 0.0000
      9 ****         0.2045   1.9431  -0.2819 N.3            1 S1                 0.0000
     10 ****         0.9160   1.0893   0.6722 C.3            1 S1                 0.0000
     11 ****         0.1120  -0.1096   1.1780 C.ar           1 S1                 0.0000
     12 ****        -1.2959  -0.0337   1.2833 C.ar           1 S1                 0.0000
     13 ****        -2.0156  -1.1388   1.7708 C.ar           1 S1                 0.0000
     14 ****        -1.2972  -2.2866   2.1476 C.ar           1 S1                 0.0000
     15 ****         0.0455  -2.3752   2.0650 N.ar           1 S1                 0.0000
     16 ****         0.7439  -1.3128   1.5938 C.ar           1 S1                 0.0000
     17 ****         2.1403  -1.4513   1.5082 N.3            1 S1                 0.0000
     18 ****         2.5761  -2.0004   0.2307 C.3            1 S1                 0.0000
     19 ****         4.1087  -1.9269   0.1235 C.3            1 S1                 0.0000
     20 ****         4.7001  -2.5947   1.2350 O.3            1 S1                 0.0000
     21 ****         4.3241  -2.0055   2.4770 C.3            1 S1                 0.0000
     22 ****         2.7973  -2.0880   2.6446 C.3            1 S1                 0.0000
     23 ****        -3.4736   4.0093  -0.4227 H              1 S1                 0.0000
     24 ****        -2.1962   3.0375   0.2831 H              1 S1                 0.0000
     25 ****        -3.6603   2.2630  -0.3206 H              1 S1                 0.0000
     26 ****        -3.0540   3.1079  -2.6670 H              1 S1                 0.0000
     27 ****        -1.5491   3.7036  -2.0309 H              1 S1                 0.0000
     28 ****        -2.4376   1.2223  -4.0203 H              1 S1                 0.0000
     29 ****        -1.7882  -0.1822  -3.2143 H              1 S1                 0.0000
     30 ****        -4.2285  -0.3954  -3.2495 H              1 S1                 0.0000
     31 ****        -4.4398   1.1648  -2.4720 H              1 S1                 0.0000
     32 ****        -3.7109  -0.1725  -1.5819 H              1 S1                 0.0000
     33 ****         0.4192   2.9349  -0.1805 H              1 S1                 0.0000
     34 ****         1.8554   0.7819   0.2143 H              1 S1                 0.0000
     35 ****         1.1819   1.6951   1.5382 H              1 S1                 0.0000
     36 ****        -1.8296   0.8589   0.9982 H              1 S1                 0.0000
     37 ****        -3.0915  -1.1050   1.8564 H              1 S1                 0.0000
     38 ****        -1.8133  -3.1553   2.5282 H              1 S1                 0.0000
     39 ****         2.2448  -3.0367   0.1516 H              1 S1                 0.0000
     40 ****         2.1183  -1.4551  -0.5944 H              1 S1                 0.0000
     41 ****         4.4445  -2.4025  -0.7980 H              1 S1                 0.0000
     42 ****         4.4457  -0.8895   0.0885 H              1 S1                 0.0000
     43 ****         4.8208  -2.5376   3.2884 H              1 S1                 0.0000
     44 ****         4.6648  -0.9697   2.5180 H              1 S1                 0.0000
     45 ****         2.4928  -1.5976   3.5701 H              1 S1                 0.0000
     46 ****         2.4927  -3.1332   2.7141 H              1 S1                 0.0000
     47 ****        -0.7312   1.7842   0.0333 LP             1 S1                 0.0000
     48 ****         0.5183  -3.2102   2.3465 LP             1 S1                 0.0000
     49 ****         2.4628  -0.5060   1.5570 LP             1 S1                 0.0000
     50 ****         5.6951  -2.5507   1.1454 LP             1 S1                 0.0000
     51 ****         4.4070  -3.5508   1.2299 LP             1 S1                 0.0000
@<TRIPOS>BOND
    1    1    2 1     
    2    1   23 1     
    3    1   24 1     
    4    1   25 1     
    5    2    3 1     
    6    2   26 1     
    7    2   27 1     
    8    3    4 1     
    9    3    6 1     
   10    4    5 1     
   11    4   28 1     
   12    4   29 1     
   13    5   30 1     
   14    5   31 1     
   15    5   32 1     
   16    6    7 2     
   17    6    8 2     
   18    6    9 1     
   19    9   10 1     
   20    9   33 1     
   21   10   11 1     
   22   10   34 1     
   23   10   35 1     
   24   11   16 ar    
   25   11   12 ar    
   26   12   13 ar    
   27   12   36 1     
   28   13   14 ar    
   29   13   37 1     
   30   14   15 ar    
   31   14   38 1     
   32   15   16 ar    
   33   16   17 1     
   34   17   22 1     
   35   17   18 1     
   36   18   19 1     
   37   18   39 1     
   38   18   40 1     
   39   19   20 1     
   40   19   41 1     
   41   19   42 1     
   42   20   21 1     
   43   21   22 1     
   44   21   43 1     
   45   21   44 1     
   46   22   45 1     
   47   22   46 1     
   48    9   47 1     
   49   15   48 1     
   50   17   49 1     
   51   20   50 1     
   52   20   51 1     
@<TRIPOS>SUBSTRUCTURE
      1 S1             1
@<TRIPOS>SET
LONE_PAIRS      STATIC     ATOMS    <user>   **** ""
7 7 8 47 48 49 50 51
DONOR_HYDROGENS      STATIC     ATOMS    <user>   **** ""
1 33
ATOM$BLUE        STATIC     ATOMS    COLORGROUP SYSTEM
7 7 8 47 48 49 50 51
ATOM$RED        STATIC     ATOMS    COLORGROUP SYSTEM
1 33
