AV-unprocessed.smi:3338|AV-procd|sdf|12871|dock4
  -GOLD-   2272019273D 1   1.00000     0.00000
 Structure written by MMmdl.
 44 45  0  0  0  0  0  0  0  0  2 V2000
  146.7346  134.5877  153.4674 C   0  0  0  0  0  0  0  0  0  0  0  0
  145.4310  135.3481  153.1665 C   0  0  2  0  0  0  0  0  0  0  0  0
  144.8564  135.0219  151.7757 C   0  0  0  0  0  0  0  0  0  0  0  0
  145.6751  135.6926  150.6637 C   0  0  0  0  0  0  0  0  0  0  0  0
  145.8144  137.2024  150.9144 C   0  0  0  0  0  0  0  0  0  0  0  0
  146.4077  137.4707  152.2498 N   0  3  1  0  0  0  0  0  0  0  0  0
  146.6979  138.9114  152.4590 C   0  0  0  0  0  0  0  0  0  0  0  0
  146.8211  139.2705  153.9524 C   0  0  0  0  0  0  0  0  0  0  0  0
  148.1950  139.1455  154.4236 N   0  0  0  0  0  0  0  0  0  0  0  0
  149.0843  140.1500  154.4756 C   0  0  0  0  0  0  0  0  0  0  0  0
  148.8070  141.3046  154.1481 O   0  0  0  0  0  0  0  0  0  0  0  0
  150.4925  139.7885  154.9775 C   0  0  2  0  0  0  0  0  0  0  0  0
  150.7338  138.2672  155.0469 C   0  0  0  0  0  0  0  0  0  0  0  0
  150.7634  140.4388  156.2544 N   0  0  0  0  0  0  0  0  0  0  0  0
  150.5590  141.7607  156.5947 C   0  0  0  0  0  0  0  0  0  0  0  0
  150.9285  141.9105  157.9006 C   0  0  0  0  0  0  0  0  0  0  0  0
  151.3465  140.6063  158.2852 C   0  0  0  0  0  0  0  0  0  0  0  0
  151.2415  139.7276  157.3022 N   0  0  0  0  0  0  0  0  0  0  0  0
  145.5916  136.8725  153.3411 C   0  0  0  0  0  0  0  0  0  0  0  0
  147.5414  134.8767  152.7938 H   0  0  0  0  0  0  0  0  0  0  0  0
  146.5910  133.5112  153.3699 H   0  0  0  0  0  0  0  0  0  0  0  0
  147.0728  134.7812  154.4858 H   0  0  0  0  0  0  0  0  0  0  0  0
  144.7027  135.0099  153.9049 H   0  0  0  0  0  0  0  0  0  0  0  0
  144.8164  133.9432  151.6193 H   0  0  0  0  0  0  0  0  0  0  0  0
  143.8260  135.3759  151.7212 H   0  0  0  0  0  0  0  0  0  0  0  0
  146.6638  135.2369  150.6015 H   0  0  0  0  0  0  0  0  0  0  0  0
  145.1994  135.5197  149.6980 H   0  0  0  0  0  0  0  0  0  0  0  0
  146.4446  137.6332  150.1352 H   0  0  0  0  0  0  0  0  0  0  0  0
  144.8410  137.6899  150.8412 H   0  0  0  0  0  0  0  0  0  0  0  0
  147.6409  139.1570  151.9689 H   0  0  0  0  0  0  0  0  0  0  0  0
  145.9332  139.5199  151.9735 H   0  0  0  0  0  0  0  0  0  0  0  0
  146.5100  140.2986  154.1333 H   0  0  0  0  0  0  0  0  0  0  0  0
  146.1650  138.6380  154.5531 H   0  0  0  0  0  0  0  0  0  0  0  0
  148.5015  138.2260  154.7073 H   0  0  0  0  0  0  0  0  0  0  0  0
  151.2016  140.1934  154.2534 H   0  0  0  0  0  0  0  0  0  0  0  0
  150.5958  137.8016  154.0705 H   0  0  0  0  0  0  0  0  0  0  0  0
  150.0561  137.7767  155.7468 H   0  0  0  0  0  0  0  0  0  0  0  0
  151.7524  138.0504  155.3697 H   0  0  0  0  0  0  0  0  0  0  0  0
  150.1715  142.4781  155.8866 H   0  0  0  0  0  0  0  0  0  0  0  0
  150.9025  142.8136  158.4920 H   0  0  0  0  0  0  0  0  0  0  0  0
  151.7174  140.2734  159.2434 H   0  0  0  0  0  0  0  0  0  0  0  0
  144.6088  137.3467  153.3483 H   0  0  0  0  0  0  0  0  0  0  0  0
  146.0388  137.0775  154.3133 H   0  0  0  0  0  0  0  0  0  0  0  0
  147.3004  136.9984  152.2564 H   0  0  0  0  0  0  0  0  0  0  0  0
  1  2  1  0  0  0  0
  1 20  1  0  0  0  0
  1 21  1  0  0  0  0
  1 22  1  0  0  0  0
  2 19  1  0  0  0  0
  2  3  1  0  0  0  0
  2 23  1  0  0  0  0
  3  4  1  0  0  0  0
  3 24  1  0  0  0  0
  3 25  1  0  0  0  0
  4  5  1  0  0  0  0
  4 26  1  0  0  0  0
  4 27  1  0  0  0  0
  5  6  1  0  0  0  0
  5 28  1  0  0  0  0
  5 29  1  0  0  0  0
  6  7  1  0  0  0  0
  6 19  1  0  0  0  0
  6 44  1  0  0  0  0
  7  8  1  0  0  0  0
  7 30  1  0  0  0  0
  7 31  1  0  0  0  0
  8  9  1  0  0  0  0
  8 32  1  0  0  0  0
  8 33  1  0  0  0  0
  9 10  1  0  0  0  0
  9 34  1  0  0  0  0
 10 11  2  0  0  0  0
 10 12  1  0  0  0  0
 12 13  1  0  0  0  0
 12 14  1  0  0  0  0
 12 35  1  0  0  0  0
 13 36  1  0  0  0  0
 13 37  1  0  0  0  0
 13 38  1  0  0  0  0
 14 18  1  0  0  0  0
 14 15  1  0  0  0  0
 15 16  2  0  0  0  0
 15 39  1  0  0  0  0
 16 17  1  0  0  0  0
 16 40  1  0  0  0  0
 17 18  2  0  0  0  0
 17 41  1  0  0  0  0
 19 42  1  0  0  0  0
 19 43  1  0  0  0  0
M  CHG  1   6   1
M  END
> <s_m_source_file>
AV-unprocessed.smi

> <i_m_source_file_index>
3338

> <i_lp_mmshare_version>
43012

> <i_f3d_flags>
0

> <s_epik_input>
W0NIM11bQ0BASF0xW0NIMl1bQ0gyXVtDSDJdTihbQ0gyXTEpW0NIMl1bQ0gyXVtOSF1DKD1PKVtDQEhdKFtDSDNdKW4yW2NIXVtjSF1bY0hdbjI=

> <s_epik_cmdline>
J2VwaWtfcHl0aG9uJywgJy1waCcsICc3LjAnLCAnLXRuJywgJzgnLCAnLW1hJywgJzIwMCcsICctbWV0YWxfYmluZGluZycsICctaW1hZScsICc8aW5maWxlLm1hZT4nLCAnLW9tYWUnLCAnPG91dGZpbGUubWFlPic=

> <r_lp_tautomer_probability>
1

> <r_epik_Ionization_Penalty>
0.00225707

> <r_epik_Ionization_Penalty_Charging>
0.00223709

> <r_epik_Ionization_Penalty_Neutral>
1.99775e-05

> <r_epik_State_Penalty>
0.00153978

> <r_epik_Charging_Adjusted_Penalty>
0.00377687

> <i_epik_Tot_Q>
1

> <i_epik_Tot_abs_Q>
1

> <r_epik_Metal_State_Penalty>
-0

> <b_epik_Metal_Only>
0

> <s_lp_Force_Field>
OPLS_2005

> <r_lp_Energy>
22.4515

> <b_lp_Chiralities_Consistent>
1

> <s_lp_Variant>
AV-unprocessed.smi:3338-3

> <Gold.Version>
5.8.1

> <Gold.Id.Protein>
6NUR|6NUR_protein|mol2

> <Gold.PLP.Fitness>
41.8075

> <Gold.PLP.PLP>
-32.2097

> <Gold.PLP.part.hbond>
-2.4254

> <Gold.PLP.part.metal>
0.0000

> <Gold.PLP.part.buried>
1.0428

> <Gold.PLP.part.nonpolar>
-31.5011

> <Gold.PLP.part.repulsive>
0.7419

> <Gold.PLP.ligand.clash>
0.0000

> <Gold.PLP.ligand.torsion>
0.9524

> <Gold.PLP.Chemscore.Hbond>
2.7840

> <Gold.PLP.Chemscore.CHOScore>
1.0000

> <Gold.PLP.Chemscore.Metal>
0.0000

> <Gold.Chemscore.Hbonds>
donor molecule, donor type, donor heavy atom, donor atom, acceptor molecule, acceptor atom, score
      L1  H     6    44       P1  7948  2.00
      P1  H  8011  8017       L1    11  0.15
      L1  C    15    39       P1  8028  0.84

> <Gold.PLP.Chemscore.Internal.Correction>
0.1506

> <Gold.Rescore>
     Score         DG    S(hbond)    S(metal)    S(lipo)     H(rot)  DE(clash)    DE(int)     intcor
     13.35     -15.72       1.73        0.00      76.51       1.76       1.46       0.92       ----

> <Gold.Chemscore.Fitness>
13.3455

> <Gold.Chemscore.DG>
-15.7233

> <Gold.Chemscore.ZeroCoef>
-5.4800

> <Gold.Chemscore.Hbond>
1.7333

> <Gold.Chemscore.Metal>
0.0000

> <Gold.Chemscore.Lipo>
76.5113

> <Gold.Chemscore.Internal_Hbond>
0.0000

> <Gold.Chemscore.DEClash>
1.4579

> <Gold.Chemscore.DEInternal>
0.9199

> <Gold.Chemscore.Rot>
1.7570

> <Gold.Chemscore.Internal.Correction>
   9.000000E+99

> <Gold.Chemscore.Hbonds>
donor molecule, donor type, donor heavy atom, donor atom, acceptor molecule, acceptor atom, score
      L1  H     6    44       P1  7948  1.00
      P1  H  8011  8017       L1    11  0.17

> <Gold.Chemscore.Hbond.Weighted>
-5.7893

> <Gold.Chemscore.Metal.Weighted>
-0.0000

> <Gold.Chemscore.Lipo.Weighted>
-8.9518

> <Gold.Chemscore.Internal_Hbond.Weighted>
0.0000

> <Gold.Chemscore.DEClash.Weighted>
1.4579

> <Gold.Chemscore.DEInternal.Weighted>
0.9199

> <Gold.Chemscore.Rot.Weighted>
4.4979

> <Gold.Chemscore.Internal.Correction.Weighted>
   9.000000E+99

> <Gold.Protein.RotatedTorsions>
[ 6907 6896 6895 6894 ] final  -77.08 input  -60.11 | X-H torsion
[ 7974 7965 7964 7962 ] final -146.71 input  175.53 | X-H torsion
[ 8008 7997 7996 7995 ] final  106.17 input   59.86 | X-H torsion
[ 10167 10162 10161 10158 ] final  115.41 input  -65.29 | X-H torsion
[ 10718 10713 10712 10709 ] final   18.99 input   66.30 | X-H torsion
[ 10763 10752 10751 10750 ] final  110.78 input  -60.55 | X-H torsion
[ 11005 11000 10999 10996 ] final  147.82 input  -57.11 | X-H torsion

> <Gold.Protein.ActiveResidues>
 VAL166  LYS551  ARG553  GLY616  TRP617  ASP618  TYR619  PRO620  LYS621  CYS622 
 ASP623  PHE694  ASN695  SER759  ASP760  ASP761  ALA762  ILE779  LEU786  VAL792 
 PHE793  MET794  SER795  GLU796  ALA797  LYS798  CYS799  TRP800  GLU811  SER814 

> <Gold.Protein.RotatedAtoms>
  150.7009  134.4475  159.5320 H   0  0  0  0  0  0  0  0  0  0  0  0  # atno 6907 bound_to 6896
  152.2174  134.8442  160.0499 H   0  0  0  0  0  0  0  0  0  0  0  0  # atno 6908 bound_to 6896
  151.9305  133.3575  159.3966 H   0  0  0  0  0  0  0  0  0  0  0  0  # atno 6909 bound_to 6896
  144.8141  140.5420  143.5622 H   0  0  0  0  0  0  0  0  0  0  0  0  # atno 7974 bound_to 7965
  156.1720  140.3117  155.8992 H   0  0  0  0  0  0  0  0  0  0  0  0  # atno 8008 bound_to 7997
  155.3566  140.0474  157.3063 H   0  0  0  0  0  0  0  0  0  0  0  0  # atno 8009 bound_to 7997
  154.5251  140.2211  155.8915 H   0  0  0  0  0  0  0  0  0  0  0  0  # atno 8010 bound_to 7997
  139.6319  144.7116  151.2414 H   0  0  0  0  0  0  0  0  0  0  0  0  # atno 10167 bound_to 10162
  157.1042  130.6481  149.5880 H   0  0  0  0  0  0  0  0  0  0  0  0  # atno 10718 bound_to 10713
  153.4539  135.3737  155.2299 H   0  0  0  0  0  0  0  0  0  0  0  0  # atno 10763 bound_to 10752
  154.8756  135.3892  154.4006 H   0  0  0  0  0  0  0  0  0  0  0  0  # atno 10764 bound_to 10752
  153.4569  135.7086  153.6138 H   0  0  0  0  0  0  0  0  0  0  0  0  # atno 10765 bound_to 10752
  140.0908  134.9042  157.1647 H   0  0  0  0  0  0  0  0  0  0  0  0  # atno 11005 bound_to 11000
  145.5255  139.1476  143.3528 LP  0  0  0  0  0  0  0  0  0  0  0  0  # atno 17320 bound_to 7965
  146.2443  140.5396  142.8921 LP  0  0  0  0  0  0  0  0  0  0  0  0  # atno 17321 bound_to 7965
  140.7444  143.6465  150.8287 LP  0  0  0  0  0  0  0  0  0  0  0  0  # atno 17342 bound_to 10162
  140.0091  143.5662  152.2846 LP  0  0  0  0  0  0  0  0  0  0  0  0  # atno 17343 bound_to 10162
  155.9866  130.4901  150.7087 LP  0  0  0  0  0  0  0  0  0  0  0  0  # atno 17370 bound_to 10713
  157.4615  131.0883  151.0741 LP  0  0  0  0  0  0  0  0  0  0  0  0  # atno 17371 bound_to 10713
  140.3355  134.2762  155.7220 LP  0  0  0  0  0  0  0  0  0  0  0  0  # atno 17394 bound_to 11000
  141.2077  133.7798  157.0103 LP  0  0  0  0  0  0  0  0  0  0  0  0  # atno 17395 bound_to 11000

$$$$
