#       Name:                AV-unprocessed.smi:3142
#       Creating user name   scv26
#       Creation time:       Fri Mar 27 17:37:11 2020


#       File generated by GOLD software.
#

@<TRIPOS>MOLECULE
AV-unprocessed.smi:3142
    39    41     1
SMALL
NO_CHARGES


@<TRIPOS>ATOM
      1 ****        -2.8671  -1.6648   1.6836 C.3            1 S1                 0.0000
      2 ****        -2.2269  -0.8064   0.5756 C.3            1 S1                 0.0000
      3 ****        -0.7128  -0.6264   0.7612 C.2            1 S1                 0.0000
      4 ****        -0.0513  -1.4631   1.3768 O.2            1 S1                 0.0000
      5 ****        -0.1786   0.4751   0.2103 N.am           1 S1                 0.0000
      6 ****         1.2335   0.8404   0.2281 C.3            1 S1                 0.0000
      7 ****         1.6250   1.6016   1.4844 C.3            1 S1                 0.0000
      8 ****         3.0580   1.6477   1.9608 C.3            1 S1                 0.0000
      9 ****         2.0228   0.8826   2.7522 C.3            1 S1                 0.0000
     10 ****         1.6135   1.6333  -1.0088 C.3            1 S1                 0.0000
     11 ****         1.8912   0.9418  -2.3218 C.3            1 S1                 0.0000
     12 ****         3.0182   1.6065  -1.5631 C.3            1 S1                 0.0000
     13 ****        -2.5062  -1.3460  -0.7478 N.pl3          1 S1                 0.0000
     14 ****        -2.2712  -2.6378  -1.2085 C.2            1 S1                 0.0000
     15 ****        -2.6704  -2.6669  -2.5253 C.2            1 S1                 0.0000
     16 ****        -3.1384  -1.4104  -2.9006 N.2            1 S1                 0.0000
     17 ****        -3.0056  -0.6816  -1.8001 C.2            1 S1                 0.0000
     18 ****        -2.6918  -1.2303   2.6683 H              1 S1                 0.0000
     19 ****        -2.4713  -2.6809   1.6949 H              1 S1                 0.0000
     20 ****        -3.9466  -1.7339   1.5458 H              1 S1                 0.0000
     21 ****        -2.6832   0.1837   0.6302 H              1 S1                 0.0000
     22 ****        -0.7996   1.1041  -0.2775 H              1 S1                 0.0000
     23 ****         1.8212  -0.0798   0.2043 H              1 S1                 0.0000
     24 ****         1.0597   2.5215   1.6228 H              1 S1                 0.0000
     25 ****         3.7980   1.0646   1.4167 H              1 S1                 0.0000
     26 ****         3.4185   2.5859   2.3774 H              1 S1                 0.0000
     27 ****         1.6907   1.3107   3.6958 H              1 S1                 0.0000
     28 ****         2.0793  -0.2038   2.7279 H              1 S1                 0.0000
     29 ****         1.0984   2.5895  -1.0835 H              1 S1                 0.0000
     30 ****         1.8691  -0.1461  -2.3369 H              1 S1                 0.0000
     31 ****         1.5374   1.4280  -3.2287 H              1 S1                 0.0000
     32 ****         3.4169   2.5360  -1.9641 H              1 S1                 0.0000
     33 ****         3.7458   0.9557  -1.0826 H              1 S1                 0.0000
     34 ****        -1.8501  -3.4081  -0.5793 H              1 S1                 0.0000
     35 ****        -2.6501  -3.4872  -3.2275 H              1 S1                 0.0000
     36 ****        -3.2772   0.3631  -1.7597 H              1 S1                 0.0000
     37 ****        -0.4993  -2.2699   1.7619 LP             1 S1                 0.0000
     38 ****         0.9339  -1.3357   1.4915 LP             1 S1                 0.0000
     39 ****        -3.4918  -1.1243  -3.7913 LP             1 S1                 0.0000
@<TRIPOS>BOND
    1    1    2 1     
    2    1   18 1     
    3    1   19 1     
    4    1   20 1     
    5    2    3 1     
    6    2   13 1     
    7    2   21 1     
    8    3    4 2     
    9    3    5 am    
   10    5    6 1     
   11    5   22 1     
   12    6    7 1     
   13    6   10 1     
   14    6   23 1     
   15    7    9 1     
   16    7    8 1     
   17    7   24 1     
   18    8    9 1     
   19    8   25 1     
   20    8   26 1     
   21    9   27 1     
   22    9   28 1     
   23   10   12 1     
   24   10   11 1     
   25   10   29 1     
   26   11   12 1     
   27   11   30 1     
   28   11   31 1     
   29   12   32 1     
   30   12   33 1     
   31   13   17 1     
   32   13   14 1     
   33   14   15 2     
   34   14   34 1     
   35   15   16 1     
   36   15   35 1     
   37   16   17 2     
   38   17   36 1     
   39    4   37 1     
   40    4   38 1     
   41   16   39 1     
@<TRIPOS>SUBSTRUCTURE
      1 S1             1
@<TRIPOS>SET
LONE_PAIRS      STATIC     ATOMS    <user>   **** ""
3 37 38 39
DONOR_HYDROGENS      STATIC     ATOMS    <user>   **** ""
1 22
ATOM$BLUE        STATIC     ATOMS    COLORGROUP SYSTEM
3 37 38 39
ATOM$RED        STATIC     ATOMS    COLORGROUP SYSTEM
1 22
