AV-unprocessed.smi:1801|AV-procd|sdf|7270|dock3
  -GOLD-   22720 8523D 1   1.00000     0.00000
 Structure written by MMmdl.
 37 38  0  0  0  0  0  0  0  0  3 V2000
  147.3974  133.1034  152.2085 C   0  0  0  0  0  0  0  0  0  0  0  0
  148.5140  132.7689  153.2114 C   0  0  1  0  0  0  0  0  0  0  0  0
  148.5079  133.7859  154.3750 C   0  0  0  0  0  0  0  0  0  0  0  0
  149.5322  134.8171  154.2306 N   0  0  0  0  0  0  0  0  0  0  0  0
  150.5425  135.0515  155.0800 C   0  0  0  0  0  0  0  0  0  0  0  0
  150.6930  134.3338  156.0711 O   0  0  0  0  0  0  0  0  0  0  0  0
  151.3060  136.1119  154.7346 N   0  5  0  0  0  0  0  0  0  0  0  0
  150.7587  137.3362  154.6567 C   0  0  0  0  0  0  0  0  0  0  0  0
  151.4671  138.4177  154.2948 N   0  0  0  0  0  0  0  0  0  0  0  0
  150.7122  139.5825  154.2721 N   0  0  0  0  0  0  0  0  0  0  0  0
  149.4452  139.3469  154.6121 C   0  0  0  0  0  0  0  0  0  0  0  0
  149.0587  137.6809  154.9887 S   0  0  0  0  0  0  0  0  0  0  0  0
  148.4026  131.3088  153.7106 C   0  0  0  0  0  0  0  0  0  0  0  0
  148.2587  130.3415  152.5973 N   0  3  0  0  0  0  0  0  0  0  0  0
  148.8320  128.9970  152.8551 C   0  0  0  0  0  0  0  0  0  0  0  0
  147.7974  127.9711  152.3753 C   0  0  0  0  0  0  0  0  0  0  0  0
  146.8491  128.7723  151.4896 C   0  0  0  0  0  0  0  0  0  0  0  0
  146.8671  130.1512  152.1403 C   0  0  0  0  0  0  0  0  0  0  0  0
  146.4119  133.0120  152.6661 H   0  0  0  0  0  0  0  0  0  0  0  0
  147.4258  132.4412  151.3429 H   0  0  0  0  0  0  0  0  0  0  0  0
  147.4971  134.1244  151.8386 H   0  0  0  0  0  0  0  0  0  0  0  0
  149.4616  132.8861  152.6851 H   0  0  0  0  0  0  0  0  0  0  0  0
  147.5299  134.2625  154.4604 H   0  0  0  0  0  0  0  0  0  0  0  0
  148.6825  133.2712  155.3203 H   0  0  0  0  0  0  0  0  0  0  0  0
  149.4602  135.4210  153.4247 H   0  0  0  0  0  0  0  0  0  0  0  0
  148.7335  140.1583  154.6392 H   0  0  0  0  0  0  0  0  0  0  0  0
  149.2745  131.0186  154.2985 H   0  0  0  0  0  0  0  0  0  0  0  0
  147.5437  131.2221  154.3776 H   0  0  0  0  0  0  0  0  0  0  0  0
  149.7628  128.9042  152.2947 H   0  0  0  0  0  0  0  0  0  0  0  0
  149.0655  128.8396  153.9095 H   0  0  0  0  0  0  0  0  0  0  0  0
  148.2503  127.1273  151.8539 H   0  0  0  0  0  0  0  0  0  0  0  0
  147.2496  127.5767  153.2323 H   0  0  0  0  0  0  0  0  0  0  0  0
  147.2469  128.8329  150.4755 H   0  0  0  0  0  0  0  0  0  0  0  0
  145.8493  128.3400  151.4364 H   0  0  0  0  0  0  0  0  0  0  0  0
  146.1924  130.1585  152.9981 H   0  0  0  0  0  0  0  0  0  0  0  0
  146.5559  130.9428  151.4584 H   0  0  0  0  0  0  0  0  0  0  0  0
  148.7627  130.7181  151.8071 H   0  0  0  0  0  0  0  0  0  0  0  0
  1  2  1  0  0  0  0
  1 19  1  0  0  0  0
  1 20  1  0  0  0  0
  1 21  1  0  0  0  0
  2  3  1  0  0  0  0
  2 13  1  0  0  0  0
  2 22  1  0  0  0  0
  3  4  1  0  0  0  0
  3 23  1  0  0  0  0
  3 24  1  0  0  0  0
  4  5  1  0  0  0  0
  4 25  1  0  0  0  0
  5  6  2  0  0  0  0
  5  7  1  0  0  0  0
  7  8  1  0  0  0  0
  8 12  1  0  0  0  0
  8  9  2  0  0  0  0
  9 10  1  0  0  0  0
 10 11  2  0  0  0  0
 11 12  1  0  0  0  0
 11 26  1  0  0  0  0
 13 14  1  0  0  0  0
 13 27  1  0  0  0  0
 13 28  1  0  0  0  0
 14 18  1  0  0  0  0
 14 15  1  0  0  0  0
 14 37  1  0  0  0  0
 15 16  1  0  0  0  0
 15 29  1  0  0  0  0
 15 30  1  0  0  0  0
 16 17  1  0  0  0  0
 16 31  1  0  0  0  0
 16 32  1  0  0  0  0
 17 18  1  0  0  0  0
 17 33  1  0  0  0  0
 17 34  1  0  0  0  0
 18 35  1  0  0  0  0
 18 36  1  0  0  0  0
M  CHG  1   7  -1
M  CHG  1  14   1
M  END
> <s_m_source_file>
AV-unprocessed.smi

> <i_m_source_file_index>
1801

> <i_lp_mmshare_version>
43012

> <i_f3d_flags>
0

> <s_epik_input>
W0NIMl0xW0NIMl1bQ0gyXVtDSDJdTjFbQ0gyXVtDQEhdKFtDSDNdKVtDSDJdW05IXUMoPU8pW05IXWMybm5bY0hdczI=

> <s_epik_cmdline>
J2VwaWtfcHl0aG9uJywgJy1waCcsICc3LjAnLCAnLXRuJywgJzgnLCAnLW1hJywgJzIwMCcsICctbWV0YWxfYmluZGluZycsICctaW1hZScsICc8aW5maWxlLm1hZT4nLCAnLW9tYWUnLCAnPG91dGZpbGUubWFlPic=

> <r_lp_tautomer_probability>
1

> <r_epik_Ionization_Penalty>
3.29721

> <r_epik_Ionization_Penalty_Charging>
3.25987

> <r_epik_Ionization_Penalty_Neutral>
0.0373399

> <r_epik_State_Penalty>
3.2571

> <r_epik_Charging_Adjusted_Penalty>
6.51697

> <i_epik_Tot_Q>
0

> <i_epik_Tot_abs_Q>
2

> <r_epik_Metal_State_Penalty>
0.477553

> <b_epik_Metal_Only>
1

> <s_lp_Force_Field>
OPLS_2005

> <r_lp_Energy>
22.4804

> <b_lp_Chiralities_Consistent>
1

> <s_lp_Variant>
AV-unprocessed.smi:1801-4

> <Gold.Version>
5.8.1

> <Gold.Id.Protein>
6NUR|6NUR_protein|mol2

> <Gold.PLP.Fitness>
43.1725

> <Gold.PLP.PLP>
-30.9563

> <Gold.PLP.part.hbond>
-4.0000

> <Gold.PLP.part.metal>
0.0000

> <Gold.PLP.part.buried>
-3.9167

> <Gold.PLP.part.nonpolar>
-23.0113

> <Gold.PLP.part.repulsive>
0.4922

> <Gold.PLP.ligand.clash>
0.0007

> <Gold.PLP.ligand.torsion>
1.5585

> <Gold.PLP.Chemscore.Hbond>
5.0000

> <Gold.PLP.Chemscore.CHOScore>
0.0000

> <Gold.PLP.Chemscore.Metal>
0.0000

> <Gold.Chemscore.Hbonds>
donor molecule, donor type, donor heavy atom, donor atom, acceptor molecule, acceptor atom, score
      L1  H     4    25       P1  7948  0.80
      L1  H    14    37       P1 10747  0.99
      P1  H  7989  7998       L1    10  1.00
      P1  H 10752 10764       L1     7  2.00

> <Gold.PLP.Chemscore.Internal.Correction>
0.3339

> <Gold.Rescore>
     Score         DG    S(hbond)    S(metal)    S(lipo)     H(rot)  DE(clash)    DE(int)     intcor
     16.26     -18.11       3.14        0.00      60.44       1.93       0.02       1.83       ----

> <Gold.Chemscore.Fitness>
16.2597

> <Gold.Chemscore.DG>
-18.1079

> <Gold.Chemscore.ZeroCoef>
-5.4800

> <Gold.Chemscore.Hbond>
3.1401

> <Gold.Chemscore.Metal>
0.0000

> <Gold.Chemscore.Lipo>
60.4448

> <Gold.Chemscore.Internal_Hbond>
0.0000

> <Gold.Chemscore.DEClash>
0.0207

> <Gold.Chemscore.DEInternal>
1.8274

> <Gold.Chemscore.Rot>
1.9266

> <Gold.Chemscore.Internal.Correction>
   9.000000E+99

> <Gold.Chemscore.Hbonds>
donor molecule, donor type, donor heavy atom, donor atom, acceptor molecule, acceptor atom, score
      L1  H     4    25       P1  7948  0.12
      L1  H    14    37       P1 10747  0.62
      P1  H  7989  7998       L1    10  0.70
      P1  H 10752 10764       L1     7  0.70

> <Gold.Chemscore.Hbond.Weighted>
-10.4879

> <Gold.Chemscore.Metal.Weighted>
-0.0000

> <Gold.Chemscore.Lipo.Weighted>
-7.0720

> <Gold.Chemscore.Internal_Hbond.Weighted>
0.0000

> <Gold.Chemscore.DEClash.Weighted>
0.0207

> <Gold.Chemscore.DEInternal.Weighted>
1.8274

> <Gold.Chemscore.Rot.Weighted>
4.9321

> <Gold.Chemscore.Internal.Correction.Weighted>
   9.000000E+99

> <Gold.Protein.RotatedTorsions>
[ 6907 6896 6895 6894 ] final   80.42 input  -60.11 | X-H torsion
[ 7974 7965 7964 7962 ] final   78.39 input  175.53 | X-H torsion
[ 8008 7997 7996 7995 ] final    5.89 input   59.86 | X-H torsion
[ 10167 10162 10161 10158 ] final -129.25 input  -65.29 | X-H torsion
[ 10718 10713 10712 10709 ] final -177.35 input   66.30 | X-H torsion
[ 10763 10752 10751 10750 ] final  -65.09 input  -60.55 | X-H torsion
[ 11005 11000 10999 10996 ] final -143.28 input  -57.11 | X-H torsion

> <Gold.Protein.ActiveResidues>
 VAL166  LYS551  ARG553  GLY616  TRP617  ASP618  TYR619  PRO620  LYS621  CYS622 
 ASP623  PHE694  ASN695  SER759  ASP760  ASP761  ALA762  ILE779  LEU786  VAL792 
 PHE793  MET794  SER795  GLU796  ALA797  LYS798  CYS799  TRP800  GLU811  SER814 

> <Gold.Protein.RotatedAtoms>
  152.5234  134.3360  159.9199 H   0  0  0  0  0  0  0  0  0  0  0  0  # atno 6907 bound_to 6896
  151.3309  133.3994  159.2670 H   0  0  0  0  0  0  0  0  0  0  0  0  # atno 6908 bound_to 6896
  150.9881  134.9240  159.7941 H   0  0  0  0  0  0  0  0  0  0  0  0  # atno 6909 bound_to 6896
  145.6778  139.2515  143.1831 H   0  0  0  0  0  0  0  0  0  0  0  0  # atno 7974 bound_to 7965
  154.7341  140.2736  155.6430 H   0  0  0  0  0  0  0  0  0  0  0  0  # atno 8008 bound_to 7997
  156.2857  140.2710  156.1975 H   0  0  0  0  0  0  0  0  0  0  0  0  # atno 8009 bound_to 7997
  155.0343  140.0371  157.2476 H   0  0  0  0  0  0  0  0  0  0  0  0  # atno 8010 bound_to 7997
  139.9417  143.6155  152.2501 H   0  0  0  0  0  0  0  0  0  0  0  0  # atno 10167 bound_to 10162
  156.8281  130.9643  151.3108 H   0  0  0  0  0  0  0  0  0  0  0  0  # atno 10718 bound_to 10713
  154.3399  135.6159  153.5591 H   0  0  0  0  0  0  0  0  0  0  0  0  # atno 10763 bound_to 10752
  152.9805  135.5767  154.4865 H   0  0  0  0  0  0  0  0  0  0  0  0  # atno 10764 bound_to 10752
  154.4567  135.2854  155.1719 H   0  0  0  0  0  0  0  0  0  0  0  0  # atno 10765 bound_to 10752
  140.8141  134.2709  157.4928 H   0  0  0  0  0  0  0  0  0  0  0  0  # atno 11005 bound_to 11000
  146.0990  140.7566  142.9558 LP  0  0  0  0  0  0  0  0  0  0  0  0  # atno 17320 bound_to 7965
  144.7036  140.3757  143.7136 LP  0  0  0  0  0  0  0  0  0  0  0  0  # atno 17321 bound_to 7965
  139.6699  144.7661  151.1803 LP  0  0  0  0  0  0  0  0  0  0  0  0  # atno 17342 bound_to 10162
  140.7609  143.5881  150.8825 LP  0  0  0  0  0  0  0  0  0  0  0  0  # atno 17343 bound_to 10162
  157.6421  130.8814  149.9468 LP  0  0  0  0  0  0  0  0  0  0  0  0  # atno 17370 bound_to 10713
  156.0950  130.3660  150.0324 LP  0  0  0  0  0  0  0  0  0  0  0  0  # atno 17371 bound_to 10713
  139.8712  134.9499  156.4041 LP  0  0  0  0  0  0  0  0  0  0  0  0  # atno 17394 bound_to 11000
  140.9167  133.7673  155.9857 LP  0  0  0  0  0  0  0  0  0  0  0  0  # atno 17395 bound_to 11000

$$$$
