AV-unprocessed.smi:203|AV-procd|sdf|1588|dock8
  -GOLD-   2262019483D 1   1.00000     0.00000
 Structure written by MMmdl.
 57 61  0  0  0  0  0  0  0  0  1 V2000
  147.0203  128.3941  159.3553 O   0  0  0  0  0  0  0  0  0  0  0  0
  147.6666  129.2639  159.9345 C   0  0  0  0  0  0  0  0  0  0  0  0
  148.4226  130.3663  159.2130 C   0  0  0  0  0  0  0  0  0  0  0  0
  148.8576  131.3138  160.3484 C   0  0  1  0  0  0  0  0  0  0  0  0
  148.1428  132.7024  160.3260 C   0  0  1  0  0  0  0  0  0  0  0  0
  148.1298  133.3928  161.7159 C   0  0  0  0  0  0  0  0  0  0  0  0
  147.4289  134.7567  161.6688 C   0  0  0  0  0  0  0  0  0  0  0  0
  148.0863  135.6432  160.6061 C   0  0  0  0  0  0  0  0  0  0  0  0
  148.0699  134.9401  159.2427 C   0  0  0  0  0  0  0  0  0  0  0  0
  148.6991  133.6216  159.3162 N   0  0  0  0  0  0  0  0  0  0  0  0
  148.8698  133.1129  158.0756 C   0  0  0  0  0  0  0  0  0  0  0  0
  150.1438  132.9755  157.6330 N   0  0  0  0  0  0  0  0  0  0  0  0
  150.3765  132.4661  156.4194 C   0  0  0  0  0  0  0  0  0  0  0  0
  149.4974  132.0421  155.5086 N   0  0  0  0  0  0  0  0  0  0  0  0
  148.2150  132.1885  155.9503 C   0  0  0  0  0  0  0  0  0  0  0  0
  147.8128  132.7127  157.2102 C   0  0  0  0  0  0  0  0  0  0  0  0
  146.4263  132.7106  157.3052 N   0  0  0  0  0  0  0  0  0  0  0  0
  146.0308  132.2150  156.1644 C   0  0  0  0  0  0  0  0  0  0  0  0
  147.0395  131.8737  155.2924 N   0  0  0  0  0  0  0  0  0  0  0  0
  146.8830  131.3089  153.9640 C   0  0  0  0  0  0  0  0  0  0  0  0
  146.9639  132.3829  152.8578 C   0  0  1  0  0  0  0  0  0  0  0  0
  148.2996  132.5578  152.4287 O   0  0  0  0  0  0  0  0  0  0  0  0
  146.0840  132.0937  151.6240 C   0  0  2  0  0  0  0  0  0  0  0  0
  146.0060  133.2476  150.6190 C   0  0  0  0  0  0  0  0  0  0  0  0
  144.6306  133.0965  149.9828 C   0  0  0  0  0  0  0  0  0  0  0  0
  143.9674  131.9725  150.7800 C   0  0  0  0  0  0  0  0  0  0  0  0
  144.7231  131.8953  151.9782 O   0  0  0  0  0  0  0  0  0  0  0  0
  148.6257  130.5104  161.6482 C   0  0  0  0  0  0  0  0  0  0  0  0
  147.8111  129.3780  161.2528 N   0  0  0  0  0  0  0  0  0  0  0  0
  149.2882  129.9308  158.7122 H   0  0  0  0  0  0  0  0  0  0  0  0
  147.8058  130.8498  158.4555 H   0  0  0  0  0  0  0  0  0  0  0  0
  149.9304  131.4665  160.2277 H   0  0  0  0  0  0  0  0  0  0  0  0
  147.1022  132.5250  160.0523 H   0  0  0  0  0  0  0  0  0  0  0  0
  147.6297  132.7688  162.4556 H   0  0  0  0  0  0  0  0  0  0  0  0
  149.1481  133.5357  162.0779 H   0  0  0  0  0  0  0  0  0  0  0  0
  146.3715  134.6216  161.4372 H   0  0  0  0  0  0  0  0  0  0  0  0
  147.4778  135.2393  162.6453 H   0  0  0  0  0  0  0  0  0  0  0  0
  147.5675  136.5997  160.5403 H   0  0  0  0  0  0  0  0  0  0  0  0
  149.1150  135.8637  160.8941 H   0  0  0  0  0  0  0  0  0  0  0  0
  147.0403  134.8337  158.8974 H   0  0  0  0  0  0  0  0  0  0  0  0
  148.5883  135.5595  158.5091 H   0  0  0  0  0  0  0  0  0  0  0  0
  151.4160  132.3865  156.1379 H   0  0  0  0  0  0  0  0  0  0  0  0
  144.9853  132.0852  155.9245 H   0  0  0  0  0  0  0  0  0  0  0  0
  147.6500  130.5466  153.8209 H   0  0  0  0  0  0  0  0  0  0  0  0
  145.9238  130.7925  153.9279 H   0  0  0  0  0  0  0  0  0  0  0  0
  146.6573  133.3429  153.2750 H   0  0  0  0  0  0  0  0  0  0  0  0
  148.5365  131.8224  151.8842 H   0  0  0  0  0  0  0  0  0  0  0  0
  146.4455  131.2056  151.1007 H   0  0  0  0  0  0  0  0  0  0  0  0
  146.0692  134.2128  151.1218 H   0  0  0  0  0  0  0  0  0  0  0  0
  146.8127  133.2036  149.8867 H   0  0  0  0  0  0  0  0  0  0  0  0
  144.0674  134.0257  150.0772 H   0  0  0  0  0  0  0  0  0  0  0  0
  144.6911  132.8470  148.9230 H   0  0  0  0  0  0  0  0  0  0  0  0
  142.9136  132.1646  150.9832 H   0  0  0  0  0  0  0  0  0  0  0  0
  144.0448  131.0246  150.2453 H   0  0  0  0  0  0  0  0  0  0  0  0
  149.5707  130.1438  162.0509 H   0  0  0  0  0  0  0  0  0  0  0  0
  148.1370  131.0889  162.4322 H   0  0  0  0  0  0  0  0  0  0  0  0
  147.3932  128.7492  161.9234 H   0  0  0  0  0  0  0  0  0  0  0  0
  1  2  2  0  0  0  0
  2 29  1  0  0  0  0
  2  3  1  0  0  0  0
  3  4  1  0  0  0  0
  3 30  1  0  0  0  0
  3 31  1  0  0  0  0
  4  5  1  0  0  0  0
  4 28  1  0  0  0  0
  4 32  1  0  0  0  0
  5 10  1  0  0  0  0
  5  6  1  0  0  0  0
  5 33  1  0  0  0  0
  6  7  1  0  0  0  0
  6 34  1  0  0  0  0
  6 35  1  0  0  0  0
  7  8  1  0  0  0  0
  7 36  1  0  0  0  0
  7 37  1  0  0  0  0
  8  9  1  0  0  0  0
  8 38  1  0  0  0  0
  8 39  1  0  0  0  0
  9 10  1  0  0  0  0
  9 40  1  0  0  0  0
  9 41  1  0  0  0  0
 10 11  1  0  0  0  0
 11 16  1  0  0  0  0
 11 12  2  0  0  0  0
 12 13  1  0  0  0  0
 13 14  2  0  0  0  0
 13 42  1  0  0  0  0
 14 15  1  0  0  0  0
 15 19  1  0  0  0  0
 15 16  2  0  0  0  0
 16 17  1  0  0  0  0
 17 18  2  0  0  0  0
 18 19  1  0  0  0  0
 18 43  1  0  0  0  0
 19 20  1  0  0  0  0
 20 21  1  0  0  0  0
 20 44  1  0  0  0  0
 20 45  1  0  0  0  0
 21 22  1  0  0  0  0
 21 23  1  0  0  0  0
 21 46  1  0  0  0  0
 22 47  1  0  0  0  0
 23 27  1  0  0  0  0
 23 24  1  0  0  0  0
 23 48  1  0  0  0  0
 24 25  1  0  0  0  0
 24 49  1  0  0  0  0
 24 50  1  0  0  0  0
 25 26  1  0  0  0  0
 25 51  1  0  0  0  0
 25 52  1  0  0  0  0
 26 27  1  0  0  0  0
 26 53  1  0  0  0  0
 26 54  1  0  0  0  0
 28 29  1  0  0  0  0
 28 55  1  0  0  0  0
 28 56  1  0  0  0  0
 29 57  1  0  0  0  0
M  END
> <s_m_source_file>
AV-unprocessed.smi

> <i_m_source_file_index>
203

> <i_lp_mmshare_version>
43012

> <i_f3d_flags>
0

> <s_epik_input>
Tz1DMVtDSDJdW0NASF0oW0NIMl1bTkhdMSlbQ0BASF0yW0NIMl1bQ0gyXVtDSDJdW0NIMl1OMmMobltjSF1uMyljKGMzNCluW2NIXW40W0NIMl1bQ0BIXShbT0hdKVtDQEBIXTVbQ0gyXVtDSDJdW0NIMl1PNQ==

> <s_epik_cmdline>
J2VwaWtfcHl0aG9uJywgJy1waCcsICc3LjAnLCAnLXRuJywgJzgnLCAnLW1hJywgJzIwMCcsICctbWV0YWxfYmluZGluZycsICctaW1hZScsICc8aW5maWxlLm1hZT4nLCAnLW9tYWUnLCAnPG91dGZpbGUubWFlPic=

> <r_lp_tautomer_probability>
1

> <r_epik_Ionization_Penalty>
0.00175146

> <r_epik_Ionization_Penalty_Charging>
0

> <r_epik_Ionization_Penalty_Neutral>
0.00175146

> <r_epik_State_Penalty>
0.00109045

> <r_epik_Charging_Adjusted_Penalty>
0.00109045

> <i_epik_Tot_Q>
0

> <i_epik_Tot_abs_Q>
0

> <r_epik_Metal_State_Penalty>
-0

> <b_epik_Metal_Only>
0

> <s_lp_Force_Field>
OPLS_2005

> <r_lp_Energy>
57.1274

> <b_lp_Chiralities_Consistent>
1

> <s_lp_Variant>
AV-unprocessed.smi:203-7

> <Gold.Version>
5.8.1

> <Gold.Id.Protein>
6NUR|6NUR_protein|mol2

> <Gold.PLP.Fitness>
40.6161

> <Gold.PLP.PLP>
-33.8281

> <Gold.PLP.part.hbond>
-2.4242

> <Gold.PLP.part.metal>
0.0000

> <Gold.PLP.part.buried>
-5.6576

> <Gold.PLP.part.nonpolar>
-26.4119

> <Gold.PLP.part.repulsive>
0.1857

> <Gold.PLP.ligand.clash>
0.0000

> <Gold.PLP.ligand.torsion>
1.2525

> <Gold.PLP.Chemscore.Hbond>
2.0000

> <Gold.PLP.Chemscore.CHOScore>
1.0000

> <Gold.PLP.Chemscore.Metal>
0.0000

> <Gold.Chemscore.Hbonds>
donor molecule, donor type, donor heavy atom, donor atom, acceptor molecule, acceptor atom, score
      L1  H    22    47       P1 10747  1.00
      P1  H  6896  6908       L1    12  0.80
      L1  C    18    43       P1 10957  0.92

> <Gold.PLP.Chemscore.Internal.Correction>
0.2930

> <Gold.Rescore>
     Score         DG    S(hbond)    S(metal)    S(lipo)     H(rot)  DE(clash)    DE(int)     intcor
     13.46     -15.02       1.91        0.00      86.38       2.72       0.00       1.56       ----

> <Gold.Chemscore.Fitness>
13.4616

> <Gold.Chemscore.DG>
-15.0229

> <Gold.Chemscore.ZeroCoef>
-5.4800

> <Gold.Chemscore.Hbond>
1.9139

> <Gold.Chemscore.Metal>
0.0000

> <Gold.Chemscore.Lipo>
86.3780

> <Gold.Chemscore.Internal_Hbond>
0.0000

> <Gold.Chemscore.DEClash>
0.0015

> <Gold.Chemscore.DEInternal>
1.5598

> <Gold.Chemscore.Rot>
2.7171

> <Gold.Chemscore.Internal.Correction>
   9.000000E+99

> <Gold.Chemscore.Hbonds>
donor molecule, donor type, donor heavy atom, donor atom, acceptor molecule, acceptor atom, score
      L1  H    22    47       P1 10747  0.99
      P1  H  6896  6908       L1    12  0.12

> <Gold.Chemscore.Hbond.Weighted>
-6.3924

> <Gold.Chemscore.Metal.Weighted>
-0.0000

> <Gold.Chemscore.Lipo.Weighted>
-10.1062

> <Gold.Chemscore.Internal_Hbond.Weighted>
0.0000

> <Gold.Chemscore.DEClash.Weighted>
0.0015

> <Gold.Chemscore.DEInternal.Weighted>
1.5598

> <Gold.Chemscore.Rot.Weighted>
6.9557

> <Gold.Chemscore.Internal.Correction.Weighted>
   9.000000E+99

> <Gold.Protein.RotatedTorsions>
[ 6907 6896 6895 6894 ] final  104.56 input  -60.11 | X-H torsion
[ 7974 7965 7964 7962 ] final  126.98 input  175.53 | X-H torsion
[ 8008 7997 7996 7995 ] final   28.10 input   59.86 | X-H torsion
[ 10167 10162 10161 10158 ] final -153.10 input  -65.29 | X-H torsion
[ 10718 10713 10712 10709 ] final   13.71 input   66.30 | X-H torsion
[ 10763 10752 10751 10750 ] final  172.69 input  -60.55 | X-H torsion
[ 11005 11000 10999 10996 ] final   29.95 input  -57.11 | X-H torsion

> <Gold.Protein.ActiveResidues>
 VAL166  LYS551  ARG553  GLY616  TRP617  ASP618  TYR619  PRO620  LYS621  CYS622 
 ASP623  PHE694  ASN695  SER759  ASP760  ASP761  ALA762  ILE779  LEU786  VAL792 
 PHE793  MET794  SER795  GLU796  ALA797  LYS798  CYS799  TRP800  GLU811  SER814 

> <Gold.Protein.RotatedAtoms>
  152.5260  133.9659  159.7738 H   0  0  0  0  0  0  0  0  0  0  0  0  # atno 6907 bound_to 6896
  150.9940  133.6113  159.2711 H   0  0  0  0  0  0  0  0  0  0  0  0  # atno 6908 bound_to 6896
  151.3246  135.0833  159.9370 H   0  0  0  0  0  0  0  0  0  0  0  0  # atno 6909 bound_to 6896
  145.0557  139.3846  143.5031 H   0  0  0  0  0  0  0  0  0  0  0  0  # atno 7974 bound_to 7965
  155.0534  140.3182  155.4684 H   0  0  0  0  0  0  0  0  0  0  0  0  # atno 8008 bound_to 7997
  156.2829  140.2142  156.5604 H   0  0  0  0  0  0  0  0  0  0  0  0  # atno 8009 bound_to 7997
  154.7191  140.0491  157.0610 H   0  0  0  0  0  0  0  0  0  0  0  0  # atno 8010 bound_to 7997
  139.7125  143.9086  152.2473 H   0  0  0  0  0  0  0  0  0  0  0  0  # atno 10167 bound_to 10162
  157.0286  130.6184  149.5732 H   0  0  0  0  0  0  0  0  0  0  0  0  # atno 10718 bound_to 10713
  154.4296  135.2759  155.1921 H   0  0  0  0  0  0  0  0  0  0  0  0  # atno 10763 bound_to 10752
  154.3833  135.6082  153.5806 H   0  0  0  0  0  0  0  0  0  0  0  0  # atno 10764 bound_to 10752
  152.9835  135.5885  154.4605 H   0  0  0  0  0  0  0  0  0  0  0  0  # atno 10765 bound_to 10752
  140.2995  134.2773  155.7757 H   0  0  0  0  0  0  0  0  0  0  0  0  # atno 11005 bound_to 11000
  146.3521  140.0230  142.8657 LP  0  0  0  0  0  0  0  0  0  0  0  0  # atno 17320 bound_to 7965
  145.1471  140.9603  143.4454 LP  0  0  0  0  0  0  0  0  0  0  0  0  # atno 17321 bound_to 7965
  139.8959  144.6939  150.8719 LP  0  0  0  0  0  0  0  0  0  0  0  0  # atno 17342 bound_to 10162
  140.7736  143.3550  151.1938 LP  0  0  0  0  0  0  0  0  0  0  0  0  # atno 17343 bound_to 10162
  156.0077  130.5166  150.7886 LP  0  0  0  0  0  0  0  0  0  0  0  0  # atno 17370 bound_to 10713
  157.5195  131.0930  151.0097 LP  0  0  0  0  0  0  0  0  0  0  0  0  # atno 17371 bound_to 10713
  141.2131  133.7637  156.9746 LP  0  0  0  0  0  0  0  0  0  0  0  0  # atno 17394 bound_to 11000
  140.1122  134.9470  157.2082 LP  0  0  0  0  0  0  0  0  0  0  0  0  # atno 17395 bound_to 11000

$$$$
