#       Name:                AV-unprocessed.smi:2949
#       Creating user name   scv26
#       Creation time:       Fri Mar 27 16:17:51 2020


#       File generated by GOLD software.
#

@<TRIPOS>MOLECULE
AV-unprocessed.smi:2949
    39    40     1
SMALL
NO_CHARGES


@<TRIPOS>ATOM
      1 ****        -3.4608   1.6959   2.1990 N.2            1 S1                 0.0000
      2 ****        -3.6464   2.2431   1.0495 C.2            1 S1                 0.0000
      3 ****        -4.0452   3.9973   0.7283 S.3            1 S1                 0.0000
      4 ****        -4.0513   3.6717  -0.9920 C.2            1 S1                 0.0000
      5 ****        -3.7888   2.3942  -1.2622 C.2            1 S1                 0.0000
      6 ****        -3.5691   1.5747  -0.1740 N.pl3          1 S1                 0.0000
      7 ****        -3.1866   0.1700  -0.3149 C.3            1 S1                 0.0000
      8 ****        -1.6782  -0.1000  -0.3855 C.2            1 S1                 0.0000
      9 ****        -0.8996   0.8328  -0.5997 O.2            1 S1                 0.0000
     10 ****        -1.3264  -1.3943  -0.2066 N.am           1 S1                 0.0000
     11 ****        -0.1121  -1.9940  -0.2011 C.2            1 S1                 0.0000
     12 ****        -0.0140  -3.2081  -0.0293 O.2            1 S1                 0.0000
     13 ****         0.9632  -1.2055  -0.3875 N.am           1 S1                 0.0000
     14 ****         2.3509  -1.6573  -0.4196 C.3            1 S1                 0.0000
     15 ****         2.8957  -1.9376   0.9972 C.3            1 S1                 0.0000
     16 ****         4.2039  -1.1523   1.1152 C.3            1 S1                 0.0000
     17 ****         4.0255   0.0274   0.1652 C.3            1 S1                 0.0000
     18 ****         3.2546  -0.5631  -1.0148 C.3            1 S1                 0.0000
     19 ****        -4.2472   4.4543  -1.7098 H              1 S1                 0.0000
     20 ****        -3.7313   1.9451  -2.2432 H              1 S1                 0.0000
     21 ****        -3.6157  -0.4101   0.5041 H              1 S1                 0.0000
     22 ****        -3.6411  -0.2286  -1.2230 H              1 S1                 0.0000
     23 ****        -2.1011  -2.0227  -0.0515 H              1 S1                 0.0000
     24 ****         0.8036  -0.2162  -0.5174 H              1 S1                 0.0000
     25 ****         2.4227  -2.5527  -1.0398 H              1 S1                 0.0000
     26 ****         2.1976  -1.5830   1.7573 H              1 S1                 0.0000
     27 ****         3.0466  -3.0030   1.1733 H              1 S1                 0.0000
     28 ****         4.4156  -0.8401   2.1381 H              1 S1                 0.0000
     29 ****         5.0358  -1.7715   0.7770 H              1 S1                 0.0000
     30 ****         3.4259   0.8009   0.6468 H              1 S1                 0.0000
     31 ****         4.9735   0.4754  -0.1331 H              1 S1                 0.0000
     32 ****         3.9614  -1.0201  -1.7087 H              1 S1                 0.0000
     33 ****         2.7065   0.1979  -1.5721 H              1 S1                 0.0000
     34 ****        -3.2513   0.7139   2.0889 H              1 S1                 0.0000
     35 ****        -3.5160   2.1740   3.0756 LP             1 S1                 0.0000
     36 ****        -1.2527   1.7597  -0.7263 LP             1 S1                 0.0000
     37 ****         0.0845   0.6618  -0.6466 LP             1 S1                 0.0000
     38 ****        -0.8355  -3.7617   0.1080 LP             1 S1                 0.0000
     39 ****         0.8872  -3.6416  -0.0269 LP             1 S1                 0.0000
@<TRIPOS>BOND
    1    1    2 2     
    2    1   34 1     
    3    2    6 1     
    4    2    3 1     
    5    3    4 1     
    6    4    5 2     
    7    4   19 1     
    8    5    6 1     
    9    5   20 1     
   10    6    7 1     
   11    7    8 1     
   12    7   21 1     
   13    7   22 1     
   14    8    9 2     
   15    8   10 1     
   16   10   11 1     
   17   10   23 1     
   18   11   12 2     
   19   11   13 1     
   20   13   14 1     
   21   13   24 1     
   22   14   18 1     
   23   14   15 1     
   24   14   25 1     
   25   15   16 1     
   26   15   26 1     
   27   15   27 1     
   28   16   17 1     
   29   16   28 1     
   30   16   29 1     
   31   17   18 1     
   32   17   30 1     
   33   17   31 1     
   34   18   32 1     
   35   18   33 1     
   36    1   35 1     
   37    9   36 1     
   38    9   37 1     
   39   12   38 1     
   40   12   39 1     
@<TRIPOS>SUBSTRUCTURE
      1 S1             1
@<TRIPOS>SET
LONE_PAIRS      STATIC     ATOMS    <user>   **** ""
5 35 36 37 38 39
DONOR_HYDROGENS      STATIC     ATOMS    <user>   **** ""
3 34 23 24
ATOM$BLUE        STATIC     ATOMS    COLORGROUP SYSTEM
5 35 36 37 38 39
ATOM$RED        STATIC     ATOMS    COLORGROUP SYSTEM
3 34 23 24
