#       Name:                AV-unprocessed.smi:3252
#       Creating user name   scv26
#       Creation time:       Fri Mar 27 18:33:44 2020


#       File generated by GOLD software.
#

@<TRIPOS>MOLECULE
AV-unprocessed.smi:3252
    41    42     1
SMALL
NO_CHARGES


@<TRIPOS>ATOM
      1 ****        -3.8548  -3.1472   1.8546 C.3            1 S1                 0.0000
      2 ****        -2.3557  -2.8322   1.9612 C.3            1 S1                 0.0000
      3 ****        -1.8381  -1.9383   0.9267 N.3            1 S1                 0.0000
      4 ****        -2.3790  -0.5856   1.0322 C.3            1 S1                 0.0000
      5 ****        -1.7949   0.3495  -0.0400 C.3            1 S1                 0.0000
      6 ****        -0.3748   0.3482   0.0510 O.3            1 S1                 0.0000
      7 ****         0.1962  -0.9476  -0.1156 C.3            1 S1                 0.0000
      8 ****         1.7274  -0.8421  -0.0136 C.3            1 S1                 0.0000
      9 ****         2.3219  -0.2145  -1.1885 N.pl3          1 S1                 0.0000
     10 ****         2.4214   1.1799  -1.3030 C.ar           1 S1                 0.0000
     11 ****         2.7271   1.7305  -2.5656 C.ar           1 S1                 0.0000
     12 ****         2.8315   3.1297  -2.6909 C.ar           1 S1                 0.0000
     13 ****         2.6285   3.9299  -1.5494 C.ar           1 S1                 0.0000
     14 ****         2.7240   5.3774  -1.6269 C.1            1 S1                 0.0000
     15 ****         2.8002   6.5303  -1.6891 N.1            1 S1                 0.0000
     16 ****         2.3314   3.2894  -0.3294 C.ar           1 S1                 0.0000
     17 ****         2.2326   1.9486  -0.2037 N.ar           1 S1                 0.0000
     18 ****        -0.3813  -1.8701   0.9762 C.3            1 S1                 0.0000
     19 ****        -4.1397  -3.9017   2.5879 H              1 S1                 0.0000
     20 ****        -4.1060  -3.5346   0.8669 H              1 S1                 0.0000
     21 ****        -4.4707  -2.2677   2.0404 H              1 S1                 0.0000
     22 ****        -2.1390  -2.4231   2.9490 H              1 S1                 0.0000
     23 ****        -1.8193  -3.7803   1.9060 H              1 S1                 0.0000
     24 ****        -3.4634  -0.6016   0.9277 H              1 S1                 0.0000
     25 ****        -2.1647  -0.1772   2.0213 H              1 S1                 0.0000
     26 ****        -2.1033   0.0350  -1.0383 H              1 S1                 0.0000
     27 ****        -2.1601   1.3664   0.1031 H              1 S1                 0.0000
     28 ****        -0.0744  -1.3412  -1.0974 H              1 S1                 0.0000
     29 ****         2.0235  -0.3349   0.9050 H              1 S1                 0.0000
     30 ****         2.1489  -1.8454   0.0500 H              1 S1                 0.0000
     31 ****         2.4206  -0.7751  -2.0224 H              1 S1                 0.0000
     32 ****         2.8781   1.0952  -3.4263 H              1 S1                 0.0000
     33 ****         3.0637   3.5741  -3.6480 H              1 S1                 0.0000
     34 ****         2.1693   3.8622   0.5724 H              1 S1                 0.0000
     35 ****        -0.0619  -1.5150   1.9575 H              1 S1                 0.0000
     36 ****         0.0359  -2.8708   0.8573 H              1 S1                 0.0000
     37 ****        -2.1322  -2.3262   0.0532 LP             1 S1                 0.0000
     38 ****        -0.1134   0.6977   0.9508 LP             1 S1                 0.0000
     39 ****        -0.0100   0.9502  -0.6592 LP             1 S1                 0.0000
     40 ****         2.8660   7.5267  -1.7428 LP             1 S1                 0.0000
     41 ****         2.0246   1.5323   0.6815 LP             1 S1                 0.0000
@<TRIPOS>BOND
    1    1    2 1     
    2    1   19 1     
    3    1   20 1     
    4    1   21 1     
    5    2    3 1     
    6    2   22 1     
    7    2   23 1     
    8    3   18 1     
    9    3    4 1     
   10    4    5 1     
   11    4   24 1     
   12    4   25 1     
   13    5    6 1     
   14    5   26 1     
   15    5   27 1     
   16    6    7 1     
   17    7    8 1     
   18    7   18 1     
   19    7   28 1     
   20    8    9 1     
   21    8   29 1     
   22    8   30 1     
   23    9   10 1     
   24    9   31 1     
   25   10   17 ar    
   26   10   11 ar    
   27   11   12 ar    
   28   11   32 1     
   29   12   13 ar    
   30   12   33 1     
   31   13   14 1     
   32   13   16 ar    
   33   14   15 3     
   34   16   17 ar    
   35   16   34 1     
   36   18   35 1     
   37   18   36 1     
   38    3   37 1     
   39    6   38 1     
   40    6   39 1     
   41   15   40 1     
   42   17   41 1     
@<TRIPOS>SUBSTRUCTURE
      1 S1             1
@<TRIPOS>SET
LONE_PAIRS      STATIC     ATOMS    <user>   **** ""
5 37 38 39 40 41
DONOR_HYDROGENS      STATIC     ATOMS    <user>   **** ""
1 31
ATOM$BLUE        STATIC     ATOMS    COLORGROUP SYSTEM
5 37 38 39 40 41
ATOM$RED        STATIC     ATOMS    COLORGROUP SYSTEM
1 31
