AV-unprocessed.smi:3135|AV-procd|sdf|11947|dock3
  -GOLD-   2272017343D 1   1.00000     0.00000
 Structure written by MMmdl.
 37 38  0  0  0  0  0  0  0  0  1 V2000
  147.2214  142.2523  154.2078 C   0  0  0  0  0  0  0  0  0  0  0  0
  147.9721  140.9521  154.2029 C   0  0  0  0  0  0  0  0  0  0  0  0
  147.5265  139.6899  153.7178 C   0  0  0  0  0  0  0  0  0  0  0  0
  148.4317  138.7355  153.8595 N   0  0  0  0  0  0  0  0  0  0  0  0
  149.4870  139.3522  154.4333 N   0  0  0  0  0  0  0  0  0  0  0  0
  150.6867  138.5942  154.7448 C   0  0  0  0  0  0  0  0  0  0  0  0
  151.7021  139.4465  155.5098 C   0  0  0  0  0  0  0  0  0  0  0  0
  152.6945  139.8915  154.9330 O   0  0  0  0  0  0  0  0  0  0  0  0
  151.4416  139.6677  156.8077 N   0  0  0  0  0  0  0  0  0  0  0  0
  152.2752  140.4556  157.7072 C   0  0  0  0  0  0  0  0  0  0  0  0
  151.4184  141.3170  158.6550 C   0  0  0  0  0  0  0  0  0  0  0  0
  152.2282  142.2688  159.4124 N   0  0  0  0  0  0  0  0  0  0  0  0
  153.3585  141.6044  160.0511 C   0  0  0  0  0  0  0  0  0  0  0  0
  152.7546  143.2644  158.4921 C   0  0  0  0  0  0  0  0  0  0  0  0
  152.6220  144.7191  158.8825 C   0  0  0  0  0  0  0  0  0  0  0  0
  151.7597  144.1533  157.7804 C   0  0  0  0  0  0  0  0  0  0  0  0
  149.2338  140.6899  154.6569 C   0  0  0  0  0  0  0  0  0  0  0  0
  146.7137  142.4268  153.2591 H   0  0  0  0  0  0  0  0  0  0  0  0
  147.8823  143.1024  154.3781 H   0  0  0  0  0  0  0  0  0  0  0  0
  146.4613  142.2737  154.9887 H   0  0  0  0  0  0  0  0  0  0  0  0
  146.5760  139.4405  153.2699 H   0  0  0  0  0  0  0  0  0  0  0  0
  150.3999  137.7165  155.3258 H   0  0  0  0  0  0  0  0  0  0  0  0
  151.1429  138.2327  153.8218 H   0  0  0  0  0  0  0  0  0  0  0  0
  150.6036  139.2634  157.1998 H   0  0  0  0  0  0  0  0  0  0  0  0
  152.9337  139.7974  158.2768 H   0  0  0  0  0  0  0  0  0  0  0  0
  152.9176  141.0796  157.0870 H   0  0  0  0  0  0  0  0  0  0  0  0
  150.6329  141.8382  158.1053 H   0  0  0  0  0  0  0  0  0  0  0  0
  150.9165  140.6531  159.3606 H   0  0  0  0  0  0  0  0  0  0  0  0
  153.9827  142.3326  160.5703 H   0  0  0  0  0  0  0  0  0  0  0  0
  153.9808  141.0865  159.3199 H   0  0  0  0  0  0  0  0  0  0  0  0
  153.0265  140.8799  160.7937 H   0  0  0  0  0  0  0  0  0  0  0  0
  153.6472  143.0190  157.9185 H   0  0  0  0  0  0  0  0  0  0  0  0
  152.1367  144.9518  159.8285 H   0  0  0  0  0  0  0  0  0  0  0  0
  153.4292  145.3898  158.5956 H   0  0  0  0  0  0  0  0  0  0  0  0
  151.9915  144.4468  156.7587 H   0  0  0  0  0  0  0  0  0  0  0  0
  150.7023  144.0087  157.9950 H   0  0  0  0  0  0  0  0  0  0  0  0
  149.9673  141.3384  155.1131 H   0  0  0  0  0  0  0  0  0  0  0  0
  1  2  1  0  0  0  0
  1 18  1  0  0  0  0
  1 19  1  0  0  0  0
  1 20  1  0  0  0  0
  2 17  2  0  0  0  0
  2  3  1  0  0  0  0
  3  4  2  0  0  0  0
  3 21  1  0  0  0  0
  4  5  1  0  0  0  0
  5  6  1  0  0  0  0
  5 17  1  0  0  0  0
  6  7  1  0  0  0  0
  6 22  1  0  0  0  0
  6 23  1  0  0  0  0
  7  8  2  0  0  0  0
  7  9  1  0  0  0  0
  9 10  1  0  0  0  0
  9 24  1  0  0  0  0
 10 11  1  0  0  0  0
 10 25  1  0  0  0  0
 10 26  1  0  0  0  0
 11 12  1  0  0  0  0
 11 27  1  0  0  0  0
 11 28  1  0  0  0  0
 12 13  1  0  0  0  0
 12 14  1  0  0  0  0
 13 29  1  0  0  0  0
 13 30  1  0  0  0  0
 13 31  1  0  0  0  0
 14 16  1  0  0  0  0
 14 15  1  0  0  0  0
 14 32  1  0  0  0  0
 15 16  1  0  0  0  0
 15 33  1  0  0  0  0
 15 34  1  0  0  0  0
 16 35  1  0  0  0  0
 16 36  1  0  0  0  0
 17 37  1  0  0  0  0
M  END
> <s_m_source_file>
AV-unprocessed.smi

> <i_m_source_file_index>
3135

> <i_lp_mmshare_version>
43012

> <i_f3d_flags>
0

> <s_epik_input>
W0NIM11jMVtjSF1ubihbY0hdMSlbQ0gyXUMoPU8pW05IXVtDSDJdW0NIMl1OKFtDSDNdKVtDSF0yW0NIMl1bQ0gyXTI=

> <s_epik_cmdline>
J2VwaWtfcHl0aG9uJywgJy1waCcsICc3LjAnLCAnLXRuJywgJzgnLCAnLW1hJywgJzIwMCcsICctbWV0YWxfYmluZGluZycsICctaW1hZScsICc8aW5maWxlLm1hZT4nLCAnLW9tYWUnLCAnPG91dGZpbGUubWFlPic=

> <r_lp_tautomer_probability>
1

> <r_epik_Ionization_Penalty>
0.809981

> <r_epik_Ionization_Penalty_Charging>
0

> <r_epik_Ionization_Penalty_Neutral>
0.809981

> <r_epik_State_Penalty>
0.842006

> <r_epik_Charging_Adjusted_Penalty>
0.842006

> <i_epik_Tot_Q>
0

> <i_epik_Tot_abs_Q>
0

> <r_epik_Metal_State_Penalty>
0.84199

> <b_epik_Metal_Only>
0

> <s_lp_Force_Field>
OPLS_2005

> <r_lp_Energy>
14.2809

> <b_lp_Chiralities_Consistent>
1

> <s_lp_Variant>
AV-unprocessed.smi:3135-3

> <Gold.Version>
5.8.1

> <Gold.Id.Protein>
6NUR|6NUR_protein|mol2

> <Gold.PLP.Fitness>
44.4071

> <Gold.PLP.PLP>
-41.2383

> <Gold.PLP.part.hbond>
-2.0000

> <Gold.PLP.part.metal>
0.0000

> <Gold.PLP.part.buried>
-4.8464

> <Gold.PLP.part.nonpolar>
-35.9223

> <Gold.PLP.part.repulsive>
0.3202

> <Gold.PLP.ligand.clash>
0.0000

> <Gold.PLP.ligand.torsion>
1.1206

> <Gold.PLP.Chemscore.Hbond>
1.3994

> <Gold.PLP.Chemscore.CHOScore>
0.0000

> <Gold.PLP.Chemscore.Metal>
0.0000

> <Gold.Chemscore.Hbonds>
donor molecule, donor type, donor heavy atom, donor atom, acceptor molecule, acceptor atom, score
      P1  H  7989  7998       L1     8  0.40
      P1  H  7997  8008       L1     8  0.96

> <Gold.PLP.Chemscore.Internal.Correction>
1.2119

> <Gold.Rescore>
     Score         DG    S(hbond)    S(metal)    S(lipo)     H(rot)  DE(clash)    DE(int)     intcor
     14.66     -15.95       1.06        0.00      99.76       1.85       0.14       1.15       ----

> <Gold.Chemscore.Fitness>
14.6621

> <Gold.Chemscore.DG>
-15.9536

> <Gold.Chemscore.ZeroCoef>
-5.4800

> <Gold.Chemscore.Hbond>
1.0583

> <Gold.Chemscore.Metal>
0.0000

> <Gold.Chemscore.Lipo>
99.7554

> <Gold.Chemscore.Internal_Hbond>
0.0000

> <Gold.Chemscore.DEClash>
0.1433

> <Gold.Chemscore.DEInternal>
1.1482

> <Gold.Chemscore.Rot>
1.8487

> <Gold.Chemscore.Internal.Correction>
   9.000000E+99

> <Gold.Chemscore.Hbonds>
donor molecule, donor type, donor heavy atom, donor atom, acceptor molecule, acceptor atom, score
      P1  H  7989  7998       L1     8  0.06
      P1  H  7997  8008       L1     8  0.91

> <Gold.Chemscore.Hbond.Weighted>
-3.5348

> <Gold.Chemscore.Metal.Weighted>
-0.0000

> <Gold.Chemscore.Lipo.Weighted>
-11.6714

> <Gold.Chemscore.Internal_Hbond.Weighted>
0.0000

> <Gold.Chemscore.DEClash.Weighted>
0.1433

> <Gold.Chemscore.DEInternal.Weighted>
1.1482

> <Gold.Chemscore.Rot.Weighted>
4.7326

> <Gold.Chemscore.Internal.Correction.Weighted>
   9.000000E+99

> <Gold.Protein.RotatedTorsions>
[ 6907 6896 6895 6894 ] final  140.36 input  -60.11 | X-H torsion
[ 7974 7965 7964 7962 ] final  -51.65 input  175.53 | X-H torsion
[ 8008 7997 7996 7995 ] final   -6.07 input   59.86 | X-H torsion
[ 10167 10162 10161 10158 ] final -164.18 input  -65.29 | X-H torsion
[ 10718 10713 10712 10709 ] final  -14.61 input   66.30 | X-H torsion
[ 10763 10752 10751 10750 ] final  152.84 input  -60.55 | X-H torsion
[ 11005 11000 10999 10996 ] final  -32.59 input  -57.11 | X-H torsion

> <Gold.Protein.ActiveResidues>
 VAL166  LYS551  ARG553  GLY616  TRP617  ASP618  TYR619  PRO620  LYS621  CYS622 
 ASP623  PHE694  ASN695  SER759  ASP760  ASP761  ALA762  ILE779  LEU786  VAL792 
 PHE793  MET794  SER795  GLU796  ALA797  LYS798  CYS799  TRP800  GLU811  SER814 

> <Gold.Protein.RotatedAtoms>
  152.2440  133.5159  159.5286 H   0  0  0  0  0  0  0  0  0  0  0  0  # atno 6907 bound_to 6896
  150.7073  134.1051  159.3989 H   0  0  0  0  0  0  0  0  0  0  0  0  # atno 6908 bound_to 6896
  151.8971  135.0393  160.0554 H   0  0  0  0  0  0  0  0  0  0  0  0  # atno 6909 bound_to 6896
  145.9166  140.7870  142.9668 H   0  0  0  0  0  0  0  0  0  0  0  0  # atno 7974 bound_to 7965
  154.5975  140.2442  155.7837 H   0  0  0  0  0  0  0  0  0  0  0  0  # atno 8008 bound_to 7997
  156.2289  140.2973  156.0090 H   0  0  0  0  0  0  0  0  0  0  0  0  # atno 8009 bound_to 7997
  155.2268  140.0402  157.2947 H   0  0  0  0  0  0  0  0  0  0  0  0  # atno 8010 bound_to 7997
  139.6268  144.0516  152.1982 H   0  0  0  0  0  0  0  0  0  0  0  0  # atno 10167 bound_to 10162
  156.6134  130.4856  149.6192 H   0  0  0  0  0  0  0  0  0  0  0  0  # atno 10718 bound_to 10713
  154.1265  135.2829  155.3196 H   0  0  0  0  0  0  0  0  0  0  0  0  # atno 10763 bound_to 10752
  154.6386  135.5410  153.7766 H   0  0  0  0  0  0  0  0  0  0  0  0  # atno 10764 bound_to 10752
  153.0295  135.6480  154.1417 H   0  0  0  0  0  0  0  0  0  0  0  0  # atno 10765 bound_to 10752
  140.9565  133.7190  156.1301 H   0  0  0  0  0  0  0  0  0  0  0  0  # atno 11005 bound_to 11000
  144.6748  140.1910  143.7396 LP  0  0  0  0  0  0  0  0  0  0  0  0  # atno 17320 bound_to 7965
  145.8603  139.2219  143.1720 LP  0  0  0  0  0  0  0  0  0  0  0  0  # atno 17321 bound_to 7965
  140.0172  144.6180  150.7597 LP  0  0  0  0  0  0  0  0  0  0  0  0  # atno 17342 bound_to 10162
  140.7416  143.2820  151.3572 LP  0  0  0  0  0  0  0  0  0  0  0  0  # atno 17343 bound_to 10162
  156.2371  130.6829  151.1519 LP  0  0  0  0  0  0  0  0  0  0  0  0  # atno 17370 bound_to 10713
  157.7248  131.0657  150.5981 LP  0  0  0  0  0  0  0  0  0  0  0  0  # atno 17371 bound_to 10713
  140.7529  134.4025  157.5538 LP  0  0  0  0  0  0  0  0  0  0  0  0  # atno 17394 bound_to 11000
  139.8864  134.8911  156.2588 LP  0  0  0  0  0  0  0  0  0  0  0  0  # atno 17395 bound_to 11000

$$$$
