#       Name:                AV-unprocessed.smi:1120
#       Creating user name   scv26
#       Creation time:       Fri Mar 27 03:38:15 2020


#       File generated by GOLD software.
#

@<TRIPOS>MOLECULE
AV-unprocessed.smi:1120
    51    52     1
SMALL
NO_CHARGES


@<TRIPOS>ATOM
      1 ****        -3.4822   3.4311   1.0414 C.3            1 S1                 0.0000
      2 ****        -3.8928   1.9758   1.3037 C.3            1 S1                 0.0000
      3 ****        -3.4723   1.5042   2.7145 C.3            1 S1                 0.0000
      4 ****        -3.8338   0.0214   2.9908 C.3            1 S1                 0.0000
      5 ****        -3.2858  -0.9742   1.9385 C.3            1 S1                 0.0000
      6 ****        -1.8401  -1.0947   2.0762 N.pl3          1 S1                -1.0000
      7 ****        -1.0939  -2.4742   1.6604 S.o2           1 S1                 0.0000
      8 ****        -1.4038  -3.5697   2.5931 O.2            1 S1                 0.0000
      9 ****        -1.2000  -2.7740   0.2224 O.2            1 S1                 0.0000
     10 ****         0.6718  -2.0279   1.9909 C.3            1 S1                 0.0000
     11 ****         1.2509  -1.1635   0.8694 C.2            1 S1                 0.0000
     12 ****         1.3171   0.0583   1.0050 O.2            1 S1                 0.0000
     13 ****         1.6878  -1.8095  -0.2229 N.am           1 S1                 0.0000
     14 ****         2.2822  -1.1749  -1.3926 C.3            1 S1                 0.0000
     15 ****         3.7674  -0.8488  -1.1641 C.3            1 S1                 0.0000
     16 ****         4.4164  -0.2348  -2.3900 C.ar           1 S1                 0.0000
     17 ****         4.5868   1.1624  -2.4915 C.ar           1 S1                 0.0000
     18 ****         5.1905   1.6821  -3.6530 C.ar           1 S1                 0.0000
     19 ****         5.5961   0.7898  -4.6639 C.ar           1 S1                 0.0000
     20 ****         5.3791  -0.5885  -4.4675 C.ar           1 S1                 0.0000
     21 ****         4.8025  -1.0973  -3.3575 N.ar           1 S1                 0.0000
     22 ****        -3.6631  -0.4721   0.5208 C.3            1 S1                 0.0000
     23 ****        -3.2976   1.0109   0.2532 C.3            1 S1                 0.0000
     24 ****        -2.3999   3.5526   1.0932 H              1 S1                 0.0000
     25 ****        -3.9279   4.1026   1.7756 H              1 S1                 0.0000
     26 ****        -3.8078   3.7586   0.0539 H              1 S1                 0.0000
     27 ****        -4.9804   1.9188   1.2380 H              1 S1                 0.0000
     28 ****        -2.3991   1.6573   2.8476 H              1 S1                 0.0000
     29 ****        -3.9536   2.1322   3.4648 H              1 S1                 0.0000
     30 ****        -3.4947  -0.2622   3.9881 H              1 S1                 0.0000
     31 ****        -4.9207  -0.0661   3.0143 H              1 S1                 0.0000
     32 ****        -3.7712  -1.9364   2.1059 H              1 S1                 0.0000
     33 ****         0.7326  -1.5179   2.9524 H              1 S1                 0.0000
     34 ****         1.2429  -2.9527   2.0712 H              1 S1                 0.0000
     35 ****         1.5820  -2.8133  -0.2531 H              1 S1                 0.0000
     36 ****         2.1750  -1.8592  -2.2344 H              1 S1                 0.0000
     37 ****         1.7272  -0.2722  -1.6530 H              1 S1                 0.0000
     38 ****         3.8775  -0.1635  -0.3225 H              1 S1                 0.0000
     39 ****         4.3114  -1.7547  -0.8930 H              1 S1                 0.0000
     40 ****         4.2613   1.8215  -1.7000 H              1 S1                 0.0000
     41 ****         5.3393   2.7458  -3.7664 H              1 S1                 0.0000
     42 ****         6.0620   1.1525  -5.5682 H              1 S1                 0.0000
     43 ****         5.6777  -1.3014  -5.2217 H              1 S1                 0.0000
     44 ****        -3.2116  -1.1054  -0.2428 H              1 S1                 0.0000
     45 ****        -4.7400  -0.5856   0.3927 H              1 S1                 0.0000
     46 ****        -3.6546   1.2899  -0.7387 H              1 S1                 0.0000
     47 ****        -2.2121   1.1274   0.2193 H              1 S1                 0.0000
     48 ****        -1.3066  -0.3254   2.4278 LP             1 S1                 0.0000
     49 ****         0.9923   0.4861   1.8485 LP             1 S1                 0.0000
     50 ****         1.6957   0.6230   0.2716 LP             1 S1                 0.0000
     51 ****         4.6651  -2.0824  -3.2540 LP             1 S1                 0.0000
@<TRIPOS>BOND
    1    1    2 1     
    2    1   24 1     
    3    1   25 1     
    4    1   26 1     
    5    2   23 1     
    6    2    3 1     
    7    2   27 1     
    8    3    4 1     
    9    3   28 1     
   10    3   29 1     
   11    4    5 1     
   12    4   30 1     
   13    4   31 1     
   14    5    6 1     
   15    5   22 1     
   16    5   32 1     
   17    6    7 1     
   18    7    8 2     
   19    7    9 2     
   20    7   10 1     
   21   10   11 1     
   22   10   33 1     
   23   10   34 1     
   24   11   12 2     
   25   11   13 am    
   26   13   14 1     
   27   13   35 1     
   28   14   15 1     
   29   14   36 1     
   30   14   37 1     
   31   15   16 1     
   32   15   38 1     
   33   15   39 1     
   34   16   21 ar    
   35   16   17 ar    
   36   17   18 ar    
   37   17   40 1     
   38   18   19 ar    
   39   18   41 1     
   40   19   20 ar    
   41   19   42 1     
   42   20   21 ar    
   43   20   43 1     
   44   22   23 1     
   45   22   44 1     
   46   22   45 1     
   47   23   46 1     
   48   23   47 1     
   49    6   48 1     
   50   12   49 1     
   51   12   50 1     
   52   21   51 1     
@<TRIPOS>SUBSTRUCTURE
      1 S1             1
@<TRIPOS>SET
LONE_PAIRS      STATIC     ATOMS    <user>   **** ""
6 48 8 9 49 50 51
DONOR_HYDROGENS      STATIC     ATOMS    <user>   **** ""
1 35
ATOM$BLUE        STATIC     ATOMS    COLORGROUP SYSTEM
6 48 8 9 49 50 51
ATOM$RED        STATIC     ATOMS    COLORGROUP SYSTEM
1 35
