AV-unprocessed.smi:1793|AV-procd|sdf|7227|dock7
  -GOLD-   22720 8473D 1   1.00000     0.00000
 Structure written by MMmdl.
 46 48  0  0  0  0  0  0  0  0  1 V2000
  151.7576  145.4778  158.6507 C   0  0  0  0  0  0  0  0  0  0  0  0
  150.9473  145.1119  159.9042 C   0  0  1  0  0  0  0  0  0  0  0  0
  149.5163  145.2206  159.6291 N   0  0  0  0  0  0  0  0  0  0  0  0
  148.5306  144.8027  160.4341 C   0  0  0  0  0  0  0  0  0  0  0  0
  148.7187  144.2716  161.5288 O   0  0  0  0  0  0  0  0  0  0  0  0
  147.3284  145.0578  159.8938 N   0  0  0  0  0  0  0  0  0  0  0  0
  146.0484  144.8322  160.4716 C   0  0  0  0  0  0  0  0  0  0  0  0
  145.9103  144.1685  161.7148 C   0  0  0  0  0  0  0  0  0  0  0  0
  144.6241  143.9026  162.2147 C   0  0  0  0  0  0  0  0  0  0  0  0
  143.5177  144.2965  161.4440 C   0  0  0  0  0  0  0  0  0  0  0  0
  143.6326  144.9167  160.2525 N   0  0  0  0  0  0  0  0  0  0  0  0
  144.8666  145.1939  159.7633 C   0  0  0  0  0  0  0  0  0  0  0  0
  144.9252  145.8624  158.5183 N   0  0  0  0  0  0  0  0  0  0  0  0
  144.4247  145.2204  157.3071 C   0  0  0  0  0  0  0  0  0  0  0  0
  144.2805  146.3494  156.2905 C   0  0  0  0  0  0  0  0  0  0  0  0
  143.8459  147.5206  157.1656 C   0  0  0  0  0  0  0  0  0  0  0  0
  144.5943  147.2843  158.4811 C   0  0  0  0  0  0  0  0  0  0  0  0
  151.2827  143.6998  160.4235 C   0  0  1  0  0  0  0  0  0  0  0  0
  151.9132  142.7638  159.3762 C   0  0  0  0  0  0  0  0  0  0  0  0
  153.2430  142.3610  159.9878 C   0  0  0  0  0  0  0  0  0  0  0  0
  153.0119  142.5943  161.4736 C   0  0  0  0  0  0  0  0  0  0  0  0
  152.2301  143.7764  161.4866 O   0  0  0  0  0  0  0  0  0  0  0  0
  152.8284  145.4123  158.8441 H   0  0  0  0  0  0  0  0  0  0  0  0
  151.5445  146.4975  158.3281 H   0  0  0  0  0  0  0  0  0  0  0  0
  151.5282  144.8112  157.8188 H   0  0  0  0  0  0  0  0  0  0  0  0
  151.2167  145.8182  160.6915 H   0  0  0  0  0  0  0  0  0  0  0  0
  149.2613  145.6486  158.7511 H   0  0  0  0  0  0  0  0  0  0  0  0
  147.3288  145.5845  159.0327 H   0  0  0  0  0  0  0  0  0  0  0  0
  146.7698  143.8401  162.2792 H   0  0  0  0  0  0  0  0  0  0  0  0
  144.4900  143.3976  163.1598 H   0  0  0  0  0  0  0  0  0  0  0  0
  142.5130  144.1040  161.7900 H   0  0  0  0  0  0  0  0  0  0  0  0
  145.1061  144.4444  156.9577 H   0  0  0  0  0  0  0  0  0  0  0  0
  143.4487  144.7669  157.4841 H   0  0  0  0  0  0  0  0  0  0  0  0
  145.2459  146.5654  155.8309 H   0  0  0  0  0  0  0  0  0  0  0  0
  143.5688  146.1193  155.4972 H   0  0  0  0  0  0  0  0  0  0  0  0
  144.0663  148.4914  156.7211 H   0  0  0  0  0  0  0  0  0  0  0  0
  142.7706  147.4670  157.3408 H   0  0  0  0  0  0  0  0  0  0  0  0
  143.9975  147.5927  159.3406 H   0  0  0  0  0  0  0  0  0  0  0  0
  145.5202  147.8595  158.4880 H   0  0  0  0  0  0  0  0  0  0  0  0
  150.3788  143.2280  160.8123 H   0  0  0  0  0  0  0  0  0  0  0  0
  151.2795  141.8878  159.2334 H   0  0  0  0  0  0  0  0  0  0  0  0
  152.0465  143.2319  158.4002 H   0  0  0  0  0  0  0  0  0  0  0  0
  153.5283  141.3345  159.7561 H   0  0  0  0  0  0  0  0  0  0  0  0
  154.0315  143.0239  159.6290 H   0  0  0  0  0  0  0  0  0  0  0  0
  152.4454  141.7734  161.9162 H   0  0  0  0  0  0  0  0  0  0  0  0
  153.9401  142.7178  162.0317 H   0  0  0  0  0  0  0  0  0  0  0  0
  1  2  1  0  0  0  0
  1 23  1  0  0  0  0
  1 24  1  0  0  0  0
  1 25  1  0  0  0  0
  2  3  1  0  0  0  0
  2 18  1  0  0  0  0
  2 26  1  0  0  0  0
  3  4  1  0  0  0  0
  3 27  1  0  0  0  0
  4  5  2  0  0  0  0
  4  6  1  0  0  0  0
  6  7  1  0  0  0  0
  6 28  1  0  0  0  0
  7 12  1  0  0  0  0
  7  8  2  0  0  0  0
  8  9  1  0  0  0  0
  8 29  1  0  0  0  0
  9 10  2  0  0  0  0
  9 30  1  0  0  0  0
 10 11  1  0  0  0  0
 10 31  1  0  0  0  0
 11 12  2  0  0  0  0
 12 13  1  0  0  0  0
 13 17  1  0  0  0  0
 13 14  1  0  0  0  0
 14 15  1  0  0  0  0
 14 32  1  0  0  0  0
 14 33  1  0  0  0  0
 15 16  1  0  0  0  0
 15 34  1  0  0  0  0
 15 35  1  0  0  0  0
 16 17  1  0  0  0  0
 16 36  1  0  0  0  0
 16 37  1  0  0  0  0
 17 38  1  0  0  0  0
 17 39  1  0  0  0  0
 18 22  1  0  0  0  0
 18 19  1  0  0  0  0
 18 40  1  0  0  0  0
 19 20  1  0  0  0  0
 19 41  1  0  0  0  0
 19 42  1  0  0  0  0
 20 21  1  0  0  0  0
 20 43  1  0  0  0  0
 20 44  1  0  0  0  0
 21 22  1  0  0  0  0
 21 45  1  0  0  0  0
 21 46  1  0  0  0  0
M  END
> <s_m_source_file>
AV-unprocessed.smi

> <i_m_source_file_index>
1793

> <i_lp_mmshare_version>
43012

> <i_f3d_flags>
0

> <s_epik_input>
TzFbQ0gyXVtDSDJdW0NIMl1bQ0BIXTFbQ0BIXShbQ0gzXSlbTkhdQyg9TylbTkhdYzJbY0hdW2NIXVtjSF1uYzJOM1tDSDJdW0NIMl1bQ0gyXVtDSDJdMw==

> <s_epik_cmdline>
J2VwaWtfcHl0aG9uJywgJy1waCcsICc3LjAnLCAnLXRuJywgJzgnLCAnLW1hJywgJzIwMCcsICctbWV0YWxfYmluZGluZycsICctaW1hZScsICc8aW5maWxlLm1hZT4nLCAnLW9tYWUnLCAnPG91dGZpbGUubWFlPic=

> <r_lp_tautomer_probability>
1

> <r_epik_Ionization_Penalty>
0.0992086

> <r_epik_Ionization_Penalty_Charging>
0

> <r_epik_Ionization_Penalty_Neutral>
0.0992086

> <r_epik_State_Penalty>
0.0887141

> <r_epik_Charging_Adjusted_Penalty>
0.0887141

> <i_epik_Tot_Q>
0

> <i_epik_Tot_abs_Q>
0

> <r_epik_Metal_State_Penalty>
0.075945

> <b_epik_Metal_Only>
0

> <s_lp_Force_Field>
OPLS_2005

> <r_lp_Energy>
46.9131

> <b_lp_Chiralities_Consistent>
1

> <s_lp_Variant>
AV-unprocessed.smi:1793-4

> <Gold.Version>
5.8.1

> <Gold.Id.Protein>
6NUR|6NUR_protein|mol2

> <Gold.PLP.Fitness>
49.9922

> <Gold.PLP.PLP>
-44.3989

> <Gold.PLP.part.hbond>
-3.0000

> <Gold.PLP.part.metal>
0.0000

> <Gold.PLP.part.buried>
-9.0980

> <Gold.PLP.part.nonpolar>
-32.5771

> <Gold.PLP.part.repulsive>
0.8921

> <Gold.PLP.ligand.clash>
0.0000

> <Gold.PLP.ligand.torsion>
1.4371

> <Gold.PLP.Chemscore.Hbond>
2.7040

> <Gold.PLP.Chemscore.CHOScore>
0.0000

> <Gold.PLP.Chemscore.Metal>
0.0000

> <Gold.Chemscore.Hbonds>
donor molecule, donor type, donor heavy atom, donor atom, acceptor molecule, acceptor atom, score
      L1  H     3    27       P1  8029  1.00
      L1  H     6    28       P1  8029  1.00
      P1  H  6933  6944       L1     5  0.69

> <Gold.PLP.Chemscore.Internal.Correction>
0.3555

> <Gold.Rescore>
     Score         DG    S(hbond)    S(metal)    S(lipo)     H(rot)  DE(clash)    DE(int)     intcor
     18.44     -22.12       2.26        0.00     107.53       1.36       0.11       3.58       ----

> <Gold.Chemscore.Fitness>
18.4353

> <Gold.Chemscore.DG>
-22.1209

> <Gold.Chemscore.ZeroCoef>
-5.4800

> <Gold.Chemscore.Hbond>
2.2566

> <Gold.Chemscore.Metal>
0.0000

> <Gold.Chemscore.Lipo>
107.5296

> <Gold.Chemscore.Internal_Hbond>
0.0000

> <Gold.Chemscore.DEClash>
0.1082

> <Gold.Chemscore.DEInternal>
3.5774

> <Gold.Chemscore.Rot>
1.3582

> <Gold.Chemscore.Internal.Correction>
   9.000000E+99

> <Gold.Chemscore.Hbonds>
donor molecule, donor type, donor heavy atom, donor atom, acceptor molecule, acceptor atom, score
      L1  H     3    27       P1  8029  0.90
      L1  H     6    28       P1  8029  0.98
      P1  H  6933  6944       L1     5  0.60

> <Gold.Chemscore.Hbond.Weighted>
-7.5370

> <Gold.Chemscore.Metal.Weighted>
-0.0000

> <Gold.Chemscore.Lipo.Weighted>
-12.5810

> <Gold.Chemscore.Internal_Hbond.Weighted>
0.0000

> <Gold.Chemscore.DEClash.Weighted>
0.1082

> <Gold.Chemscore.DEInternal.Weighted>
3.5774

> <Gold.Chemscore.Rot.Weighted>
3.4771

> <Gold.Chemscore.Internal.Correction.Weighted>
   9.000000E+99

> <Gold.Protein.RotatedTorsions>
[ 6907 6896 6895 6894 ] final  -75.87 input  -60.11 | X-H torsion
[ 7974 7965 7964 7962 ] final  -19.06 input  175.53 | X-H torsion
[ 8008 7997 7996 7995 ] final   20.50 input   59.86 | X-H torsion
[ 10167 10162 10161 10158 ] final  -46.58 input  -65.29 | X-H torsion
[ 10718 10713 10712 10709 ] final   30.99 input   66.30 | X-H torsion
[ 10763 10752 10751 10750 ] final -179.79 input  -60.55 | X-H torsion
[ 11005 11000 10999 10996 ] final -125.61 input  -57.11 | X-H torsion

> <Gold.Protein.ActiveResidues>
 VAL166  LYS551  ARG553  GLY616  TRP617  ASP618  TYR619  PRO620  LYS621  CYS622 
 ASP623  PHE694  ASN695  SER759  ASP760  ASP761  ALA762  ILE779  LEU786  VAL792 
 PHE793  MET794  SER795  GLU796  ALA797  LYS798  CYS799  TRP800  GLU811  SER814 

> <Gold.Protein.RotatedAtoms>
  150.7045  134.4656  159.5400 H   0  0  0  0  0  0  0  0  0  0  0  0  # atno 6907 bound_to 6896
  152.2322  134.8308  160.0481 H   0  0  0  0  0  0  0  0  0  0  0  0  # atno 6908 bound_to 6896
  151.9120  133.3528  159.3903 H   0  0  0  0  0  0  0  0  0  0  0  0  # atno 6909 bound_to 6896
  146.1860  140.4009  142.8476 H   0  0  0  0  0  0  0  0  0  0  0  0  # atno 7974 bound_to 7965
  154.9365  140.3047  155.5142 H   0  0  0  0  0  0  0  0  0  0  0  0  # atno 8008 bound_to 7997
  156.2999  140.2344  156.4367 H   0  0  0  0  0  0  0  0  0  0  0  0  # atno 8009 bound_to 7997
  154.8187  140.0424  157.1383 H   0  0  0  0  0  0  0  0  0  0  0  0  # atno 8010 bound_to 7997
  140.6811  143.2824  151.3803 H   0  0  0  0  0  0  0  0  0  0  0  0  # atno 10167 bound_to 10162
  157.2667  130.7188  149.6482 H   0  0  0  0  0  0  0  0  0  0  0  0  # atno 10718 bound_to 10713
  154.5306  135.2799  155.1184 H   0  0  0  0  0  0  0  0  0  0  0  0  # atno 10763 bound_to 10752
  154.2705  135.6304  153.5312 H   0  0  0  0  0  0  0  0  0  0  0  0  # atno 10764 bound_to 10752
  152.9956  135.5627  154.5818 H   0  0  0  0  0  0  0  0  0  0  0  0  # atno 10765 bound_to 10752
  140.9748  134.0756  157.3830 H   0  0  0  0  0  0  0  0  0  0  0  0  # atno 11005 bound_to 11000
  144.8399  140.6841  143.6236 LP  0  0  0  0  0  0  0  0  0  0  0  0  # atno 17320 bound_to 7965
  145.3936  139.1611  143.4216 LP  0  0  0  0  0  0  0  0  0  0  0  0  # atno 17321 bound_to 7965
  139.6135  144.1050  152.2322 LP  0  0  0  0  0  0  0  0  0  0  0  0  # atno 17342 bound_to 10162
  140.0472  144.5961  150.7365 LP  0  0  0  0  0  0  0  0  0  0  0  0  # atno 17343 bound_to 10162
  155.9663  130.4380  150.5201 LP  0  0  0  0  0  0  0  0  0  0  0  0  # atno 17370 bound_to 10713
  157.3116  131.0665  151.1996 LP  0  0  0  0  0  0  0  0  0  0  0  0  # atno 17371 bound_to 10713
  139.8926  135.0125  156.6855 LP  0  0  0  0  0  0  0  0  0  0  0  0  # atno 17394 bound_to 11000
  140.7275  133.9087  155.8189 LP  0  0  0  0  0  0  0  0  0  0  0  0  # atno 17395 bound_to 11000

$$$$
