AV-unprocessed.smi:1003|AV-procd|sdf|4360|dock5
  -GOLD-   22720 2263D 1   1.00000     0.00000
 Structure written by MMmdl.
 43 44  0  0  0  0  0  0  0  0  1 V2000
  145.5772  145.1922  152.0988 C   0  0  0  0  0  0  0  0  0  0  0  0
  144.8769  145.1159  153.4601 C   0  0  0  0  0  0  0  0  0  0  0  0
  145.2957  143.9093  154.2476 C   0  0  0  0  0  0  0  0  0  0  0  0
  146.3545  143.1225  153.7839 N   0  0  0  0  0  0  0  0  0  0  0  0
  146.6175  142.0882  154.5848 C   0  0  0  0  0  0  0  0  0  0  0  0
  147.6775  141.0772  154.3052 C   0  0  0  0  0  0  0  0  0  0  0  0
  149.0631  141.7170  154.1227 C   0  0  0  0  0  0  0  0  0  0  0  0
  149.6217  142.1587  155.3949 N   0  0  0  0  0  0  0  0  0  0  0  0
  150.6524  141.5761  156.0270 C   0  0  0  0  0  0  0  0  0  0  0  0
  151.2436  140.5903  155.5847 O   0  0  0  0  0  0  0  0  0  0  0  0
  151.0777  142.1992  157.3635 C   0  0  0  0  0  0  0  0  0  0  0  0
  151.6286  143.6269  157.1585 C   0  0  0  0  0  0  0  0  0  0  0  0
  152.0724  144.2524  158.4911 C   0  0  0  0  0  0  0  0  0  0  0  0
  153.1074  143.3676  159.2038 C   0  0  0  0  0  0  0  0  0  0  0  0
  152.5725  141.9413  159.4069 C   0  0  0  0  0  0  0  0  0  0  0  0
  152.1281  141.3181  158.0735 C   0  0  0  0  0  0  0  0  0  0  0  0
  145.5389  141.9947  155.9694 S   0  0  0  0  0  0  0  0  0  0  0  0
  144.7368  143.4416  155.4144 C   0  0  0  0  0  0  0  0  0  0  0  0
  143.5925  144.0197  156.1789 C   0  0  0  0  0  0  0  0  0  0  0  0
  145.2571  146.0753  151.5457 H   0  0  0  0  0  0  0  0  0  0  0  0
  145.3490  144.3167  151.4903 H   0  0  0  0  0  0  0  0  0  0  0  0
  146.6600  145.2469  152.2155 H   0  0  0  0  0  0  0  0  0  0  0  0
  145.0952  146.0229  154.0246 H   0  0  0  0  0  0  0  0  0  0  0  0
  143.7971  145.1147  153.3094 H   0  0  0  0  0  0  0  0  0  0  0  0
  147.7008  140.3574  155.1245 H   0  0  0  0  0  0  0  0  0  0  0  0
  147.3934  140.5215  153.4108 H   0  0  0  0  0  0  0  0  0  0  0  0
  149.7466  141.0189  153.6361 H   0  0  0  0  0  0  0  0  0  0  0  0
  148.9875  142.5850  153.4670 H   0  0  0  0  0  0  0  0  0  0  0  0
  149.1937  142.9649  155.8269 H   0  0  0  0  0  0  0  0  0  0  0  0
  150.1982  142.2645  158.0073 H   0  0  0  0  0  0  0  0  0  0  0  0
  152.4770  143.6085  156.4722 H   0  0  0  0  0  0  0  0  0  0  0  0
  150.8708  144.2592  156.6938 H   0  0  0  0  0  0  0  0  0  0  0  0
  152.4899  145.2441  158.3152 H   0  0  0  0  0  0  0  0  0  0  0  0
  151.2047  144.3923  159.1368 H   0  0  0  0  0  0  0  0  0  0  0  0
  154.0252  143.3331  158.6150 H   0  0  0  0  0  0  0  0  0  0  0  0
  153.3735  143.8067  160.1657 H   0  0  0  0  0  0  0  0  0  0  0  0
  153.3389  141.3197  159.8707 H   0  0  0  0  0  0  0  0  0  0  0  0
  151.7301  141.9619  160.0996 H   0  0  0  0  0  0  0  0  0  0  0  0
  151.7224  140.3220  158.2549 H   0  0  0  0  0  0  0  0  0  0  0  0
  153.0013  141.1820  157.4331 H   0  0  0  0  0  0  0  0  0  0  0  0
  142.7729  144.2848  155.5106 H   0  0  0  0  0  0  0  0  0  0  0  0
  143.9001  144.9199  156.7110 H   0  0  0  0  0  0  0  0  0  0  0  0
  143.2085  143.3097  156.9119 H   0  0  0  0  0  0  0  0  0  0  0  0
  1  2  1  0  0  0  0
  1 20  1  0  0  0  0
  1 21  1  0  0  0  0
  1 22  1  0  0  0  0
  2  3  1  0  0  0  0
  2 23  1  0  0  0  0
  2 24  1  0  0  0  0
  3 18  2  0  0  0  0
  3  4  1  0  0  0  0
  4  5  2  0  0  0  0
  5  6  1  0  0  0  0
  5 17  1  0  0  0  0
  6  7  1  0  0  0  0
  6 25  1  0  0  0  0
  6 26  1  0  0  0  0
  7  8  1  0  0  0  0
  7 27  1  0  0  0  0
  7 28  1  0  0  0  0
  8  9  1  0  0  0  0
  8 29  1  0  0  0  0
  9 10  2  0  0  0  0
  9 11  1  0  0  0  0
 11 16  1  0  0  0  0
 11 12  1  0  0  0  0
 11 30  1  0  0  0  0
 12 13  1  0  0  0  0
 12 31  1  0  0  0  0
 12 32  1  0  0  0  0
 13 14  1  0  0  0  0
 13 33  1  0  0  0  0
 13 34  1  0  0  0  0
 14 15  1  0  0  0  0
 14 35  1  0  0  0  0
 14 36  1  0  0  0  0
 15 16  1  0  0  0  0
 15 37  1  0  0  0  0
 15 38  1  0  0  0  0
 16 39  1  0  0  0  0
 16 40  1  0  0  0  0
 17 18  1  0  0  0  0
 18 19  1  0  0  0  0
 19 41  1  0  0  0  0
 19 42  1  0  0  0  0
 19 43  1  0  0  0  0
M  END
> <s_m_source_file>
AV-unprocessed.smi

> <i_m_source_file_index>
1003

> <i_lp_mmshare_version>
43012

> <i_f3d_flags>
0

> <s_epik_input>
W0NIM11bQ0gyXWMxbmMoc2MxW0NIM10pW0NIMl1bQ0gyXVtOSF1DKD1PKVtDSF0yW0NIMl1bQ0gyXVtDSDJdW0NIMl1bQ0gyXTI=

> <s_epik_cmdline>
J2VwaWtfcHl0aG9uJywgJy1waCcsICc3LjAnLCAnLXRuJywgJzgnLCAnLW1hJywgJzIwMCcsICctbWV0YWxfYmluZGluZycsICctaW1hZScsICc8aW5maWxlLm1hZT4nLCAnLW9tYWUnLCAnPG91dGZpbGUubWFlPic=

> <r_epik_Ionization_Penalty>
0.00242092

> <r_epik_Ionization_Penalty_Charging>
0

> <r_epik_Ionization_Penalty_Neutral>
0.00242092

> <r_epik_State_Penalty>
0.00167523

> <r_epik_Charging_Adjusted_Penalty>
0.00167523

> <i_epik_Tot_Q>
0

> <i_epik_Tot_abs_Q>
0

> <r_epik_Metal_State_Penalty>
-0

> <b_epik_Metal_Only>
0

> <s_lp_Force_Field>
OPLS_2005

> <r_lp_Energy>
0.647585

> <b_lp_Chiralities_Consistent>
1

> <s_lp_Variant>
AV-unprocessed.smi:1003-1

> <Gold.Version>
5.8.1

> <Gold.Id.Protein>
6NUR|6NUR_protein|mol2

> <Gold.PLP.Fitness>
48.0140

> <Gold.PLP.PLP>
-43.9335

> <Gold.PLP.part.hbond>
-2.0000

> <Gold.PLP.part.metal>
0.0000

> <Gold.PLP.part.buried>
-3.0037

> <Gold.PLP.part.nonpolar>
-37.7197

> <Gold.PLP.part.repulsive>
0.4144

> <Gold.PLP.ligand.clash>
0.0000

> <Gold.PLP.ligand.torsion>
0.3019

> <Gold.PLP.Chemscore.Hbond>
1.5540

> <Gold.PLP.Chemscore.CHOScore>
0.0000

> <Gold.PLP.Chemscore.Metal>
0.0000

> <Gold.Chemscore.Hbonds>
donor molecule, donor type, donor heavy atom, donor atom, acceptor molecule, acceptor atom, score
      L1  H     8    29       P1  8028  0.90
      P1  H  7989  7998       L1    10  0.62

> <Gold.PLP.Chemscore.Internal.Correction>
0.0224

> <Gold.Rescore>
     Score         DG    S(hbond)    S(metal)    S(lipo)     H(rot)  DE(clash)    DE(int)     intcor
     18.43     -20.21       1.34        0.00     118.33       1.40       1.25       0.53       ----

> <Gold.Chemscore.Fitness>
18.4324

> <Gold.Chemscore.DG>
-20.2148

> <Gold.Chemscore.ZeroCoef>
-5.4800

> <Gold.Chemscore.Hbond>
1.3388

> <Gold.Chemscore.Metal>
0.0000

> <Gold.Chemscore.Lipo>
118.3252

> <Gold.Chemscore.Internal_Hbond>
0.0000

> <Gold.Chemscore.DEClash>
1.2542

> <Gold.Chemscore.DEInternal>
0.5282

> <Gold.Chemscore.Rot>
1.3988

> <Gold.Chemscore.Internal.Correction>
   9.000000E+99

> <Gold.Chemscore.Hbonds>
donor molecule, donor type, donor heavy atom, donor atom, acceptor molecule, acceptor atom, score
      L1  H     8    29       P1  8028  0.88
      P1  H  7989  7998       L1    10  0.44

> <Gold.Chemscore.Hbond.Weighted>
-4.4718

> <Gold.Chemscore.Metal.Weighted>
-0.0000

> <Gold.Chemscore.Lipo.Weighted>
-13.8440

> <Gold.Chemscore.Internal_Hbond.Weighted>
0.0000

> <Gold.Chemscore.DEClash.Weighted>
1.2542

> <Gold.Chemscore.DEInternal.Weighted>
0.5282

> <Gold.Chemscore.Rot.Weighted>
3.5810

> <Gold.Chemscore.Internal.Correction.Weighted>
   9.000000E+99

> <Gold.Protein.RotatedTorsions>
[ 6907 6896 6895 6894 ] final  160.10 input  -60.11 | X-H torsion
[ 7974 7965 7964 7962 ] final  -71.49 input  175.53 | X-H torsion
[ 8008 7997 7996 7995 ] final -177.24 input   59.86 | X-H torsion
[ 10167 10162 10161 10158 ] final -178.91 input  -65.29 | X-H torsion
[ 10718 10713 10712 10709 ] final -122.71 input   66.30 | X-H torsion
[ 10763 10752 10751 10750 ] final   36.51 input  -60.55 | X-H torsion
[ 11005 11000 10999 10996 ] final  159.66 input  -57.11 | X-H torsion

> <Gold.Protein.ActiveResidues>
 VAL166  LYS551  ARG553  GLY616  TRP617  ASP618  TYR619  PRO620  LYS621  CYS622 
 ASP623  PHE694  ASN695  SER759  ASP760  ASP761  ALA762  ILE779  LEU786  VAL792 
 PHE793  MET794  SER795  GLU796  ALA797  LYS798  CYS799  TRP800  GLU811  SER814 

> <Gold.Protein.RotatedAtoms>
  151.9756  133.3740  159.4087 H   0  0  0  0  0  0  0  0  0  0  0  0  # atno 6907 bound_to 6896
  150.6942  134.4093  159.5164 H   0  0  0  0  0  0  0  0  0  0  0  0  # atno 6908 bound_to 6896
  152.1804  134.8759  160.0577 H   0  0  0  0  0  0  0  0  0  0  0  0  # atno 6909 bound_to 6896
  145.6774  140.9200  143.0850 H   0  0  0  0  0  0  0  0  0  0  0  0  # atno 7974 bound_to 7965
  156.0046  140.1228  157.0514 H   0  0  0  0  0  0  0  0  0  0  0  0  # atno 8008 bound_to 7997
  154.4254  140.1100  156.5813 H   0  0  0  0  0  0  0  0  0  0  0  0  # atno 8009 bound_to 7997
  155.6165  140.3472  155.4641 H   0  0  0  0  0  0  0  0  0  0  0  0  # atno 8010 bound_to 7997
  139.5410  144.2362  152.0895 H   0  0  0  0  0  0  0  0  0  0  0  0  # atno 10167 bound_to 10162
  156.1441  130.6487  150.9816 H   0  0  0  0  0  0  0  0  0  0  0  0  # atno 10718 bound_to 10713
  153.0074  135.6303  154.1997 H   0  0  0  0  0  0  0  0  0  0  0  0  # atno 10763 bound_to 10752
  154.1741  135.2817  155.3074 H   0  0  0  0  0  0  0  0  0  0  0  0  # atno 10764 bound_to 10752
  154.5886  135.5625  153.7316 H   0  0  0  0  0  0  0  0  0  0  0  0  # atno 10765 bound_to 10752
  140.1983  134.8356  157.2990 H   0  0  0  0  0  0  0  0  0  0  0  0  # atno 11005 bound_to 11000
  144.7037  139.8652  143.7436 LP  0  0  0  0  0  0  0  0  0  0  0  0  # atno 17320 bound_to 7965
  146.0994  139.3988  143.0356 LP  0  0  0  0  0  0  0  0  0  0  0  0  # atno 17321 bound_to 7965
  140.1841  144.4816  150.6513 LP  0  0  0  0  0  0  0  0  0  0  0  0  # atno 17342 bound_to 10162
  140.6640  143.2261  151.5787 LP  0  0  0  0  0  0  0  0  0  0  0  0  # atno 17343 bound_to 10162
  157.6601  131.0882  150.7857 LP  0  0  0  0  0  0  0  0  0  0  0  0  # atno 17370 bound_to 10713
  156.7930  130.4896  149.5382 LP  0  0  0  0  0  0  0  0  0  0  0  0  # atno 17371 bound_to 10713
  140.2082  134.4171  155.7626 LP  0  0  0  0  0  0  0  0  0  0  0  0  # atno 17394 bound_to 11000
  141.2227  133.7105  156.8295 LP  0  0  0  0  0  0  0  0  0  0  0  0  # atno 17395 bound_to 11000

$$$$
