AV-unprocessed.smi:3034|AV-procd|sdf|11578|dock6
  -GOLD-   2272016543D 1   1.00000     0.00000
 Structure written by MMmdl.
 32 32  0  0  0  0  0  0  0  0  1 V2000
  148.8413  141.1011  153.9905 C   0  0  0  0  0  0  0  0  0  0  0  0
  149.9827  140.5706  154.8641 C   0  0  0  0  0  0  0  0  0  0  0  0
  150.5399  139.2336  154.3552 C   0  0  0  0  0  0  0  0  0  0  0  0
  152.0659  138.7431  155.2673 S   0  0  0  0  0  0  0  0  0  0  0  0
  152.2166  137.2810  155.2049 O   0  0  0  0  0  0  0  0  0  0  0  0
  153.1713  139.6229  154.8590 O   0  0  0  0  0  0  0  0  0  0  0  0
  151.6666  139.1553  156.8917 N   0  0  0  0  0  0  0  0  0  0  0  0
  152.0072  140.4986  157.3606 C   0  0  0  0  0  0  0  0  0  0  0  0
  152.4946  140.4631  158.8197 C   0  0  1  0  0  0  0  0  0  0  0  0
  153.8159  139.9562  158.8470 O   0  0  0  0  0  0  0  0  0  0  0  0
  152.3940  141.8415  159.4618 C   0  0  0  0  0  0  0  0  0  0  0  0
  152.6838  142.0469  160.8307 C   0  0  0  0  0  0  0  0  0  0  0  0
  152.5914  143.3525  161.3503 C   0  0  0  0  0  0  0  0  0  0  0  0
  152.2203  144.4017  160.4882 C   0  0  0  0  0  0  0  0  0  0  0  0
  151.9587  144.0973  159.1381 C   0  0  0  0  0  0  0  0  0  0  0  0
  152.0448  142.8494  158.6298 N   0  0  0  0  0  0  0  0  0  0  0  0
  148.4689  142.0512  154.3738 H   0  0  0  0  0  0  0  0  0  0  0  0
  148.0055  140.4014  153.9672 H   0  0  0  0  0  0  0  0  0  0  0  0
  149.1729  141.2634  152.9648 H   0  0  0  0  0  0  0  0  0  0  0  0
  150.7833  141.3101  154.8964 H   0  0  0  0  0  0  0  0  0  0  0  0
  149.6257  140.4558  155.8879 H   0  0  0  0  0  0  0  0  0  0  0  0
  149.8013  138.4454  154.5016 H   0  0  0  0  0  0  0  0  0  0  0  0
  150.7716  139.2725  153.2908 H   0  0  0  0  0  0  0  0  0  0  0  0
  150.6898  138.9395  157.0906 H   0  0  0  0  0  0  0  0  0  0  0  0
  152.7556  140.9447  156.7042 H   0  0  0  0  0  0  0  0  0  0  0  0
  151.1102  141.1152  157.2877 H   0  0  0  0  0  0  0  0  0  0  0  0
  151.8715  139.7771  159.3961 H   0  0  0  0  0  0  0  0  0  0  0  0
  153.7793  139.0435  159.0884 H   0  0  0  0  0  0  0  0  0  0  0  0
  152.9749  141.2295  161.4736 H   0  0  0  0  0  0  0  0  0  0  0  0
  152.8041  143.5458  162.3914 H   0  0  0  0  0  0  0  0  0  0  0  0
  152.1402  145.4153  160.8520 H   0  0  0  0  0  0  0  0  0  0  0  0
  151.6743  144.8773  158.4474 H   0  0  0  0  0  0  0  0  0  0  0  0
  1  2  1  0  0  0  0
  1 17  1  0  0  0  0
  1 18  1  0  0  0  0
  1 19  1  0  0  0  0
  2  3  1  0  0  0  0
  2 20  1  0  0  0  0
  2 21  1  0  0  0  0
  3  4  1  0  0  0  0
  3 22  1  0  0  0  0
  3 23  1  0  0  0  0
  4  5  2  0  0  0  0
  4  6  2  0  0  0  0
  4  7  1  0  0  0  0
  7  8  1  0  0  0  0
  7 24  1  0  0  0  0
  8  9  1  0  0  0  0
  8 25  1  0  0  0  0
  8 26  1  0  0  0  0
  9 10  1  0  0  0  0
  9 11  1  0  0  0  0
  9 27  1  0  0  0  0
 10 28  1  0  0  0  0
 11 16  1  0  0  0  0
 11 12  2  0  0  0  0
 12 13  1  0  0  0  0
 12 29  1  0  0  0  0
 13 14  2  0  0  0  0
 13 30  1  0  0  0  0
 14 15  1  0  0  0  0
 14 31  1  0  0  0  0
 15 16  2  0  0  0  0
 15 32  1  0  0  0  0
M  END
> <s_m_source_file>
AV-unprocessed.smi

> <i_m_source_file_index>
3034

> <i_lp_mmshare_version>
43012

> <i_f3d_flags>
0

> <s_epik_input>
W0NIM11bQ0gyXVtDSDJdUyg9TykoPU8pW05IXVtDSDJdW0NASF0oW09IXSljMVtjSF1bY0hdW2NIXVtjSF1uMQ==

> <s_epik_cmdline>
J2VwaWtfcHl0aG9uJywgJy1waCcsICc3LjAnLCAnLXRuJywgJzgnLCAnLW1hJywgJzIwMCcsICctbWV0YWxfYmluZGluZycsICctaW1hZScsICc8aW5maWxlLm1hZT4nLCAnLW9tYWUnLCAnPG91dGZpbGUubWFlPic=

> <r_epik_Ionization_Penalty>
0.00187371

> <r_epik_Ionization_Penalty_Charging>
0

> <r_epik_Ionization_Penalty_Neutral>
0.00187371

> <r_epik_State_Penalty>
0.0012608

> <r_epik_Charging_Adjusted_Penalty>
0.0012608

> <i_epik_Tot_Q>
0

> <i_epik_Tot_abs_Q>
0

> <r_epik_Metal_State_Penalty>
0.0168387

> <b_epik_Metal_Only>
0

> <s_lp_Force_Field>
OPLS_2005

> <r_lp_Energy>
4.76334

> <b_lp_Chiralities_Consistent>
1

> <s_lp_Variant>
AV-unprocessed.smi:3034-2

> <Gold.Version>
5.8.1

> <Gold.Id.Protein>
6NUR|6NUR_protein|mol2

> <Gold.PLP.Fitness>
44.9748

> <Gold.PLP.PLP>
-38.4465

> <Gold.PLP.part.hbond>
-4.0000

> <Gold.PLP.part.metal>
0.0000

> <Gold.PLP.part.buried>
-4.1114

> <Gold.PLP.part.nonpolar>
-30.5093

> <Gold.PLP.part.repulsive>
0.1066

> <Gold.PLP.ligand.clash>
0.0000

> <Gold.PLP.ligand.torsion>
1.3803

> <Gold.PLP.Chemscore.Hbond>
3.0335

> <Gold.PLP.Chemscore.CHOScore>
0.0000

> <Gold.PLP.Chemscore.Metal>
0.0000

> <Gold.Chemscore.Hbonds>
donor molecule, donor type, donor heavy atom, donor atom, acceptor molecule, acceptor atom, score
      P1  H  7989  7998       L1     6  0.03
      P1  H  7997  8008       L1    10  1.00
      P1  H  7997  8009       L1     6  1.00
      P1  H 10752 10764       L1     5  0.78

> <Gold.PLP.Chemscore.Internal.Correction>
0.1885

> <Gold.Rescore>
     Score         DG    S(hbond)    S(metal)    S(lipo)     H(rot)  DE(clash)    DE(int)     intcor
     17.47     -19.01       2.75        0.00      94.58       2.63       0.10       1.44       ----

> <Gold.Chemscore.Fitness>
17.4692

> <Gold.Chemscore.DG>
-19.0107

> <Gold.Chemscore.ZeroCoef>
-5.4800

> <Gold.Chemscore.Hbond>
2.7520

> <Gold.Chemscore.Metal>
0.0000

> <Gold.Chemscore.Lipo>
94.5790

> <Gold.Chemscore.Internal_Hbond>
0.0000

> <Gold.Chemscore.DEClash>
0.0988

> <Gold.Chemscore.DEInternal>
1.4427

> <Gold.Chemscore.Rot>
2.6275

> <Gold.Chemscore.Internal.Correction>
   9.000000E+99

> <Gold.Chemscore.Hbonds>
donor molecule, donor type, donor heavy atom, donor atom, acceptor molecule, acceptor atom, score
      P1  H  7997  8008       L1    10  0.51
      P1  H  7997  8009       L1     6  0.97
      P1  H 10752 10764       L1     5  0.77

> <Gold.Chemscore.Hbond.Weighted>
-9.1915

> <Gold.Chemscore.Metal.Weighted>
-0.0000

> <Gold.Chemscore.Lipo.Weighted>
-11.0657

> <Gold.Chemscore.Internal_Hbond.Weighted>
0.0000

> <Gold.Chemscore.DEClash.Weighted>
0.0988

> <Gold.Chemscore.DEInternal.Weighted>
1.4427

> <Gold.Chemscore.Rot.Weighted>
6.7265

> <Gold.Chemscore.Internal.Correction.Weighted>
   9.000000E+99

> <Gold.Protein.RotatedTorsions>
[ 6907 6896 6895 6894 ] final  151.47 input  -60.11 | X-H torsion
[ 7974 7965 7964 7962 ] final  -63.52 input  175.53 | X-H torsion
[ 8008 7997 7996 7995 ] final -112.49 input   59.86 | X-H torsion
[ 10167 10162 10161 10158 ] final  162.57 input  -65.29 | X-H torsion
[ 10718 10713 10712 10709 ] final   57.26 input   66.30 | X-H torsion
[ 10763 10752 10751 10750 ] final  -53.80 input  -60.55 | X-H torsion
[ 11005 11000 10999 10996 ] final  -85.74 input  -57.11 | X-H torsion

> <Gold.Protein.ActiveResidues>
 VAL166  LYS551  ARG553  GLY616  TRP617  ASP618  TYR619  PRO620  LYS621  CYS622 
 ASP623  PHE694  ASN695  SER759  ASP760  ASP761  ALA762  ILE779  LEU786  VAL792 
 PHE793  MET794  SER795  GLU796  ALA797  LYS798  CYS799  TRP800  GLU811  SER814 

> <Gold.Protein.RotatedAtoms>
  152.1002  133.4246  159.4583 H   0  0  0  0  0  0  0  0  0  0  0  0  # atno 6907 bound_to 6896
  150.6864  134.2769  159.4620 H   0  0  0  0  0  0  0  0  0  0  0  0  # atno 6908 bound_to 6896
  152.0629  134.9582  160.0625 H   0  0  0  0  0  0  0  0  0  0  0  0  # atno 6909 bound_to 6896
  145.7781  140.8777  143.0345 H   0  0  0  0  0  0  0  0  0  0  0  0  # atno 7974 bound_to 7965
  155.0060  140.0394  157.2379 H   0  0  0  0  0  0  0  0  0  0  0  0  # atno 8008 bound_to 7997
  154.7502  140.2765  155.6276 H   0  0  0  0  0  0  0  0  0  0  0  0  # atno 8009 bound_to 7997
  156.2883  140.2648  156.2254 H   0  0  0  0  0  0  0  0  0  0  0  0  # atno 8010 bound_to 7997
  139.4862  144.4424  151.8935 H   0  0  0  0  0  0  0  0  0  0  0  0  # atno 10167 bound_to 10162
  157.5500  130.8759  149.8949 H   0  0  0  0  0  0  0  0  0  0  0  0  # atno 10718 bound_to 10713
  154.1646  135.6469  153.4994 H   0  0  0  0  0  0  0  0  0  0  0  0  # atno 10763 bound_to 10752
  153.0101  135.5369  154.6676 H   0  0  0  0  0  0  0  0  0  0  0  0  # atno 10764 bound_to 10752
  154.5999  135.2942  155.0519 H   0  0  0  0  0  0  0  0  0  0  0  0  # atno 10765 bound_to 10752
  141.1638  133.7416  156.9059 H   0  0  0  0  0  0  0  0  0  0  0  0  # atno 11005 bound_to 11000
  144.6801  139.9950  143.7484 LP  0  0  0  0  0  0  0  0  0  0  0  0  # atno 17320 bound_to 7965
  146.0102  139.3163  143.0875 LP  0  0  0  0  0  0  0  0  0  0  0  0  # atno 17321 bound_to 7965
  140.3876  144.2656  150.5902 LP  0  0  0  0  0  0  0  0  0  0  0  0  # atno 17342 bound_to 10162
  140.5176  143.2274  151.8439 LP  0  0  0  0  0  0  0  0  0  0  0  0  # atno 17343 bound_to 10162
  156.0568  130.3707  150.1072 LP  0  0  0  0  0  0  0  0  0  0  0  0  # atno 17370 bound_to 10713
  156.9245  130.9694  151.3543 LP  0  0  0  0  0  0  0  0  0  0  0  0  # atno 17371 bound_to 10713
  140.1550  134.9204  157.2642 LP  0  0  0  0  0  0  0  0  0  0  0  0  # atno 17394 bound_to 11000
  140.2677  134.3496  155.7384 LP  0  0  0  0  0  0  0  0  0  0  0  0  # atno 17395 bound_to 11000

$$$$
