#       Name:                AV-unprocessed.smi:1554
#       Creating user name   scv26
#       Creation time:       Fri Mar 27 06:43:43 2020


#       File generated by GOLD software.
#

@<TRIPOS>MOLECULE
AV-unprocessed.smi:1554
    53    55     1
SMALL
NO_CHARGES


@<TRIPOS>ATOM
      1 ****        -2.7635   4.8168  -3.7291 C.3            1 S1                 0.0000
      2 ****        -2.5601   3.7277  -2.6894 C.ar           1 S1                 0.0000
      3 ****        -3.0033   3.9647  -1.3687 C.ar           1 S1                 0.0000
      4 ****        -2.8003   2.9507  -0.4400 C.ar           1 S1                 0.0000
      5 ****        -3.1137   2.8803   0.9190 N.pl3          1 S1                 1.0000
      6 ****        -2.7178   1.6755   1.4147 C.2            1 S1                 0.0000
      7 ****        -2.1581   0.9741   0.3919 N.pl3          1 S1                 0.0000
      8 ****        -1.5791  -0.3772   0.3896 C.3            1 S1                 0.0000
      9 ****        -0.0986  -0.3977   0.8174 C.3            1 S1                 0.0000
     10 ****         0.6689   0.3572  -0.0989 O.3            1 S1                 0.0000
     11 ****         0.4580  -1.8351   0.8496 C.3            1 S1                 0.0000
     12 ****         1.8079  -1.9794   1.3984 N.3            1 S1                 0.0000
     13 ****         1.8687  -1.7105   2.8343 C.3            1 S1                 0.0000
     14 ****         3.2883  -1.9031   3.3948 C.3            1 S1                 0.0000
     15 ****         3.7453  -3.2189   3.1014 O.3            1 S1                 0.0000
     16 ****         3.7514  -3.5070   1.7060 C.3            1 S1                 0.0000
     17 ****         4.2667  -4.9370   1.5119 C.3            1 S1                 0.0000
     18 ****         2.3267  -3.3205   1.1488 C.3            1 S1                 0.0000
     19 ****        -2.1849   1.7317  -0.7854 C.ar           1 S1                 0.0000
     20 ****        -1.7420   1.4828  -2.0825 C.ar           1 S1                 0.0000
     21 ****        -1.9357   2.5030  -3.0411 C.ar           1 S1                 0.0000
     22 ****        -1.4566   2.2614  -4.4625 C.3            1 S1                 0.0000
     23 ****        -3.2771   5.6810  -3.3068 H              1 S1                 0.0000
     24 ****        -3.3649   4.4467  -4.5598 H              1 S1                 0.0000
     25 ****        -1.8040   5.1567  -4.1195 H              1 S1                 0.0000
     26 ****        -3.4773   4.8954  -1.0928 H              1 S1                 0.0000
     27 ****        -2.8293   1.3369   2.4347 H              1 S1                 0.0000
     28 ****        -2.1707  -0.9760   1.0832 H              1 S1                 0.0000
     29 ****        -1.7165  -0.8280  -0.5936 H              1 S1                 0.0000
     30 ****        -0.0215   0.0695   1.7982 H              1 S1                 0.0000
     31 ****         1.5759   0.3088   0.1640 H              1 S1                 0.0000
     32 ****        -0.2242  -2.4702   1.4169 H              1 S1                 0.0000
     33 ****         0.4410  -2.2238  -0.1699 H              1 S1                 0.0000
     34 ****         1.5525  -0.6904   3.0469 H              1 S1                 0.0000
     35 ****         1.1799  -2.3700   3.3647 H              1 S1                 0.0000
     36 ****         3.9742  -1.1689   2.9697 H              1 S1                 0.0000
     37 ****         3.2920  -1.7574   4.4751 H              1 S1                 0.0000
     38 ****         4.4329  -2.8170   1.2049 H              1 S1                 0.0000
     39 ****         4.2953  -5.2042   0.4553 H              1 S1                 0.0000
     40 ****         3.6281  -5.6585   2.0226 H              1 S1                 0.0000
     41 ****         5.2760  -5.0452   1.9097 H              1 S1                 0.0000
     42 ****         1.6624  -4.0613   1.5971 H              1 S1                 0.0000
     43 ****         2.3331  -3.5182   0.0761 H              1 S1                 0.0000
     44 ****        -1.2608   0.5535  -2.3495 H              1 S1                 0.0000
     45 ****        -0.9950   1.2788  -4.5664 H              1 S1                 0.0000
     46 ****        -0.7162   3.0089  -4.7489 H              1 S1                 0.0000
     47 ****        -2.2910   2.3131  -5.1625 H              1 S1                 0.0000
     48 ****        -3.5638   3.6001   1.4699 H              1 S1                 0.0000
     49 ****         0.3647   1.3098  -0.0909 LP             1 S1                 0.0000
     50 ****         0.5630  -0.0188  -1.0194 LP             1 S1                 0.0000
     51 ****         2.3703  -1.2974   0.9309 LP             1 S1                 0.0000
     52 ****         3.1451  -3.8745   3.5597 LP             1 S1                 0.0000
     53 ****         4.6767  -3.3184   3.4516 LP             1 S1                 0.0000
@<TRIPOS>BOND
    1    1    2 1     
    2    1   23 1     
    3    1   24 1     
    4    1   25 1     
    5    2   21 ar    
    6    2    3 ar    
    7    3    4 ar    
    8    3   26 1     
    9    4   19 ar    
   10    4    5 1     
   11    5    6 2     
   12    5   48 1     
   13    6    7 1     
   14    6   27 1     
   15    7    8 1     
   16    7   19 1     
   17    8    9 1     
   18    8   28 1     
   19    8   29 1     
   20    9   10 1     
   21    9   11 1     
   22    9   30 1     
   23   10   31 1     
   24   11   12 1     
   25   11   32 1     
   26   11   33 1     
   27   12   18 1     
   28   12   13 1     
   29   13   14 1     
   30   13   34 1     
   31   13   35 1     
   32   14   15 1     
   33   14   36 1     
   34   14   37 1     
   35   15   16 1     
   36   16   17 1     
   37   16   18 1     
   38   16   38 1     
   39   17   39 1     
   40   17   40 1     
   41   17   41 1     
   42   18   42 1     
   43   18   43 1     
   44   19   20 ar    
   45   20   21 ar    
   46   20   44 1     
   47   21   22 1     
   48   22   45 1     
   49   22   46 1     
   50   22   47 1     
   51   10   49 1     
   52   10   50 1     
   53   12   51 1     
   54   15   52 1     
   55   15   53 1     
@<TRIPOS>SUBSTRUCTURE
      1 S1             1
@<TRIPOS>SET
LONE_PAIRS      STATIC     ATOMS    <user>   **** ""
5 49 50 51 52 53
DONOR_HYDROGENS      STATIC     ATOMS    <user>   **** ""
2 48 31
ATOM$BLUE        STATIC     ATOMS    COLORGROUP SYSTEM
5 49 50 51 52 53
ATOM$RED        STATIC     ATOMS    COLORGROUP SYSTEM
2 48 31
