#       Name:                AV-unprocessed.smi:2772
#       Creating user name   scv26
#       Creation time:       Fri Mar 27 15:11:25 2020


#       File generated by GOLD software.
#

@<TRIPOS>MOLECULE
AV-unprocessed.smi:2772
    58    60     1
SMALL
NO_CHARGES


@<TRIPOS>ATOM
      1 ****        -8.0630   5.3665  -0.0724 C.3            1 S1                 0.0000
      2 ****        -6.9250   4.3682  -0.0275 C.ar           1 S1                 0.0000
      3 ****        -7.1333   3.0495   0.4262 C.ar           1 S1                 0.0000
      4 ****        -6.0380   2.1647   0.4402 C.ar           1 S1                 0.0000
      5 ****        -4.7758   2.6261   0.0134 C.ar           1 S1                 0.0000
      6 ****        -3.6905   1.7086   0.0099 N.am           1 S1                 0.0000
      7 ****        -2.3748   1.9812   0.0455 C.2            1 S1                 0.0000
      8 ****        -1.8883   3.1040   0.1774 O.2            1 S1                 0.0000
      9 ****        -1.6423   0.8620  -0.0566 N.am           1 S1                 0.0000
     10 ****        -0.1822   0.8001  -0.0444 C.3            1 S1                 0.0000
     11 ****         0.3310   0.0486  -1.2757 C.3            1 S1                 0.0000
     12 ****         1.8638  -0.0733  -1.2503 C.3            1 S1                 0.0000
     13 ****         2.3661  -0.7400  -0.0107 N.4            1 S1                 1.0000
     14 ****         3.8600  -0.9215   0.0025 C.3            1 S1                 0.0000
     15 ****         4.4129  -1.6821  -1.2295 C.3            1 S1                 0.0000
     16 ****         3.9796  -3.1599  -1.2340 C.3            1 S1                 0.0000
     17 ****         4.4271  -3.8483   0.0028 N.4            1 S1                 1.0000
     18 ****         4.1014  -5.2907  -0.0030 C.3            1 S1                 0.0000
     19 ****         3.9537  -3.1642   1.2322 C.3            1 S1                 0.0000
     20 ****         4.3874  -1.6866   1.2425 C.3            1 S1                 0.0000
     21 ****         1.8473  -0.0467   1.2075 C.3            1 S1                 0.0000
     22 ****         0.3143   0.0755   1.2099 C.3            1 S1                 0.0000
     23 ****        -4.6792   3.9677  -0.4321 C.ar           1 S1                 0.0000
     24 ****        -5.7255   4.8211  -0.4509 N.ar           1 S1                 0.0000
     25 ****        -8.9979   4.9170   0.2632 H              1 S1                 0.0000
     26 ****        -8.2072   5.7306  -1.0901 H              1 S1                 0.0000
     27 ****        -7.8448   6.2194   0.5708 H              1 S1                 0.0000
     28 ****        -8.1085   2.7195   0.7529 H              1 S1                 0.0000
     29 ****        -6.1685   1.1469   0.7778 H              1 S1                 0.0000
     30 ****        -3.9477   0.7324   0.0122 H              1 S1                 0.0000
     31 ****        -2.1348  -0.0140  -0.1555 H              1 S1                 0.0000
     32 ****         0.2426   1.8057  -0.0562 H              1 S1                 0.0000
     33 ****        -0.1133  -0.9471  -1.3205 H              1 S1                 0.0000
     34 ****         0.0204   0.5668  -2.1839 H              1 S1                 0.0000
     35 ****         2.1390  -0.6382  -2.1377 H              1 S1                 0.0000
     36 ****         2.3198   0.9138  -1.3432 H              1 S1                 0.0000
     37 ****         4.2999   0.0771   0.0081 H              1 S1                 0.0000
     38 ****         4.1613  -1.2000  -2.1720 H              1 S1                 0.0000
     39 ****         5.5031  -1.6472  -1.1987 H              1 S1                 0.0000
     40 ****         2.8955  -3.2385  -1.3301 H              1 S1                 0.0000
     41 ****         4.4109  -3.6619  -2.1010 H              1 S1                 0.0000
     42 ****         3.0223  -5.4495  -0.0105 H              1 S1                 0.0000
     43 ****         4.5139  -5.7816   0.8791 H              1 S1                 0.0000
     44 ****         4.5257  -5.7779  -0.8815 H              1 S1                 0.0000
     45 ****         2.8678  -3.2426   1.3048 H              1 S1                 0.0000
     46 ****         4.3662  -3.6698   2.1063 H              1 S1                 0.0000
     47 ****         5.4779  -1.6518   1.2346 H              1 S1                 0.0000
     48 ****         4.1156  -1.2092   2.1816 H              1 S1                 0.0000
     49 ****         2.1121  -0.5911   2.1108 H              1 S1                 0.0000
     50 ****         2.3015   0.9426   1.2846 H              1 S1                 0.0000
     51 ****        -0.0088   0.6125   2.1029 H              1 S1                 0.0000
     52 ****        -0.1305  -0.9192   1.2696 H              1 S1                 0.0000
     53 ****        -3.7556   4.3778  -0.8098 H              1 S1                 0.0000
     54 ****         1.9603  -1.6647  -0.0040 H              1 S1                 0.0000
     55 ****         5.4358  -3.7878   0.0133 H              1 S1                 0.0000
     56 ****        -2.4862   3.9004   0.2681 LP             1 S1                 0.0000
     57 ****        -0.8952   3.2198   0.1938 LP             1 S1                 0.0000
     58 ****        -5.6151   5.7625  -0.7696 LP             1 S1                 0.0000
@<TRIPOS>BOND
    1    1    2 1     
    2    1   25 1     
    3    1   26 1     
    4    1   27 1     
    5    2   24 ar    
    6    2    3 ar    
    7    3    4 ar    
    8    3   28 1     
    9    4    5 ar    
   10    4   29 1     
   11    5    6 1     
   12    5   23 ar    
   13    6    7 am    
   14    6   30 1     
   15    7    8 2     
   16    7    9 am    
   17    9   10 1     
   18    9   31 1     
   19   10   22 1     
   20   10   11 1     
   21   10   32 1     
   22   11   12 1     
   23   11   33 1     
   24   11   34 1     
   25   12   13 1     
   26   12   35 1     
   27   12   36 1     
   28   13   14 1     
   29   13   21 1     
   30   13   54 1     
   31   14   20 1     
   32   14   15 1     
   33   14   37 1     
   34   15   16 1     
   35   15   38 1     
   36   15   39 1     
   37   16   17 1     
   38   16   40 1     
   39   16   41 1     
   40   17   18 1     
   41   17   19 1     
   42   17   55 1     
   43   18   42 1     
   44   18   43 1     
   45   18   44 1     
   46   19   20 1     
   47   19   45 1     
   48   19   46 1     
   49   20   47 1     
   50   20   48 1     
   51   21   22 1     
   52   21   49 1     
   53   21   50 1     
   54   22   51 1     
   55   22   52 1     
   56   23   24 ar    
   57   23   53 1     
   58    8   56 1     
   59    8   57 1     
   60   24   58 1     
@<TRIPOS>SUBSTRUCTURE
      1 S1             1
@<TRIPOS>SET
LONE_PAIRS      STATIC     ATOMS    <user>   **** ""
3 56 57 58
DONOR_HYDROGENS      STATIC     ATOMS    <user>   **** ""
4 30 31 54 55
ATOM$BLUE        STATIC     ATOMS    COLORGROUP SYSTEM
3 56 57 58
ATOM$RED        STATIC     ATOMS    COLORGROUP SYSTEM
4 30 31 54 55
