AV-unprocessed.smi:2768|AV-procd|sdf|10655|dock8
  -GOLD-   2272015103D 1   1.00000     0.00000
 Structure written by MMmdl.
 34 35  0  0  0  0  0  0  0  0  2 V2000
  155.2741  140.0136  159.1994 O   0  0  0  0  0  0  0  0  0  0  0  0
  154.5228  139.7539  160.1466 C   0  0  0  0  0  0  0  0  0  0  0  0
  153.6879  140.5754  160.8465 N   0  5  0  0  0  0  0  0  0  0  0  0
  153.5325  142.0083  160.5852 C   0  0  1  0  0  0  0  0  0  0  0  0
  153.0013  142.2283  159.1454 C   0  0  0  0  0  0  0  0  0  0  0  0
  152.6647  143.7083  158.8340 C   0  0  0  0  0  0  0  0  0  0  0  0
  151.6569  144.3095  159.8357 C   0  0  0  0  0  0  0  0  0  0  0  0
  152.1793  144.1109  161.2738 C   0  0  0  0  0  0  0  0  0  0  0  0
  152.5188  142.6291  161.5850 C   0  0  2  0  0  0  0  0  0  0  0  0
  153.0415  142.5526  162.8961 O   0  0  0  0  0  0  0  0  0  0  0  0
  154.4605  138.2937  160.6444 C   0  0  0  0  0  0  0  0  0  0  0  0
  153.2094  137.8502  160.4974 F   0  0  0  0  0  0  0  0  0  0  0  0
  155.2482  137.5090  159.8998 F   0  0  0  0  0  0  0  0  0  0  0  0
  154.8522  138.2142  162.1189 C   0  0  0  0  0  0  0  0  0  0  0  0
  154.5960  137.0452  162.8721 C   0  0  0  0  0  0  0  0  0  0  0  0
  154.9660  137.0205  164.2304 C   0  0  0  0  0  0  0  0  0  0  0  0
  155.5762  138.1597  164.7884 C   0  0  0  0  0  0  0  0  0  0  0  0
  155.7869  139.2788  163.9592 C   0  0  0  0  0  0  0  0  0  0  0  0
  155.4369  139.3122  162.6561 N   0  0  0  0  0  0  0  0  0  0  0  0
  154.4776  142.5460  160.6834 H   0  0  0  0  0  0  0  0  0  0  0  0
  151.5939  142.0505  161.5623 H   0  0  0  0  0  0  0  0  0  0  0  0
  153.7337  141.8665  158.4225 H   0  0  0  0  0  0  0  0  0  0  0  0
  152.1036  141.6271  158.9920 H   0  0  0  0  0  0  0  0  0  0  0  0
  153.5772  144.3080  158.8320 H   0  0  0  0  0  0  0  0  0  0  0  0
  152.2590  143.7821  157.8247 H   0  0  0  0  0  0  0  0  0  0  0  0
  151.4985  145.3683  159.6297 H   0  0  0  0  0  0  0  0  0  0  0  0
  150.6899  143.8172  159.7252 H   0  0  0  0  0  0  0  0  0  0  0  0
  153.0581  144.7416  161.4262 H   0  0  0  0  0  0  0  0  0  0  0  0
  151.4298  144.4704  161.9800 H   0  0  0  0  0  0  0  0  0  0  0  0
  152.7614  141.7277  163.2644 H   0  0  0  0  0  0  0  0  0  0  0  0
  154.1196  136.1878  162.4200 H   0  0  0  0  0  0  0  0  0  0  0  0
  154.7836  136.1435  164.8340 H   0  0  0  0  0  0  0  0  0  0  0  0
  155.8742  138.1764  165.8263 H   0  0  0  0  0  0  0  0  0  0  0  0
  156.2515  140.1707  164.3529 H   0  0  0  0  0  0  0  0  0  0  0  0
  1  2  2  0  0  0  0
  2  3  1  0  0  0  0
  2 11  1  0  0  0  0
  3  4  1  0  0  0  0
  4 20  1  0  0  0  0
  4  9  1  0  0  0  0
  4  5  1  0  0  0  0
  5  6  1  0  0  0  0
  5 22  1  0  0  0  0
  5 23  1  0  0  0  0
  6  7  1  0  0  0  0
  6 24  1  0  0  0  0
  6 25  1  0  0  0  0
  7  8  1  0  0  0  0
  7 26  1  0  0  0  0
  7 27  1  0  0  0  0
  8  9  1  0  0  0  0
  8 28  1  0  0  0  0
  8 29  1  0  0  0  0
  9 21  1  0  0  0  0
  9 10  1  0  0  0  0
 10 30  1  0  0  0  0
 11 12  1  0  0  0  0
 11 13  1  0  0  0  0
 11 14  1  0  0  0  0
 14 19  1  0  0  0  0
 14 15  2  0  0  0  0
 15 16  1  0  0  0  0
 15 31  1  0  0  0  0
 16 17  2  0  0  0  0
 16 32  1  0  0  0  0
 17 18  1  0  0  0  0
 17 33  1  0  0  0  0
 18 19  2  0  0  0  0
 18 34  1  0  0  0  0
M  CHG  1   3  -1
M  END
> <s_m_source_file>
AV-unprocessed.smi

> <i_m_source_file_index>
2768

> <i_lp_mmshare_version>
43012

> <i_f3d_flags>
0

> <s_epik_input>
bjFbY0hdW2NIXVtjSF1bY0hdYzFDKEYpKEYpQyg9TylbTkhdW0NAQEhdMltDSDJdW0NIMl1bQ0gyXVtDSDJdW0NASF0yW09IXQ==

> <s_epik_cmdline>
J2VwaWtfcHl0aG9uJywgJy1waCcsICc3LjAnLCAnLXRuJywgJzgnLCAnLW1hJywgJzIwMCcsICctbWV0YWxfYmluZGluZycsICctaW1hZScsICc8aW5maWxlLm1hZT4nLCAnLW9tYWUnLCAnPG91dGZpbGUubWFlPic=

> <r_lp_tautomer_probability>
1

> <r_epik_Ionization_Penalty>
5.70553

> <r_epik_Ionization_Penalty_Charging>
5.70553

> <r_epik_Ionization_Penalty_Neutral>
5.5493e-06

> <r_epik_State_Penalty>
5.70549

> <r_epik_Charging_Adjusted_Penalty>
11.411

> <i_epik_Tot_Q>
-1

> <i_epik_Tot_abs_Q>
1

> <r_epik_Metal_State_Penalty>
1.6859

> <b_epik_Metal_Only>
1

> <s_lp_Force_Field>
OPLS_2005

> <r_lp_Energy>
26.4517

> <b_lp_Chiralities_Consistent>
1

> <s_lp_Variant>
AV-unprocessed.smi:2768-8

> <Gold.Version>
5.8.1

> <Gold.Id.Protein>
6NUR|6NUR_protein|mol2

> <Gold.PLP.Fitness>
45.3434

> <Gold.PLP.PLP>
-43.1377

> <Gold.PLP.part.hbond>
-1.0000

> <Gold.PLP.part.metal>
0.0000

> <Gold.PLP.part.buried>
-6.0024

> <Gold.PLP.part.nonpolar>
-35.1972

> <Gold.PLP.part.repulsive>
0.0000

> <Gold.PLP.ligand.clash>
0.0000

> <Gold.PLP.ligand.torsion>
0.4152

> <Gold.PLP.Chemscore.Hbond>
1.0000

> <Gold.PLP.Chemscore.CHOScore>
0.0000

> <Gold.PLP.Chemscore.Metal>
0.0000

> <Gold.Chemscore.Hbonds>
donor molecule, donor type, donor heavy atom, donor atom, acceptor molecule, acceptor atom, score
      P1  H  7997  8008       L1     1  1.00

> <Gold.PLP.Chemscore.Internal.Correction>
0.0360

> <Gold.Rescore>
     Score         DG    S(hbond)    S(metal)    S(lipo)     H(rot)  DE(clash)    DE(int)     intcor
     14.96     -16.91       0.98        0.00     112.46       1.95       0.05       1.90       ----

> <Gold.Chemscore.Fitness>
14.9612

> <Gold.Chemscore.DG>
-16.9096

> <Gold.Chemscore.ZeroCoef>
-5.4800

> <Gold.Chemscore.Hbond>
0.9773

> <Gold.Chemscore.Metal>
0.0000

> <Gold.Chemscore.Lipo>
112.4624

> <Gold.Chemscore.Internal_Hbond>
0.0000

> <Gold.Chemscore.DEClash>
0.0467

> <Gold.Chemscore.DEInternal>
1.9017

> <Gold.Chemscore.Rot>
1.9503

> <Gold.Chemscore.Internal.Correction>
   9.000000E+99

> <Gold.Chemscore.Hbonds>
donor molecule, donor type, donor heavy atom, donor atom, acceptor molecule, acceptor atom, score
      P1  H  7997  8008       L1     1  0.95

> <Gold.Chemscore.Hbond.Weighted>
-3.2643

> <Gold.Chemscore.Metal.Weighted>
-0.0000

> <Gold.Chemscore.Lipo.Weighted>
-13.1581

> <Gold.Chemscore.Internal_Hbond.Weighted>
0.0000

> <Gold.Chemscore.DEClash.Weighted>
0.0467

> <Gold.Chemscore.DEInternal.Weighted>
1.9017

> <Gold.Chemscore.Rot.Weighted>
4.9928

> <Gold.Chemscore.Internal.Correction.Weighted>
   9.000000E+99

> <Gold.Protein.RotatedTorsions>
[ 6907 6896 6895 6894 ] final   27.09 input  -60.11 | X-H torsion
[ 7974 7965 7964 7962 ] final  -56.26 input  175.53 | X-H torsion
[ 8008 7997 7996 7995 ] final -138.61 input   59.86 | X-H torsion
[ 10167 10162 10161 10158 ] final  166.64 input  -65.29 | X-H torsion
[ 10718 10713 10712 10709 ] final    3.21 input   66.30 | X-H torsion
[ 10763 10752 10751 10750 ] final   30.61 input  -60.55 | X-H torsion
[ 11005 11000 10999 10996 ] final  -36.16 input  -57.11 | X-H torsion

> <Gold.Protein.ActiveResidues>
 VAL166  LYS551  ARG553  GLY616  TRP617  ASP618  TYR619  PRO620  LYS621  CYS622 
 ASP623  PHE694  ASN695  SER759  ASP760  ASP761  ALA762  ILE779  LEU786  VAL792 
 PHE793  MET794  SER795  GLU796  ALA797  LYS798  CYS799  TRP800  GLU811  SER814 

> <Gold.Protein.RotatedAtoms>
  151.9971  134.9948  160.0563 H   0  0  0  0  0  0  0  0  0  0  0  0  # atno 6907 bound_to 6896
  152.1554  133.4543  159.4842 H   0  0  0  0  0  0  0  0  0  0  0  0  # atno 6908 bound_to 6896
  150.6881  134.2055  159.4382 H   0  0  0  0  0  0  0  0  0  0  0  0  # atno 6909 bound_to 6896
  145.8647  140.8260  142.9919 H   0  0  0  0  0  0  0  0  0  0  0  0  # atno 7974 bound_to 7965
  155.4313  140.0525  157.3018 H   0  0  0  0  0  0  0  0  0  0  0  0  # atno 8008 bound_to 7997
  154.4859  140.2100  155.9615 H   0  0  0  0  0  0  0  0  0  0  0  0  # atno 8009 bound_to 7997
  156.1273  140.3178  155.8302 H   0  0  0  0  0  0  0  0  0  0  0  0  # atno 8010 bound_to 7997
  139.4929  144.4006  151.9414 H   0  0  0  0  0  0  0  0  0  0  0  0  # atno 10167 bound_to 10162
  156.8744  130.5631  149.5656 H   0  0  0  0  0  0  0  0  0  0  0  0  # atno 10718 bound_to 10713
  153.0362  135.6460  154.1071 H   0  0  0  0  0  0  0  0  0  0  0  0  # atno 10763 bound_to 10752
  154.0786  135.2875  155.3296 H   0  0  0  0  0  0  0  0  0  0  0  0  # atno 10764 bound_to 10752
  154.6545  135.5414  153.8007 H   0  0  0  0  0  0  0  0  0  0  0  0  # atno 10765 bound_to 10752
  140.9853  133.7034  156.1755 H   0  0  0  0  0  0  0  0  0  0  0  0  # atno 11005 bound_to 11000
  144.6726  140.1148  143.7453 LP  0  0  0  0  0  0  0  0  0  0  0  0  # atno 17320 bound_to 7965
  145.9207  139.2544  143.1383 LP  0  0  0  0  0  0  0  0  0  0  0  0  # atno 17321 bound_to 7965
  140.3445  144.3163  150.5961 LP  0  0  0  0  0  0  0  0  0  0  0  0  # atno 17342 bound_to 10162
  140.5538  143.2202  151.7883 LP  0  0  0  0  0  0  0  0  0  0  0  0  # atno 17343 bound_to 10162
  156.0709  130.5742  150.9382 LP  0  0  0  0  0  0  0  0  0  0  0  0  # atno 17370 bound_to 10713
  157.6177  131.0932  150.8680 LP  0  0  0  0  0  0  0  0  0  0  0  0  # atno 17371 bound_to 10713
  140.7124  134.4447  157.5580 LP  0  0  0  0  0  0  0  0  0  0  0  0  # atno 17394 bound_to 11000
  139.8968  134.8652  156.2073 LP  0  0  0  0  0  0  0  0  0  0  0  0  # atno 17395 bound_to 11000

$$$$
