AV-unprocessed.smi:1623|AV-procd|sdf|6502|dock3
  -GOLD-   22720 7163D 1   1.00000     0.00000
 Structure written by MMmdl.
 42 43  0  0  0  0  0  0  0  0  1 V2000
  146.6905  136.9915  154.9206 C   0  0  0  0  0  0  0  0  0  0  0  0
  148.0942  136.5455  155.2297 C   0  0  0  0  0  0  0  0  0  0  0  0
  149.0501  137.3202  154.8332 N   0  0  0  0  0  0  0  0  0  0  0  0
  150.3734  137.0051  155.0667 N   0  0  0  0  0  0  0  0  0  0  0  0
  151.3227  137.9865  154.5306 C   0  0  0  0  0  0  0  0  0  0  0  0
  152.1488  138.6582  155.6507 C   0  0  1  0  0  0  0  0  0  0  0  0
  153.0497  139.5754  155.0636 O   0  0  0  0  0  0  0  0  0  0  0  0
  151.2620  139.4463  156.6245 C   0  0  0  0  0  0  0  0  0  0  0  0
  152.0380  140.4931  157.1888 O   0  0  0  0  0  0  0  0  0  0  0  0
  151.7329  140.7746  158.5466 C   0  0  0  0  0  0  0  0  0  0  0  0
  151.8446  142.2534  158.8880 C   0  0  0  0  0  0  0  0  0  0  0  0
  151.2397  143.2064  158.0404 C   0  0  0  0  0  0  0  0  0  0  0  0
  151.3283  144.5802  158.3353 C   0  0  0  0  0  0  0  0  0  0  0  0
  152.0263  145.0104  159.4790 C   0  0  0  0  0  0  0  0  0  0  0  0
  152.6366  144.0659  160.3257 C   0  0  0  0  0  0  0  0  0  0  0  0
  152.5503  142.6894  160.0353 C   0  0  0  0  0  0  0  0  0  0  0  0
  153.3170  141.5633  161.1000 Cl  0  0  0  0  0  0  0  0  0  0  0  0
  150.8042  135.8866  155.7173 C   0  0  0  0  0  0  0  0  0  0  0  0
  151.9983  135.6432  155.8985 O   0  0  0  0  0  0  0  0  0  0  0  0
  149.7165  135.0133  156.1637 C   0  0  0  0  0  0  0  0  0  0  0  0
  150.1236  133.8283  156.8476 C   0  0  0  0  0  0  0  0  0  0  0  0
  150.4507  132.8773  157.4209 N   0  0  0  0  0  0  0  0  0  0  0  0
  148.4119  135.3096  155.9384 C   0  0  0  0  0  0  0  0  0  0  0  0
  147.2457  134.4349  156.3780 C   0  0  0  0  0  0  0  0  0  0  0  0
  146.1787  136.2570  154.2982 H   0  0  0  0  0  0  0  0  0  0  0  0
  146.6743  137.9429  154.3864 H   0  0  0  0  0  0  0  0  0  0  0  0
  146.1144  137.1198  155.8374 H   0  0  0  0  0  0  0  0  0  0  0  0
  151.9787  137.5337  153.7843 H   0  0  0  0  0  0  0  0  0  0  0  0
  150.7624  138.7408  153.9753 H   0  0  0  0  0  0  0  0  0  0  0  0
  152.7237  137.9230  156.2155 H   0  0  0  0  0  0  0  0  0  0  0  0
  152.6633  139.9043  154.2662 H   0  0  0  0  0  0  0  0  0  0  0  0
  150.4111  139.8832  156.0992 H   0  0  0  0  0  0  0  0  0  0  0  0
  150.8662  138.7807  157.3932 H   0  0  0  0  0  0  0  0  0  0  0  0
  150.7064  140.4594  158.7355 H   0  0  0  0  0  0  0  0  0  0  0  0
  152.3619  140.1731  159.2046 H   0  0  0  0  0  0  0  0  0  0  0  0
  150.7006  142.8864  157.1606 H   0  0  0  0  0  0  0  0  0  0  0  0
  150.8609  145.3035  157.6836 H   0  0  0  0  0  0  0  0  0  0  0  0
  152.0948  146.0639  159.7060 H   0  0  0  0  0  0  0  0  0  0  0  0
  153.1734  144.4000  161.2014 H   0  0  0  0  0  0  0  0  0  0  0  0
  147.5769  133.5346  156.8946 H   0  0  0  0  0  0  0  0  0  0  0  0
  146.6577  134.1187  155.5157 H   0  0  0  0  0  0  0  0  0  0  0  0
  146.5926  134.9814  157.0590 H   0  0  0  0  0  0  0  0  0  0  0  0
  1  2  1  0  0  0  0
  1 25  1  0  0  0  0
  1 26  1  0  0  0  0
  1 27  1  0  0  0  0
  2 23  1  0  0  0  0
  2  3  2  0  0  0  0
  3  4  1  0  0  0  0
  4  5  1  0  0  0  0
  4 18  1  0  0  0  0
  5  6  1  0  0  0  0
  5 28  1  0  0  0  0
  5 29  1  0  0  0  0
  6  7  1  0  0  0  0
  6  8  1  0  0  0  0
  6 30  1  0  0  0  0
  7 31  1  0  0  0  0
  8  9  1  0  0  0  0
  8 32  1  0  0  0  0
  8 33  1  0  0  0  0
  9 10  1  0  0  0  0
 10 11  1  0  0  0  0
 10 34  1  0  0  0  0
 10 35  1  0  0  0  0
 11 16  1  0  0  0  0
 11 12  2  0  0  0  0
 12 13  1  0  0  0  0
 12 36  1  0  0  0  0
 13 14  2  0  0  0  0
 13 37  1  0  0  0  0
 14 15  1  0  0  0  0
 14 38  1  0  0  0  0
 15 16  2  0  0  0  0
 15 39  1  0  0  0  0
 16 17  1  0  0  0  0
 18 19  2  0  0  0  0
 18 20  1  0  0  0  0
 20 21  1  0  0  0  0
 20 23  2  0  0  0  0
 21 22  3  0  0  0  0
 23 24  1  0  0  0  0
 24 40  1  0  0  0  0
 24 41  1  0  0  0  0
 24 42  1  0  0  0  0
M  END
> <s_m_source_file>
AV-unprocessed.smi

> <i_m_source_file_index>
1623

> <i_lp_mmshare_version>
43012

> <i_f3d_flags>
0

> <s_epik_input>
TiNDYyhjMVtDSDNdKWMoPU8pbihuYzFbQ0gzXSlbQ0gyXVtDQEhdKFtPSF0pW0NIMl1PW0NIMl1jMltjSF1bY0hdW2NIXVtjSF1jMkNs

> <s_epik_cmdline>
J2VwaWtfcHl0aG9uJywgJy1waCcsICc3LjAnLCAnLXRuJywgJzgnLCAnLW1hJywgJzIwMCcsICctbWV0YWxfYmluZGluZycsICctaW1hZScsICc8aW5maWxlLm1hZT4nLCAnLW9tYWUnLCAnPG91dGZpbGUubWFlPic=

> <r_lp_tautomer_probability>
1

> <r_epik_Ionization_Penalty>
6.50533e-08

> <r_epik_Ionization_Penalty_Charging>
2.19172e-10

> <r_epik_Ionization_Penalty_Neutral>
6.48342e-08

> <r_epik_State_Penalty>
-0

> <r_epik_Charging_Adjusted_Penalty>
2.19172e-10

> <i_epik_Tot_Q>
0

> <i_epik_Tot_abs_Q>
0

> <r_epik_Metal_State_Penalty>
-0

> <b_epik_Metal_Only>
0

> <s_lp_Force_Field>
OPLS_2005

> <r_lp_Energy>
29.8059

> <b_lp_Chiralities_Consistent>
1

> <s_lp_Variant>
AV-unprocessed.smi:1623-2

> <Gold.Version>
5.8.1

> <Gold.Id.Protein>
6NUR|6NUR_protein|mol2

> <Gold.PLP.Fitness>
50.0124

> <Gold.PLP.PLP>
-42.6741

> <Gold.PLP.part.hbond>
-3.9376

> <Gold.PLP.part.metal>
0.0000

> <Gold.PLP.part.buried>
-5.4853

> <Gold.PLP.part.nonpolar>
-34.6779

> <Gold.PLP.part.repulsive>
0.8872

> <Gold.PLP.ligand.clash>
0.0000

> <Gold.PLP.ligand.torsion>
0.9378

> <Gold.PLP.Chemscore.Hbond>
3.0000

> <Gold.PLP.Chemscore.CHOScore>
0.0000

> <Gold.PLP.Chemscore.Metal>
0.0000

> <Gold.Chemscore.Hbonds>
donor molecule, donor type, donor heavy atom, donor atom, acceptor molecule, acceptor atom, score
      P1  H  6896  6907       L1    22  1.00
      P1  H  7997  8009       L1     7  1.00
      P1  H 10752 10764       L1    19  0.78

> <Gold.PLP.Chemscore.Internal.Correction>
0.2139

> <Gold.Rescore>
     Score         DG    S(hbond)    S(metal)    S(lipo)     H(rot)  DE(clash)    DE(int)     intcor
     20.27     -22.38       2.94        0.00     114.66       2.48       0.08       2.03       ----

> <Gold.Chemscore.Fitness>
20.2654

> <Gold.Chemscore.DG>
-22.3757

> <Gold.Chemscore.ZeroCoef>
-5.4800

> <Gold.Chemscore.Hbond>
2.9413

> <Gold.Chemscore.Metal>
0.0000

> <Gold.Chemscore.Lipo>
114.6556

> <Gold.Chemscore.Internal_Hbond>
0.0000

> <Gold.Chemscore.DEClash>
0.0801

> <Gold.Chemscore.DEInternal>
2.0302

> <Gold.Chemscore.Rot>
2.4777

> <Gold.Chemscore.Internal.Correction>
   9.000000E+99

> <Gold.Chemscore.Hbonds>
donor molecule, donor type, donor heavy atom, donor atom, acceptor molecule, acceptor atom, score
      P1  H  6896  6907       L1    22  0.48
      P1  H  7997  8009       L1     7  0.98
      P1  H 10752 10764       L1    19  0.77

> <Gold.Chemscore.Hbond.Weighted>
-9.8239

> <Gold.Chemscore.Metal.Weighted>
-0.0000

> <Gold.Chemscore.Lipo.Weighted>
-13.4147

> <Gold.Chemscore.Internal_Hbond.Weighted>
0.0000

> <Gold.Chemscore.DEClash.Weighted>
0.0801

> <Gold.Chemscore.DEInternal.Weighted>
2.0302

> <Gold.Chemscore.Rot.Weighted>
6.3428

> <Gold.Chemscore.Internal.Correction.Weighted>
   9.000000E+99

> <Gold.Protein.RotatedTorsions>
[ 6907 6896 6895 6894 ] final -141.81 input  -60.11 | X-H torsion
[ 7974 7965 7964 7962 ] final   44.34 input  175.53 | X-H torsion
[ 8008 7997 7996 7995 ] final -120.90 input   59.86 | X-H torsion
[ 10167 10162 10161 10158 ] final  -39.22 input  -65.29 | X-H torsion
[ 10718 10713 10712 10709 ] final  135.65 input   66.30 | X-H torsion
[ 10763 10752 10751 10750 ] final  -24.42 input  -60.55 | X-H torsion
[ 11005 11000 10999 10996 ] final   59.60 input  -57.11 | X-H torsion

> <Gold.Protein.ActiveResidues>
 VAL166  LYS551  ARG553  GLY616  TRP617  ASP618  TYR619  PRO620  LYS621  CYS622 
 ASP623  PHE694  ASN695  SER759  ASP760  ASP761  ALA762  ILE779  LEU786  VAL792 
 PHE793  MET794  SER795  GLU796  ALA797  LYS798  CYS799  TRP800  GLU811  SER814 

> <Gold.Protein.RotatedAtoms>
  151.0787  133.5408  159.2621 H   0  0  0  0  0  0  0  0  0  0  0  0  # atno 6907 bound_to 6896
  151.2320  135.0557  159.9001 H   0  0  0  0  0  0  0  0  0  0  0  0  # atno 6908 bound_to 6896
  152.5421  134.0574  159.8190 H   0  0  0  0  0  0  0  0  0  0  0  0  # atno 6909 bound_to 6896
  146.0577  139.5085  142.9678 H   0  0  0  0  0  0  0  0  0  0  0  0  # atno 7974 bound_to 7965
  155.1393  140.0401  157.2794 H   0  0  0  0  0  0  0  0  0  0  0  0  # atno 8008 bound_to 7997
  154.6485  140.2563  155.7214 H   0  0  0  0  0  0  0  0  0  0  0  0  # atno 8009 bound_to 7997
  156.2566  140.2841  156.0908 H   0  0  0  0  0  0  0  0  0  0  0  0  # atno 8010 bound_to 7997
  140.7070  143.3228  151.2751 H   0  0  0  0  0  0  0  0  0  0  0  0  # atno 10167 bound_to 10162
  157.4549  131.1069  150.9990 H   0  0  0  0  0  0  0  0  0  0  0  0  # atno 10718 bound_to 10713
  153.6835  135.6965  153.5111 H   0  0  0  0  0  0  0  0  0  0  0  0  # atno 10763 bound_to 10752
  153.2467  135.4288  155.0754 H   0  0  0  0  0  0  0  0  0  0  0  0  # atno 10764 bound_to 10752
  154.8393  135.3521  154.6377 H   0  0  0  0  0  0  0  0  0  0  0  0  # atno 10765 bound_to 10752
  140.0292  134.6037  155.9530 H   0  0  0  0  0  0  0  0  0  0  0  0  # atno 11005 bound_to 11000
  145.6615  141.0239  143.1706 LP  0  0  0  0  0  0  0  0  0  0  0  0  # atno 17320 bound_to 7965
  144.7157  139.8206  143.7399 LP  0  0  0  0  0  0  0  0  0  0  0  0  # atno 17321 bound_to 7965
  139.6687  144.0059  152.2739 LP  0  0  0  0  0  0  0  0  0  0  0  0  # atno 17342 bound_to 10162
  139.9650  144.6532  150.8043 LP  0  0  0  0  0  0  0  0  0  0  0  0  # atno 17343 bound_to 10162
  157.0807  130.5902  149.5420 LP  0  0  0  0  0  0  0  0  0  0  0  0  # atno 17370 bound_to 10713
  156.0003  130.5080  150.7637 LP  0  0  0  0  0  0  0  0  0  0  0  0  # atno 17371 bound_to 10713
  141.1821  133.6548  156.5063 LP  0  0  0  0  0  0  0  0  0  0  0  0  # atno 17394 bound_to 11000
  140.4254  134.7149  157.4913 LP  0  0  0  0  0  0  0  0  0  0  0  0  # atno 17395 bound_to 11000

$$$$
