AV-unprocessed.smi:1207|AV-procd|sdf|5049|dock9
  -GOLD-   22720 4 73D 1   1.00000     0.00000
 Structure written by MMmdl.
 51 53  0  0  0  0  0  0  0  0  1 V2000
  151.6820  145.0436  160.9227 C   0  0  0  0  0  0  0  0  0  0  0  0
  152.5815  143.8293  161.0719 C   0  0  0  0  0  0  0  0  0  0  0  0
  153.1247  143.5282  162.3411 C   0  0  0  0  0  0  0  0  0  0  0  0
  153.9660  142.4084  162.5220 C   0  0  0  0  0  0  0  0  0  0  0  0
  154.5997  141.9353  163.6583 N   0  0  0  0  0  0  0  0  0  0  0  0
  155.2333  140.8660  163.1856 C   0  0  0  0  0  0  0  0  0  0  0  0
  155.0845  140.5892  161.8760 N   0  0  0  0  0  0  0  0  0  0  0  0
  155.6768  139.4817  161.1466 C   0  0  0  0  0  0  0  0  0  0  0  0
  156.2794  139.9177  159.7977 C   0  0  2  0  0  0  0  0  0  0  0  0
  155.6647  139.1872  158.7543 O   0  0  0  0  0  0  0  0  0  0  0  0
  157.7988  139.6547  159.7452 C   0  0  0  0  0  0  0  0  0  0  0  0
  158.6522  140.8242  159.9706 N   0  0  0  0  0  0  0  0  0  0  0  0
  158.9272  141.4923  158.7013 C   0  0  0  0  0  0  0  0  0  0  0  0
  159.9003  140.4848  160.6617 C   0  0  0  0  0  0  0  0  0  0  0  0
  160.8683  141.6391  160.7247 C   0  0  0  0  0  0  0  0  0  0  0  0
  161.7409  142.1111  159.7032 C   0  0  0  0  0  0  0  0  0  0  0  0
  161.9130  141.5851  158.3074 C   0  0  0  0  0  0  0  0  0  0  0  0
  162.4588  143.1465  160.1059 N   0  0  0  0  0  0  0  0  0  0  0  0
  162.0732  143.3894  161.4279 O   0  0  0  0  0  0  0  0  0  0  0  0
  161.1281  142.4783  161.7732 C   0  0  0  0  0  0  0  0  0  0  0  0
  160.5813  142.5675  163.1580 C   0  0  0  0  0  0  0  0  0  0  0  0
  154.2494  141.5897  161.3898 C   0  0  0  0  0  0  0  0  0  0  0  0
  153.7156  141.8798  160.1218 C   0  0  0  0  0  0  0  0  0  0  0  0
  152.8791  143.0038  159.9578 C   0  0  0  0  0  0  0  0  0  0  0  0
  152.3113  143.3099  158.5834 C   0  0  0  0  0  0  0  0  0  0  0  0
  151.5350  145.5502  161.8768 H   0  0  0  0  0  0  0  0  0  0  0  0
  150.7019  144.7499  160.5463 H   0  0  0  0  0  0  0  0  0  0  0  0
  152.1203  145.7598  160.2273 H   0  0  0  0  0  0  0  0  0  0  0  0
  152.8996  144.1575  163.1894 H   0  0  0  0  0  0  0  0  0  0  0  0
  155.8425  140.2469  163.8278 H   0  0  0  0  0  0  0  0  0  0  0  0
  156.4494  139.0375  161.7753 H   0  0  0  0  0  0  0  0  0  0  0  0
  154.9172  138.7126  160.9988 H   0  0  0  0  0  0  0  0  0  0  0  0
  156.0583  140.9738  159.6524 H   0  0  0  0  0  0  0  0  0  0  0  0
  156.0940  138.3478  158.6873 H   0  0  0  0  0  0  0  0  0  0  0  0
  158.0569  138.8811  160.4701 H   0  0  0  0  0  0  0  0  0  0  0  0
  158.0243  139.2266  158.7671 H   0  0  0  0  0  0  0  0  0  0  0  0
  159.5012  142.4070  158.8497 H   0  0  0  0  0  0  0  0  0  0  0  0
  157.9992  141.7738  158.2028 H   0  0  0  0  0  0  0  0  0  0  0  0
  159.4894  140.8434  158.0285 H   0  0  0  0  0  0  0  0  0  0  0  0
  159.6889  140.1652  161.6797 H   0  0  0  0  0  0  0  0  0  0  0  0
  160.3563  139.6184  160.1808 H   0  0  0  0  0  0  0  0  0  0  0  0
  162.3851  140.6029  158.3177 H   0  0  0  0  0  0  0  0  0  0  0  0
  162.5322  142.2452  157.6993 H   0  0  0  0  0  0  0  0  0  0  0  0
  160.9493  141.4850  157.8081 H   0  0  0  0  0  0  0  0  0  0  0  0
  160.5172  141.5785  163.6122 H   0  0  0  0  0  0  0  0  0  0  0  0
  159.5800  142.9984  163.1480 H   0  0  0  0  0  0  0  0  0  0  0  0
  161.2126  143.1903  163.7922 H   0  0  0  0  0  0  0  0  0  0  0  0
  153.9530  141.2437  159.2818 H   0  0  0  0  0  0  0  0  0  0  0  0
  152.6618  142.5936  157.8399 H   0  0  0  0  0  0  0  0  0  0  0  0
  152.6145  144.3048  158.2571 H   0  0  0  0  0  0  0  0  0  0  0  0
  151.2221  143.2675  158.6025 H   0  0  0  0  0  0  0  0  0  0  0  0
  1  2  1  0  0  0  0
  1 26  1  0  0  0  0
  1 27  1  0  0  0  0
  1 28  1  0  0  0  0
  2 24  1  0  0  0  0
  2  3  2  0  0  0  0
  3  4  1  0  0  0  0
  3 29  1  0  0  0  0
  4 22  2  0  0  0  0
  4  5  1  0  0  0  0
  5  6  2  0  0  0  0
  6  7  1  0  0  0  0
  6 30  1  0  0  0  0
  7  8  1  0  0  0  0
  7 22  1  0  0  0  0
  8  9  1  0  0  0  0
  8 31  1  0  0  0  0
  8 32  1  0  0  0  0
  9 10  1  0  0  0  0
  9 11  1  0  0  0  0
  9 33  1  0  0  0  0
 10 34  1  0  0  0  0
 11 12  1  0  0  0  0
 11 35  1  0  0  0  0
 11 36  1  0  0  0  0
 12 13  1  0  0  0  0
 12 14  1  0  0  0  0
 13 37  1  0  0  0  0
 13 38  1  0  0  0  0
 13 39  1  0  0  0  0
 14 15  1  0  0  0  0
 14 40  1  0  0  0  0
 14 41  1  0  0  0  0
 15 20  2  0  0  0  0
 15 16  1  0  0  0  0
 16 17  1  0  0  0  0
 16 18  2  0  0  0  0
 17 42  1  0  0  0  0
 17 43  1  0  0  0  0
 17 44  1  0  0  0  0
 18 19  1  0  0  0  0
 19 20  1  0  0  0  0
 20 21  1  0  0  0  0
 21 45  1  0  0  0  0
 21 46  1  0  0  0  0
 21 47  1  0  0  0  0
 22 23  1  0  0  0  0
 23 24  2  0  0  0  0
 23 48  1  0  0  0  0
 24 25  1  0  0  0  0
 25 49  1  0  0  0  0
 25 50  1  0  0  0  0
 25 51  1  0  0  0  0
M  END
> <s_m_source_file>
AV-unprocessed.smi

> <i_m_source_file_index>
1207

> <i_lp_mmshare_version>
43012

> <i_f3d_flags>
0

> <s_epik_input>
W0NIM11jKFtjSF0xKWMoW0NIM10pW2NIXWMoYzEyKW4oW2NIXW4yKVtDSDJdW0NASF0oW09IXSlbQ0gyXU4oW0NIM10pW0NIMl1jM2MoW0NIM10pbm9jM1tDSDNd

> <s_epik_cmdline>
J2VwaWtfcHl0aG9uJywgJy1waCcsICc3LjAnLCAnLXRuJywgJzgnLCAnLW1hJywgJzIwMCcsICctbWV0YWxfYmluZGluZycsICctaW1hZScsICc8aW5maWxlLm1hZT4nLCAnLW9tYWUnLCAnPG91dGZpbGUubWFlPic=

> <r_epik_Ionization_Penalty>
0.374039

> <r_epik_Ionization_Penalty_Charging>
0

> <r_epik_Ionization_Penalty_Neutral>
0.374039

> <r_epik_State_Penalty>
0.350767

> <r_epik_Charging_Adjusted_Penalty>
0.350767

> <i_epik_Tot_Q>
0

> <i_epik_Tot_abs_Q>
0

> <r_epik_Metal_State_Penalty>
0.343187

> <b_epik_Metal_Only>
0

> <s_lp_Force_Field>
OPLS_2005

> <r_lp_Energy>
17.2157

> <b_lp_Chiralities_Consistent>
1

> <s_lp_Variant>
AV-unprocessed.smi:1207-1

> <Gold.Version>
5.8.1

> <Gold.Id.Protein>
6NUR|6NUR_protein|mol2

> <Gold.PLP.Fitness>
47.6650

> <Gold.PLP.PLP>
-48.9996

> <Gold.PLP.part.hbond>
-3.9761

> <Gold.PLP.part.metal>
0.0000

> <Gold.PLP.part.buried>
0.3338

> <Gold.PLP.part.nonpolar>
-44.1122

> <Gold.PLP.part.repulsive>
0.0871

> <Gold.PLP.ligand.clash>
0.0000

> <Gold.PLP.ligand.torsion>
2.2323

> <Gold.PLP.Chemscore.Hbond>
1.0000

> <Gold.PLP.Chemscore.CHOScore>
0.0000

> <Gold.PLP.Chemscore.Metal>
0.0000

> <Gold.Chemscore.Hbonds>
donor molecule, donor type, donor heavy atom, donor atom, acceptor molecule, acceptor atom, score
      P1  H  7997  8009       L1    10  1.00

> <Gold.PLP.Chemscore.Internal.Correction>
0.1300

> <Gold.Rescore>
     Score         DG    S(hbond)    S(metal)    S(lipo)     H(rot)  DE(clash)    DE(int)     intcor
     16.21     -19.21       0.92        0.00     143.00       2.38       0.78       2.22       ----

> <Gold.Chemscore.Fitness>
16.2112

> <Gold.Chemscore.DG>
-19.2134

> <Gold.Chemscore.ZeroCoef>
-5.4800

> <Gold.Chemscore.Hbond>
0.9234

> <Gold.Chemscore.Metal>
0.0000

> <Gold.Chemscore.Lipo>
142.9991

> <Gold.Chemscore.Internal_Hbond>
0.0000

> <Gold.Chemscore.DEClash>
0.7780

> <Gold.Chemscore.DEInternal>
2.2241

> <Gold.Chemscore.Rot>
2.3756

> <Gold.Chemscore.Internal.Correction>
   9.000000E+99

> <Gold.Chemscore.Hbonds>
donor molecule, donor type, donor heavy atom, donor atom, acceptor molecule, acceptor atom, score
      P1  H  7997  8009       L1    10  0.88

> <Gold.Chemscore.Hbond.Weighted>
-3.0841

> <Gold.Chemscore.Metal.Weighted>
-0.0000

> <Gold.Chemscore.Lipo.Weighted>
-16.7309

> <Gold.Chemscore.Internal_Hbond.Weighted>
0.0000

> <Gold.Chemscore.DEClash.Weighted>
0.7780

> <Gold.Chemscore.DEInternal.Weighted>
2.2241

> <Gold.Chemscore.Rot.Weighted>
6.0816

> <Gold.Chemscore.Internal.Correction.Weighted>
   9.000000E+99

> <Gold.Protein.RotatedTorsions>
[ 6907 6896 6895 6894 ] final   71.65 input  -60.11 | X-H torsion
[ 7974 7965 7964 7962 ] final   88.96 input  175.53 | X-H torsion
[ 8008 7997 7996 7995 ] final  105.35 input   59.86 | X-H torsion
[ 10167 10162 10161 10158 ] final  123.20 input  -65.29 | X-H torsion
[ 10718 10713 10712 10709 ] final   89.72 input   66.30 | X-H torsion
[ 10763 10752 10751 10750 ] final -129.99 input  -60.55 | X-H torsion
[ 11005 11000 10999 10996 ] final   24.44 input  -57.11 | X-H torsion

> <Gold.Protein.ActiveResidues>
 VAL166  LYS551  ARG553  GLY616  TRP617  ASP618  TYR619  PRO620  LYS621  CYS622 
 ASP623  PHE694  ASN695  SER759  ASP760  ASP761  ALA762  ILE779  LEU786  VAL792 
 PHE793  MET794  SER795  GLU796  ALA797  LYS798  CYS799  TRP800  GLU811  SER814 

> <Gold.Protein.RotatedAtoms>
  152.4822  134.4688  159.9628 H   0  0  0  0  0  0  0  0  0  0  0  0  # atno 6907 bound_to 6896
  151.4692  133.3567  159.2828 H   0  0  0  0  0  0  0  0  0  0  0  0  # atno 6908 bound_to 6896
  150.8904  134.8332  159.7350 H   0  0  0  0  0  0  0  0  0  0  0  0  # atno 6909 bound_to 6896
  145.5387  139.2287  143.2578 H   0  0  0  0  0  0  0  0  0  0  0  0  # atno 7974 bound_to 7965
  156.1651  140.3132  155.8875 H   0  0  0  0  0  0  0  0  0  0  0  0  # atno 8008 bound_to 7997
  155.3702  140.0481  157.3062 H   0  0  0  0  0  0  0  0  0  0  0  0  # atno 8009 bound_to 7997
  154.5185  140.2190  155.9032 H   0  0  0  0  0  0  0  0  0  0  0  0  # atno 8010 bound_to 7997
  139.5813  144.6987  151.3520 H   0  0  0  0  0  0  0  0  0  0  0  0  # atno 10167 bound_to 10162
  157.6956  131.0344  150.3469 H   0  0  0  0  0  0  0  0  0  0  0  0  # atno 10718 bound_to 10713
  154.8756  135.3877  154.4009 H   0  0  0  0  0  0  0  0  0  0  0  0  # atno 10763 bound_to 10752
  153.4734  135.7030  153.5985 H   0  0  0  0  0  0  0  0  0  0  0  0  # atno 10764 bound_to 10752
  153.4432  135.3851  155.2208 H   0  0  0  0  0  0  0  0  0  0  0  0  # atno 10765 bound_to 10752
  140.3587  134.2149  155.7674 H   0  0  0  0  0  0  0  0  0  0  0  0  # atno 11005 bound_to 11000
  146.1995  140.6206  142.9108 LP  0  0  0  0  0  0  0  0  0  0  0  0  # atno 17320 bound_to 7965
  144.7588  140.5372  143.6750 LP  0  0  0  0  0  0  0  0  0  0  0  0  # atno 17321 bound_to 7965
  140.7091  143.7437  150.7535 LP  0  0  0  0  0  0  0  0  0  0  0  0  # atno 17342 bound_to 10162
  140.0970  143.4823  152.2447 LP  0  0  0  0  0  0  0  0  0  0  0  0  # atno 17343 bound_to 10162
  156.3923  130.3900  149.7021 LP  0  0  0  0  0  0  0  0  0  0  0  0  # atno 17370 bound_to 10713
  156.4367  130.7841  151.2862 LP  0  0  0  0  0  0  0  0  0  0  0  0  # atno 17371 bound_to 10713
  141.1991  133.8020  157.0553 LP  0  0  0  0  0  0  0  0  0  0  0  0  # atno 17394 bound_to 11000
  140.0644  134.9737  157.1361 LP  0  0  0  0  0  0  0  0  0  0  0  0  # atno 17395 bound_to 11000

$$$$
