#       Name:                AV-unprocessed.smi:678
#       Creating user name   scv26
#       Creation time:       Fri Mar 27 00:28:19 2020


#       File generated by GOLD software.
#

@<TRIPOS>MOLECULE
AV-unprocessed.smi:678
    57    58     1
SMALL
NO_CHARGES


@<TRIPOS>ATOM
      1 ****        -4.8970   1.2593  -1.0111 C.3            1 S1                 0.0000
      2 ****        -3.5663   1.5882  -0.3572 C.2            1 S1                 0.0000
      3 ****        -2.5948   2.2452  -1.0275 C.2            1 S1                 0.0000
      4 ****        -1.3333   2.5531  -0.3994 C.2            1 S1                 0.0000
      5 ****        -1.1505   2.1728   0.8727 C.2            1 S1                 0.0000
      6 ****        -2.1481   1.4923   1.5960 N.am           1 S1                 0.0000
      7 ****        -1.8161   1.1230   2.9848 C.3            1 S1                 0.0000
      8 ****        -1.1064  -0.2338   3.1317 C.2            1 S1                 0.0000
      9 ****        -0.4787  -0.4726   4.1626 O.2            1 S1                 0.0000
     10 ****        -1.1692  -1.0947   2.1025 N.am           1 S1                 0.0000
     11 ****        -0.4246  -2.3435   1.9959 C.3            1 S1                 0.0000
     12 ****         0.9779  -2.0987   1.4118 C.3            1 S1                 0.0000
     13 ****         0.9360  -1.4390   0.0163 C.3            1 S1                 0.0000
     14 ****         2.2714  -1.2568  -0.5435 N.3            1 S1                 0.0000
     15 ****         2.2517  -0.6389  -1.8707 C.3            1 S1                 0.0000
     16 ****         1.7056   0.8048  -1.9375 C.3            1 S1                 0.0000
     17 ****         1.7013   1.3124  -3.3862 C.3            1 S1                 0.0000
     18 ****         2.4923   1.7655  -1.0308 C.3            1 S1                 0.0000
     19 ****         2.9500  -2.5476  -0.5755 C.3            1 S1                 0.0000
     20 ****         2.9833  -3.2159   0.8097 C.3            1 S1                 0.0000
     21 ****         1.6558  -3.3475   1.3097 O.3            1 S1                 0.0000
     22 ****        -3.3571   1.1680   1.0412 C.2            1 S1                 0.0000
     23 ****        -4.2124   0.5514   1.6787 O.2            1 S1                 0.0000
     24 ****        -4.9349   1.6160  -2.0410 H              1 S1                 0.0000
     25 ****        -5.7166   1.7255  -0.4631 H              1 S1                 0.0000
     26 ****        -5.0601   0.1811  -1.0225 H              1 S1                 0.0000
     27 ****        -2.7574   2.5485  -2.0517 H              1 S1                 0.0000
     28 ****        -0.5546   3.0701  -0.9411 H              1 S1                 0.0000
     29 ****        -0.2330   2.3551   1.4140 H              1 S1                 0.0000
     30 ****        -1.1762   1.8918   3.4209 H              1 S1                 0.0000
     31 ****        -2.7077   1.1144   3.6139 H              1 S1                 0.0000
     32 ****        -1.7193  -0.8276   1.2991 H              1 S1                 0.0000
     33 ****        -0.3536  -2.8328   2.9687 H              1 S1                 0.0000
     34 ****        -0.9846  -3.0198   1.3497 H              1 S1                 0.0000
     35 ****         1.5357  -1.4580   2.0978 H              1 S1                 0.0000
     36 ****         0.3302  -2.0463  -0.6581 H              1 S1                 0.0000
     37 ****         0.4378  -0.4749   0.1028 H              1 S1                 0.0000
     38 ****         3.2681  -0.6300  -2.2673 H              1 S1                 0.0000
     39 ****         1.6752  -1.2686  -2.5502 H              1 S1                 0.0000
     40 ****         0.6666   0.8062  -1.6108 H              1 S1                 0.0000
     41 ****         2.7111   1.3547  -3.7953 H              1 S1                 0.0000
     42 ****         1.2736   2.3133  -3.4503 H              1 S1                 0.0000
     43 ****         1.1079   0.6612  -4.0288 H              1 S1                 0.0000
     44 ****         3.5463   1.7979  -1.3078 H              1 S1                 0.0000
     45 ****         2.4309   1.4645   0.0155 H              1 S1                 0.0000
     46 ****         2.0982   2.7798  -1.0983 H              1 S1                 0.0000
     47 ****         2.4485  -3.2113  -1.2817 H              1 S1                 0.0000
     48 ****         3.9706  -2.4210  -0.9385 H              1 S1                 0.0000
     49 ****         3.4392  -4.2035   0.7430 H              1 S1                 0.0000
     50 ****         3.5858  -2.6311   1.5063 H              1 S1                 0.0000
     51 ****        -0.4349   0.2111   4.8910 LP             1 S1                 0.0000
     52 ****        -0.0123  -1.3504   4.2721 LP             1 S1                 0.0000
     53 ****         2.7719  -0.6219   0.0451 LP             1 S1                 0.0000
     54 ****         1.1396  -3.9418   0.6930 LP             1 S1                 0.0000
     55 ****         1.6963  -3.7643   2.2178 LP             1 S1                 0.0000
     56 ****        -5.0851   0.3189   1.2494 LP             1 S1                 0.0000
     57 ****        -4.0338   0.2834   2.6254 LP             1 S1                 0.0000
@<TRIPOS>BOND
    1    1    2 1     
    2    1   24 1     
    3    1   25 1     
    4    1   26 1     
    5    2   22 1     
    6    2    3 2     
    7    3    4 1     
    8    3   27 1     
    9    4    5 2     
   10    4   28 1     
   11    5    6 1     
   12    5   29 1     
   13    6    7 1     
   14    6   22 am    
   15    7    8 1     
   16    7   30 1     
   17    7   31 1     
   18    8    9 2     
   19    8   10 am    
   20   10   11 1     
   21   10   32 1     
   22   11   12 1     
   23   11   33 1     
   24   11   34 1     
   25   12   21 1     
   26   12   13 1     
   27   12   35 1     
   28   13   14 1     
   29   13   36 1     
   30   13   37 1     
   31   14   15 1     
   32   14   19 1     
   33   15   16 1     
   34   15   38 1     
   35   15   39 1     
   36   16   17 1     
   37   16   18 1     
   38   16   40 1     
   39   17   41 1     
   40   17   42 1     
   41   17   43 1     
   42   18   44 1     
   43   18   45 1     
   44   18   46 1     
   45   19   20 1     
   46   19   47 1     
   47   19   48 1     
   48   20   21 1     
   49   20   49 1     
   50   20   50 1     
   51   22   23 2     
   52    9   51 1     
   53    9   52 1     
   54   14   53 1     
   55   21   54 1     
   56   21   55 1     
   57   23   56 1     
   58   23   57 1     
@<TRIPOS>SUBSTRUCTURE
      1 S1             1
@<TRIPOS>SET
LONE_PAIRS      STATIC     ATOMS    <user>   **** ""
7 51 52 53 54 55 56 57
DONOR_HYDROGENS      STATIC     ATOMS    <user>   **** ""
1 32
ATOM$BLUE        STATIC     ATOMS    COLORGROUP SYSTEM
7 51 52 53 54 55 56 57
ATOM$RED        STATIC     ATOMS    COLORGROUP SYSTEM
1 32
