AV-unprocessed.smi:1831|AV-procd|sdf|7462|dock4
  -GOLD-   22720 9153D 1   1.00000     0.00000
 Structure written by MMmdl.
 40 41  0  0  0  0  0  0  0  0  3 V2000
  145.6491  136.2207  162.1054 C   0  0  0  0  0  0  0  0  0  0  0  0
  146.7567  136.0943  161.1164 C   0  0  0  0  0  0  0  0  0  0  0  0
  147.6368  137.0726  160.8910 N   0  0  0  0  0  0  0  0  0  0  0  0
  148.5748  136.7208  159.9315 N   0  0  0  0  0  0  0  0  0  0  0  0
  148.3870  135.4883  159.4391 C   0  0  0  0  0  0  0  0  0  0  0  0
  149.1881  134.9577  158.5004 N   0  5  0  0  0  0  0  0  0  0  0  0
  148.6662  134.1682  157.5355 C   0  0  0  0  0  0  0  0  0  0  0  0
  147.5405  133.6646  157.5339 O   0  0  0  0  0  0  0  0  0  0  0  0
  149.5058  133.9368  156.5159 N   0  0  0  0  0  0  0  0  0  0  0  0
  149.2361  133.1043  155.3470 C   0  0  0  0  0  0  0  0  0  0  0  0
  148.4902  133.8852  154.2486 C   0  0  2  0  0  0  0  0  0  0  0  0
  147.0659  134.2826  154.6295 C   0  0  0  0  0  0  0  0  0  0  0  0
  146.3309  134.4430  153.2917 C   0  0  0  0  0  0  0  0  0  0  0  0
  147.1997  133.8558  152.2406 N   0  3  2  0  0  0  0  0  0  0  0  0
  146.4864  133.0919  151.1784 C   0  0  0  0  0  0  0  0  0  0  0  0
  145.3660  133.9276  150.5294 C   0  0  0  0  0  0  0  0  0  0  0  0
  145.8954  131.7846  151.7386 C   0  0  0  0  0  0  0  0  0  0  0  0
  148.2724  133.1210  152.9427 C   0  0  0  0  0  0  0  0  0  0  0  0
  147.0144  134.6461  160.1577 S   0  0  0  0  0  0  0  0  0  0  0  0
  146.0475  136.1743  163.1190 H   0  0  0  0  0  0  0  0  0  0  0  0
  144.9292  135.4128  161.9742 H   0  0  0  0  0  0  0  0  0  0  0  0
  145.1332  137.1719  161.9731 H   0  0  0  0  0  0  0  0  0  0  0  0
  150.4134  134.3771  156.5602 H   0  0  0  0  0  0  0  0  0  0  0  0
  150.1592  132.6720  154.9573 H   0  0  0  0  0  0  0  0  0  0  0  0
  148.6236  132.2645  155.6754 H   0  0  0  0  0  0  0  0  0  0  0  0
  149.0471  134.7961  154.0217 H   0  0  0  0  0  0  0  0  0  0  0  0
  146.5961  133.4849  155.2070 H   0  0  0  0  0  0  0  0  0  0  0  0
  147.0352  135.1891  155.2347 H   0  0  0  0  0  0  0  0  0  0  0  0
  145.3616  133.9446  153.3439 H   0  0  0  0  0  0  0  0  0  0  0  0
  146.1524  135.4936  153.0603 H   0  0  0  0  0  0  0  0  0  0  0  0
  147.2090  132.8366  150.4016 H   0  0  0  0  0  0  0  0  0  0  0  0
  144.8185  133.3406  149.7913 H   0  0  0  0  0  0  0  0  0  0  0  0
  145.7568  134.8011  150.0072 H   0  0  0  0  0  0  0  0  0  0  0  0
  144.6477  134.2745  151.2731 H   0  0  0  0  0  0  0  0  0  0  0  0
  145.3588  131.2358  150.9641 H   0  0  0  0  0  0  0  0  0  0  0  0
  145.1925  131.9840  152.5483 H   0  0  0  0  0  0  0  0  0  0  0  0
  146.6657  131.1163  152.1234 H   0  0  0  0  0  0  0  0  0  0  0  0
  149.1815  133.0668  152.3430 H   0  0  0  0  0  0  0  0  0  0  0  0
  147.9397  132.1032  153.1548 H   0  0  0  0  0  0  0  0  0  0  0  0
  147.6567  134.6354  151.7893 H   0  0  0  0  0  0  0  0  0  0  0  0
  1  2  1  0  0  0  0
  1 20  1  0  0  0  0
  1 21  1  0  0  0  0
  1 22  1  0  0  0  0
  2 19  1  0  0  0  0
  2  3  2  0  0  0  0
  3  4  1  0  0  0  0
  4  5  2  0  0  0  0
  5  6  1  0  0  0  0
  5 19  1  0  0  0  0
  6  7  1  0  0  0  0
  7  8  2  0  0  0  0
  7  9  1  0  0  0  0
  9 10  1  0  0  0  0
  9 23  1  0  0  0  0
 10 11  1  0  0  0  0
 10 24  1  0  0  0  0
 10 25  1  0  0  0  0
 11 18  1  0  0  0  0
 11 12  1  0  0  0  0
 11 26  1  0  0  0  0
 12 13  1  0  0  0  0
 12 27  1  0  0  0  0
 12 28  1  0  0  0  0
 13 14  1  0  0  0  0
 13 29  1  0  0  0  0
 13 30  1  0  0  0  0
 14 15  1  0  0  0  0
 14 18  1  0  0  0  0
 14 40  1  0  0  0  0
 15 16  1  0  0  0  0
 15 17  1  0  0  0  0
 15 31  1  0  0  0  0
 16 32  1  0  0  0  0
 16 33  1  0  0  0  0
 16 34  1  0  0  0  0
 17 35  1  0  0  0  0
 17 36  1  0  0  0  0
 17 37  1  0  0  0  0
 18 38  1  0  0  0  0
 18 39  1  0  0  0  0
M  CHG  1   6  -1
M  CHG  1  14   1
M  END
> <s_m_source_file>
AV-unprocessed.smi

> <i_m_source_file_index>
1831

> <i_lp_mmshare_version>
43012

> <i_f3d_flags>
0

> <s_epik_input>
W0NIM11jMW5uYyhzMSlbTkhdQyg9TylbTkhdW0NIMl1bQ0BASF0yW0NIMl1bQ0gyXU4oW0NIMl0yKVtDSF0oW0NIM10pW0NIM10=

> <s_epik_cmdline>
J2VwaWtfcHl0aG9uJywgJy1waCcsICc3LjAnLCAnLXRuJywgJzgnLCAnLW1hJywgJzIwMCcsICctbWV0YWxfYmluZGluZycsICctaW1hZScsICc8aW5maWxlLm1hZT4nLCAnLW9tYWUnLCAnPG91dGZpbGUubWFlPic=

> <r_lp_tautomer_probability>
1

> <r_epik_Ionization_Penalty>
4.24531

> <r_epik_Ionization_Penalty_Charging>
4.11954

> <r_epik_Ionization_Penalty_Neutral>
0.125766

> <r_epik_State_Penalty>
4.11879

> <r_epik_Charging_Adjusted_Penalty>
8.23833

> <i_epik_Tot_Q>
0

> <i_epik_Tot_abs_Q>
2

> <r_epik_Metal_State_Penalty>
0.659341

> <b_epik_Metal_Only>
1

> <s_lp_Force_Field>
OPLS_2005

> <r_lp_Energy>
22.0207

> <b_lp_Chiralities_Consistent>
1

> <s_lp_Variant>
AV-unprocessed.smi:1831-7

> <Gold.Version>
5.8.1

> <Gold.Id.Protein>
6NUR|6NUR_protein|mol2

> <Gold.PLP.Fitness>
42.5814

> <Gold.PLP.PLP>
-26.6739

> <Gold.PLP.part.hbond>
-4.4398

> <Gold.PLP.part.metal>
0.0000

> <Gold.PLP.part.buried>
-2.0441

> <Gold.PLP.part.nonpolar>
-19.9687

> <Gold.PLP.part.repulsive>
0.0869

> <Gold.PLP.ligand.clash>
0.0000

> <Gold.PLP.ligand.torsion>
0.5468

> <Gold.PLP.Chemscore.Hbond>
5.6480

> <Gold.PLP.Chemscore.CHOScore>
0.0000

> <Gold.PLP.Chemscore.Metal>
0.0000

> <Gold.Chemscore.Hbonds>
donor molecule, donor type, donor heavy atom, donor atom, acceptor molecule, acceptor atom, score
      L1  H    14    40       P1  7948  2.00
      P1  H  6896  6908       L1     6  2.00
      P1  H  6931  6943       L1     3  0.43
      P1  H  6934  6947       L1     3  0.96

> <Gold.PLP.Chemscore.Internal.Correction>
0.0571

> <Gold.Rescore>
     Score         DG    S(hbond)    S(metal)    S(lipo)     H(rot)  DE(clash)    DE(int)     intcor
     15.17     -17.28       2.81        0.00      53.82       1.51       0.01       2.10       ----

> <Gold.Chemscore.Fitness>
15.1697

> <Gold.Chemscore.DG>
-17.2803

> <Gold.Chemscore.ZeroCoef>
-5.4800

> <Gold.Chemscore.Hbond>
2.8075

> <Gold.Chemscore.Metal>
0.0000

> <Gold.Chemscore.Lipo>
53.8191

> <Gold.Chemscore.Internal_Hbond>
0.0000

> <Gold.Chemscore.DEClash>
0.0089

> <Gold.Chemscore.DEInternal>
2.1017

> <Gold.Chemscore.Rot>
1.5131

> <Gold.Chemscore.Internal.Correction>
   9.000000E+99

> <Gold.Chemscore.Hbonds>
donor molecule, donor type, donor heavy atom, donor atom, acceptor molecule, acceptor atom, score
      L1  H    14    40       P1  7948  0.36
      P1  H  6896  6908       L1     6  0.47
      P1  H  6931  6943       L1     3  0.02
      P1  H  6934  6947       L1     3  0.78

> <Gold.Chemscore.Hbond.Weighted>
-9.3769

> <Gold.Chemscore.Metal.Weighted>
-0.0000

> <Gold.Chemscore.Lipo.Weighted>
-6.2968

> <Gold.Chemscore.Internal_Hbond.Weighted>
0.0000

> <Gold.Chemscore.DEClash.Weighted>
0.0089

> <Gold.Chemscore.DEInternal.Weighted>
2.1017

> <Gold.Chemscore.Rot.Weighted>
3.8735

> <Gold.Chemscore.Internal.Correction.Weighted>
   9.000000E+99

> <Gold.Protein.RotatedTorsions>
[ 6907 6896 6895 6894 ] final  150.59 input  -60.11 | X-H torsion
[ 7974 7965 7964 7962 ] final   97.37 input  175.53 | X-H torsion
[ 8008 7997 7996 7995 ] final   -7.80 input   59.86 | X-H torsion
[ 10167 10162 10161 10158 ] final  128.98 input  -65.29 | X-H torsion
[ 10718 10713 10712 10709 ] final -144.97 input   66.30 | X-H torsion
[ 10763 10752 10751 10750 ] final  114.31 input  -60.55 | X-H torsion
[ 11005 11000 10999 10996 ] final -133.33 input  -57.11 | X-H torsion

> <Gold.Protein.ActiveResidues>
 VAL166  LYS551  ARG553  GLY616  TRP617  ASP618  TYR619  PRO620  LYS621  CYS622 
 ASP623  PHE694  ASN695  SER759  ASP760  ASP761  ALA762  ILE779  LEU786  VAL792 
 PHE793  MET794  SER795  GLU796  ALA797  LYS798  CYS799  TRP800  GLU811  SER814 

> <Gold.Protein.RotatedAtoms>
  152.1123  133.4307  159.4636 H   0  0  0  0  0  0  0  0  0  0  0  0  # atno 6907 bound_to 6896
  150.6868  134.2634  159.4567 H   0  0  0  0  0  0  0  0  0  0  0  0  # atno 6908 bound_to 6896
  152.0503  134.9657  160.0625 H   0  0  0  0  0  0  0  0  0  0  0  0  # atno 6909 bound_to 6896
  145.4264  139.2315  143.3168 H   0  0  0  0  0  0  0  0  0  0  0  0  # atno 7974 bound_to 7965
  154.5803  140.2398  155.8063 H   0  0  0  0  0  0  0  0  0  0  0  0  # atno 8008 bound_to 7997
  156.2174  140.3008  155.9828 H   0  0  0  0  0  0  0  0  0  0  0  0  # atno 8009 bound_to 7997
  155.2553  140.0412  157.2982 H   0  0  0  0  0  0  0  0  0  0  0  0  # atno 8010 bound_to 7997
  139.5500  144.6805  151.4353 H   0  0  0  0  0  0  0  0  0  0  0  0  # atno 10167 bound_to 10162
  156.3767  130.7816  151.2003 H   0  0  0  0  0  0  0  0  0  0  0  0  # atno 10718 bound_to 10713
  153.5053  135.3629  155.2560 H   0  0  0  0  0  0  0  0  0  0  0  0  # atno 10763 bound_to 10752
  154.8745  135.4010  154.3431 H   0  0  0  0  0  0  0  0  0  0  0  0  # atno 10764 bound_to 10752
  153.4074  135.7077  153.6449 H   0  0  0  0  0  0  0  0  0  0  0  0  # atno 10765 bound_to 10752
  140.9090  134.1592  157.4403 H   0  0  0  0  0  0  0  0  0  0  0  0  # atno 11005 bound_to 11000
  146.2630  140.4995  142.8845 LP  0  0  0  0  0  0  0  0  0  0  0  0  # atno 17320 bound_to 7965
  144.8211  140.6552  143.6352 LP  0  0  0  0  0  0  0  0  0  0  0  0  # atno 17321 bound_to 7965
  140.6760  143.8189  150.7059 LP  0  0  0  0  0  0  0  0  0  0  0  0  # atno 17342 bound_to 10162
  140.1627  143.4261  152.2055 LP  0  0  0  0  0  0  0  0  0  0  0  0  # atno 17343 bound_to 10162
  157.7489  131.0356  150.4371 LP  0  0  0  0  0  0  0  0  0  0  0  0  # atno 17370 bound_to 10713
  156.4608  130.4031  149.6578 LP  0  0  0  0  0  0  0  0  0  0  0  0  # atno 17371 bound_to 10713
  139.8754  134.9928  156.5615 LP  0  0  0  0  0  0  0  0  0  0  0  0  # atno 17394 bound_to 11000
  140.8134  133.8411  155.8830 LP  0  0  0  0  0  0  0  0  0  0  0  0  # atno 17395 bound_to 11000

$$$$
