AV-unprocessed.smi:276|AV-procd|sdf|2076|dock7
  -GOLD-   2262021343D 1   1.00000     0.00000
 Structure written by MMmdl.
 57 61  0  0  0  0  0  0  0  0  1 V2000
  151.2329  130.3499  155.7607 C   0  0  0  0  0  0  0  0  0  0  0  0
  151.0570  131.5711  156.4569 O   0  0  0  0  0  0  0  0  0  0  0  0
  151.2922  132.7053  155.6381 C   0  0  2  0  0  0  0  0  0  0  0  0
  151.4141  134.0253  156.4077 C   0  0  0  0  0  0  0  0  0  0  0  0
  150.6392  134.6773  155.2551 C   0  0  2  0  0  0  0  0  0  0  0  0
  149.7274  135.7320  155.7054 N   0  0  0  0  0  0  0  0  0  0  0  0
  149.1300  135.5423  157.0210 C   0  0  0  0  0  0  0  0  0  0  0  0
  150.1709  137.0023  155.5707 C   0  0  0  0  0  0  0  0  0  0  0  0
  150.2363  137.4992  154.3101 N   0  0  0  0  0  0  0  0  0  0  0  0
  150.6937  138.7369  154.1004 C   0  0  0  0  0  0  0  0  0  0  0  0
  151.1234  139.6306  154.9937 N   0  0  0  0  0  0  0  0  0  0  0  0
  151.0331  139.1428  156.2639 C   0  0  0  0  0  0  0  0  0  0  0  0
  150.5614  137.8546  156.6432 C   0  0  0  0  0  0  0  0  0  0  0  0
  150.5975  137.7283  158.0274 N   0  0  0  0  0  0  0  0  0  0  0  0
  151.0870  138.8652  158.4398 C   0  0  0  0  0  0  0  0  0  0  0  0
  151.3858  139.7680  157.4453 N   0  0  0  0  0  0  0  0  0  0  0  0
  151.9550  141.0917  157.6127 C   0  0  0  0  0  0  0  0  0  0  0  0
  152.1995  141.4592  159.0917 C   0  0  1  0  0  0  0  0  0  0  0  0
  153.3536  140.7583  159.5098 O   0  0  0  0  0  0  0  0  0  0  0  0
  152.3975  142.9702  159.3479 C   0  0  2  0  0  0  0  0  0  0  0  0
  152.3289  143.3808  160.8189 C   0  0  0  0  0  0  0  0  0  0  0  0
  152.0419  144.8681  160.7393 C   0  0  0  0  0  0  0  0  0  0  0  0
  151.3319  145.0247  159.3928 C   0  0  0  0  0  0  0  0  0  0  0  0
  151.3262  143.7293  158.8036 O   0  0  0  0  0  0  0  0  0  0  0  0
  150.0188  133.2789  154.9867 C   0  0  0  0  0  0  0  0  0  0  0  0
  149.6029  132.8348  153.5782 C   0  0  0  0  0  0  0  0  0  0  0  0
  148.1397  132.8388  154.0317 C   0  0  0  0  0  0  0  0  0  0  0  0
  148.6200  132.8621  155.4867 C   0  0  0  0  0  0  0  0  0  0  0  0
  151.0393  129.5147  156.4334 H   0  0  0  0  0  0  0  0  0  0  0  0
  152.2520  130.2491  155.3854 H   0  0  0  0  0  0  0  0  0  0  0  0
  150.5412  130.2731  154.9208 H   0  0  0  0  0  0  0  0  0  0  0  0
  152.0932  132.5610  154.9093 H   0  0  0  0  0  0  0  0  0  0  0  0
  150.8662  134.0171  157.3521 H   0  0  0  0  0  0  0  0  0  0  0  0
  152.4349  134.3864  156.5343 H   0  0  0  0  0  0  0  0  0  0  0  0
  151.3211  134.9839  154.4607 H   0  0  0  0  0  0  0  0  0  0  0  0
  149.8964  135.5500  157.7972 H   0  0  0  0  0  0  0  0  0  0  0  0
  148.6053  134.5882  157.0719 H   0  0  0  0  0  0  0  0  0  0  0  0
  148.4062  136.3275  157.2441 H   0  0  0  0  0  0  0  0  0  0  0  0
  150.7254  139.0545  153.0687 H   0  0  0  0  0  0  0  0  0  0  0  0
  151.2552  139.0730  159.4865 H   0  0  0  0  0  0  0  0  0  0  0  0
  152.8904  141.1320  157.0527 H   0  0  0  0  0  0  0  0  0  0  0  0
  151.2827  141.8154  157.1494 H   0  0  0  0  0  0  0  0  0  0  0  0
  151.3661  141.1026  159.6980 H   0  0  0  0  0  0  0  0  0  0  0  0
  153.7604  140.3716  158.7495 H   0  0  0  0  0  0  0  0  0  0  0  0
  153.3384  143.3127  158.9128 H   0  0  0  0  0  0  0  0  0  0  0  0
  151.5017  142.8703  161.3145 H   0  0  0  0  0  0  0  0  0  0  0  0
  153.2442  143.1566  161.3677 H   0  0  0  0  0  0  0  0  0  0  0  0
  151.4353  145.2142  161.5767 H   0  0  0  0  0  0  0  0  0  0  0  0
  152.9734  145.4360  160.7392 H   0  0  0  0  0  0  0  0  0  0  0  0
  150.3107  145.3879  159.5083 H   0  0  0  0  0  0  0  0  0  0  0  0
  151.8691  145.7212  158.7480 H   0  0  0  0  0  0  0  0  0  0  0  0
  149.8311  133.5475  152.7864 H   0  0  0  0  0  0  0  0  0  0  0  0
  149.9604  131.8345  153.3306 H   0  0  0  0  0  0  0  0  0  0  0  0
  147.6069  133.7434  153.7385 H   0  0  0  0  0  0  0  0  0  0  0  0
  147.5825  131.9431  153.7565 H   0  0  0  0  0  0  0  0  0  0  0  0
  148.5991  131.8677  155.9335 H   0  0  0  0  0  0  0  0  0  0  0  0
  148.1101  133.5848  156.1225 H   0  0  0  0  0  0  0  0  0  0  0  0
  1  2  1  0  0  0  0
  1 29  1  0  0  0  0
  1 30  1  0  0  0  0
  1 31  1  0  0  0  0
  2  3  1  0  0  0  0
  3 25  1  0  0  0  0
  3  4  1  0  0  0  0
  3 32  1  0  0  0  0
  4  5  1  0  0  0  0
  4 33  1  0  0  0  0
  4 34  1  0  0  0  0
  5  6  1  0  0  0  0
  5 25  1  0  0  0  0
  5 35  1  0  0  0  0
  6  7  1  0  0  0  0
  6  8  1  0  0  0  0
  7 36  1  0  0  0  0
  7 37  1  0  0  0  0
  7 38  1  0  0  0  0
  8 13  1  0  0  0  0
  8  9  2  0  0  0  0
  9 10  1  0  0  0  0
 10 11  2  0  0  0  0
 10 39  1  0  0  0  0
 11 12  1  0  0  0  0
 12 16  1  0  0  0  0
 12 13  2  0  0  0  0
 13 14  1  0  0  0  0
 14 15  2  0  0  0  0
 15 16  1  0  0  0  0
 15 40  1  0  0  0  0
 16 17  1  0  0  0  0
 17 18  1  0  0  0  0
 17 41  1  0  0  0  0
 17 42  1  0  0  0  0
 18 19  1  0  0  0  0
 18 20  1  0  0  0  0
 18 43  1  0  0  0  0
 19 44  1  0  0  0  0
 20 24  1  0  0  0  0
 20 21  1  0  0  0  0
 20 45  1  0  0  0  0
 21 22  1  0  0  0  0
 21 46  1  0  0  0  0
 21 47  1  0  0  0  0
 22 23  1  0  0  0  0
 22 48  1  0  0  0  0
 22 49  1  0  0  0  0
 23 24  1  0  0  0  0
 23 50  1  0  0  0  0
 23 51  1  0  0  0  0
 25 28  1  0  0  0  0
 25 26  1  0  0  0  0
 26 27  1  0  0  0  0
 26 52  1  0  0  0  0
 26 53  1  0  0  0  0
 27 28  1  0  0  0  0
 27 54  1  0  0  0  0
 27 55  1  0  0  0  0
 28 56  1  0  0  0  0
 28 57  1  0  0  0  0
M  END
> <s_m_source_file>
AV-unprocessed.smi

> <i_m_source_file_index>
276

> <i_lp_mmshare_version>
43012

> <i_f3d_flags>
0

> <s_epik_input>
W0NIMl0xW0NIMl1bQ0gyXUMxMltDQEhdKE9bQ0gzXSlbQ0gyXVtDQEhdMk4oW0NIM10pYyhuW2NIXW4zKWMoYzM0KW5bY0hdbjRbQ0gyXVtDQEhdKFtPSF0pW0NAQEhdNVtDSDJdW0NIMl1bQ0gyXU81

> <s_epik_cmdline>
J2VwaWtfcHl0aG9uJywgJy1waCcsICc3LjAnLCAnLXRuJywgJzgnLCAnLW1hJywgJzIwMCcsICctbWV0YWxfYmluZGluZycsICctaW1hZScsICc8aW5maWxlLm1hZT4nLCAnLW9tYWUnLCAnPG91dGZpbGUubWFlPic=

> <r_lp_tautomer_probability>
1

> <r_epik_Ionization_Penalty>
0.00204117

> <r_epik_Ionization_Penalty_Charging>
0

> <r_epik_Ionization_Penalty_Neutral>
0.00204117

> <r_epik_State_Penalty>
0.00127401

> <r_epik_Charging_Adjusted_Penalty>
0.00127401

> <i_epik_Tot_Q>
0

> <i_epik_Tot_abs_Q>
0

> <r_epik_Metal_State_Penalty>
-0

> <b_epik_Metal_Only>
0

> <s_lp_Force_Field>
OPLS_2005

> <r_lp_Energy>
54.0539

> <b_lp_Chiralities_Consistent>
1

> <s_lp_Variant>
AV-unprocessed.smi:276-7

> <Gold.Version>
5.8.1

> <Gold.Id.Protein>
6NUR|6NUR_protein|mol2

> <Gold.PLP.Fitness>
43.8140

> <Gold.PLP.PLP>
-41.8185

> <Gold.PLP.part.hbond>
-1.0000

> <Gold.PLP.part.metal>
0.0000

> <Gold.PLP.part.buried>
-9.3915

> <Gold.PLP.part.nonpolar>
-32.7493

> <Gold.PLP.part.repulsive>
1.3019

> <Gold.PLP.ligand.clash>
0.1581

> <Gold.PLP.ligand.torsion>
1.5164

> <Gold.PLP.Chemscore.Hbond>
0.5000

> <Gold.PLP.Chemscore.CHOScore>
1.0000

> <Gold.PLP.Chemscore.Metal>
0.0000

> <Gold.Chemscore.Hbonds>
donor molecule, donor type, donor heavy atom, donor atom, acceptor molecule, acceptor atom, score
      P1  H  7989  7998       L1    11  0.50
      L1  C    10    39       P1  7957  1.00

> <Gold.PLP.Chemscore.Internal.Correction>
0.6865

> <Gold.Rescore>
     Score         DG    S(hbond)    S(metal)    S(lipo)     H(rot)  DE(clash)    DE(int)     intcor
      8.96     -13.52       0.79        0.00     105.50       2.72       1.68       2.88       ----

> <Gold.Chemscore.Fitness>
8.9624

> <Gold.Chemscore.DG>
-13.5214

> <Gold.Chemscore.ZeroCoef>
-5.4800

> <Gold.Chemscore.Hbond>
0.7945

> <Gold.Chemscore.Metal>
0.0000

> <Gold.Chemscore.Lipo>
105.5031

> <Gold.Chemscore.Internal_Hbond>
0.0000

> <Gold.Chemscore.DEClash>
1.6828

> <Gold.Chemscore.DEInternal>
2.8762

> <Gold.Chemscore.Rot>
2.7172

> <Gold.Chemscore.Internal.Correction>
   9.000000E+99

> <Gold.Chemscore.Hbonds>
donor molecule, donor type, donor heavy atom, donor atom, acceptor molecule, acceptor atom, score
      P1  H  7989  7998       L1    11  0.02

> <Gold.Chemscore.Hbond.Weighted>
-2.6535

> <Gold.Chemscore.Metal.Weighted>
-0.0000

> <Gold.Chemscore.Lipo.Weighted>
-12.3439

> <Gold.Chemscore.Internal_Hbond.Weighted>
0.0000

> <Gold.Chemscore.DEClash.Weighted>
1.6828

> <Gold.Chemscore.DEInternal.Weighted>
2.8762

> <Gold.Chemscore.Rot.Weighted>
6.9560

> <Gold.Chemscore.Internal.Correction.Weighted>
   9.000000E+99

> <Gold.Protein.RotatedTorsions>
[ 6907 6896 6895 6894 ] final  -90.50 input  -60.11 | X-H torsion
[ 7974 7965 7964 7962 ] final  -22.56 input  175.53 | X-H torsion
[ 8008 7997 7996 7995 ] final  130.26 input   59.86 | X-H torsion
[ 10167 10162 10161 10158 ] final  -48.13 input  -65.29 | X-H torsion
[ 10718 10713 10712 10709 ] final  135.11 input   66.30 | X-H torsion
[ 10763 10752 10751 10750 ] final   44.70 input  -60.55 | X-H torsion
[ 11005 11000 10999 10996 ] final  -15.17 input  -57.11 | X-H torsion

> <Gold.Protein.ActiveResidues>
 VAL166  LYS551  ARG553  GLY616  TRP617  ASP618  TYR619  PRO620  LYS621  CYS622 
 ASP623  PHE694  ASN695  SER759  ASP760  ASP761  ALA762  ILE779  LEU786  VAL792 
 PHE793  MET794  SER795  GLU796  ALA797  LYS798  CYS799  TRP800  GLU811  SER814 

> <Gold.Protein.RotatedAtoms>
  150.6882  134.2422  159.4476 H   0  0  0  0  0  0  0  0  0  0  0  0  # atno 6907 bound_to 6896
  152.0366  134.9734  160.0582 H   0  0  0  0  0  0  0  0  0  0  0  0  # atno 6908 bound_to 6896
  152.1252  133.4341  159.4731 H   0  0  0  0  0  0  0  0  0  0  0  0  # atno 6909 bound_to 6896
  146.1668  140.4496  142.8548 H   0  0  0  0  0  0  0  0  0  0  0  0  # atno 7974 bound_to 7965
  156.2951  140.2600  156.2732 H   0  0  0  0  0  0  0  0  0  0  0  0  # atno 8008 bound_to 7997
  154.9674  140.0391  157.2237 H   0  0  0  0  0  0  0  0  0  0  0  0  # atno 8009 bound_to 7997
  154.7890  140.2808  155.6010 H   0  0  0  0  0  0  0  0  0  0  0  0  # atno 8010 bound_to 7997
  140.6744  143.2753  151.4027 H   0  0  0  0  0  0  0  0  0  0  0  0  # atno 10167 bound_to 10162
  157.4604  131.1073  150.9927 H   0  0  0  0  0  0  0  0  0  0  0  0  # atno 10718 bound_to 10713
  152.9836  135.6062  154.3317 H   0  0  0  0  0  0  0  0  0  0  0  0  # atno 10763 bound_to 10752
  154.3020  135.2772  155.2608 H   0  0  0  0  0  0  0  0  0  0  0  0  # atno 10764 bound_to 10752
  154.4856  135.5905  153.6478 H   0  0  0  0  0  0  0  0  0  0  0  0  # atno 10765 bound_to 10752
  140.7939  133.8266  155.9406 H   0  0  0  0  0  0  0  0  0  0  0  0  # atno 11005 bound_to 11000
  144.8104  140.6376  143.6419 LP  0  0  0  0  0  0  0  0  0  0  0  0  # atno 17320 bound_to 7965
  145.4445  139.1531  143.3952 LP  0  0  0  0  0  0  0  0  0  0  0  0  # atno 17321 bound_to 7965
  139.6029  144.1258  152.2218 LP  0  0  0  0  0  0  0  0  0  0  0  0  # atno 17342 bound_to 10162
  140.0647  144.5828  150.7236 LP  0  0  0  0  0  0  0  0  0  0  0  0  # atno 17343 bound_to 10162
  157.0726  130.5870  149.5405 LP  0  0  0  0  0  0  0  0  0  0  0  0  # atno 17370 bound_to 10713
  156.0026  130.5108  150.7717 LP  0  0  0  0  0  0  0  0  0  0  0  0  # atno 17371 bound_to 10713
  140.9362  134.1959  157.4830 LP  0  0  0  0  0  0  0  0  0  0  0  0  # atno 17394 bound_to 11000
  139.8728  134.9853  156.5276 LP  0  0  0  0  0  0  0  0  0  0  0  0  # atno 17395 bound_to 11000

$$$$
