AV-unprocessed.smi:2359|AV-procd|sdf|9407|dock4
  -GOLD-   2272013 43D 1   1.00000     0.00000
 Structure written by MMmdl.
 40 41  0  0  0  0  0  0  0  0  1 V2000
  150.9639  142.2455  156.6609 C   0  0  0  0  0  0  0  0  0  0  0  0
  150.2560  141.1820  155.8481 C   0  0  0  0  0  0  0  0  0  0  0  0
  150.9424  140.0480  155.3739 C   0  0  0  0  0  0  0  0  0  0  0  0
  150.2340  139.0923  154.6207 C   0  0  0  0  0  0  0  0  0  0  0  0
  148.8598  139.2916  154.3587 C   0  0  0  0  0  0  0  0  0  0  0  0
  148.2428  138.2730  153.5847 N   0  0  0  0  0  0  0  0  0  0  0  0
  146.9329  137.9915  153.4711 C   0  0  0  0  0  0  0  0  0  0  0  0
  146.0239  138.5754  154.0623 O   0  0  0  0  0  0  0  0  0  0  0  0
  146.7283  136.9751  152.6208 N   0  0  0  0  0  0  0  0  0  0  0  0
  145.4243  136.4238  152.2718 C   0  0  0  0  0  0  0  0  0  0  0  0
  145.4870  135.6028  150.9726 C   0  0  0  0  0  0  0  0  0  0  0  0
  145.4194  134.0880  151.2222 C   0  0  2  0  0  0  0  0  0  0  0  0
  146.8185  133.4726  151.4207 C   0  0  0  0  0  0  0  0  0  0  0  0
  146.7206  131.9517  151.5868 C   0  0  0  0  0  0  0  0  0  0  0  0
  145.9291  131.3529  150.4194 C   0  0  0  0  0  0  0  0  0  0  0  0
  144.5809  132.0733  150.2631 C   0  0  0  0  0  0  0  0  0  0  0  0
  144.7952  133.4714  150.0970 O   0  0  0  0  0  0  0  0  0  0  0  0
  148.2070  140.3870  154.8212 N   0  0  0  0  0  0  0  0  0  0  0  0
  148.8865  141.3026  155.5430 C   0  0  0  0  0  0  0  0  0  0  0  0
  151.9970  141.9643  156.8670 H   0  0  0  0  0  0  0  0  0  0  0  0
  150.4551  142.3954  157.6133 H   0  0  0  0  0  0  0  0  0  0  0  0
  150.9685  143.1921  156.1203 H   0  0  0  0  0  0  0  0  0  0  0  0
  151.9935  139.9094  155.5798 H   0  0  0  0  0  0  0  0  0  0  0  0
  150.7457  138.2168  154.2479 H   0  0  0  0  0  0  0  0  0  0  0  0
  148.8723  137.6988  153.0439 H   0  0  0  0  0  0  0  0  0  0  0  0
  147.5322  136.5531  152.1795 H   0  0  0  0  0  0  0  0  0  0  0  0
  145.0405  135.8146  153.0918 H   0  0  0  0  0  0  0  0  0  0  0  0
  144.7302  137.2565  152.1548 H   0  0  0  0  0  0  0  0  0  0  0  0
  144.6756  135.9012  150.3074 H   0  0  0  0  0  0  0  0  0  0  0  0
  146.4150  135.8348  150.4482 H   0  0  0  0  0  0  0  0  0  0  0  0
  144.8155  133.9055  152.1132 H   0  0  0  0  0  0  0  0  0  0  0  0
  147.4485  133.7052  150.5612 H   0  0  0  0  0  0  0  0  0  0  0  0
  147.3052  133.9108  152.2926 H   0  0  0  0  0  0  0  0  0  0  0  0
  147.7154  131.5090  151.6389 H   0  0  0  0  0  0  0  0  0  0  0  0
  146.2215  131.7165  152.5278 H   0  0  0  0  0  0  0  0  0  0  0  0
  146.5030  131.4527  149.4974 H   0  0  0  0  0  0  0  0  0  0  0  0
  145.7723  130.2857  150.5771 H   0  0  0  0  0  0  0  0  0  0  0  0
  144.0518  131.6923  149.3893 H   0  0  0  0  0  0  0  0  0  0  0  0
  143.9395  131.8930  151.1272 H   0  0  0  0  0  0  0  0  0  0  0  0
  148.3200  142.1564  155.8851 H   0  0  0  0  0  0  0  0  0  0  0  0
  1  2  1  0  0  0  0
  1 20  1  0  0  0  0
  1 21  1  0  0  0  0
  1 22  1  0  0  0  0
  2 19  1  0  0  0  0
  2  3  2  0  0  0  0
  3  4  1  0  0  0  0
  3 23  1  0  0  0  0
  4  5  2  0  0  0  0
  4 24  1  0  0  0  0
  5  6  1  0  0  0  0
  5 18  1  0  0  0  0
  6  7  1  0  0  0  0
  6 25  1  0  0  0  0
  7  8  2  0  0  0  0
  7  9  1  0  0  0  0
  9 10  1  0  0  0  0
  9 26  1  0  0  0  0
 10 11  1  0  0  0  0
 10 27  1  0  0  0  0
 10 28  1  0  0  0  0
 11 12  1  0  0  0  0
 11 29  1  0  0  0  0
 11 30  1  0  0  0  0
 12 17  1  0  0  0  0
 12 13  1  0  0  0  0
 12 31  1  0  0  0  0
 13 14  1  0  0  0  0
 13 32  1  0  0  0  0
 13 33  1  0  0  0  0
 14 15  1  0  0  0  0
 14 34  1  0  0  0  0
 14 35  1  0  0  0  0
 15 16  1  0  0  0  0
 15 36  1  0  0  0  0
 15 37  1  0  0  0  0
 16 17  1  0  0  0  0
 16 38  1  0  0  0  0
 16 39  1  0  0  0  0
 18 19  2  0  0  0  0
 19 40  1  0  0  0  0
M  END
> <s_m_source_file>
AV-unprocessed.smi

> <i_m_source_file_index>
2359

> <i_lp_mmshare_version>
43012

> <i_f3d_flags>
0

> <s_epik_input>
W0NIM11jMVtjSF1bY0hdYyhuW2NIXTEpW05IXUMoPU8pW05IXVtDSDJdW0NIMl1bQ0BASF0yW0NIMl1bQ0gyXVtDSDJdW0NIMl1PMg==

> <s_epik_cmdline>
J2VwaWtfcHl0aG9uJywgJy1waCcsICc3LjAnLCAnLXRuJywgJzgnLCAnLW1hJywgJzIwMCcsICctbWV0YWxfYmluZGluZycsICctaW1hZScsICc8aW5maWxlLm1hZT4nLCAnLW9tYWUnLCAnPG91dGZpbGUubWFlPic=

> <r_lp_tautomer_probability>
1

> <r_epik_Ionization_Penalty>
5.73679e-05

> <r_epik_Ionization_Penalty_Charging>
0

> <r_epik_Ionization_Penalty_Neutral>
5.73679e-05

> <r_epik_State_Penalty>
-0

> <r_epik_Charging_Adjusted_Penalty>
0

> <i_epik_Tot_Q>
0

> <i_epik_Tot_abs_Q>
0

> <r_epik_Metal_State_Penalty>
-0

> <b_epik_Metal_Only>
0

> <s_lp_Force_Field>
OPLS_2005

> <r_lp_Energy>
10.9797

> <b_lp_Chiralities_Consistent>
1

> <s_lp_Variant>
AV-unprocessed.smi:2359-1

> <Gold.Version>
5.8.1

> <Gold.Id.Protein>
6NUR|6NUR_protein|mol2

> <Gold.PLP.Fitness>
43.3014

> <Gold.PLP.PLP>
-36.1068

> <Gold.PLP.part.hbond>
-2.3850

> <Gold.PLP.part.metal>
0.0000

> <Gold.PLP.part.buried>
-4.8590

> <Gold.PLP.part.nonpolar>
-30.6764

> <Gold.PLP.part.repulsive>
1.2981

> <Gold.PLP.ligand.clash>
0.0000

> <Gold.PLP.ligand.torsion>
0.9051

> <Gold.PLP.Chemscore.Hbond>
2.0000

> <Gold.PLP.Chemscore.CHOScore>
1.0000

> <Gold.PLP.Chemscore.Metal>
0.0000

> <Gold.Chemscore.Hbonds>
donor molecule, donor type, donor heavy atom, donor atom, acceptor molecule, acceptor atom, score
      L1  H     6    25       P1  7948  0.90
      L1  H     9    26       P1  7948  0.86
      L1  C    19    40       P1  8028  0.76

> <Gold.PLP.Chemscore.Internal.Correction>
0.0050

> <Gold.Rescore>
     Score         DG    S(hbond)    S(metal)    S(lipo)     H(rot)  DE(clash)    DE(int)     intcor
     15.77     -17.70       1.97        0.00      79.43       1.42       0.13       1.80       ----

> <Gold.Chemscore.Fitness>
15.7693

> <Gold.Chemscore.DG>
-17.7019

> <Gold.Chemscore.ZeroCoef>
-5.4800

> <Gold.Chemscore.Hbond>
1.9690

> <Gold.Chemscore.Metal>
0.0000

> <Gold.Chemscore.Lipo>
79.4293

> <Gold.Chemscore.Internal_Hbond>
0.0000

> <Gold.Chemscore.DEClash>
0.1281

> <Gold.Chemscore.DEInternal>
1.8045

> <Gold.Chemscore.Rot>
1.4248

> <Gold.Chemscore.Internal.Correction>
   9.000000E+99

> <Gold.Chemscore.Hbonds>
donor molecule, donor type, donor heavy atom, donor atom, acceptor molecule, acceptor atom, score
      L1  H     6    25       P1  7948  0.88
      L1  H     9    26       P1  7948  0.84

> <Gold.Chemscore.Hbond.Weighted>
-6.5763

> <Gold.Chemscore.Metal.Weighted>
-0.0000

> <Gold.Chemscore.Lipo.Weighted>
-9.2932

> <Gold.Chemscore.Internal_Hbond.Weighted>
0.0000

> <Gold.Chemscore.DEClash.Weighted>
0.1281

> <Gold.Chemscore.DEInternal.Weighted>
1.8045

> <Gold.Chemscore.Rot.Weighted>
3.6476

> <Gold.Chemscore.Internal.Correction.Weighted>
   9.000000E+99

> <Gold.Protein.RotatedTorsions>
[ 6907 6896 6895 6894 ] final -113.18 input  -60.11 | X-H torsion
[ 7974 7965 7964 7962 ] final   71.20 input  175.53 | X-H torsion
[ 8008 7997 7996 7995 ] final -177.99 input   59.86 | X-H torsion
[ 10167 10162 10161 10158 ] final  -31.19 input  -65.29 | X-H torsion
[ 10718 10713 10712 10709 ] final -154.30 input   66.30 | X-H torsion
[ 10763 10752 10751 10750 ] final  -39.37 input  -60.55 | X-H torsion
[ 11005 11000 10999 10996 ] final   -7.10 input  -57.11 | X-H torsion

> <Gold.Protein.ActiveResidues>
 VAL166  LYS551  ARG553  GLY616  TRP617  ASP618  TYR619  PRO620  LYS621  CYS622 
 ASP623  PHE694  ASN695  SER759  ASP760  ASP761  ALA762  ILE779  LEU786  VAL792 
 PHE793  MET794  SER795  GLU796  ALA797  LYS798  CYS799  TRP800  GLU811  SER814 

> <Gold.Protein.RotatedAtoms>
  150.7811  133.8982  159.3333 H   0  0  0  0  0  0  0  0  0  0  0  0  # atno 6907 bound_to 6896
  151.6844  135.0955  160.0231 H   0  0  0  0  0  0  0  0  0  0  0  0  # atno 6908 bound_to 6896
  152.3862  133.6576  159.6236 H   0  0  0  0  0  0  0  0  0  0  0  0  # atno 6909 bound_to 6896
  145.7688  139.2833  143.1333 H   0  0  0  0  0  0  0  0  0  0  0  0  # atno 7974 bound_to 7965
  156.0135  140.1246  157.0429 H   0  0  0  0  0  0  0  0  0  0  0  0  # atno 8008 bound_to 7997
  154.4284  140.1083  156.5933 H   0  0  0  0  0  0  0  0  0  0  0  0  # atno 8009 bound_to 7997
  155.6046  140.3471  155.4606 H   0  0  0  0  0  0  0  0  0  0  0  0  # atno 8010 bound_to 7997
  140.7239  143.3790  151.1637 H   0  0  0  0  0  0  0  0  0  0  0  0  # atno 10167 bound_to 10162
  156.4975  130.8376  151.2596 H   0  0  0  0  0  0  0  0  0  0  0  0  # atno 10718 bound_to 10713
  153.9282  135.6775  153.4746 H   0  0  0  0  0  0  0  0  0  0  0  0  # atno 10763 bound_to 10752
  153.0993  135.4836  154.8835 H   0  0  0  0  0  0  0  0  0  0  0  0  # atno 10764 bound_to 10752
  154.7442  135.3168  154.8631 H   0  0  0  0  0  0  0  0  0  0  0  0  # atno 10765 bound_to 10752
  140.7092  133.8923  155.8738 H   0  0  0  0  0  0  0  0  0  0  0  0  # atno 11005 bound_to 11000
  146.0191  140.8365  142.9932 LP  0  0  0  0  0  0  0  0  0  0  0  0  # atno 17320 bound_to 7965
  144.6816  140.2602  143.7320 LP  0  0  0  0  0  0  0  0  0  0  0  0  # atno 17321 bound_to 7965
  139.7375  143.8976  152.3039 LP  0  0  0  0  0  0  0  0  0  0  0  0  # atno 17342 bound_to 10162
  139.8786  144.7030  150.8904 LP  0  0  0  0  0  0  0  0  0  0  0  0  # atno 17343 bound_to 10162
  157.7467  130.9993  150.2883 LP  0  0  0  0  0  0  0  0  0  0  0  0  # atno 17370 bound_to 10713
  156.3365  130.3808  149.7445 LP  0  0  0  0  0  0  0  0  0  0  0  0  # atno 17371 bound_to 10713
  141.0099  134.1035  157.4232 LP  0  0  0  0  0  0  0  0  0  0  0  0  # atno 17394 bound_to 11000
  139.8876  135.0091  156.6571 LP  0  0  0  0  0  0  0  0  0  0  0  0  # atno 17395 bound_to 11000

$$$$
