#       Name:                AV-unprocessed.smi:1007
#       Creating user name   scv26
#       Creation time:       Fri Mar 27 02:35:21 2020


#       File generated by GOLD software.
#

@<TRIPOS>MOLECULE
AV-unprocessed.smi:1007
    62    64     1
SMALL
NO_CHARGES


@<TRIPOS>ATOM
      1 ****        -4.8310   6.0413  -3.6722 C.3            1 S1                 0.0000
      2 ****        -4.6444   4.9859  -2.7451 O.3            1 S1                 0.0000
      3 ****        -4.1796   3.7967  -3.3615 C.3            1 S1                 0.0000
      4 ****        -4.0480   2.7035  -2.2901 C.3            1 S1                 0.0000
      5 ****        -3.0215   3.0367  -1.2664 N.4            1 S1                 1.0000
      6 ****        -1.6152   2.8423  -1.7080 C.3            1 S1                 0.0000
      7 ****        -1.2035   1.3552  -1.7124 C.3            1 S1                 0.0000
      8 ****        -1.4633   0.7137  -0.3966 N.4            1 S1                 1.0000
      9 ****        -1.0337  -0.7079  -0.3358 C.3            1 S1                 0.0000
     10 ****         0.4894  -0.8576  -0.1536 C.3            1 S1                 0.0000
     11 ****         0.8496  -0.3249   1.1071 O.3            1 S1                 0.0000
     12 ****         0.9351  -2.3304  -0.2374 C.3            1 S1                 0.0000
     13 ****         2.3695  -2.4874  -0.0759 N.pl3          1 S1                 0.0000
     14 ****         3.3146  -2.3090  -1.0187 C.2            1 S1                 0.0000
     15 ****         4.5794  -2.5033  -0.6580 N.2            1 S1                 0.0000
     16 ****         4.4392  -2.8522   0.6742 C.ar           1 S1                 0.0000
     17 ****         5.4120  -3.1883   1.6410 C.ar           1 S1                 0.0000
     18 ****         5.0366  -3.5159   2.9633 C.ar           1 S1                 0.0000
     19 ****         6.1158  -3.8708   3.9710 C.3            1 S1                 0.0000
     20 ****         3.6683  -3.5104   3.3357 C.ar           1 S1                 0.0000
     21 ****         3.2419  -3.8610   4.7504 C.3            1 S1                 0.0000
     22 ****         2.6835  -3.1764   2.3825 C.ar           1 S1                 0.0000
     23 ****         3.0693  -2.8525   1.0696 C.ar           1 S1                 0.0000
     24 ****        -2.8755   0.8950   0.0224 C.3            1 S1                 0.0000
     25 ****        -3.2607   2.3861   0.0457 C.3            1 S1                 0.0000
     26 ****        -5.1873   6.9291  -3.1499 H              1 S1                 0.0000
     27 ****        -5.5718   5.7761  -4.4274 H              1 S1                 0.0000
     28 ****        -3.8964   6.2978  -4.1726 H              1 S1                 0.0000
     29 ****        -4.8976   3.4751  -4.1177 H              1 S1                 0.0000
     30 ****        -3.2335   3.9727  -3.8739 H              1 S1                 0.0000
     31 ****        -5.0211   2.5872  -1.8109 H              1 S1                 0.0000
     32 ****        -3.8258   1.7439  -2.7561 H              1 S1                 0.0000
     33 ****        -1.4492   3.2850  -2.6895 H              1 S1                 0.0000
     34 ****        -0.9683   3.3891  -1.0206 H              1 S1                 0.0000
     35 ****        -1.7394   0.8151  -2.4940 H              1 S1                 0.0000
     36 ****        -0.1456   1.2865  -1.9625 H              1 S1                 0.0000
     37 ****        -1.5309  -1.2103   0.4958 H              1 S1                 0.0000
     38 ****        -1.3646  -1.2221  -1.2394 H              1 S1                 0.0000
     39 ****         1.0197  -0.2948  -0.9211 H              1 S1                 0.0000
     40 ****         0.5264  -0.8999   1.7848 H              1 S1                 0.0000
     41 ****         0.4290  -2.9298   0.5205 H              1 S1                 0.0000
     42 ****         0.6553  -2.7529  -1.2034 H              1 S1                 0.0000
     43 ****         3.0598  -2.0175  -2.0273 H              1 S1                 0.0000
     44 ****         6.4541  -3.1919   1.3568 H              1 S1                 0.0000
     45 ****         5.9541  -4.8734   4.3670 H              1 S1                 0.0000
     46 ****         6.1107  -3.1644   4.8014 H              1 S1                 0.0000
     47 ****         7.1072  -3.8466   3.5178 H              1 S1                 0.0000
     48 ****         2.1596  -3.7972   4.8673 H              1 S1                 0.0000
     49 ****         3.6968  -3.1778   5.4680 H              1 S1                 0.0000
     50 ****         3.5452  -4.8781   4.9996 H              1 S1                 0.0000
     51 ****         1.6387  -3.1683   2.6544 H              1 S1                 0.0000
     52 ****        -3.5321   0.3416  -0.6508 H              1 S1                 0.0000
     53 ****        -3.0187   0.4748   1.0187 H              1 S1                 0.0000
     54 ****        -2.6631   2.9025   0.7982 H              1 S1                 0.0000
     55 ****        -4.3007   2.5110   0.3494 H              1 S1                 0.0000
     56 ****        -0.9027   1.2030   0.2873 H              1 S1                 0.0000
     57 ****        -3.1371   4.0275  -1.1026 H              1 S1                 0.0000
     58 ****        -5.5177   4.7945  -2.2971 LP             1 S1                 0.0000
     59 ****        -3.9750   5.2750  -2.0607 LP             1 S1                 0.0000
     60 ****         0.4455   0.5833   1.2161 LP             1 S1                 0.0000
     61 ****         1.8452  -0.2566   1.1710 LP             1 S1                 0.0000
     62 ****         5.4124  -2.4195  -1.2049 LP             1 S1                 0.0000
@<TRIPOS>BOND
    1    1    2 1     
    2    1   26 1     
    3    1   27 1     
    4    1   28 1     
    5    2    3 1     
    6    3    4 1     
    7    3   29 1     
    8    3   30 1     
    9    4    5 1     
   10    4   31 1     
   11    4   32 1     
   12    5   25 1     
   13    5    6 1     
   14    5   57 1     
   15    6    7 1     
   16    6   33 1     
   17    6   34 1     
   18    7    8 1     
   19    7   35 1     
   20    7   36 1     
   21    8    9 1     
   22    8   24 1     
   23    8   56 1     
   24    9   10 1     
   25    9   37 1     
   26    9   38 1     
   27   10   11 1     
   28   10   12 1     
   29   10   39 1     
   30   11   40 1     
   31   12   13 1     
   32   12   41 1     
   33   12   42 1     
   34   13   23 1     
   35   13   14 1     
   36   14   15 2     
   37   14   43 1     
   38   15   16 1     
   39   16   23 ar    
   40   16   17 ar    
   41   17   18 ar    
   42   17   44 1     
   43   18   19 1     
   44   18   20 ar    
   45   19   45 1     
   46   19   46 1     
   47   19   47 1     
   48   20   21 1     
   49   20   22 ar    
   50   21   48 1     
   51   21   49 1     
   52   21   50 1     
   53   22   23 ar    
   54   22   51 1     
   55   24   25 1     
   56   24   52 1     
   57   24   53 1     
   58   25   54 1     
   59   25   55 1     
   60    2   58 1     
   61    2   59 1     
   62   11   60 1     
   63   11   61 1     
   64   15   62 1     
@<TRIPOS>SUBSTRUCTURE
      1 S1             1
@<TRIPOS>SET
LONE_PAIRS      STATIC     ATOMS    <user>   **** ""
5 58 59 60 61 62
DONOR_HYDROGENS      STATIC     ATOMS    <user>   **** ""
3 57 56 40
ATOM$BLUE        STATIC     ATOMS    COLORGROUP SYSTEM
5 58 59 60 61 62
ATOM$RED        STATIC     ATOMS    COLORGROUP SYSTEM
3 57 56 40
