#       Name:                AV-unprocessed.smi:3306
#       Creating user name   scv26
#       Creation time:       Fri Mar 27 19:03:30 2020


#       File generated by GOLD software.
#

@<TRIPOS>MOLECULE
AV-unprocessed.smi:3306
    46    47     1
SMALL
NO_CHARGES


@<TRIPOS>ATOM
      1 ****        -4.4522  -3.1214   0.3314 C.3            1 S1                 0.0000
      2 ****        -4.1230  -1.8444   1.1222 C.3            1 S1                 0.0000
      3 ****        -5.0424  -0.6741   0.7219 C.3            1 S1                 0.0000
      4 ****        -2.6691  -1.5167   1.0389 N.4            1 S1                 1.0000
      5 ****        -2.1860  -0.6813   2.1700 C.3            1 S1                 0.0000
      6 ****        -0.6507  -0.5815   2.1628 C.3            1 S1                 0.0000
      7 ****        -0.1325  -0.0199   0.8283 C.3            1 S1                 0.0000
      8 ****         1.3476   0.0301   0.8373 N.4            1 S1                 1.0000
      9 ****         1.9561   0.8601  -0.2233 C.3            1 S1                 0.0000
     10 ****         3.4778   0.9518  -0.0453 C.3            1 S1                 0.0000
     11 ****         4.1284   1.8100  -1.1135 C.ar           1 S1                 0.0000
     12 ****         4.8211   1.2197  -2.1918 C.ar           1 S1                 0.0000
     13 ****         5.4058   2.0644  -3.1557 C.ar           1 S1                 0.0000
     14 ****         5.2728   3.4584  -3.0060 C.ar           1 S1                 0.0000
     15 ****         4.5583   3.9484  -1.8947 C.ar           1 S1                 0.0000
     16 ****         3.9949   3.1471  -0.9642 N.ar           1 S1                 0.0000
     17 ****        -0.6762  -0.8860  -0.3253 C.3            1 S1                 0.0000
     18 ****        -2.2115  -0.9812  -0.2728 C.3            1 S1                 0.0000
     19 ****        -5.4813  -3.4338   0.5117 H              1 S1                 0.0000
     20 ****        -3.8046  -3.9473   0.6278 H              1 S1                 0.0000
     21 ****        -4.3431  -2.9785  -0.7435 H              1 S1                 0.0000
     22 ****        -4.3358  -2.0800   2.1660 H              1 S1                 0.0000
     23 ****        -6.0870  -0.9271   0.9063 H              1 S1                 0.0000
     24 ****        -4.9550  -0.4309  -0.3372 H              1 S1                 0.0000
     25 ****        -4.8249   0.2275   1.2939 H              1 S1                 0.0000
     26 ****        -2.6238   0.3159   2.1103 H              1 S1                 0.0000
     27 ****        -2.5097  -1.1134   3.1176 H              1 S1                 0.0000
     28 ****        -0.3217   0.0518   2.9877 H              1 S1                 0.0000
     29 ****        -0.2232  -1.5694   2.3426 H              1 S1                 0.0000
     30 ****        -0.5079   0.9994   0.7207 H              1 S1                 0.0000
     31 ****         1.6340   0.4248   1.7221 H              1 S1                 0.0000
     32 ****         1.7269   0.4375  -1.2016 H              1 S1                 0.0000
     33 ****         1.5197   1.8594  -0.1913 H              1 S1                 0.0000
     34 ****         3.7170   1.3694   0.9339 H              1 S1                 0.0000
     35 ****         3.9177  -0.0463  -0.0695 H              1 S1                 0.0000
     36 ****         4.9066   0.1466  -2.2812 H              1 S1                 0.0000
     37 ****         5.9466   1.6508  -3.9940 H              1 S1                 0.0000
     38 ****         5.7084   4.1359  -3.7255 H              1 S1                 0.0000
     39 ****         4.4351   5.0115  -1.7497 H              1 S1                 0.0000
     40 ****        -0.3808  -0.4722  -1.2895 H              1 S1                 0.0000
     41 ****        -0.2467  -1.8877  -0.2743 H              1 S1                 0.0000
     42 ****        -2.5549  -1.6211  -1.0849 H              1 S1                 0.0000
     43 ****        -2.6408   0.0070  -0.4435 H              1 S1                 0.0000
     44 ****        -2.2018  -2.4051   1.1516 H              1 S1                 0.0000
     45 ****         1.7131  -0.9096   0.7753 H              1 S1                 0.0000
     46 ****         3.4943   3.5314  -0.1885 LP             1 S1                 0.0000
@<TRIPOS>BOND
    1    1    2 1     
    2    1   19 1     
    3    1   20 1     
    4    1   21 1     
    5    2    3 1     
    6    2    4 1     
    7    2   22 1     
    8    3   23 1     
    9    3   24 1     
   10    3   25 1     
   11    4   18 1     
   12    4    5 1     
   13    4   44 1     
   14    5    6 1     
   15    5   26 1     
   16    5   27 1     
   17    6    7 1     
   18    6   28 1     
   19    6   29 1     
   20    7    8 1     
   21    7   17 1     
   22    7   30 1     
   23    8    9 1     
   24    8   31 1     
   25    8   45 1     
   26    9   10 1     
   27    9   32 1     
   28    9   33 1     
   29   10   11 1     
   30   10   34 1     
   31   10   35 1     
   32   11   16 ar    
   33   11   12 ar    
   34   12   13 ar    
   35   12   36 1     
   36   13   14 ar    
   37   13   37 1     
   38   14   15 ar    
   39   14   38 1     
   40   15   16 ar    
   41   15   39 1     
   42   17   18 1     
   43   17   40 1     
   44   17   41 1     
   45   18   42 1     
   46   18   43 1     
   47   16   46 1     
@<TRIPOS>SUBSTRUCTURE
      1 S1             1
@<TRIPOS>SET
LONE_PAIRS      STATIC     ATOMS    <user>   **** ""
1 46
DONOR_HYDROGENS      STATIC     ATOMS    <user>   **** ""
3 44 31 45
ATOM$BLUE        STATIC     ATOMS    COLORGROUP SYSTEM
1 46
ATOM$RED        STATIC     ATOMS    COLORGROUP SYSTEM
3 44 31 45
