AV-unprocessed.smi:1714|AV-procd|sdf|6907|dock8
  -GOLD-   22720 8113D 1   1.00000     0.00000
 Structure written by MMmdl.
 45 46  0  0  0  0  0  0  0  0  1 V2000
  145.4538  135.5909  150.9683 C   0  0  0  0  0  0  0  0  0  0  0  0
  145.4012  134.0764  150.8455 C   0  0  0  0  0  0  0  0  0  0  0  0
  144.3784  133.4806  150.0773 C   0  0  0  0  0  0  0  0  0  0  0  0
  144.3316  132.0804  149.9662 C   0  0  0  0  0  0  0  0  0  0  0  0
  145.3157  131.3308  150.6334 C   0  0  0  0  0  0  0  0  0  0  0  0
  146.2960  131.8919  151.3704 N   0  0  0  0  0  0  0  0  0  0  0  0
  146.3553  133.2421  151.4873 C   0  0  0  0  0  0  0  0  0  0  0  0
  147.3620  133.9042  152.2440 N   0  0  0  0  0  0  0  0  0  0  0  0
  147.8633  133.5708  153.4459 C   0  0  0  0  0  0  0  0  0  0  0  0
  147.5135  132.6060  154.1263 O   0  0  0  0  0  0  0  0  0  0  0  0
  148.8081  134.4382  153.8285 N   0  0  0  0  0  0  0  0  0  0  0  0
  149.5306  134.3754  155.0945 C   0  0  0  0  0  0  0  0  0  0  0  0
  149.2987  135.6445  155.9629 C   0  0  0  0  0  0  0  0  0  0  0  0
  147.8038  135.6576  156.3635 C   0  0  0  0  0  0  0  0  0  0  0  0
  150.1214  135.4379  157.2604 C   0  0  0  0  0  0  0  0  0  0  0  0
  149.7246  136.8826  155.2507 N   0  0  0  0  0  0  0  0  0  0  0  0
  149.2927  138.1354  155.8818 C   0  0  0  0  0  0  0  0  0  0  0  0
  149.6588  139.3671  155.0364 C   0  0  0  0  0  0  0  0  0  0  0  0
  151.0604  139.3849  154.7970 O   0  0  0  0  0  0  0  0  0  0  0  0
  151.5111  138.2126  154.1298 C   0  0  0  0  0  0  0  0  0  0  0  0
  151.1618  136.9711  154.9678 C   0  0  0  0  0  0  0  0  0  0  0  0
  144.6460  136.0635  150.4088 H   0  0  0  0  0  0  0  0  0  0  0  0
  146.3984  135.9735  150.5805 H   0  0  0  0  0  0  0  0  0  0  0  0
  145.3598  135.8920  152.0121 H   0  0  0  0  0  0  0  0  0  0  0  0
  143.6370  134.0871  149.5779 H   0  0  0  0  0  0  0  0  0  0  0  0
  143.5619  131.5941  149.3855 H   0  0  0  0  0  0  0  0  0  0  0  0
  145.3173  130.2523  150.5742 H   0  0  0  0  0  0  0  0  0  0  0  0
  147.7463  134.7333  151.8162 H   0  0  0  0  0  0  0  0  0  0  0  0
  149.0349  135.2071  153.2145 H   0  0  0  0  0  0  0  0  0  0  0  0
  149.2371  133.4710  155.6286 H   0  0  0  0  0  0  0  0  0  0  0  0
  150.5948  134.2517  154.8846 H   0  0  0  0  0  0  0  0  0  0  0  0
  147.5345  134.7433  156.8939 H   0  0  0  0  0  0  0  0  0  0  0  0
  147.1466  135.7209  155.4964 H   0  0  0  0  0  0  0  0  0  0  0  0
  147.5603  136.4878  157.0261 H   0  0  0  0  0  0  0  0  0  0  0  0
  149.9375  134.4564  157.6991 H   0  0  0  0  0  0  0  0  0  0  0  0
  149.8663  136.1652  158.0310 H   0  0  0  0  0  0  0  0  0  0  0  0
  151.1934  135.5149  157.0752 H   0  0  0  0  0  0  0  0  0  0  0  0
  148.2147  138.1454  156.0307 H   0  0  0  0  0  0  0  0  0  0  0  0
  149.7498  138.2382  156.8660 H   0  0  0  0  0  0  0  0  0  0  0  0
  149.1195  139.3585  154.0878 H   0  0  0  0  0  0  0  0  0  0  0  0
  149.3754  140.2813  155.5580 H   0  0  0  0  0  0  0  0  0  0  0  0
  151.0561  138.1502  153.1399 H   0  0  0  0  0  0  0  0  0  0  0  0
  152.5891  138.2790  153.9827 H   0  0  0  0  0  0  0  0  0  0  0  0
  151.7285  137.0046  155.8983 H   0  0  0  0  0  0  0  0  0  0  0  0
  151.5048  136.0964  154.4183 H   0  0  0  0  0  0  0  0  0  0  0  0
  1  2  1  0  0  0  0
  1 22  1  0  0  0  0
  1 23  1  0  0  0  0
  1 24  1  0  0  0  0
  2  7  1  0  0  0  0
  2  3  2  0  0  0  0
  3  4  1  0  0  0  0
  3 25  1  0  0  0  0
  4  5  2  0  0  0  0
  4 26  1  0  0  0  0
  5  6  1  0  0  0  0
  5 27  1  0  0  0  0
  6  7  2  0  0  0  0
  7  8  1  0  0  0  0
  8  9  1  0  0  0  0
  8 28  1  0  0  0  0
  9 10  2  0  0  0  0
  9 11  1  0  0  0  0
 11 12  1  0  0  0  0
 11 29  1  0  0  0  0
 12 13  1  0  0  0  0
 12 30  1  0  0  0  0
 12 31  1  0  0  0  0
 13 14  1  0  0  0  0
 13 15  1  0  0  0  0
 13 16  1  0  0  0  0
 14 32  1  0  0  0  0
 14 33  1  0  0  0  0
 14 34  1  0  0  0  0
 15 35  1  0  0  0  0
 15 36  1  0  0  0  0
 15 37  1  0  0  0  0
 16 21  1  0  0  0  0
 16 17  1  0  0  0  0
 17 18  1  0  0  0  0
 17 38  1  0  0  0  0
 17 39  1  0  0  0  0
 18 19  1  0  0  0  0
 18 40  1  0  0  0  0
 18 41  1  0  0  0  0
 19 20  1  0  0  0  0
 20 21  1  0  0  0  0
 20 42  1  0  0  0  0
 20 43  1  0  0  0  0
 21 44  1  0  0  0  0
 21 45  1  0  0  0  0
M  END
> <s_m_source_file>
AV-unprocessed.smi

> <i_m_source_file_index>
1714

> <i_lp_mmshare_version>
43012

> <i_f3d_flags>
0

> <s_epik_input>
W0NIM11jMVtjSF1bY0hdW2NIXW5jMVtOSF1DKD1PKVtOSF1bQ0gyXUMoW0NIM10pKFtDSDNdKU4yW0NIMl1bQ0gyXU9bQ0gyXVtDSDJdMg==

> <s_epik_cmdline>
J2VwaWtfcHl0aG9uJywgJy1waCcsICc3LjAnLCAnLXRuJywgJzgnLCAnLW1hJywgJzIwMCcsICctbWV0YWxfYmluZGluZycsICctaW1hZScsICc8aW5maWxlLm1hZT4nLCAnLW9tYWUnLCAnPG91dGZpbGUubWFlPic=

> <r_epik_Ionization_Penalty>
0.26605

> <r_epik_Ionization_Penalty_Charging>
0

> <r_epik_Ionization_Penalty_Neutral>
0.26605

> <r_epik_State_Penalty>
0.257924

> <r_epik_Charging_Adjusted_Penalty>
0.257924

> <i_epik_Tot_Q>
0

> <i_epik_Tot_abs_Q>
0

> <r_epik_Metal_State_Penalty>
0.257922

> <b_epik_Metal_Only>
0

> <s_lp_Force_Field>
OPLS_2005

> <r_lp_Energy>
43.6145

> <b_lp_Chiralities_Consistent>
1

> <s_lp_Variant>
AV-unprocessed.smi:1714-1

> <Gold.Version>
5.8.1

> <Gold.Id.Protein>
6NUR|6NUR_protein|mol2

> <Gold.PLP.Fitness>
40.2722

> <Gold.PLP.PLP>
-32.1824

> <Gold.PLP.part.hbond>
-3.0000

> <Gold.PLP.part.metal>
0.0000

> <Gold.PLP.part.buried>
-6.0527

> <Gold.PLP.part.nonpolar>
-23.5724

> <Gold.PLP.part.repulsive>
0.3860

> <Gold.PLP.ligand.clash>
0.0000

> <Gold.PLP.ligand.torsion>
0.4863

> <Gold.PLP.Chemscore.Hbond>
3.0000

> <Gold.PLP.Chemscore.CHOScore>
0.0000

> <Gold.PLP.Chemscore.Metal>
0.0000

> <Gold.Chemscore.Hbonds>
donor molecule, donor type, donor heavy atom, donor atom, acceptor molecule, acceptor atom, score
      L1  H     8    28       P1  7948  1.00
      L1  H    11    29       P1  7948  1.00
      P1  H  7989  7998       L1    19  0.94

> <Gold.PLP.Chemscore.Internal.Correction>
0.0625

> <Gold.Rescore>
     Score         DG    S(hbond)    S(metal)    S(lipo)     H(rot)  DE(clash)    DE(int)     intcor
     16.07     -17.91       2.22        0.00      74.72       1.45       1.42       0.42       ----

> <Gold.Chemscore.Fitness>
16.0742

> <Gold.Chemscore.DG>
-17.9099

> <Gold.Chemscore.ZeroCoef>
-5.4800

> <Gold.Chemscore.Hbond>
2.2154

> <Gold.Chemscore.Metal>
0.0000

> <Gold.Chemscore.Lipo>
74.7185

> <Gold.Chemscore.Internal_Hbond>
0.0000

> <Gold.Chemscore.DEClash>
1.4161

> <Gold.Chemscore.DEInternal>
0.4196

> <Gold.Chemscore.Rot>
1.4498

> <Gold.Chemscore.Internal.Correction>
   9.000000E+99

> <Gold.Chemscore.Hbonds>
donor molecule, donor type, donor heavy atom, donor atom, acceptor molecule, acceptor atom, score
      L1  H     8    28       P1  7948  0.38
      L1  H    11    29       P1  7948  0.30
      P1  H  7989  7998       L1    19  0.27

> <Gold.Chemscore.Hbond.Weighted>
-7.3994

> <Gold.Chemscore.Metal.Weighted>
-0.0000

> <Gold.Chemscore.Lipo.Weighted>
-8.7421

> <Gold.Chemscore.Internal_Hbond.Weighted>
0.0000

> <Gold.Chemscore.DEClash.Weighted>
1.4161

> <Gold.Chemscore.DEInternal.Weighted>
0.4196

> <Gold.Chemscore.Rot.Weighted>
3.7116

> <Gold.Chemscore.Internal.Correction.Weighted>
   9.000000E+99

> <Gold.Protein.RotatedTorsions>
[ 6907 6896 6895 6894 ] final  -33.31 input  -60.11 | X-H torsion
[ 7974 7965 7964 7962 ] final -169.68 input  175.53 | X-H torsion
[ 8008 7997 7996 7995 ] final -175.44 input   59.86 | X-H torsion
[ 10167 10162 10161 10158 ] final   85.40 input  -65.29 | X-H torsion
[ 10718 10713 10712 10709 ] final   61.57 input   66.30 | X-H torsion
[ 10763 10752 10751 10750 ] final -115.87 input  -60.55 | X-H torsion
[ 11005 11000 10999 10996 ] final  -43.20 input  -57.11 | X-H torsion

> <Gold.Protein.ActiveResidues>
 VAL166  LYS551  ARG553  GLY616  TRP617  ASP618  TYR619  PRO620  LYS621  CYS622 
 ASP623  PHE694  ASN695  SER759  ASP760  ASP761  ALA762  ILE779  LEU786  VAL792 
 PHE793  MET794  SER795  GLU796  ALA797  LYS798  CYS799  TRP800  GLU811  SER814 

> <Gold.Protein.RotatedAtoms>
  151.0673  134.9775  159.8290 H   0  0  0  0  0  0  0  0  0  0  0  0  # atno 6907 bound_to 6896
  152.5404  134.2343  159.8847 H   0  0  0  0  0  0  0  0  0  0  0  0  # atno 6908 bound_to 6896
  151.2366  133.4378  159.2639 H   0  0  0  0  0  0  0  0  0  0  0  0  # atno 6909 bound_to 6896
  144.7181  140.2185  143.6319 H   0  0  0  0  0  0  0  0  0  0  0  0  # atno 7974 bound_to 7965
  155.9825  140.1184  157.0713 H   0  0  0  0  0  0  0  0  0  0  0  0  # atno 8008 bound_to 7997
  154.4187  140.1141  156.5523 H   0  0  0  0  0  0  0  0  0  0  0  0  # atno 8009 bound_to 7997
  155.6451  140.3473  155.4731 H   0  0  0  0  0  0  0  0  0  0  0  0  # atno 8010 bound_to 7997
  139.8982  144.6345  150.8666 H   0  0  0  0  0  0  0  0  0  0  0  0  # atno 10167 bound_to 10162
  157.5838  130.9002  149.9478 H   0  0  0  0  0  0  0  0  0  0  0  0  # atno 10718 bound_to 10713
  154.8498  135.4366  154.1732 H   0  0  0  0  0  0  0  0  0  0  0  0  # atno 10763 bound_to 10752
  153.2840  135.6956  153.7363 H   0  0  0  0  0  0  0  0  0  0  0  0  # atno 10764 bound_to 10752
  153.6556  135.3444  155.3087 H   0  0  0  0  0  0  0  0  0  0  0  0  # atno 10765 bound_to 10752
  141.0368  133.6796  156.2700 H   0  0  0  0  0  0  0  0  0  0  0  0  # atno 11005 bound_to 11000
  145.8524  139.2182  143.1764 LP  0  0  0  0  0  0  0  0  0  0  0  0  # atno 17320 bound_to 7965
  146.0249  140.8313  142.9905 LP  0  0  0  0  0  0  0  0  0  0  0  0  # atno 17321 bound_to 7965
  140.7712  143.3457  151.2115 LP  0  0  0  0  0  0  0  0  0  0  0  0  # atno 17342 bound_to 10162
  139.7049  143.9472  152.2922 LP  0  0  0  0  0  0  0  0  0  0  0  0  # atno 17343 bound_to 10162
  156.0885  130.3665  150.0440 LP  0  0  0  0  0  0  0  0  0  0  0  0  # atno 17370 bound_to 10713
  156.8575  130.9480  151.3620 LP  0  0  0  0  0  0  0  0  0  0  0  0  # atno 17371 bound_to 10713
  140.6308  134.5266  157.5559 LP  0  0  0  0  0  0  0  0  0  0  0  0  # atno 17394 bound_to 11000
  139.9246  134.8081  156.1107 LP  0  0  0  0  0  0  0  0  0  0  0  0  # atno 17395 bound_to 11000

$$$$
