AV-unprocessed.smi:912|AV-procd|sdf|4143|dock9
  -GOLD-   22720 2 53D 1   1.00000     0.00000
 Structure written by MMmdl.
 27 27  0  0  0  0  0  0  0  0  2 V2000
  146.9054  138.8849  152.3584 C   0  0  0  0  0  0  0  0  0  0  0  0
  148.2742  138.9055  152.9257 N   0  3  0  0  0  0  0  0  0  0  0  0
  148.4458  139.3658  154.3344 C   0  0  2  0  0  0  0  0  0  0  0  0
  147.7064  138.4034  155.3008 C   0  0  0  0  0  0  0  0  0  0  0  0
  147.8919  140.8104  154.4331 C   0  0  0  0  0  0  0  0  0  0  0  0
  146.8565  141.0292  155.2526 N   0  0  0  0  0  0  0  0  0  0  0  0
  148.3987  141.7279  153.7902 O   0  0  0  0  0  0  0  0  0  0  0  0
  149.9430  139.3898  154.7100 C   0  0  0  0  0  0  0  0  0  0  0  0
  150.5271  140.4412  155.4621 C   0  0  0  0  0  0  0  0  0  0  0  0
  151.9041  140.3879  155.7586 C   0  0  0  0  0  0  0  0  0  0  0  0
  152.7116  139.3833  155.3632 N   0  0  0  0  0  0  0  0  0  0  0  0
  152.1626  138.3821  154.6466 C   0  0  0  0  0  0  0  0  0  0  0  0
  150.7986  138.3391  154.2977 C   0  0  0  0  0  0  0  0  0  0  0  0
  146.9588  138.6245  151.3014 H   0  0  0  0  0  0  0  0  0  0  0  0
  146.4144  139.8552  152.4346 H   0  0  0  0  0  0  0  0  0  0  0  0
  146.2812  138.1357  152.8449 H   0  0  0  0  0  0  0  0  0  0  0  0
  148.6401  137.9660  152.8664 H   0  0  0  0  0  0  0  0  0  0  0  0
  147.8349  138.6933  156.3441 H   0  0  0  0  0  0  0  0  0  0  0  0
  148.0818  137.3844  155.2015 H   0  0  0  0  0  0  0  0  0  0  0  0
  146.6310  138.3747  155.1237 H   0  0  0  0  0  0  0  0  0  0  0  0
  146.4824  141.9600  155.3678 H   0  0  0  0  0  0  0  0  0  0  0  0
  146.4672  140.2594  155.7788 H   0  0  0  0  0  0  0  0  0  0  0  0
  149.9581  141.2858  155.8193 H   0  0  0  0  0  0  0  0  0  0  0  0
  152.3692  141.1769  156.3310 H   0  0  0  0  0  0  0  0  0  0  0  0
  152.8294  137.5890  154.3420 H   0  0  0  0  0  0  0  0  0  0  0  0
  150.4219  137.5046  153.7246 H   0  0  0  0  0  0  0  0  0  0  0  0
  148.8438  139.5017  152.3428 H   0  0  0  0  0  0  0  0  0  0  0  0
  1  2  1  0  0  0  0
  1 14  1  0  0  0  0
  1 15  1  0  0  0  0
  1 16  1  0  0  0  0
  2  3  1  0  0  0  0
  2 17  1  0  0  0  0
  2 27  1  0  0  0  0
  3  4  1  0  0  0  0
  3  5  1  0  0  0  0
  3  8  1  0  0  0  0
  4 18  1  0  0  0  0
  4 19  1  0  0  0  0
  4 20  1  0  0  0  0
  5  6  1  0  0  0  0
  5  7  2  0  0  0  0
  6 21  1  0  0  0  0
  6 22  1  0  0  0  0
  8 13  1  0  0  0  0
  8  9  2  0  0  0  0
  9 10  1  0  0  0  0
  9 23  1  0  0  0  0
 10 11  2  0  0  0  0
 10 24  1  0  0  0  0
 11 12  1  0  0  0  0
 12 13  2  0  0  0  0
 12 25  1  0  0  0  0
 13 26  1  0  0  0  0
M  CHG  1   2   1
M  END
> <s_m_source_file>
AV-unprocessed.smi

> <i_m_source_file_index>
912

> <i_lp_mmshare_version>
43012

> <i_f3d_flags>
0

> <s_epik_input>
W0NIM11bTkhdW0NAQF0oW0NIM10pKEMoPU8pW05IMl0pYzFbY0hdW2NIXW5bY0hdW2NIXTE=

> <s_epik_cmdline>
J2VwaWtfcHl0aG9uJywgJy1waCcsICc3LjAnLCAnLXRuJywgJzgnLCAnLW1hJywgJzIwMCcsICctbWV0YWxfYmluZGluZycsICctaW1hZScsICc8aW5maWxlLm1hZT4nLCAnLW9tYWUnLCAnPG91dGZpbGUubWFlPic=

> <r_epik_Ionization_Penalty>
0.8426

> <r_epik_Ionization_Penalty_Charging>
0.842363

> <r_epik_Ionization_Penalty_Neutral>
0.000236815

> <r_epik_State_Penalty>
0.498415

> <r_epik_Charging_Adjusted_Penalty>
1.34078

> <i_epik_Tot_Q>
1

> <i_epik_Tot_abs_Q>
1

> <r_epik_Metal_State_Penalty>
0.661775

> <b_epik_Metal_Only>
0

> <s_lp_Force_Field>
OPLS_2005

> <r_lp_Energy>
11.5286

> <b_lp_Chiralities_Consistent>
1

> <s_lp_Variant>
AV-unprocessed.smi:912-4

> <Gold.Version>
5.8.1

> <Gold.Id.Protein>
6NUR|6NUR_protein|mol2

> <Gold.PLP.Fitness>
36.7025

> <Gold.PLP.PLP>
-25.2899

> <Gold.PLP.part.hbond>
-3.8112

> <Gold.PLP.part.metal>
0.0000

> <Gold.PLP.part.buried>
-3.2156

> <Gold.PLP.part.nonpolar>
-19.1202

> <Gold.PLP.part.repulsive>
0.2507

> <Gold.PLP.ligand.clash>
0.0000

> <Gold.PLP.ligand.torsion>
0.8397

> <Gold.PLP.Chemscore.Hbond>
4.3611

> <Gold.PLP.Chemscore.CHOScore>
0.0000

> <Gold.PLP.Chemscore.Metal>
0.0000

> <Gold.Chemscore.Hbonds>
donor molecule, donor type, donor heavy atom, donor atom, acceptor molecule, acceptor atom, score
      L1  H     2    17       P1  7948  2.00
      L1  H     2    27       P1  7957  0.93
      P1  H  7997  8008       L1    11  0.85
      P1  H  8011  8017       L1     7  0.43

> <Gold.PLP.Chemscore.Internal.Correction>
0.0087

> <Gold.Rescore>
     Score         DG    S(hbond)    S(metal)    S(lipo)     H(rot)  DE(clash)    DE(int)     intcor
     13.92     -16.35       2.89        0.00      50.28       1.83       0.66       1.78       ----

> <Gold.Chemscore.Fitness>
13.9157

> <Gold.Chemscore.DG>
-16.3487

> <Gold.Chemscore.ZeroCoef>
-5.4800

> <Gold.Chemscore.Hbond>
2.8931

> <Gold.Chemscore.Metal>
0.0000

> <Gold.Chemscore.Lipo>
50.2812

> <Gold.Chemscore.Internal_Hbond>
0.0000

> <Gold.Chemscore.DEClash>
0.6559

> <Gold.Chemscore.DEInternal>
1.7770

> <Gold.Chemscore.Rot>
1.8270

> <Gold.Chemscore.Internal.Correction>
   9.000000E+99

> <Gold.Chemscore.Hbonds>
donor molecule, donor type, donor heavy atom, donor atom, acceptor molecule, acceptor atom, score
      L1  H     2    17       P1  7948  0.91
      L1  H     2    27       P1  7957  0.88
      P1  H  7997  8008       L1    11  0.14
      P1  H  8011  8017       L1     7  0.43

> <Gold.Chemscore.Hbond.Weighted>
-9.6629

> <Gold.Chemscore.Metal.Weighted>
-0.0000

> <Gold.Chemscore.Lipo.Weighted>
-5.8829

> <Gold.Chemscore.Internal_Hbond.Weighted>
0.0000

> <Gold.Chemscore.DEClash.Weighted>
0.6559

> <Gold.Chemscore.DEInternal.Weighted>
1.7770

> <Gold.Chemscore.Rot.Weighted>
4.6771

> <Gold.Chemscore.Internal.Correction.Weighted>
   9.000000E+99

> <Gold.Protein.RotatedTorsions>
[ 6907 6896 6895 6894 ] final  -72.83 input  -60.11 | X-H torsion
[ 7974 7965 7964 7962 ] final    3.04 input  175.53 | X-H torsion
[ 8008 7997 7996 7995 ] final  -21.38 input   59.86 | X-H torsion
[ 10167 10162 10161 10158 ] final   24.06 input  -65.29 | X-H torsion
[ 10718 10713 10712 10709 ] final -138.90 input   66.30 | X-H torsion
[ 10763 10752 10751 10750 ] final   49.96 input  -60.55 | X-H torsion
[ 11005 11000 10999 10996 ] final   14.83 input  -57.11 | X-H torsion

> <Gold.Protein.ActiveResidues>
 VAL166  LYS551  ARG553  GLY616  TRP617  ASP618  TYR619  PRO620  LYS621  CYS622 
 ASP623  PHE694  ASN695  SER759  ASP760  ASP761  ALA762  ILE779  LEU786  VAL792 
 PHE793  MET794  SER795  GLU796  ALA797  LYS798  CYS799  TRP800  GLU811  SER814 

> <Gold.Protein.RotatedAtoms>
  150.7154  134.5106  159.5604 H   0  0  0  0  0  0  0  0  0  0  0  0  # atno 6907 bound_to 6896
  152.2683  134.7957  160.0428 H   0  0  0  0  0  0  0  0  0  0  0  0  # atno 6908 bound_to 6896
  151.8646  133.3428  159.3752 H   0  0  0  0  0  0  0  0  0  0  0  0  # atno 6909 bound_to 6896
  146.2445  140.0746  142.8360 H   0  0  0  0  0  0  0  0  0  0  0  0  # atno 7974 bound_to 7965
  154.4709  140.2036  155.9996 H   0  0  0  0  0  0  0  0  0  0  0  0  # atno 8008 bound_to 7997
  156.1010  140.3244  155.7912 H   0  0  0  0  0  0  0  0  0  0  0  0  # atno 8009 bound_to 7997
  155.4798  140.0538  157.2959 H   0  0  0  0  0  0  0  0  0  0  0  0  # atno 8010 bound_to 7997
  140.5218  143.9989  150.6421 H   0  0  0  0  0  0  0  0  0  0  0  0  # atno 10167 bound_to 10162
  156.3046  130.7448  151.1508 H   0  0  0  0  0  0  0  0  0  0  0  0  # atno 10718 bound_to 10713
  152.9785  135.5894  154.4174 H   0  0  0  0  0  0  0  0  0  0  0  0  # atno 10763 bound_to 10752
  154.3802  135.2767  155.2217 H   0  0  0  0  0  0  0  0  0  0  0  0  # atno 10764 bound_to 10752
  154.4134  135.6076  153.6021 H   0  0  0  0  0  0  0  0  0  0  0  0  # atno 10765 bound_to 10752
  140.4652  134.1087  155.7723 H   0  0  0  0  0  0  0  0  0  0  0  0  # atno 11005 bound_to 11000
  145.0786  140.9205  143.4839 LP  0  0  0  0  0  0  0  0  0  0  0  0  # atno 17320 bound_to 7965
  145.0894  139.2901  143.5743 LP  0  0  0  0  0  0  0  0  0  0  0  0  # atno 17321 bound_to 7965
  140.3340  143.3060  152.0658 LP  0  0  0  0  0  0  0  0  0  0  0  0  # atno 17342 bound_to 10162
  139.4926  144.6489  151.6718 LP  0  0  0  0  0  0  0  0  0  0  0  0  # atno 17343 bound_to 10162
  157.7376  131.0549  150.5343 LP  0  0  0  0  0  0  0  0  0  0  0  0  # atno 17370 bound_to 10713
  156.5475  130.4223  149.6124 LP  0  0  0  0  0  0  0  0  0  0  0  0  # atno 17371 bound_to 10713
  141.1603  133.8806  157.1866 LP  0  0  0  0  0  0  0  0  0  0  0  0  # atno 17394 bound_to 11000
  139.9920  135.0061  156.9997 LP  0  0  0  0  0  0  0  0  0  0  0  0  # atno 17395 bound_to 11000

$$$$
