AV-unprocessed.smi:1979|AV-procd|sdf|8016|dock9
  -GOLD-   2272010213D 1   1.00000     0.00000
 Structure written by MMmdl.
 28 28  0  0  0  0  0  0  0  0  1 V2000
  153.6832  142.0391  162.0253 N   0  0  0  0  0  0  0  0  0  0  0  0
  153.0826  142.1477  161.0424 C   0  0  0  0  0  0  0  0  0  0  0  0
  152.3282  142.2845  159.8084 C   0  0  0  0  0  0  0  0  0  0  0  0
  152.1452  143.5461  159.2095 C   0  0  0  0  0  0  0  0  0  0  0  0
  151.4070  143.6293  158.0128 C   0  0  0  0  0  0  0  0  0  0  0  0
  150.8763  142.4406  157.4557 C   0  0  0  0  0  0  0  0  0  0  0  0
  150.1336  142.4291  156.2682 N   0  0  0  0  0  0  0  0  0  0  0  0
  149.7072  141.1717  155.6730 C   0  0  0  0  0  0  0  0  0  0  0  0
  148.3840  141.3265  154.9164 C   0  0  0  0  0  0  0  0  0  0  0  0
  148.3119  140.3375  153.9029 O   0  0  0  0  0  0  0  0  0  0  0  0
  147.0787  140.3557  153.2029 C   0  0  0  0  0  0  0  0  0  0  0  0
  146.8009  138.9562  152.6413 C   0  0  0  0  0  0  0  0  0  0  0  0
  147.8102  138.5920  151.7243 O   0  0  0  0  0  0  0  0  0  0  0  0
  151.0508  141.2313  158.0324 N   0  0  0  0  0  0  0  0  0  0  0  0
  151.7603  141.1585  159.1794 C   0  0  0  0  0  0  0  0  0  0  0  0
  152.5606  144.4389  159.6547 H   0  0  0  0  0  0  0  0  0  0  0  0
  151.2601  144.5928  157.5481 H   0  0  0  0  0  0  0  0  0  0  0  0
  149.6801  143.2798  155.9671 H   0  0  0  0  0  0  0  0  0  0  0  0
  150.4791  140.8389  154.9785 H   0  0  0  0  0  0  0  0  0  0  0  0
  149.6110  140.4058  156.4436 H   0  0  0  0  0  0  0  0  0  0  0  0
  147.5365  141.2487  155.5994 H   0  0  0  0  0  0  0  0  0  0  0  0
  148.3448  142.3159  154.4585 H   0  0  0  0  0  0  0  0  0  0  0  0
  146.2856  140.6238  153.9026 H   0  0  0  0  0  0  0  0  0  0  0  0
  147.0790  141.1060  152.4100 H   0  0  0  0  0  0  0  0  0  0  0  0
  146.7228  138.2164  153.4387 H   0  0  0  0  0  0  0  0  0  0  0  0
  145.8521  138.9546  152.1044 H   0  0  0  0  0  0  0  0  0  0  0  0
  148.5422  139.1792  151.8341 H   0  0  0  0  0  0  0  0  0  0  0  0
  151.8751  140.1709  159.6025 H   0  0  0  0  0  0  0  0  0  0  0  0
  1  2  3  0  0  0  0
  2  3  1  0  0  0  0
  3 15  1  0  0  0  0
  3  4  2  0  0  0  0
  4  5  1  0  0  0  0
  4 16  1  0  0  0  0
  5  6  2  0  0  0  0
  5 17  1  0  0  0  0
  6  7  1  0  0  0  0
  6 14  1  0  0  0  0
  7  8  1  0  0  0  0
  7 18  1  0  0  0  0
  8  9  1  0  0  0  0
  8 19  1  0  0  0  0
  8 20  1  0  0  0  0
  9 10  1  0  0  0  0
  9 21  1  0  0  0  0
  9 22  1  0  0  0  0
 10 11  1  0  0  0  0
 11 12  1  0  0  0  0
 11 23  1  0  0  0  0
 11 24  1  0  0  0  0
 12 13  1  0  0  0  0
 12 25  1  0  0  0  0
 12 26  1  0  0  0  0
 13 27  1  0  0  0  0
 14 15  2  0  0  0  0
 15 28  1  0  0  0  0
M  END
> <s_m_source_file>
AV-unprocessed.smi

> <i_m_source_file_index>
1979

> <i_lp_mmshare_version>
43012

> <i_f3d_flags>
0

> <s_epik_input>
TiNDYzFbY0hdW2NIXWMobltjSF0xKVtOSF1bQ0gyXVtDSDJdT1tDSDJdW0NIMl1bT0hd

> <s_epik_cmdline>
J2VwaWtfcHl0aG9uJywgJy1waCcsICc3LjAnLCAnLXRuJywgJzgnLCAnLW1hJywgJzIwMCcsICctbWV0YWxfYmluZGluZycsICctaW1hZScsICc8aW5maWxlLm1hZT4nLCAnLW9tYWUnLCAnPG91dGZpbGUubWFlPic=

> <r_lp_tautomer_probability>
1

> <r_epik_Ionization_Penalty>
1.11368e-05

> <r_epik_Ionization_Penalty_Charging>
0

> <r_epik_Ionization_Penalty_Neutral>
1.11368e-05

> <r_epik_State_Penalty>
-0

> <r_epik_Charging_Adjusted_Penalty>
0

> <i_epik_Tot_Q>
0

> <i_epik_Tot_abs_Q>
0

> <r_epik_Metal_State_Penalty>
-0

> <b_epik_Metal_Only>
0

> <s_lp_Force_Field>
OPLS_2005

> <r_lp_Energy>
5.28627

> <b_lp_Chiralities_Consistent>
1

> <s_lp_Variant>
AV-unprocessed.smi:1979-1

> <Gold.Version>
5.8.1

> <Gold.Id.Protein>
6NUR|6NUR_protein|mol2

> <Gold.PLP.Fitness>
43.1561

> <Gold.PLP.PLP>
-35.8463

> <Gold.PLP.part.hbond>
-4.5052

> <Gold.PLP.part.metal>
0.0000

> <Gold.PLP.part.buried>
-3.8130

> <Gold.PLP.part.nonpolar>
-28.3003

> <Gold.PLP.part.repulsive>
1.0009

> <Gold.PLP.ligand.clash>
0.0000

> <Gold.PLP.ligand.torsion>
0.4977

> <Gold.PLP.Chemscore.Hbond>
2.7563

> <Gold.PLP.Chemscore.CHOScore>
0.0000

> <Gold.PLP.Chemscore.Metal>
0.0000

> <Gold.Chemscore.Hbonds>
donor molecule, donor type, donor heavy atom, donor atom, acceptor molecule, acceptor atom, score
      L1  H     7    18       P1  8028  1.00
      L1  H    13    27       P1  7957  0.83
      P1  H  7954  7966       L1    13  0.90

> <Gold.PLP.Chemscore.Internal.Correction>
0.0365

> <Gold.Rescore>
     Score         DG    S(hbond)    S(metal)    S(lipo)     H(rot)  DE(clash)    DE(int)     intcor
     12.33     -12.78       1.98        0.00      68.98       2.88       0.02       0.44       ----

> <Gold.Chemscore.Fitness>
12.3255

> <Gold.Chemscore.DG>
-12.7809

> <Gold.Chemscore.ZeroCoef>
-5.4800

> <Gold.Chemscore.Hbond>
1.9760

> <Gold.Chemscore.Metal>
0.0000

> <Gold.Chemscore.Lipo>
68.9839

> <Gold.Chemscore.Internal_Hbond>
0.0000

> <Gold.Chemscore.DEClash>
0.0180

> <Gold.Chemscore.DEInternal>
0.4375

> <Gold.Chemscore.Rot>
2.8788

> <Gold.Chemscore.Internal.Correction>
   9.000000E+99

> <Gold.Chemscore.Hbonds>
donor molecule, donor type, donor heavy atom, donor atom, acceptor molecule, acceptor atom, score
      L1  H     7    18       P1  8028  1.00
      L1  H    13    27       P1  7957  0.76
      P1  H  7954  7966       L1    13  0.22

> <Gold.Chemscore.Hbond.Weighted>
-6.5997

> <Gold.Chemscore.Metal.Weighted>
-0.0000

> <Gold.Chemscore.Lipo.Weighted>
-8.0711

> <Gold.Chemscore.Internal_Hbond.Weighted>
0.0000

> <Gold.Chemscore.DEClash.Weighted>
0.0180

> <Gold.Chemscore.DEInternal.Weighted>
0.4375

> <Gold.Chemscore.Rot.Weighted>
7.3699

> <Gold.Chemscore.Internal.Correction.Weighted>
   9.000000E+99

> <Gold.Protein.RotatedTorsions>
[ 6907 6896 6895 6894 ] final  -37.68 input  -60.11 | X-H torsion
[ 7974 7965 7964 7962 ] final  158.35 input  175.53 | X-H torsion
[ 8008 7997 7996 7995 ] final  -56.46 input   59.86 | X-H torsion
[ 10167 10162 10161 10158 ] final -176.83 input  -65.29 | X-H torsion
[ 10718 10713 10712 10709 ] final -113.44 input   66.30 | X-H torsion
[ 10763 10752 10751 10750 ] final  -32.88 input  -60.55 | X-H torsion
[ 11005 11000 10999 10996 ] final  168.56 input  -57.11 | X-H torsion

> <Gold.Protein.ActiveResidues>
 VAL166  LYS551  ARG553  GLY616  TRP617  ASP618  TYR619  PRO620  LYS621  CYS622 
 ASP623  PHE694  ASN695  SER759  ASP760  ASP761  ALA762  ILE779  LEU786  VAL792 
 PHE793  MET794  SER795  GLU796  ALA797  LYS798  CYS799  TRP800  GLU811  SER814 

> <Gold.Protein.RotatedAtoms>
  151.0117  134.9402  159.8010 H   0  0  0  0  0  0  0  0  0  0  0  0  # atno 6907 bound_to 6896
  152.5304  134.3019  159.9091 H   0  0  0  0  0  0  0  0  0  0  0  0  # atno 6908 bound_to 6896
  151.3025  133.4074  159.2675 H   0  0  0  0  0  0  0  0  0  0  0  0  # atno 6909 bound_to 6896
  144.7851  139.7466  143.6244 H   0  0  0  0  0  0  0  0  0  0  0  0  # atno 7974 bound_to 7965
  154.4231  140.1129  156.5640 H   0  0  0  0  0  0  0  0  0  0  0  0  # atno 8008 bound_to 7997
  155.6281  140.3495  155.4655 H   0  0  0  0  0  0  0  0  0  0  0  0  # atno 8009 bound_to 7997
  155.9970  140.1191  157.0574 H   0  0  0  0  0  0  0  0  0  0  0  0  # atno 8010 bound_to 7997
  139.5510  144.2109  152.1077 H   0  0  0  0  0  0  0  0  0  0  0  0  # atno 10167 bound_to 10162
  156.0767  130.5973  150.8643 H   0  0  0  0  0  0  0  0  0  0  0  0  # atno 10718 bound_to 10713
  153.8211  135.6874  153.4827 H   0  0  0  0  0  0  0  0  0  0  0  0  # atno 10763 bound_to 10752
  153.1569  135.4595  154.9715 H   0  0  0  0  0  0  0  0  0  0  0  0  # atno 10764 bound_to 10752
  154.7927  135.3307  154.7683 H   0  0  0  0  0  0  0  0  0  0  0  0  # atno 10765 bound_to 10752
  140.2885  134.7693  157.3818 H   0  0  0  0  0  0  0  0  0  0  0  0  # atno 11005 bound_to 11000
  146.2078  139.5414  142.9701 LP  0  0  0  0  0  0  0  0  0  0  0  0  # atno 17320 bound_to 7965
  145.5945  141.0365  143.2052 LP  0  0  0  0  0  0  0  0  0  0  0  0  # atno 17321 bound_to 7965
  140.1605  144.5030  150.6635 LP  0  0  0  0  0  0  0  0  0  0  0  0  # atno 17342 bound_to 10162
  140.6772  143.2310  151.5476 LP  0  0  0  0  0  0  0  0  0  0  0  0  # atno 17343 bound_to 10162
  157.5865  131.0945  150.9187 LP  0  0  0  0  0  0  0  0  0  0  0  0  # atno 17370 bound_to 10713
  156.9372  130.5371  149.5279 LP  0  0  0  0  0  0  0  0  0  0  0  0  # atno 17371 bound_to 10713
  140.1217  134.5210  155.8178 LP  0  0  0  0  0  0  0  0  0  0  0  0  # atno 17394 bound_to 11000
  141.2150  133.6759  156.6878 LP  0  0  0  0  0  0  0  0  0  0  0  0  # atno 17395 bound_to 11000

$$$$
