AV-unprocessed.smi:1601|AV-procd|sdf|6434|dock5
  -GOLD-   22720 7 73D 1   1.00000     0.00000
 Structure written by MMmdl.
 41 42  0  0  0  0  0  0  0  0  1 V2000
  151.9446  139.8432  156.6225 C   0  0  0  0  0  0  0  0  0  0  0  0
  151.1483  139.7306  157.9479 C   0  0  1  0  0  0  0  0  0  0  0  0
  150.9584  138.2265  158.2867 C   0  0  0  0  0  0  0  0  0  0  0  0
  149.6030  137.9315  158.7405 N   0  0  0  0  0  0  0  0  0  0  0  0
  149.0947  136.7033  158.9226 C   0  0  0  0  0  0  0  0  0  0  0  0
  149.7372  135.6705  158.7291 O   0  0  0  0  0  0  0  0  0  0  0  0
  147.6371  136.6401  159.4038 C   0  0  1  0  0  0  0  0  0  0  0  0
  146.7677  135.7101  158.5378 C   0  0  0  0  0  0  0  0  0  0  0  0
  147.5854  136.2512  160.8069 N   0  0  0  0  0  0  0  0  0  0  0  0
  147.3781  134.9989  161.3530 C   0  0  0  0  0  0  0  0  0  0  0  0
  147.4193  135.1326  162.7111 C   0  0  0  0  0  0  0  0  0  0  0  0
  147.6599  136.5210  162.9063 C   0  0  0  0  0  0  0  0  0  0  0  0
  147.7587  137.1867  161.7671 N   0  0  0  0  0  0  0  0  0  0  0  0
  151.7609  140.5088  159.0498 N   0  0  0  0  0  0  0  0  0  0  0  0
  151.8341  141.9458  158.7599 C   0  0  0  0  0  0  0  0  0  0  0  0
  152.4987  142.7505  159.8907 C   0  0  0  0  0  0  0  0  0  0  0  0
  153.7977  142.2358  160.1477 O   0  0  0  0  0  0  0  0  0  0  0  0
  153.7643  140.8628  160.5107 C   0  0  0  0  0  0  0  0  0  0  0  0
  153.1135  140.0460  159.3815 C   0  0  0  0  0  0  0  0  0  0  0  0
  151.5313  139.2195  155.8307 H   0  0  0  0  0  0  0  0  0  0  0  0
  152.9842  139.5452  156.7625 H   0  0  0  0  0  0  0  0  0  0  0  0
  151.9347  140.8548  156.2195 H   0  0  0  0  0  0  0  0  0  0  0  0
  150.1552  140.1418  157.7594 H   0  0  0  0  0  0  0  0  0  0  0  0
  151.2208  137.6207  157.4176 H   0  0  0  0  0  0  0  0  0  0  0  0
  151.6065  137.9091  159.1015 H   0  0  0  0  0  0  0  0  0  0  0  0
  149.0048  138.7228  158.9296 H   0  0  0  0  0  0  0  0  0  0  0  0
  147.2202  137.6456  159.3150 H   0  0  0  0  0  0  0  0  0  0  0  0
  146.7949  136.0086  157.4891 H   0  0  0  0  0  0  0  0  0  0  0  0
  145.7266  135.7428  158.8599 H   0  0  0  0  0  0  0  0  0  0  0  0
  147.0975  134.6723  158.5972 H   0  0  0  0  0  0  0  0  0  0  0  0
  147.2220  134.1269  160.7347 H   0  0  0  0  0  0  0  0  0  0  0  0
  147.2965  134.3566  163.4518 H   0  0  0  0  0  0  0  0  0  0  0  0
  147.7659  137.0608  163.8358 H   0  0  0  0  0  0  0  0  0  0  0  0
  152.3812  142.1088  157.8299 H   0  0  0  0  0  0  0  0  0  0  0  0
  150.8391  142.3633  158.6204 H   0  0  0  0  0  0  0  0  0  0  0  0
  152.5819  143.8003  159.6097 H   0  0  0  0  0  0  0  0  0  0  0  0
  151.8962  142.7093  160.7994 H   0  0  0  0  0  0  0  0  0  0  0  0
  154.7826  140.5170  160.6899 H   0  0  0  0  0  0  0  0  0  0  0  0
  153.2146  140.7373  161.4449 H   0  0  0  0  0  0  0  0  0  0  0  0
  153.0947  139.0085  159.7102 H   0  0  0  0  0  0  0  0  0  0  0  0
  153.7469  140.0866  158.4940 H   0  0  0  0  0  0  0  0  0  0  0  0
  1  2  1  0  0  0  0
  1 20  1  0  0  0  0
  1 21  1  0  0  0  0
  1 22  1  0  0  0  0
  2  3  1  0  0  0  0
  2 14  1  0  0  0  0
  2 23  1  0  0  0  0
  3  4  1  0  0  0  0
  3 24  1  0  0  0  0
  3 25  1  0  0  0  0
  4  5  1  0  0  0  0
  4 26  1  0  0  0  0
  5  6  2  0  0  0  0
  5  7  1  0  0  0  0
  7  8  1  0  0  0  0
  7  9  1  0  0  0  0
  7 27  1  0  0  0  0
  8 28  1  0  0  0  0
  8 29  1  0  0  0  0
  8 30  1  0  0  0  0
  9 13  1  0  0  0  0
  9 10  1  0  0  0  0
 10 11  2  0  0  0  0
 10 31  1  0  0  0  0
 11 12  1  0  0  0  0
 11 32  1  0  0  0  0
 12 13  2  0  0  0  0
 12 33  1  0  0  0  0
 14 19  1  0  0  0  0
 14 15  1  0  0  0  0
 15 16  1  0  0  0  0
 15 34  1  0  0  0  0
 15 35  1  0  0  0  0
 16 17  1  0  0  0  0
 16 36  1  0  0  0  0
 16 37  1  0  0  0  0
 17 18  1  0  0  0  0
 18 19  1  0  0  0  0
 18 38  1  0  0  0  0
 18 39  1  0  0  0  0
 19 40  1  0  0  0  0
 19 41  1  0  0  0  0
M  END
> <s_m_source_file>
AV-unprocessed.smi

> <i_m_source_file_index>
1601

> <i_lp_mmshare_version>
43012

> <i_f3d_flags>
0

> <s_epik_input>
W0NIMl0xW0NIMl1PW0NIMl1bQ0gyXU4xW0NASF0oW0NIM10pW0NIMl1bTkhdQyg9TylbQ0BIXShbQ0gzXSluMltjSF1bY0hdW2NIXW4y

> <s_epik_cmdline>
J2VwaWtfcHl0aG9uJywgJy1waCcsICc3LjAnLCAnLXRuJywgJzgnLCAnLW1hJywgJzIwMCcsICctbWV0YWxfYmluZGluZycsICctaW1hZScsICc8aW5maWxlLm1hZT4nLCAnLW9tYWUnLCAnPG91dGZpbGUubWFlPic=

> <r_lp_tautomer_probability>
1

> <r_epik_Ionization_Penalty>
0.203323

> <r_epik_Ionization_Penalty_Charging>
0

> <r_epik_Ionization_Penalty_Neutral>
0.203323

> <r_epik_State_Penalty>
0.193192

> <r_epik_Charging_Adjusted_Penalty>
0.193192

> <i_epik_Tot_Q>
0

> <i_epik_Tot_abs_Q>
0

> <r_epik_Metal_State_Penalty>
0.193187

> <b_epik_Metal_Only>
0

> <s_lp_Force_Field>
OPLS_2005

> <r_lp_Energy>
33.1122

> <b_lp_Chiralities_Consistent>
1

> <s_lp_Variant>
AV-unprocessed.smi:1601-4

> <Gold.Version>
5.8.1

> <Gold.Id.Protein>
6NUR|6NUR_protein|mol2

> <Gold.PLP.Fitness>
42.4520

> <Gold.PLP.PLP>
-37.7051

> <Gold.PLP.part.hbond>
-3.0000

> <Gold.PLP.part.metal>
0.0000

> <Gold.PLP.part.buried>
-5.3175

> <Gold.PLP.part.nonpolar>
-29.2503

> <Gold.PLP.part.repulsive>
0.2061

> <Gold.PLP.ligand.clash>
0.0000

> <Gold.PLP.ligand.torsion>
1.5546

> <Gold.PLP.Chemscore.Hbond>
2.5863

> <Gold.PLP.Chemscore.CHOScore>
0.0000

> <Gold.PLP.Chemscore.Metal>
0.0000

> <Gold.Chemscore.Hbonds>
donor molecule, donor type, donor heavy atom, donor atom, acceptor molecule, acceptor atom, score
      P1  H  6896  6909       L1     6  1.00
      P1  H  6931  6943       L1    13  1.00
      P1  H  6934  6947       L1    13  0.58

> <Gold.PLP.Chemscore.Internal.Correction>
0.0971

> <Gold.Rescore>
     Score         DG    S(hbond)    S(metal)    S(lipo)     H(rot)  DE(clash)    DE(int)     intcor
     16.31     -17.87       2.25        0.00      80.71       1.79       0.01       1.55       ----

> <Gold.Chemscore.Fitness>
16.3079

> <Gold.Chemscore.DG>
-17.8674

> <Gold.Chemscore.ZeroCoef>
-5.4800

> <Gold.Chemscore.Hbond>
2.2513

> <Gold.Chemscore.Metal>
0.0000

> <Gold.Chemscore.Lipo>
80.7116

> <Gold.Chemscore.Internal_Hbond>
0.0000

> <Gold.Chemscore.DEClash>
0.0081

> <Gold.Chemscore.DEInternal>
1.5514

> <Gold.Chemscore.Rot>
1.7872

> <Gold.Chemscore.Internal.Correction>
   9.000000E+99

> <Gold.Chemscore.Hbonds>
donor molecule, donor type, donor heavy atom, donor atom, acceptor molecule, acceptor atom, score
      P1  H  6896  6909       L1     6  0.95
      P1  H  6931  6943       L1    13  0.58
      P1  H  6934  6947       L1    13  0.36

> <Gold.Chemscore.Hbond.Weighted>
-7.5193

> <Gold.Chemscore.Metal.Weighted>
-0.0000

> <Gold.Chemscore.Lipo.Weighted>
-9.4433

> <Gold.Chemscore.Internal_Hbond.Weighted>
0.0000

> <Gold.Chemscore.DEClash.Weighted>
0.0081

> <Gold.Chemscore.DEInternal.Weighted>
1.5514

> <Gold.Chemscore.Rot.Weighted>
4.5752

> <Gold.Chemscore.Internal.Correction.Weighted>
   9.000000E+99

> <Gold.Protein.RotatedTorsions>
[ 6907 6896 6895 6894 ] final   40.77 input  -60.11 | X-H torsion
[ 7974 7965 7964 7962 ] final -101.74 input  175.53 | X-H torsion
[ 8008 7997 7996 7995 ] final  -33.72 input   59.86 | X-H torsion
[ 10167 10162 10161 10158 ] final  -95.44 input  -65.29 | X-H torsion
[ 10718 10713 10712 10709 ] final -142.25 input   66.30 | X-H torsion
[ 10763 10752 10751 10750 ] final   66.69 input  -60.55 | X-H torsion
[ 11005 11000 10999 10996 ] final   76.03 input  -57.11 | X-H torsion

> <Gold.Protein.ActiveResidues>
 VAL166  LYS551  ARG553  GLY616  TRP617  ASP618  TYR619  PRO620  LYS621  CYS622 
 ASP623  PHE694  ASN695  SER759  ASP760  ASP761  ALA762  ILE779  LEU786  VAL792 
 PHE793  MET794  SER795  GLU796  ALA797  LYS798  CYS799  TRP800  GLU811  SER814 

> <Gold.Protein.RotatedAtoms>
  152.1868  134.8706  160.0521 H   0  0  0  0  0  0  0  0  0  0  0  0  # atno 6907 bound_to 6896
  151.9610  133.3690  159.4043 H   0  0  0  0  0  0  0  0  0  0  0  0  # atno 6908 bound_to 6896
  150.6927  134.4164  159.5229 H   0  0  0  0  0  0  0  0  0  0  0  0  # atno 6909 bound_to 6896
  145.2777  140.9317  143.2950 H   0  0  0  0  0  0  0  0  0  0  0  0  # atno 7974 bound_to 7965
  154.4141  140.1703  156.1933 H   0  0  0  0  0  0  0  0  0  0  0  0  # atno 8008 bound_to 7997
  155.9585  140.3395  155.6446 H   0  0  0  0  0  0  0  0  0  0  0  0  # atno 8009 bound_to 7997
  155.6779  140.0719  157.2486 H   0  0  0  0  0  0  0  0  0  0  0  0  # atno 8010 bound_to 7997
  140.3041  143.3144  152.0218 H   0  0  0  0  0  0  0  0  0  0  0  0  # atno 10167 bound_to 10162
  156.3436  130.7651  151.1791 H   0  0  0  0  0  0  0  0  0  0  0  0  # atno 10718 bound_to 10713
  153.0151  135.5311  154.6863 H   0  0  0  0  0  0  0  0  0  0  0  0  # atno 10763 bound_to 10752
  154.6010  135.2868  155.0538 H   0  0  0  0  0  0  0  0  0  0  0  0  # atno 10764 bound_to 10752
  154.1595  135.6550  153.5035 H   0  0  0  0  0  0  0  0  0  0  0  0  # atno 10765 bound_to 10752
  139.9316  134.7567  156.1345 H   0  0  0  0  0  0  0  0  0  0  0  0  # atno 11005 bound_to 11000
  144.9280  139.4332  143.6509 LP  0  0  0  0  0  0  0  0  0  0  0  0  # atno 17320 bound_to 7965
  146.3226  139.8176  142.8933 LP  0  0  0  0  0  0  0  0  0  0  0  0  # atno 17321 bound_to 7965
  139.4908  144.6434  151.6829 LP  0  0  0  0  0  0  0  0  0  0  0  0  # atno 17342 bound_to 10162
  140.5626  144.0244  150.6177 LP  0  0  0  0  0  0  0  0  0  0  0  0  # atno 17343 bound_to 10162
  157.7451  131.0447  150.4808 LP  0  0  0  0  0  0  0  0  0  0  0  0  # atno 17370 bound_to 10713
  156.4992  130.4113  149.6362 LP  0  0  0  0  0  0  0  0  0  0  0  0  # atno 17371 bound_to 10713
  141.0908  133.6715  156.2537 LP  0  0  0  0  0  0  0  0  0  0  0  0  # atno 17394 bound_to 11000
  140.6186  134.5385  157.5544 LP  0  0  0  0  0  0  0  0  0  0  0  0  # atno 17395 bound_to 11000

$$$$
