AV-unprocessed.smi:290|AV-procd|sdf|2236|dock9
  -GOLD-   2262022103D 1   1.00000     0.00000
 Structure written by MMmdl.
 59 62  0  0  0  0  0  0  0  0  2 V2000
  150.7371  138.0072  157.9626 C   0  0  0  0  0  0  0  0  0  0  0  0
  150.3342  139.2829  157.2073 C   0  0  1  0  0  0  0  0  0  0  0  0
  150.3704  140.4243  158.0624 O   0  0  0  0  0  0  0  0  0  0  0  0
  150.9970  141.5197  157.4052 C   0  0  0  0  0  0  0  0  0  0  0  0
  151.0063  141.1529  155.9247 C   0  0  0  0  0  0  0  0  0  0  0  0
  151.1726  139.6398  155.9591 C   0  0  1  0  0  0  0  0  0  0  0  0
  152.5410  139.3424  156.1824 O   0  0  0  0  0  0  0  0  0  0  0  0
  150.7825  138.9030  154.6511 C   0  0  0  0  0  0  0  0  0  0  0  0
  149.6010  138.0598  154.7487 N   0  0  0  0  0  0  0  0  0  0  0  0
  149.4971  136.8557  155.4087 C   0  0  0  0  0  0  0  0  0  0  0  0
  148.3229  136.2890  155.3529 N   0  0  0  0  0  0  0  0  0  0  0  0
  147.5541  137.1766  154.6101 C   0  0  0  0  0  0  0  0  0  0  0  0
  146.2015  137.1943  154.1676 C   0  0  0  0  0  0  0  0  0  0  0  0
  145.2931  136.2273  154.4186 N   0  0  0  0  0  0  0  0  0  0  0  0
  143.9179  136.5256  154.0309 C   0  0  0  0  0  0  0  0  0  0  0  0
  143.3402  135.2233  153.4741 C   0  0  0  0  0  0  0  0  0  0  0  0
  144.5806  134.5176  152.9164 C   0  0  2  0  0  0  0  0  0  0  0  0
  144.4313  133.0573  152.6425 N   0  3  1  0  0  0  0  0  0  0  0  0
  143.6385  132.7817  151.4169 C   0  0  0  0  0  0  0  0  0  0  0  0
  145.7415  132.3489  152.6307 C   0  0  0  0  0  0  0  0  0  0  0  0
  146.7442  132.9380  151.6205 C   0  0  0  0  0  0  0  0  0  0  0  0
  146.5069  132.4162  150.3306 O   0  0  0  0  0  0  0  0  0  0  0  0
  145.6514  134.8843  153.9701 C   0  0  2  0  0  0  0  0  0  0  0  0
  145.7021  133.9400  155.1860 C   0  0  0  0  0  0  0  0  0  0  0  0
  145.7793  138.2629  153.4498 N   0  0  0  0  0  0  0  0  0  0  0  0
  146.6275  139.2580  153.1726 C   0  0  0  0  0  0  0  0  0  0  0  0
  147.9130  139.3780  153.5115 N   0  0  0  0  0  0  0  0  0  0  0  0
  148.3392  138.3023  154.2342 C   0  0  0  0  0  0  0  0  0  0  0  0
  144.8351  135.0027  151.9730 H   0  0  0  0  0  0  0  0  0  0  0  0
  146.6377  134.8912  153.5027 H   0  0  0  0  0  0  0  0  0  0  0  0
  150.7110  137.1382  157.3051 H   0  0  0  0  0  0  0  0  0  0  0  0
  150.0531  137.8170  158.7898 H   0  0  0  0  0  0  0  0  0  0  0  0
  151.7410  138.0855  158.3805 H   0  0  0  0  0  0  0  0  0  0  0  0
  149.2870  139.1921  156.9231 H   0  0  0  0  0  0  0  0  0  0  0  0
  150.4729  142.4552  157.6017 H   0  0  0  0  0  0  0  0  0  0  0  0
  152.0159  141.6176  157.7814 H   0  0  0  0  0  0  0  0  0  0  0  0
  150.0440  141.4305  155.4960 H   0  0  0  0  0  0  0  0  0  0  0  0
  151.7845  141.6679  155.3604 H   0  0  0  0  0  0  0  0  0  0  0  0
  152.5971  138.5876  156.7478 H   0  0  0  0  0  0  0  0  0  0  0  0
  150.6106  139.6278  153.8539 H   0  0  0  0  0  0  0  0  0  0  0  0
  151.6124  138.2790  154.3162 H   0  0  0  0  0  0  0  0  0  0  0  0
  150.3286  136.4046  155.9305 H   0  0  0  0  0  0  0  0  0  0  0  0
  143.3445  136.8776  154.8887 H   0  0  0  0  0  0  0  0  0  0  0  0
  143.8852  137.3077  153.2709 H   0  0  0  0  0  0  0  0  0  0  0  0
  142.8966  134.6392  154.2816 H   0  0  0  0  0  0  0  0  0  0  0  0
  142.5710  135.4056  152.7229 H   0  0  0  0  0  0  0  0  0  0  0  0
  144.1049  133.2359  150.5418 H   0  0  0  0  0  0  0  0  0  0  0  0
  142.6238  133.1695  151.5036 H   0  0  0  0  0  0  0  0  0  0  0  0
  143.5378  131.7145  151.2281 H   0  0  0  0  0  0  0  0  0  0  0  0
  146.1676  132.3674  153.6348 H   0  0  0  0  0  0  0  0  0  0  0  0
  145.6030  131.2960  152.3858 H   0  0  0  0  0  0  0  0  0  0  0  0
  146.7168  134.0261  151.5874 H   0  0  0  0  0  0  0  0  0  0  0  0
  147.7583  132.6646  151.9131 H   0  0  0  0  0  0  0  0  0  0  0  0
  147.2255  131.8473  150.0975 H   0  0  0  0  0  0  0  0  0  0  0  0
  146.0173  132.9368  154.9045 H   0  0  0  0  0  0  0  0  0  0  0  0
  144.7335  133.8610  155.6798 H   0  0  0  0  0  0  0  0  0  0  0  0
  146.4176  134.3029  155.9247 H   0  0  0  0  0  0  0  0  0  0  0  0
  146.2187  140.0744  152.5955 H   0  0  0  0  0  0  0  0  0  0  0  0
  143.9086  132.6777  153.4192 H   0  0  0  0  0  0  0  0  0  0  0  0
  1  2  1  0  0  0  0
  1 31  1  0  0  0  0
  1 32  1  0  0  0  0
  1 33  1  0  0  0  0
  2  6  1  0  0  0  0
  2  3  1  0  0  0  0
  2 34  1  0  0  0  0
  3  4  1  0  0  0  0
  4  5  1  0  0  0  0
  4 35  1  0  0  0  0
  4 36  1  0  0  0  0
  5  6  1  0  0  0  0
  5 37  1  0  0  0  0
  5 38  1  0  0  0  0
  6  7  1  0  0  0  0
  6  8  1  0  0  0  0
  7 39  1  0  0  0  0
  8  9  1  0  0  0  0
  8 40  1  0  0  0  0
  8 41  1  0  0  0  0
  9 28  1  0  0  0  0
  9 10  1  0  0  0  0
 10 11  2  0  0  0  0
 10 42  1  0  0  0  0
 11 12  1  0  0  0  0
 12 28  2  0  0  0  0
 12 13  1  0  0  0  0
 13 14  1  0  0  0  0
 13 25  2  0  0  0  0
 14 23  1  0  0  0  0
 14 15  1  0  0  0  0
 15 16  1  0  0  0  0
 15 43  1  0  0  0  0
 15 44  1  0  0  0  0
 16 17  1  0  0  0  0
 16 45  1  0  0  0  0
 16 46  1  0  0  0  0
 17 29  1  0  0  0  0
 17 18  1  0  0  0  0
 17 23  1  0  0  0  0
 18 19  1  0  0  0  0
 18 20  1  0  0  0  0
 18 59  1  0  0  0  0
 19 47  1  0  0  0  0
 19 48  1  0  0  0  0
 19 49  1  0  0  0  0
 20 21  1  0  0  0  0
 20 50  1  0  0  0  0
 20 51  1  0  0  0  0
 21 22  1  0  0  0  0
 21 52  1  0  0  0  0
 21 53  1  0  0  0  0
 22 54  1  0  0  0  0
 23 30  1  0  0  0  0
 23 24  1  0  0  0  0
 24 55  1  0  0  0  0
 24 56  1  0  0  0  0
 24 57  1  0  0  0  0
 25 26  1  0  0  0  0
 26 27  2  0  0  0  0
 26 58  1  0  0  0  0
 27 28  1  0  0  0  0
M  CHG  1  18   1
M  END
> <s_m_source_file>
AV-unprocessed.smi

> <i_m_source_file_index>
290

> <i_lp_mmshare_version>
43012

> <i_f3d_flags>
0

> <s_epik_input>
W0NIMl0xW0NIMl1PW0NAQEhdKFtDSDNdKVtDQEBdMShbT0hdKVtDSDJdbihbY0hdbjIpYyhjMjMpbltjSF1uYzNONFtDSDJdW0NIMl1bQ0BIXShbQ0BIXTRbQ0gzXSlOKFtDSDNdKVtDSDJdW0NIMl1bT0hd

> <s_epik_cmdline>
J2VwaWtfcHl0aG9uJywgJy1waCcsICc3LjAnLCAnLXRuJywgJzgnLCAnLW1hJywgJzIwMCcsICctbWV0YWxfYmluZGluZycsICctaW1hZScsICc8aW5maWxlLm1hZT4nLCAnLW9tYWUnLCAnPG91dGZpbGUubWFlPic=

> <r_lp_tautomer_probability>
1

> <r_epik_Ionization_Penalty>
0.0036983

> <r_epik_Ionization_Penalty_Charging>
0.0032725

> <r_epik_Ionization_Penalty_Neutral>
0.000425798

> <r_epik_State_Penalty>
-0

> <r_epik_Charging_Adjusted_Penalty>
0.0032725

> <i_epik_Tot_Q>
1

> <i_epik_Tot_abs_Q>
1

> <r_epik_Metal_State_Penalty>
-0

> <b_epik_Metal_Only>
0

> <s_lp_Force_Field>
OPLS_2005

> <r_lp_Energy>
67.6637

> <b_lp_Chiralities_Consistent>
1

> <s_lp_Variant>
AV-unprocessed.smi:290-22

> <Gold.Version>
5.8.1

> <Gold.Id.Protein>
6NUR|6NUR_protein|mol2

> <Gold.PLP.Fitness>
41.6145

> <Gold.PLP.PLP>
-30.4386

> <Gold.PLP.part.hbond>
-2.9811

> <Gold.PLP.part.metal>
0.0000

> <Gold.PLP.part.buried>
-6.6449

> <Gold.PLP.part.nonpolar>
-23.5567

> <Gold.PLP.part.repulsive>
1.4376

> <Gold.PLP.ligand.clash>
0.0000

> <Gold.PLP.ligand.torsion>
1.7750

> <Gold.PLP.Chemscore.Hbond>
3.9825

> <Gold.PLP.Chemscore.CHOScore>
0.8337

> <Gold.PLP.Chemscore.Metal>
0.0000

> <Gold.Chemscore.Hbonds>
donor molecule, donor type, donor heavy atom, donor atom, acceptor molecule, acceptor atom, score
      L1  H    18    59       P1 10957  1.92
      L1  H    22    54       P1 10747  1.00
      P1  H  7997  8009       L1     7  1.00
      L1  C    26    58       P1 10175  0.77

> <Gold.PLP.Chemscore.Internal.Correction>
0.2775

> <Gold.Rescore>
     Score         DG    S(hbond)    S(metal)    S(lipo)     H(rot)  DE(clash)    DE(int)     intcor
      8.81     -12.28       2.78        0.00      58.91       3.67       0.04       3.42       ----

> <Gold.Chemscore.Fitness>
8.8098

> <Gold.Chemscore.DG>
-12.2751

> <Gold.Chemscore.ZeroCoef>
-5.4800

> <Gold.Chemscore.Hbond>
2.7805

> <Gold.Chemscore.Metal>
0.0000

> <Gold.Chemscore.Lipo>
58.9123

> <Gold.Chemscore.Internal_Hbond>
0.0000

> <Gold.Chemscore.DEClash>
0.0402

> <Gold.Chemscore.DEInternal>
3.4250

> <Gold.Chemscore.Rot>
3.6658

> <Gold.Chemscore.Internal.Correction>
   9.000000E+99

> <Gold.Chemscore.Hbonds>
donor molecule, donor type, donor heavy atom, donor atom, acceptor molecule, acceptor atom, score
      L1  H    18    59       P1 10957  0.41
      L1  H    22    54       P1 10747  0.95
      P1  H  7997  8009       L1     7  0.30

> <Gold.Chemscore.Hbond.Weighted>
-9.2868

> <Gold.Chemscore.Metal.Weighted>
-0.0000

> <Gold.Chemscore.Lipo.Weighted>
-6.8927

> <Gold.Chemscore.Internal_Hbond.Weighted>
0.0000

> <Gold.Chemscore.DEClash.Weighted>
0.0402

> <Gold.Chemscore.DEInternal.Weighted>
3.4250

> <Gold.Chemscore.Rot.Weighted>
9.3844

> <Gold.Chemscore.Internal.Correction.Weighted>
   9.000000E+99

> <Gold.Protein.RotatedTorsions>
[ 6907 6896 6895 6894 ] final -175.93 input  -60.11 | X-H torsion
[ 7974 7965 7964 7962 ] final  133.71 input  175.53 | X-H torsion
[ 8008 7997 7996 7995 ] final -165.26 input   59.86 | X-H torsion
[ 10167 10162 10161 10158 ] final  115.24 input  -65.29 | X-H torsion
[ 10718 10713 10712 10709 ] final  134.01 input   66.30 | X-H torsion
[ 10763 10752 10751 10750 ] final -146.18 input  -60.55 | X-H torsion
[ 11005 11000 10999 10996 ] final   15.65 input  -57.11 | X-H torsion

> <Gold.Protein.ActiveResidues>
 VAL166  LYS551  ARG553  GLY616  TRP617  ASP618  TYR619  PRO620  LYS621  CYS622 
 ASP623  PHE694  ASN695  SER759  ASP760  ASP761  ALA762  ILE779  LEU786  VAL792 
 PHE793  MET794  SER795  GLU796  ALA797  LYS798  CYS799  TRP800  GLU811  SER814 

> <Gold.Protein.RotatedAtoms>
  151.5965  133.3361  159.3038 H   0  0  0  0  0  0  0  0  0  0  0  0  # atno 6907 bound_to 6896
  150.8231  134.7452  159.6801 H   0  0  0  0  0  0  0  0  0  0  0  0  # atno 6908 bound_to 6896
  152.4323  134.5759  159.9986 H   0  0  0  0  0  0  0  0  0  0  0  0  # atno 6909 bound_to 6896
  144.9837  139.4477  143.5373 H   0  0  0  0  0  0  0  0  0  0  0  0  # atno 7974 bound_to 7965
  155.8473  140.0957  157.1697 H   0  0  0  0  0  0  0  0  0  0  0  0  # atno 8008 bound_to 7997
  154.3984  140.1390  156.3862 H   0  0  0  0  0  0  0  0  0  0  0  0  # atno 8009 bound_to 7997
  155.8000  140.3453  155.5400 H   0  0  0  0  0  0  0  0  0  0  0  0  # atno 8010 bound_to 7997
  139.6331  144.7117  151.2390 H   0  0  0  0  0  0  0  0  0  0  0  0  # atno 10167 bound_to 10162
  157.4716  131.1080  150.9796 H   0  0  0  0  0  0  0  0  0  0  0  0  # atno 10718 bound_to 10713
  154.8348  135.3393  154.6621 H   0  0  0  0  0  0  0  0  0  0  0  0  # atno 10763 bound_to 10752
  153.7237  135.6956  153.5011 H   0  0  0  0  0  0  0  0  0  0  0  0  # atno 10764 bound_to 10752
  153.2363  135.4399  155.0602 H   0  0  0  0  0  0  0  0  0  0  0  0  # atno 10765 bound_to 10752
  140.4559  134.1177  155.7709 H   0  0  0  0  0  0  0  0  0  0  0  0  # atno 11005 bound_to 11000
  146.3414  139.9126  142.8778 LP  0  0  0  0  0  0  0  0  0  0  0  0  # atno 17320 bound_to 7965
  145.2384  141.0000  143.3950 LP  0  0  0  0  0  0  0  0  0  0  0  0  # atno 17321 bound_to 7965
  140.7450  143.6444  150.8305 LP  0  0  0  0  0  0  0  0  0  0  0  0  # atno 17342 bound_to 10162
  140.0071  143.5681  152.2853 LP  0  0  0  0  0  0  0  0  0  0  0  0  # atno 17343 bound_to 10162
  157.0559  130.5806  149.5378 LP  0  0  0  0  0  0  0  0  0  0  0  0  # atno 17370 bound_to 10713
  156.0076  130.5164  150.7882 LP  0  0  0  0  0  0  0  0  0  0  0  0  # atno 17371 bound_to 10713
  141.1643  133.8732  157.1759 LP  0  0  0  0  0  0  0  0  0  0  0  0  # atno 17394 bound_to 11000
  139.9977  135.0040  157.0119 LP  0  0  0  0  0  0  0  0  0  0  0  0  # atno 17395 bound_to 11000

$$$$
