#       Name:                AV-unprocessed.smi:1417
#       Creating user name   scv26
#       Creation time:       Fri Mar 27 05:41:20 2020


#       File generated by GOLD software.
#

@<TRIPOS>MOLECULE
AV-unprocessed.smi:1417
    47    48     1
SMALL
NO_CHARGES


@<TRIPOS>ATOM
      1 ****        -5.5105   4.6297   2.0346 C.3            1 S1                 0.0000
      2 ****        -4.5934   3.6182   1.4368 C.2            1 S1                 0.0000
      3 ****        -3.7867   2.6601   1.9821 C.2            1 S1                 0.0000
      4 ****        -3.1864   2.0551   0.8444 C.2            1 S1                 0.0000
      5 ****        -2.3109   1.0382   0.8616 N.pl3          1 S1                -1.0000
      6 ****        -0.9881   1.2813   1.0046 C.2            1 S1                 0.0000
      7 ****        -0.4550   2.3857   1.1326 O.2            1 S1                 0.0000
      8 ****        -0.2360   0.1716   0.9945 N.am           1 S1                 0.0000
      9 ****         1.2198   0.1105   1.1195 C.3            1 S1                 0.0000
     10 ****         1.9213   0.4738  -0.2043 C.3            1 S1                 0.0000
     11 ****         1.7149  -0.6087  -1.2782 C.3            1 S1                 0.0000
     12 ****         2.1713  -1.9380  -0.7914 N.4            1 S1                 1.0000
     13 ****         2.1241  -2.9903  -1.8391 C.3            1 S1                 0.0000
     14 ****         3.2994  -2.9128  -2.8194 C.2            1 S1                 0.0000
     15 ****         3.1450  -3.5282  -3.9942 N.am           1 S1                 0.0000
     16 ****         4.3369  -2.3249  -2.5191 O.2            1 S1                 0.0000
     17 ****         1.4608  -2.3394   0.4495 C.3            1 S1                 0.0000
     18 ****         1.6555  -1.2959   1.5652 C.3            1 S1                 0.0000
     19 ****        -3.6048   2.5872  -0.2918 N.2            1 S1                 0.0000
     20 ****        -4.5033   3.5944   0.0796 O.3            1 S1                 0.0000
     21 ****        -6.4227   4.1558   2.3968 H              1 S1                 0.0000
     22 ****        -5.7907   5.3876   1.3027 H              1 S1                 0.0000
     23 ****        -5.0335   5.1337   2.8751 H              1 S1                 0.0000
     24 ****        -3.6452   2.4301   3.0277 H              1 S1                 0.0000
     25 ****        -0.7229  -0.7069   0.8962 H              1 S1                 0.0000
     26 ****         1.5242   0.8209   1.8901 H              1 S1                 0.0000
     27 ****         1.5707   1.4381  -0.5738 H              1 S1                 0.0000
     28 ****         2.9899   0.5936  -0.0211 H              1 S1                 0.0000
     29 ****         0.6627  -0.6628  -1.5626 H              1 S1                 0.0000
     30 ****         2.2670  -0.3286  -2.1757 H              1 S1                 0.0000
     31 ****         2.1741  -3.9755  -1.3734 H              1 S1                 0.0000
     32 ****         1.1735  -2.9451  -2.3733 H              1 S1                 0.0000
     33 ****         3.8861  -3.5065  -4.6799 H              1 S1                 0.0000
     34 ****         2.2821  -4.0131  -4.1963 H              1 S1                 0.0000
     35 ****         0.3997  -2.4764   0.2350 H              1 S1                 0.0000
     36 ****         1.8396  -3.3018   0.7955 H              1 S1                 0.0000
     37 ****         2.7083  -1.2711   1.8502 H              1 S1                 0.0000
     38 ****         1.1072  -1.5956   2.4592 H              1 S1                 0.0000
     39 ****         3.1447  -1.8392  -0.5396 H              1 S1                 0.0000
     40 ****        -2.6375   0.0976   0.7684 LP             1 S1                 0.0000
     41 ****        -1.0154   3.2139   1.1371 LP             1 S1                 0.0000
     42 ****         0.5378   2.4532   1.2319 LP             1 S1                 0.0000
     43 ****         4.4229  -1.8882  -1.6236 LP             1 S1                 0.0000
     44 ****         5.0946  -2.2836  -3.1704 LP             1 S1                 0.0000
     45 ****        -3.3364   2.3257  -1.2190 LP             1 S1                 0.0000
     46 ****        -4.1736   4.4785  -0.2515 LP             1 S1                 0.0000
     47 ****        -5.4028   3.4052  -0.3143 LP             1 S1                 0.0000
@<TRIPOS>BOND
    1    1    2 1     
    2    1   21 1     
    3    1   22 1     
    4    1   23 1     
    5    2   20 1     
    6    2    3 2     
    7    3    4 1     
    8    3   24 1     
    9    4    5 1     
   10    4   19 2     
   11    5    6 1     
   12    6    7 2     
   13    6    8 am    
   14    8    9 1     
   15    8   25 1     
   16    9   18 1     
   17    9   10 1     
   18    9   26 1     
   19   10   11 1     
   20   10   27 1     
   21   10   28 1     
   22   11   12 1     
   23   11   29 1     
   24   11   30 1     
   25   12   13 1     
   26   12   17 1     
   27   12   39 1     
   28   13   14 1     
   29   13   31 1     
   30   13   32 1     
   31   14   15 am    
   32   14   16 2     
   33   15   33 1     
   34   15   34 1     
   35   17   18 1     
   36   17   35 1     
   37   17   36 1     
   38   18   37 1     
   39   18   38 1     
   40   19   20 1     
   41    5   40 1     
   42    7   41 1     
   43    7   42 1     
   44   16   43 1     
   45   16   44 1     
   46   19   45 1     
   47   20   46 1     
   48   20   47 1     
@<TRIPOS>SUBSTRUCTURE
      1 S1             1
@<TRIPOS>SET
LONE_PAIRS      STATIC     ATOMS    <user>   **** ""
8 40 41 42 43 44 45 46 47
DONOR_HYDROGENS      STATIC     ATOMS    <user>   **** ""
4 25 39 33 34
ATOM$BLUE        STATIC     ATOMS    COLORGROUP SYSTEM
8 40 41 42 43 44 45 46 47
ATOM$RED        STATIC     ATOMS    COLORGROUP SYSTEM
4 25 39 33 34
