AV-unprocessed.smi:99|AV-procd|sdf|870|dock4
  -GOLD-   2262017333D 1   1.00000     0.00000
 Structure written by MMmdl.
 53 56  0  0  0  0  0  0  0  0  1 V2000
  148.9889  135.9725  159.0225 O   0  0  0  0  0  0  0  0  0  0  0  0
  148.1364  136.7711  159.4164 C   0  0  0  0  0  0  0  0  0  0  0  0
  148.0899  138.0615  159.0320 O   0  0  0  0  0  0  0  0  0  0  0  0
  149.1650  138.6192  158.2950 C   0  0  0  0  0  0  0  0  0  0  0  0
  148.8252  138.5888  156.7988 C   0  0  1  0  0  0  0  0  0  0  0  0
  147.6028  139.2613  156.5376 O   0  0  0  0  0  0  0  0  0  0  0  0
  147.5555  139.5822  155.1835 C   0  0  1  0  0  0  0  0  0  0  0  0
  146.8424  140.9096  155.0564 N   0  0  0  0  0  0  0  0  0  0  0  0
  146.3145  141.5302  156.1802 C   0  0  0  0  0  0  0  0  0  0  0  0
  145.6340  142.6992  156.1321 C   0  0  0  0  0  0  0  0  0  0  0  0
  145.4115  143.3723  154.8573 C   0  0  0  0  0  0  0  0  0  0  0  0
  144.8127  144.4357  154.7117 O   0  0  0  0  0  0  0  0  0  0  0  0
  145.9421  142.7049  153.7496 N   0  0  0  0  0  0  0  0  0  0  0  0
  146.6416  141.4971  153.7866 C   0  0  0  0  0  0  0  0  0  0  0  0
  147.0573  141.0022  152.7400 O   0  0  0  0  0  0  0  0  0  0  0  0
  149.0021  139.6603  154.6599 C   0  0  2  0  0  0  0  0  0  0  0  0
  149.2541  138.7219  153.6335 O   0  0  0  0  0  0  0  0  0  0  0  0
  149.8336  139.3038  155.8915 C   0  0  1  0  0  0  0  0  0  0  0  0
  150.3227  140.4805  156.5259 O   0  0  0  0  0  0  0  0  0  0  0  0
  151.4427  140.4558  157.2772 C   0  0  0  0  0  0  0  0  0  0  0  0
  152.1890  139.4789  157.3606 O   0  0  0  0  0  0  0  0  0  0  0  0
  151.6857  141.7442  157.9869 C   0  0  0  0  0  0  0  0  0  0  0  0
  151.2070  142.9487  157.4210 C   0  0  0  0  0  0  0  0  0  0  0  0
  151.4182  144.1801  158.0712 C   0  0  0  0  0  0  0  0  0  0  0  0
  152.1105  144.2218  159.2955 C   0  0  0  0  0  0  0  0  0  0  0  0
  152.5917  143.0306  159.8690 C   0  0  0  0  0  0  0  0  0  0  0  0
  152.3820  141.7982  159.2202 C   0  0  0  0  0  0  0  0  0  0  0  0
  147.0466  136.4086  160.3681 C   0  0  0  0  0  0  0  0  0  0  0  0
  145.8097  137.0912  160.2973 C   0  0  0  0  0  0  0  0  0  0  0  0
  144.7620  136.7718  161.1828 C   0  0  0  0  0  0  0  0  0  0  0  0
  144.9387  135.7657  162.1503 C   0  0  0  0  0  0  0  0  0  0  0  0
  146.1640  135.0787  162.2305 C   0  0  0  0  0  0  0  0  0  0  0  0
  147.2128  135.3966  161.3455 C   0  0  0  0  0  0  0  0  0  0  0  0
  145.8053  143.1319  152.8450 H   0  0  0  0  0  0  0  0  0  0  0  0
  149.3659  139.6406  158.6219 H   0  0  0  0  0  0  0  0  0  0  0  0
  150.0632  138.0294  158.4830 H   0  0  0  0  0  0  0  0  0  0  0  0
  148.7274  137.5554  156.4605 H   0  0  0  0  0  0  0  0  0  0  0  0
  146.9655  138.8196  154.6739 H   0  0  0  0  0  0  0  0  0  0  0  0
  146.4407  141.0643  157.1448 H   0  0  0  0  0  0  0  0  0  0  0  0
  145.2478  143.1360  157.0418 H   0  0  0  0  0  0  0  0  0  0  0  0
  149.2298  140.6560  154.2769 H   0  0  0  0  0  0  0  0  0  0  0  0
  149.3635  139.1874  152.8184 H   0  0  0  0  0  0  0  0  0  0  0  0
  150.6679  138.6410  155.6547 H   0  0  0  0  0  0  0  0  0  0  0  0
  150.6725  142.9415  156.4819 H   0  0  0  0  0  0  0  0  0  0  0  0
  151.0482  145.0936  157.6295 H   0  0  0  0  0  0  0  0  0  0  0  0
  152.2732  145.1665  159.7934 H   0  0  0  0  0  0  0  0  0  0  0  0
  153.1237  143.0614  160.8085 H   0  0  0  0  0  0  0  0  0  0  0  0
  152.7655  140.9035  159.6886 H   0  0  0  0  0  0  0  0  0  0  0  0
  145.6506  137.8680  159.5632 H   0  0  0  0  0  0  0  0  0  0  0  0
  143.8222  137.3001  161.1191 H   0  0  0  0  0  0  0  0  0  0  0  0
  144.1356  135.5210  162.8298 H   0  0  0  0  0  0  0  0  0  0  0  0
  146.3006  134.3059  162.9723 H   0  0  0  0  0  0  0  0  0  0  0  0
  148.1400  134.8496  161.4344 H   0  0  0  0  0  0  0  0  0  0  0  0
  1  2  2  0  0  0  0
  2  3  1  0  0  0  0
  2 28  1  0  0  0  0
  3  4  1  0  0  0  0
  4  5  1  0  0  0  0
  4 35  1  0  0  0  0
  4 36  1  0  0  0  0
  5 18  1  0  0  0  0
  5  6  1  0  0  0  0
  5 37  1  0  0  0  0
  6  7  1  0  0  0  0
  7  8  1  0  0  0  0
  7 16  1  0  0  0  0
  7 38  1  0  0  0  0
  8 14  1  0  0  0  0
  8  9  1  0  0  0  0
  9 10  2  0  0  0  0
  9 39  1  0  0  0  0
 10 11  1  0  0  0  0
 10 40  1  0  0  0  0
 11 12  2  0  0  0  0
 11 13  1  0  0  0  0
 13 34  1  0  0  0  0
 13 14  1  0  0  0  0
 14 15  2  0  0  0  0
 16 17  1  0  0  0  0
 16 18  1  0  0  0  0
 16 41  1  0  0  0  0
 17 42  1  0  0  0  0
 18 19  1  0  0  0  0
 18 43  1  0  0  0  0
 19 20  1  0  0  0  0
 20 21  2  0  0  0  0
 20 22  1  0  0  0  0
 22 27  1  0  0  0  0
 22 23  2  0  0  0  0
 23 24  1  0  0  0  0
 23 44  1  0  0  0  0
 24 25  2  0  0  0  0
 24 45  1  0  0  0  0
 25 26  1  0  0  0  0
 25 46  1  0  0  0  0
 26 27  2  0  0  0  0
 26 47  1  0  0  0  0
 27 48  1  0  0  0  0
 28 33  1  0  0  0  0
 28 29  2  0  0  0  0
 29 30  1  0  0  0  0
 29 49  1  0  0  0  0
 30 31  2  0  0  0  0
 30 50  1  0  0  0  0
 31 32  1  0  0  0  0
 31 51  1  0  0  0  0
 32 33  2  0  0  0  0
 32 52  1  0  0  0  0
 33 53  1  0  0  0  0
M  END
> <s_m_source_file>
AV-unprocessed.smi

> <i_m_source_file_index>
99

> <i_lp_mmshare_version>
43012

> <i_f3d_flags>
0

> <s_epik_input>
W2NIXTFbY0hdW2NIXVtjSF1bY0hdYzFDKD1PKU9bQ0gyXVtDQEBIXTJPW0NAQEhdKG4zW2NIXVtjSF1jKD1PKVtuSF1jMz1PKVtDQEBIXShbT0hdKVtDQEhdMk9DKD1PKWM0W2NIXVtjSF1bY0hdW2NIXVtjSF00

> <s_epik_cmdline>
J2VwaWtfcHl0aG9uJywgJy1waCcsICc3LjAnLCAnLXRuJywgJzgnLCAnLW1hJywgJzIwMCcsICctbWV0YWxfYmluZGluZycsICctaW1hZScsICc8aW5maWxlLm1hZT4nLCAnLW9tYWUnLCAnPG91dGZpbGUubWFlPic=

> <r_lp_tautomer_probability>
1

> <r_epik_Ionization_Penalty>
0.00454555

> <r_epik_Ionization_Penalty_Charging>
0.0045191

> <r_epik_Ionization_Penalty_Neutral>
2.64449e-05

> <r_epik_State_Penalty>
-0

> <r_epik_Charging_Adjusted_Penalty>
0.0045191

> <i_epik_Tot_Q>
0

> <i_epik_Tot_abs_Q>
0

> <r_epik_Metal_State_Penalty>
1.27877

> <b_epik_Metal_Only>
0

> <s_epik_Chemistry_Notes>
This compound has an ester and may undergo hydrolysis at high or low pH. This compound contains an acetal/aminal-like group ( X-CH(R)-Y where X, Y are N, S, or O) that may be acid/base labile, releasing an aldehyde.

> <s_lp_Force_Field>
OPLS_2005

> <r_lp_Energy>
31.5911

> <b_lp_Chiralities_Consistent>
1

> <s_lp_Variant>
AV-unprocessed.smi:99-6

> <Gold.Version>
5.8.1

> <Gold.Id.Protein>
6NUR|6NUR_protein|mol2

> <Gold.PLP.Fitness>
60.0302

> <Gold.PLP.PLP>
-53.3262

> <Gold.PLP.part.hbond>
-5.5528

> <Gold.PLP.part.metal>
0.0000

> <Gold.PLP.part.buried>
-8.9130

> <Gold.PLP.part.nonpolar>
-40.1720

> <Gold.PLP.part.repulsive>
0.6713

> <Gold.PLP.ligand.clash>
0.0000

> <Gold.PLP.ligand.torsion>
1.4854

> <Gold.PLP.Chemscore.Hbond>
3.0000

> <Gold.PLP.Chemscore.CHOScore>
0.0000

> <Gold.PLP.Chemscore.Metal>
0.0000

> <Gold.Chemscore.Hbonds>
donor molecule, donor type, donor heavy atom, donor atom, acceptor molecule, acceptor atom, score
      L1  H    17    42       P1  7957  1.00
      P1  H  6896  6907       L1     1  0.47
      P1  H  7997  8010       L1    21  0.10

> <Gold.PLP.Chemscore.Internal.Correction>
0.6747

> <Gold.Rescore>
     Score         DG    S(hbond)    S(metal)    S(lipo)     H(rot)  DE(clash)    DE(int)     intcor
     18.71     -21.36       2.99        0.00     120.10       3.19       0.22       2.43       ----

> <Gold.Chemscore.Fitness>
18.7051

> <Gold.Chemscore.DG>
-21.3565

> <Gold.Chemscore.ZeroCoef>
-5.4800

> <Gold.Chemscore.Hbond>
2.9915

> <Gold.Chemscore.Metal>
0.0000

> <Gold.Chemscore.Lipo>
120.1019

> <Gold.Chemscore.Internal_Hbond>
0.0000

> <Gold.Chemscore.DEClash>
0.2176

> <Gold.Chemscore.DEInternal>
2.4337

> <Gold.Chemscore.Rot>
3.1903

> <Gold.Chemscore.Internal.Correction>
   9.000000E+99

> <Gold.Chemscore.Hbonds>
donor molecule, donor type, donor heavy atom, donor atom, acceptor molecule, acceptor atom, score
      L1  H    17    42       P1  7957  1.00
      P1  H  6896  6907       L1     1  0.48
      P1  H  7997  8010       L1    21  0.09

> <Gold.Chemscore.Hbond.Weighted>
-9.9916

> <Gold.Chemscore.Metal.Weighted>
-0.0000

> <Gold.Chemscore.Lipo.Weighted>
-14.0519

> <Gold.Chemscore.Internal_Hbond.Weighted>
0.0000

> <Gold.Chemscore.DEClash.Weighted>
0.2176

> <Gold.Chemscore.DEInternal.Weighted>
2.4337

> <Gold.Chemscore.Rot.Weighted>
8.1671

> <Gold.Chemscore.Internal.Correction.Weighted>
   9.000000E+99

> <Gold.Protein.RotatedTorsions>
[ 6907 6896 6895 6894 ] final  -52.98 input  -60.11 | X-H torsion
[ 7974 7965 7964 7962 ] final  -24.14 input  175.53 | X-H torsion
[ 8008 7997 7996 7995 ] final   65.43 input   59.86 | X-H torsion
[ 10167 10162 10161 10158 ] final   36.01 input  -65.29 | X-H torsion
[ 10718 10713 10712 10709 ] final  153.46 input   66.30 | X-H torsion
[ 10763 10752 10751 10750 ] final   39.89 input  -60.55 | X-H torsion
[ 11005 11000 10999 10996 ] final -110.38 input  -57.11 | X-H torsion

> <Gold.Protein.ActiveResidues>
 VAL166  LYS551  ARG553  GLY616  TRP617  ASP618  TYR619  PRO620  LYS621  CYS622 
 ASP623  PHE694  ASN695  SER759  ASP760  ASP761  ALA762  ILE779  LEU786  VAL792 
 PHE793  MET794  SER795  GLU796  ALA797  LYS798  CYS799  TRP800  GLU811  SER814 

> <Gold.Protein.RotatedAtoms>
  150.8468  134.7780  159.6976 H   0  0  0  0  0  0  0  0  0  0  0  0  # atno 6907 bound_to 6896
  152.4543  134.5323  159.9824 H   0  0  0  0  0  0  0  0  0  0  0  0  # atno 6908 bound_to 6896
  151.5451  133.3388  159.2978 H   0  0  0  0  0  0  0  0  0  0  0  0  # atno 6909 bound_to 6896
  146.1573  140.4711  142.8586 H   0  0  0  0  0  0  0  0  0  0  0  0  # atno 7974 bound_to 7965
  155.6616  140.3497  155.4785 H   0  0  0  0  0  0  0  0  0  0  0  0  # atno 8008 bound_to 7997
  155.9764  140.1166  157.0789 H   0  0  0  0  0  0  0  0  0  0  0  0  # atno 8009 bound_to 7997
  154.4180  140.1147  156.5362 H   0  0  0  0  0  0  0  0  0  0  0  0  # atno 8010 bound_to 7997
  140.4168  144.1515  150.6144 H   0  0  0  0  0  0  0  0  0  0  0  0  # atno 10167 bound_to 10162
  157.2444  131.0766  151.1771 H   0  0  0  0  0  0  0  0  0  0  0  0  # atno 10718 bound_to 10713
  152.9953  135.6207  154.2537 H   0  0  0  0  0  0  0  0  0  0  0  0  # atno 10763 bound_to 10752
  154.2275  135.2793  155.2904 H   0  0  0  0  0  0  0  0  0  0  0  0  # atno 10764 bound_to 10752
  154.5477  135.5742  153.6953 H   0  0  0  0  0  0  0  0  0  0  0  0  # atno 10765 bound_to 10752
  141.0795  133.9245  157.2320 H   0  0  0  0  0  0  0  0  0  0  0  0  # atno 11005 bound_to 11000
  144.7980  140.6160  143.6497 LP  0  0  0  0  0  0  0  0  0  0  0  0  # atno 17320 bound_to 7965
  145.4676  139.1506  143.3832 LP  0  0  0  0  0  0  0  0  0  0  0  0  # atno 17321 bound_to 7965
  140.4577  143.2461  151.9262 LP  0  0  0  0  0  0  0  0  0  0  0  0  # atno 17342 bound_to 10162
  139.4782  144.5498  151.8402 LP  0  0  0  0  0  0  0  0  0  0  0  0  # atno 17343 bound_to 10162
  157.3344  130.7001  149.6344 LP  0  0  0  0  0  0  0  0  0  0  0  0  # atno 17370 bound_to 10713
  155.9668  130.4298  150.4848 LP  0  0  0  0  0  0  0  0  0  0  0  0  # atno 17371 bound_to 10713
  139.9608  135.0154  156.9255 LP  0  0  0  0  0  0  0  0  0  0  0  0  # atno 17394 bound_to 11000
  140.5501  134.0636  155.7366 LP  0  0  0  0  0  0  0  0  0  0  0  0  # atno 17395 bound_to 11000

$$$$
