AV-unprocessed.smi:2026|AV-procd|sdf|8202|dock6
  -GOLD-   2272010463D 1   1.00000     0.00000
 Structure written by MMmdl.
 46 48  0  0  0  0  0  0  0  0  1 V2000
  153.9005  142.6562  163.6848 C   0  0  0  0  0  0  0  0  0  0  0  0
  153.2897  142.8437  162.3071 C   0  0  0  0  0  0  0  0  0  0  0  0
  152.4141  143.9304  162.0847 C   0  0  0  0  0  0  0  0  0  0  0  0
  151.8253  144.1395  160.8182 C   0  0  0  0  0  0  0  0  0  0  0  0
  150.9531  145.1233  160.3845 N   0  0  0  0  0  0  0  0  0  0  0  0
  150.7713  144.7777  159.1130 C   0  0  0  0  0  0  0  0  0  0  0  0
  151.4228  143.6848  158.6715 N   0  0  0  0  0  0  0  0  0  0  0  0
  151.3740  143.1222  157.3336 C   0  0  0  0  0  0  0  0  0  0  0  0
  150.2373  142.0956  157.1624 C   0  0  1  0  0  0  0  0  0  0  0  0
  148.9978  142.7720  157.2520 O   0  0  0  0  0  0  0  0  0  0  0  0
  150.3179  141.3852  155.7955 C   0  0  0  0  0  0  0  0  0  0  0  0
  150.6070  139.9547  155.9367 N   0  0  0  0  0  0  0  0  0  0  0  0
  151.6481  139.4553  156.6259 C   0  0  0  0  0  0  0  0  0  0  0  0
  152.4938  140.0993  157.2448 O   0  0  0  0  0  0  0  0  0  0  0  0
  151.6153  138.1197  156.5275 N   0  0  0  0  0  0  0  0  0  0  0  0
  150.5027  137.6389  155.7305 C   0  0  0  0  0  0  0  0  0  0  0  0
  151.0048  136.8947  154.4805 C   0  0  0  0  0  0  0  0  0  0  0  0
  149.5498  136.7779  156.5794 C   0  0  0  0  0  0  0  0  0  0  0  0
  149.8807  138.9800  155.3735 C   0  0  0  0  0  0  0  0  0  0  0  0
  148.8764  139.1106  154.6730 O   0  0  0  0  0  0  0  0  0  0  0  0
  152.1384  143.2236  159.7714 C   0  0  0  0  0  0  0  0  0  0  0  0
  153.0086  142.1388  159.9804 C   0  0  0  0  0  0  0  0  0  0  0  0
  153.5880  141.9447  161.2518 C   0  0  0  0  0  0  0  0  0  0  0  0
  154.5267  140.7704  161.4665 C   0  0  0  0  0  0  0  0  0  0  0  0
  153.5970  143.4503  164.3674 H   0  0  0  0  0  0  0  0  0  0  0  0
  154.9889  142.6648  163.6254 H   0  0  0  0  0  0  0  0  0  0  0  0
  153.5844  141.7057  164.1153 H   0  0  0  0  0  0  0  0  0  0  0  0
  152.1864  144.6155  162.8880 H   0  0  0  0  0  0  0  0  0  0  0  0
  150.1282  145.3528  158.4626 H   0  0  0  0  0  0  0  0  0  0  0  0
  151.2681  143.9348  156.6137 H   0  0  0  0  0  0  0  0  0  0  0  0
  152.3371  142.6519  157.1304 H   0  0  0  0  0  0  0  0  0  0  0  0
  150.2969  141.3667  157.9719 H   0  0  0  0  0  0  0  0  0  0  0  0
  148.9114  143.3450  156.5055 H   0  0  0  0  0  0  0  0  0  0  0  0
  149.4073  141.5506  155.2165 H   0  0  0  0  0  0  0  0  0  0  0  0
  151.1174  141.8313  155.2011 H   0  0  0  0  0  0  0  0  0  0  0  0
  152.2903  137.5014  156.9539 H   0  0  0  0  0  0  0  0  0  0  0  0
  150.1730  136.5523  153.8637 H   0  0  0  0  0  0  0  0  0  0  0  0
  151.5917  136.0179  154.7559 H   0  0  0  0  0  0  0  0  0  0  0  0
  151.6371  137.5303  153.8585 H   0  0  0  0  0  0  0  0  0  0  0  0
  148.7059  136.4218  155.9875 H   0  0  0  0  0  0  0  0  0  0  0  0
  149.1465  137.3355  157.4261 H   0  0  0  0  0  0  0  0  0  0  0  0
  150.0633  135.9027  156.9786 H   0  0  0  0  0  0  0  0  0  0  0  0
  153.2299  141.4627  159.1681 H   0  0  0  0  0  0  0  0  0  0  0  0
  154.6157  140.1623  160.5659 H   0  0  0  0  0  0  0  0  0  0  0  0
  154.1610  140.1282  162.2679 H   0  0  0  0  0  0  0  0  0  0  0  0
  155.5234  141.1234  161.7323 H   0  0  0  0  0  0  0  0  0  0  0  0
  1  2  1  0  0  0  0
  1 25  1  0  0  0  0
  1 26  1  0  0  0  0
  1 27  1  0  0  0  0
  2 23  1  0  0  0  0
  2  3  2  0  0  0  0
  3  4  1  0  0  0  0
  3 28  1  0  0  0  0
  4 21  2  0  0  0  0
  4  5  1  0  0  0  0
  5  6  2  0  0  0  0
  6  7  1  0  0  0  0
  6 29  1  0  0  0  0
  7  8  1  0  0  0  0
  7 21  1  0  0  0  0
  8  9  1  0  0  0  0
  8 30  1  0  0  0  0
  8 31  1  0  0  0  0
  9 10  1  0  0  0  0
  9 11  1  0  0  0  0
  9 32  1  0  0  0  0
 10 33  1  0  0  0  0
 11 12  1  0  0  0  0
 11 34  1  0  0  0  0
 11 35  1  0  0  0  0
 12 19  1  0  0  0  0
 12 13  1  0  0  0  0
 13 14  2  0  0  0  0
 13 15  1  0  0  0  0
 15 16  1  0  0  0  0
 15 36  1  0  0  0  0
 16 17  1  0  0  0  0
 16 18  1  0  0  0  0
 16 19  1  0  0  0  0
 17 37  1  0  0  0  0
 17 38  1  0  0  0  0
 17 39  1  0  0  0  0
 18 40  1  0  0  0  0
 18 41  1  0  0  0  0
 18 42  1  0  0  0  0
 19 20  2  0  0  0  0
 21 22  1  0  0  0  0
 22 23  2  0  0  0  0
 22 43  1  0  0  0  0
 23 24  1  0  0  0  0
 24 44  1  0  0  0  0
 24 45  1  0  0  0  0
 24 46  1  0  0  0  0
M  END
> <s_m_source_file>
AV-unprocessed.smi

> <i_m_source_file_index>
2026

> <i_lp_mmshare_version>
43012

> <i_f3d_flags>
0

> <s_epik_input>
W0NIM11jKFtjSF0xKWMoW0NIM10pW2NIXWMoYzEyKW4oW2NIXW4yKVtDSDJdW0NASF0oW09IXSlbQ0gyXU4oQzM9TylDKD1PKVtOSF1DMyhbQ0gzXSlbQ0gzXQ==

> <s_epik_cmdline>
J2VwaWtfcHl0aG9uJywgJy1waCcsICc3LjAnLCAnLXRuJywgJzgnLCAnLW1hJywgJzIwMCcsICctbWV0YWxfYmluZGluZycsICctaW1hZScsICc8aW5maWxlLm1hZT4nLCAnLW9tYWUnLCAnPG91dGZpbGUubWFlPic=

> <r_lp_tautomer_probability>
1

> <r_epik_Ionization_Penalty>
0.103994

> <r_epik_Ionization_Penalty_Charging>
0

> <r_epik_Ionization_Penalty_Neutral>
0.103994

> <r_epik_State_Penalty>
0.0938482

> <r_epik_Charging_Adjusted_Penalty>
0.0938482

> <i_epik_Tot_Q>
0

> <i_epik_Tot_abs_Q>
0

> <r_epik_Metal_State_Penalty>
0.106997

> <b_epik_Metal_Only>
0

> <s_lp_Force_Field>
OPLS_2005

> <r_lp_Energy>
23.8549

> <b_lp_Chiralities_Consistent>
1

> <s_lp_Variant>
AV-unprocessed.smi:2026-2

> <Gold.Version>
5.8.1

> <Gold.Id.Protein>
6NUR|6NUR_protein|mol2

> <Gold.PLP.Fitness>
56.6472

> <Gold.PLP.PLP>
-50.5555

> <Gold.PLP.part.hbond>
-2.0000

> <Gold.PLP.part.metal>
0.0000

> <Gold.PLP.part.buried>
-3.2977

> <Gold.PLP.part.nonpolar>
-44.8281

> <Gold.PLP.part.repulsive>
0.3972

> <Gold.PLP.ligand.clash>
0.0000

> <Gold.PLP.ligand.torsion>
1.1830

> <Gold.PLP.Chemscore.Hbond>
2.0000

> <Gold.PLP.Chemscore.CHOScore>
0.8081

> <Gold.PLP.Chemscore.Metal>
0.0000

> <Gold.Chemscore.Hbonds>
donor molecule, donor type, donor heavy atom, donor atom, acceptor molecule, acceptor atom, score
      L1  H    10    33       P1  8028  1.00
      P1  H  7997  8010       L1    14  1.00
      L1  C     6    29       P1  8029  0.88

> <Gold.PLP.Chemscore.Internal.Correction>
0.0335

> <Gold.Rescore>
     Score         DG    S(hbond)    S(metal)    S(lipo)     H(rot)  DE(clash)    DE(int)     intcor
     19.38     -20.52       1.92        0.00     126.96       2.44       0.02       1.13       ----

> <Gold.Chemscore.Fitness>
19.3763

> <Gold.Chemscore.DG>
-20.5242

> <Gold.Chemscore.ZeroCoef>
-5.4800

> <Gold.Chemscore.Hbond>
1.9237

> <Gold.Chemscore.Metal>
0.0000

> <Gold.Chemscore.Lipo>
126.9648

> <Gold.Chemscore.Internal_Hbond>
0.0000

> <Gold.Chemscore.DEClash>
0.0225

> <Gold.Chemscore.DEInternal>
1.1255

> <Gold.Chemscore.Rot>
2.4358

> <Gold.Chemscore.Internal.Correction>
   9.000000E+99

> <Gold.Chemscore.Hbonds>
donor molecule, donor type, donor heavy atom, donor atom, acceptor molecule, acceptor atom, score
      L1  H    10    33       P1  8028  0.93
      P1  H  7997  8010       L1    14  0.94

> <Gold.Chemscore.Hbond.Weighted>
-6.4250

> <Gold.Chemscore.Metal.Weighted>
-0.0000

> <Gold.Chemscore.Lipo.Weighted>
-14.8549

> <Gold.Chemscore.Internal_Hbond.Weighted>
0.0000

> <Gold.Chemscore.DEClash.Weighted>
0.0225

> <Gold.Chemscore.DEInternal.Weighted>
1.1255

> <Gold.Chemscore.Rot.Weighted>
6.2357

> <Gold.Chemscore.Internal.Correction.Weighted>
   9.000000E+99

> <Gold.Protein.RotatedTorsions>
[ 6907 6896 6895 6894 ] final -165.75 input  -60.11 | X-H torsion
[ 7974 7965 7964 7962 ] final  -24.93 input  175.53 | X-H torsion
[ 8008 7997 7996 7995 ] final   52.63 input   59.86 | X-H torsion
[ 10167 10162 10161 10158 ] final   73.23 input  -65.29 | X-H torsion
[ 10718 10713 10712 10709 ] final -160.32 input   66.30 | X-H torsion
[ 10763 10752 10751 10750 ] final  177.90 input  -60.55 | X-H torsion
[ 11005 11000 10999 10996 ] final   68.21 input  -57.11 | X-H torsion

> <Gold.Protein.ActiveResidues>
 VAL166  LYS551  ARG553  GLY616  TRP617  ASP618  TYR619  PRO620  LYS621  CYS622 
 ASP623  PHE694  ASN695  SER759  ASP760  ASP761  ALA762  ILE779  LEU786  VAL792 
 PHE793  MET794  SER795  GLU796  ALA797  LYS798  CYS799  TRP800  GLU811  SER814 

> <Gold.Protein.RotatedAtoms>
  151.4327  133.3665  159.2770 H   0  0  0  0  0  0  0  0  0  0  0  0  # atno 6907 bound_to 6896
  150.9214  134.8633  159.7502 H   0  0  0  0  0  0  0  0  0  0  0  0  # atno 6908 bound_to 6896
  152.4983  134.4265  159.9550 H   0  0  0  0  0  0  0  0  0  0  0  0  # atno 6909 bound_to 6896
  146.1523  140.4818  142.8606 H   0  0  0  0  0  0  0  0  0  0  0  0  # atno 7974 bound_to 7965
  155.4549  140.3459  155.4305 H   0  0  0  0  0  0  0  0  0  0  0  0  # atno 8008 bound_to 7997
  156.1197  140.1483  156.9252 H   0  0  0  0  0  0  0  0  0  0  0  0  # atno 8009 bound_to 7997
  154.4814  140.0868  156.7366 H   0  0  0  0  0  0  0  0  0  0  0  0  # atno 8010 bound_to 7997
  140.0267  144.5498  150.7539 H   0  0  0  0  0  0  0  0  0  0  0  0  # atno 10167 bound_to 10162
  156.5805  130.8727  151.2863 H   0  0  0  0  0  0  0  0  0  0  0  0  # atno 10718 bound_to 10713
  154.5006  135.2783  155.1424 H   0  0  0  0  0  0  0  0  0  0  0  0  # atno 10763 bound_to 10752
  154.3059  135.6239  153.5448 H   0  0  0  0  0  0  0  0  0  0  0  0  # atno 10764 bound_to 10752
  152.9902  135.5708  154.5448 H   0  0  0  0  0  0  0  0  0  0  0  0  # atno 10765 bound_to 10752
  139.9725  134.6877  156.0419 H   0  0  0  0  0  0  0  0  0  0  0  0  # atno 11005 bound_to 11000
  144.7920  140.6049  143.6535 LP  0  0  0  0  0  0  0  0  0  0  0  0  # atno 17320 bound_to 7965
  145.4793  139.1497  143.3771 LP  0  0  0  0  0  0  0  0  0  0  0  0  # atno 17321 bound_to 7965
  140.7319  143.2700  151.3919 LP  0  0  0  0  0  0  0  0  0  0  0  0  # atno 17342 bound_to 10162
  139.6103  144.1112  152.2292 LP  0  0  0  0  0  0  0  0  0  0  0  0  # atno 17343 bound_to 10162
  157.7327  130.9720  150.1943 LP  0  0  0  0  0  0  0  0  0  0  0  0  # atno 17370 bound_to 10713
  156.2635  130.3713  149.8105 LP  0  0  0  0  0  0  0  0  0  0  0  0  # atno 17371 bound_to 10713
  141.1403  133.6566  156.3712 LP  0  0  0  0  0  0  0  0  0  0  0  0  # atno 17394 bound_to 11000
  140.5264  134.6254  157.5335 LP  0  0  0  0  0  0  0  0  0  0  0  0  # atno 17395 bound_to 11000

$$$$
