AV-unprocessed.smi:281|AV-procd|sdf|2108|dock7
  -GOLD-   2262021403D 1   1.00000     0.00000
 Structure written by MMmdl.
 55 59  0  0  0  0  0  0  0  0  1 V2000
  148.4109  141.9779  153.8373 C   0  0  0  0  0  0  0  0  0  0  0  0
  148.6965  140.8064  154.7826 C   0  0  1  0  0  0  0  0  0  0  0  0
  147.9756  139.5205  154.3423 C   0  0  0  0  0  0  0  0  0  0  0  0
  148.3608  138.4173  155.2110 N   0  0  0  0  0  0  0  0  0  0  0  0
  147.6578  137.2804  155.0302 C   0  0  0  0  0  0  0  0  0  0  0  0
  147.8225  136.3026  155.9539 N   0  0  0  0  0  0  0  0  0  0  0  0
  147.1602  135.1484  155.8285 C   0  0  0  0  0  0  0  0  0  0  0  0
  146.3040  134.7758  154.8744 N   0  0  0  0  0  0  0  0  0  0  0  0
  146.1406  135.7578  153.9415 C   0  0  0  0  0  0  0  0  0  0  0  0
  146.7790  137.0297  153.9386 C   0  0  0  0  0  0  0  0  0  0  0  0
  146.3837  137.7553  152.8213 N   0  0  0  0  0  0  0  0  0  0  0  0
  145.5533  136.9609  152.2035 C   0  0  0  0  0  0  0  0  0  0  0  0
  145.3378  135.7455  152.8138 N   0  0  0  0  0  0  0  0  0  0  0  0
  144.4619  134.6787  152.3521 C   0  0  0  0  0  0  0  0  0  0  0  0
  144.8840  134.0729  150.9911 C   0  0  2  0  0  0  0  0  0  0  0  0
  144.6594  135.0307  149.9728 O   0  0  0  0  0  0  0  0  0  0  0  0
  144.1115  132.7952  150.6533 C   0  0  0  0  0  0  0  0  0  0  0  0
  145.1587  131.6948  150.7798 C   0  0  0  0  0  0  0  0  0  0  0  0
  146.3419  132.3388  150.3432 O   0  0  0  0  0  0  0  0  0  0  0  0
  146.3588  133.6256  150.9433 C   0  0  0  0  0  0  0  0  0  0  0  0
  149.8005  138.2035  155.2413 C   0  0  0  0  0  0  0  0  0  0  0  0
  150.5344  139.5083  155.6424 C   0  0  1  0  0  0  0  0  0  0  0  0
  150.3522  139.8620  157.1155 C   0  0  0  0  0  0  0  0  0  0  0  0
  151.4349  139.0398  157.8040 C   0  0  0  0  0  0  0  0  0  0  0  0
  152.5024  138.9566  156.8682 O   0  0  0  0  0  0  0  0  0  0  0  0
  152.0724  139.4096  155.5870 C   0  0  1  0  0  0  0  0  0  0  0  0
  152.6731  138.5420  154.4717 C   0  0  0  0  0  0  0  0  0  0  0  0
  150.1068  140.5788  154.7934 O   0  0  0  0  0  0  0  0  0  0  0  0
  147.3448  142.2037  153.8027 H   0  0  0  0  0  0  0  0  0  0  0  0
  148.7394  141.7549  152.8217 H   0  0  0  0  0  0  0  0  0  0  0  0
  148.9304  142.8785  154.1653 H   0  0  0  0  0  0  0  0  0  0  0  0
  148.3639  141.0871  155.7827 H   0  0  0  0  0  0  0  0  0  0  0  0
  146.8945  139.6617  154.3803 H   0  0  0  0  0  0  0  0  0  0  0  0
  148.2364  139.2901  153.3090 H   0  0  0  0  0  0  0  0  0  0  0  0
  147.3420  134.4188  156.6038 H   0  0  0  0  0  0  0  0  0  0  0  0
  145.0698  137.2450  151.2802 H   0  0  0  0  0  0  0  0  0  0  0  0
  144.4417  133.9013  153.1173 H   0  0  0  0  0  0  0  0  0  0  0  0
  143.4462  135.0719  152.2915 H   0  0  0  0  0  0  0  0  0  0  0  0
  145.4058  135.0324  149.3932 H   0  0  0  0  0  0  0  0  0  0  0  0
  143.2514  132.6222  151.3014 H   0  0  0  0  0  0  0  0  0  0  0  0
  143.7445  132.8191  149.6257 H   0  0  0  0  0  0  0  0  0  0  0  0
  145.2723  131.3782  151.8181 H   0  0  0  0  0  0  0  0  0  0  0  0
  144.9277  130.8191  150.1732 H   0  0  0  0  0  0  0  0  0  0  0  0
  147.0090  134.3134  150.4009 H   0  0  0  0  0  0  0  0  0  0  0  0
  146.7671  133.5102  151.9479 H   0  0  0  0  0  0  0  0  0  0  0  0
  150.0470  137.3928  155.9284 H   0  0  0  0  0  0  0  0  0  0  0  0
  150.1148  137.8849  154.2469 H   0  0  0  0  0  0  0  0  0  0  0  0
  150.5539  140.9231  157.2693 H   0  0  0  0  0  0  0  0  0  0  0  0
  149.3547  139.6542  157.5037 H   0  0  0  0  0  0  0  0  0  0  0  0
  151.7621  139.4859  158.7433 H   0  0  0  0  0  0  0  0  0  0  0  0
  151.0756  138.0321  158.0156 H   0  0  0  0  0  0  0  0  0  0  0  0
  152.4704  140.4206  155.4830 H   0  0  0  0  0  0  0  0  0  0  0  0
  152.3283  138.8708  153.4911 H   0  0  0  0  0  0  0  0  0  0  0  0
  152.4080  137.4912  154.5912 H   0  0  0  0  0  0  0  0  0  0  0  0
  153.7612  138.6054  154.4787 H   0  0  0  0  0  0  0  0  0  0  0  0
  1  2  1  0  0  0  0
  1 29  1  0  0  0  0
  1 30  1  0  0  0  0
  1 31  1  0  0  0  0
  2 28  1  0  0  0  0
  2  3  1  0  0  0  0
  2 32  1  0  0  0  0
  3  4  1  0  0  0  0
  3 33  1  0  0  0  0
  3 34  1  0  0  0  0
  4  5  1  0  0  0  0
  4 21  1  0  0  0  0
  5 10  1  0  0  0  0
  5  6  2  0  0  0  0
  6  7  1  0  0  0  0
  7  8  2  0  0  0  0
  7 35  1  0  0  0  0
  8  9  1  0  0  0  0
  9 13  1  0  0  0  0
  9 10  2  0  0  0  0
 10 11  1  0  0  0  0
 11 12  2  0  0  0  0
 12 13  1  0  0  0  0
 12 36  1  0  0  0  0
 13 14  1  0  0  0  0
 14 15  1  0  0  0  0
 14 37  1  0  0  0  0
 14 38  1  0  0  0  0
 15 20  1  0  0  0  0
 15 16  1  0  0  0  0
 15 17  1  0  0  0  0
 16 39  1  0  0  0  0
 17 18  1  0  0  0  0
 17 40  1  0  0  0  0
 17 41  1  0  0  0  0
 18 19  1  0  0  0  0
 18 42  1  0  0  0  0
 18 43  1  0  0  0  0
 19 20  1  0  0  0  0
 20 44  1  0  0  0  0
 20 45  1  0  0  0  0
 21 22  1  0  0  0  0
 21 46  1  0  0  0  0
 21 47  1  0  0  0  0
 22 26  1  0  0  0  0
 22 23  1  0  0  0  0
 22 28  1  0  0  0  0
 23 24  1  0  0  0  0
 23 48  1  0  0  0  0
 23 49  1  0  0  0  0
 24 25  1  0  0  0  0
 24 50  1  0  0  0  0
 24 51  1  0  0  0  0
 25 26  1  0  0  0  0
 26 27  1  0  0  0  0
 26 52  1  0  0  0  0
 27 53  1  0  0  0  0
 27 54  1  0  0  0  0
 27 55  1  0  0  0  0
M  END
> <s_m_source_file>
AV-unprocessed.smi

> <i_m_source_file_index>
281

> <i_lp_mmshare_version>
43012

> <i_f3d_flags>
0

> <s_epik_input>
W0NIM11bQ0BASF0xT1tDSDJdW0NIMl1bQ0BAXTEyW0NIMl1OKFtDSDJdW0NASF0oTzIpW0NIM10pYyhuW2NIXW4zKWMoYzM0KW5bY0hdbjRbQ0gyXVtDQEBdNShbT0hdKVtDSDJdW0NIMl1PW0NIMl01

> <s_epik_cmdline>
J2VwaWtfcHl0aG9uJywgJy1waCcsICc3LjAnLCAnLXRuJywgJzgnLCAnLW1hJywgJzIwMCcsICctbWV0YWxfYmluZGluZycsICctaW1hZScsICc8aW5maWxlLm1hZT4nLCAnLW9tYWUnLCAnPG91dGZpbGUubWFlPic=

> <r_lp_tautomer_probability>
1

> <r_epik_Ionization_Penalty>
0.00571331

> <r_epik_Ionization_Penalty_Charging>
0

> <r_epik_Ionization_Penalty_Neutral>
0.00571331

> <r_epik_State_Penalty>
0.00399586

> <r_epik_Charging_Adjusted_Penalty>
0.00399586

> <i_epik_Tot_Q>
0

> <i_epik_Tot_abs_Q>
0

> <r_epik_Metal_State_Penalty>
-0

> <b_epik_Metal_Only>
0

> <s_lp_Force_Field>
OPLS_2005

> <r_lp_Energy>
55.9706

> <b_lp_Chiralities_Consistent>
1

> <s_lp_Variant>
AV-unprocessed.smi:281-8

> <Gold.Version>
5.8.1

> <Gold.Id.Protein>
6NUR|6NUR_protein|mol2

> <Gold.PLP.Fitness>
43.1476

> <Gold.PLP.PLP>
-33.7972

> <Gold.PLP.part.hbond>
-2.2798

> <Gold.PLP.part.metal>
0.0000

> <Gold.PLP.part.buried>
-4.2376

> <Gold.PLP.part.nonpolar>
-27.6594

> <Gold.PLP.part.repulsive>
0.7115

> <Gold.PLP.ligand.clash>
0.0000

> <Gold.PLP.ligand.torsion>
0.1945

> <Gold.PLP.Chemscore.Hbond>
2.2010

> <Gold.PLP.Chemscore.CHOScore>
1.0000

> <Gold.PLP.Chemscore.Metal>
0.0000

> <Gold.Chemscore.Hbonds>
donor molecule, donor type, donor heavy atom, donor atom, acceptor molecule, acceptor atom, score
      L1  H    16    39       P1  7921  1.00
      P1  H  7989  7998       L1    28  0.90
      P1  H  7997  8010       L1    25  0.35
      L1  C    12    36       P1 10171  1.00

> <Gold.PLP.Chemscore.Internal.Correction>
0.1363

> <Gold.Rescore>
     Score         DG    S(hbond)    S(metal)    S(lipo)     H(rot)  DE(clash)    DE(int)     intcor
     11.72     -13.37       1.01        0.00      84.53       2.09       0.03       1.63       ----

> <Gold.Chemscore.Fitness>
11.7159

> <Gold.Chemscore.DG>
-13.3742

> <Gold.Chemscore.ZeroCoef>
-5.4800

> <Gold.Chemscore.Hbond>
1.0063

> <Gold.Chemscore.Metal>
0.0000

> <Gold.Chemscore.Lipo>
84.5343

> <Gold.Chemscore.Internal_Hbond>
0.0000

> <Gold.Chemscore.DEClash>
0.0289

> <Gold.Chemscore.DEInternal>
1.6294

> <Gold.Chemscore.Rot>
2.0927

> <Gold.Chemscore.Internal.Correction>
   9.000000E+99

> <Gold.Chemscore.Hbonds>
donor molecule, donor type, donor heavy atom, donor atom, acceptor molecule, acceptor atom, score
      L1  H    16    39       P1  7921  0.94
      P1  H  7989  7998       L1    28  0.46
      P1  H  7997  8010       L1    25  0.03

> <Gold.Chemscore.Hbond.Weighted>
-3.3610

> <Gold.Chemscore.Metal.Weighted>
-0.0000

> <Gold.Chemscore.Lipo.Weighted>
-9.8905

> <Gold.Chemscore.Internal_Hbond.Weighted>
0.0000

> <Gold.Chemscore.DEClash.Weighted>
0.0289

> <Gold.Chemscore.DEInternal.Weighted>
1.6294

> <Gold.Chemscore.Rot.Weighted>
5.3573

> <Gold.Chemscore.Internal.Correction.Weighted>
   9.000000E+99

> <Gold.Protein.RotatedTorsions>
[ 6907 6896 6895 6894 ] final   61.27 input  -60.11 | X-H torsion
[ 7974 7965 7964 7962 ] final   64.33 input  175.53 | X-H torsion
[ 8008 7997 7996 7995 ] final   51.75 input   59.86 | X-H torsion
[ 10167 10162 10161 10158 ] final   -3.55 input  -65.29 | X-H torsion
[ 10718 10713 10712 10709 ] final  -67.01 input   66.30 | X-H torsion
[ 10763 10752 10751 10750 ] final  -40.77 input  -60.55 | X-H torsion
[ 11005 11000 10999 10996 ] final -101.50 input  -57.11 | X-H torsion

> <Gold.Protein.ActiveResidues>
 VAL166  LYS551  ARG553  GLY616  TRP617  ASP618  TYR619  PRO620  LYS621  CYS622 
 ASP623  PHE694  ASN695  SER759  ASP760  ASP761  ALA762  ILE779  LEU786  VAL792 
 PHE793  MET794  SER795  GLU796  ALA797  LYS798  CYS799  TRP800  GLU811  SER814 

> <Gold.Protein.RotatedAtoms>
  152.4074  134.6183  160.0043 H   0  0  0  0  0  0  0  0  0  0  0  0  # atno 6907 bound_to 6896
  151.6370  133.3323  159.3129 H   0  0  0  0  0  0  0  0  0  0  0  0  # atno 6908 bound_to 6896
  150.7968  134.7074  159.6629 H   0  0  0  0  0  0  0  0  0  0  0  0  # atno 6909 bound_to 6896
  145.8514  139.3256  143.0873 H   0  0  0  0  0  0  0  0  0  0  0  0  # atno 7974 bound_to 7965
  155.4404  140.3454  155.4289 H   0  0  0  0  0  0  0  0  0  0  0  0  # atno 8008 bound_to 7997
  156.1282  140.1506  156.9135 H   0  0  0  0  0  0  0  0  0  0  0  0  # atno 8009 bound_to 7997
  154.4874  140.0851  156.7498 H   0  0  0  0  0  0  0  0  0  0  0  0  # atno 8010 bound_to 7997
  140.6894  143.6527  150.8336 H   0  0  0  0  0  0  0  0  0  0  0  0  # atno 10167 bound_to 10162
  156.0581  130.4271  150.1792 H   0  0  0  0  0  0  0  0  0  0  0  0  # atno 10718 bound_to 10713
  153.9514  135.6750  153.4744 H   0  0  0  0  0  0  0  0  0  0  0  0  # atno 10763 bound_to 10752
  153.0882  135.4888  154.8636 H   0  0  0  0  0  0  0  0  0  0  0  0  # atno 10764 bound_to 10752
  154.7323  135.3141  154.8830 H   0  0  0  0  0  0  0  0  0  0  0  0  # atno 10765 bound_to 10752
  141.1228  133.8483  157.1240 H   0  0  0  0  0  0  0  0  0  0  0  0  # atno 11005 bound_to 11000
  145.9353  140.9019  143.0335 LP  0  0  0  0  0  0  0  0  0  0  0  0  # atno 17320 bound_to 7965
  144.6729  140.1474  143.7432 LP  0  0  0  0  0  0  0  0  0  0  0  0  # atno 17321 bound_to 7965
  140.0238  143.5514  152.2789 LP  0  0  0  0  0  0  0  0  0  0  0  0  # atno 17342 bound_to 10162
  139.6282  144.7640  151.2592 LP  0  0  0  0  0  0  0  0  0  0  0  0  # atno 17343 bound_to 10162
  156.9865  130.9880  151.3425 LP  0  0  0  0  0  0  0  0  0  0  0  0  # atno 17370 bound_to 10713
  157.5567  130.8218  149.8213 LP  0  0  0  0  0  0  0  0  0  0  0  0  # atno 17371 bound_to 10713
  140.0200  134.9950  157.0571 LP  0  0  0  0  0  0  0  0  0  0  0  0  # atno 17394 bound_to 11000
  140.4456  134.1635  155.7177 LP  0  0  0  0  0  0  0  0  0  0  0  0  # atno 17395 bound_to 11000

$$$$
