AV-unprocessed.smi:2568|AV-procd|sdf|10090|dock6
  -GOLD-   2272014113D 1   1.00000     0.00000
 Structure written by MMmdl.
 24 25  0  0  0  0  0  0  0  0  1 V2000
  146.8488  141.9208  154.9078 C   0  0  0  0  0  0  0  0  0  0  0  0
  148.1908  141.3284  155.1749 C   0  0  0  0  0  0  0  0  0  0  0  0
  149.2260  142.0680  155.5759 N   0  0  0  0  0  0  0  0  0  0  0  0
  150.3076  141.2755  155.7313 N   0  0  0  0  0  0  0  0  0  0  0  0
  149.8209  140.0745  155.4193 C   0  0  0  0  0  0  0  0  0  0  0  0
  150.7054  138.8660  155.4161 C   0  0  2  0  0  0  0  0  0  0  0  0
  150.7162  138.1581  154.0468 C   0  0  0  0  0  0  0  0  0  0  0  0
  151.5101  136.9320  154.1164 N   0  0  0  0  0  0  0  0  0  0  0  0
  151.0359  136.0558  155.1868 C   0  0  0  0  0  0  0  0  0  0  0  0
  151.0090  136.8128  156.5272 C   0  0  0  0  0  0  0  0  0  0  0  0
  150.1953  137.9743  156.4049 O   0  0  0  0  0  0  0  0  0  0  0  0
  148.5041  140.0443  155.0439 N   0  0  0  0  0  0  0  0  0  0  0  0
  149.2431  143.0643  155.7413 H   0  0  0  0  0  0  0  0  0  0  0  0
  146.1289  141.1395  154.6615 H   0  0  0  0  0  0  0  0  0  0  0  0
  146.9072  142.6173  154.0713 H   0  0  0  0  0  0  0  0  0  0  0  0
  146.4933  142.4567  155.7881 H   0  0  0  0  0  0  0  0  0  0  0  0
  151.7171  139.1713  155.6918 H   0  0  0  0  0  0  0  0  0  0  0  0
  149.6947  137.9195  153.7477 H   0  0  0  0  0  0  0  0  0  0  0  0
  151.1201  138.8225  153.2825 H   0  0  0  0  0  0  0  0  0  0  0  0
  151.4589  136.4427  153.2286 H   0  0  0  0  0  0  0  0  0  0  0  0
  150.0348  135.6916  154.9523 H   0  0  0  0  0  0  0  0  0  0  0  0
  151.6783  135.1785  155.2644 H   0  0  0  0  0  0  0  0  0  0  0  0
  150.5966  136.1751  157.3094 H   0  0  0  0  0  0  0  0  0  0  0  0
  152.0169  137.0899  156.8407 H   0  0  0  0  0  0  0  0  0  0  0  0
  1 14  1  0  0  0  0
  1 15  1  0  0  0  0
  1 16  1  0  0  0  0
  1  2  1  0  0  0  0
  2 12  2  0  0  0  0
  2  3  1  0  0  0  0
  3  4  1  0  0  0  0
  3 13  1  0  0  0  0
  4  5  2  0  0  0  0
  5 12  1  0  0  0  0
  5  6  1  0  0  0  0
  6 11  1  0  0  0  0
  6  7  1  0  0  0  0
  6 17  1  0  0  0  0
  7  8  1  0  0  0  0
  7 18  1  0  0  0  0
  7 19  1  0  0  0  0
  8  9  1  0  0  0  0
  8 20  1  0  0  0  0
  9 10  1  0  0  0  0
  9 21  1  0  0  0  0
  9 22  1  0  0  0  0
 10 11  1  0  0  0  0
 10 23  1  0  0  0  0
 10 24  1  0  0  0  0
M  END
> <s_m_source_file>
AV-unprocessed.smi

> <i_m_source_file_index>
2568

> <i_lp_mmshare_version>
43012

> <i_f3d_flags>
0

> <s_epik_input>
W0NIM11jMW5bbkhdYyhuMSlbQ0BASF0yW0NIMl1bTkhdW0NIMl1bQ0gyXU8y

> <s_epik_cmdline>
J2VwaWtfcHl0aG9uJywgJy1waCcsICc3LjAnLCAnLXRuJywgJzgnLCAnLW1hJywgJzIwMCcsICctbWV0YWxfYmluZGluZycsICctaW1hZScsICc8aW5maWxlLm1hZT4nLCAnLW9tYWUnLCAnPG91dGZpbGUubWFlPic=

> <r_epik_Ionization_Penalty>
1.10101

> <r_epik_Ionization_Penalty_Charging>
0

> <r_epik_Ionization_Penalty_Neutral>
1.10101

> <r_epik_State_Penalty>
1.26524

> <r_epik_Charging_Adjusted_Penalty>
1.26524

> <i_epik_Tot_Q>
0

> <i_epik_Tot_abs_Q>
0

> <r_epik_Metal_State_Penalty>
1.56429

> <b_epik_Metal_Only>
0

> <s_lp_Force_Field>
OPLS_2005

> <r_lp_Energy>
12.1745

> <b_lp_Chiralities_Consistent>
1

> <s_lp_Variant>
AV-unprocessed.smi:2568-3

> <Gold.Version>
5.8.1

> <Gold.Id.Protein>
6NUR|6NUR_protein|mol2

> <Gold.PLP.Fitness>
26.0359

> <Gold.PLP.PLP>
-20.0391

> <Gold.PLP.part.hbond>
-4.1389

> <Gold.PLP.part.metal>
0.0000

> <Gold.PLP.part.buried>
-2.4522

> <Gold.PLP.part.nonpolar>
-13.8848

> <Gold.PLP.part.repulsive>
0.4459

> <Gold.PLP.ligand.clash>
0.0000

> <Gold.PLP.ligand.torsion>
0.0378

> <Gold.PLP.Chemscore.Hbond>
2.0200

> <Gold.PLP.Chemscore.CHOScore>
0.0000

> <Gold.PLP.Chemscore.Metal>
0.0000

> <Gold.Chemscore.Hbonds>
donor molecule, donor type, donor heavy atom, donor atom, acceptor molecule, acceptor atom, score
      L1  H     3    13       P1  8028  1.00
      L1  H     8    20       P1  7949  1.00

> <Gold.PLP.Chemscore.Internal.Correction>
0.0126

> <Gold.Rescore>
     Score         DG    S(hbond)    S(metal)    S(lipo)     H(rot)  DE(clash)    DE(int)     intcor
     12.44     -13.03       1.93        0.00      31.27       1.00       0.03       0.57       ----

> <Gold.Chemscore.Fitness>
12.4405

> <Gold.Chemscore.DG>
-13.0349

> <Gold.Chemscore.ZeroCoef>
-5.4800

> <Gold.Chemscore.Hbond>
1.9332

> <Gold.Chemscore.Metal>
0.0000

> <Gold.Chemscore.Lipo>
31.2663

> <Gold.Chemscore.Internal_Hbond>
0.0000

> <Gold.Chemscore.DEClash>
0.0291

> <Gold.Chemscore.DEInternal>
0.5653

> <Gold.Chemscore.Rot>
1.0000

> <Gold.Chemscore.Internal.Correction>
   9.000000E+99

> <Gold.Chemscore.Hbonds>
donor molecule, donor type, donor heavy atom, donor atom, acceptor molecule, acceptor atom, score
      L1  H     3    13       P1  8028  1.00
      L1  H     8    20       P1  7949  0.85

> <Gold.Chemscore.Hbond.Weighted>
-6.4568

> <Gold.Chemscore.Metal.Weighted>
-0.0000

> <Gold.Chemscore.Lipo.Weighted>
-3.6582

> <Gold.Chemscore.Internal_Hbond.Weighted>
0.0000

> <Gold.Chemscore.DEClash.Weighted>
0.0291

> <Gold.Chemscore.DEInternal.Weighted>
0.5653

> <Gold.Chemscore.Rot.Weighted>
2.5600

> <Gold.Chemscore.Internal.Correction.Weighted>
   9.000000E+99

> <Gold.Protein.RotatedTorsions>
[ 6907 6896 6895 6894 ] final  137.82 input  -60.11 | X-H torsion
[ 7974 7965 7964 7962 ] final  -12.67 input  175.53 | X-H torsion
[ 8008 7997 7996 7995 ] final   27.81 input   59.86 | X-H torsion
[ 10167 10162 10161 10158 ] final  151.97 input  -65.29 | X-H torsion
[ 10718 10713 10712 10709 ] final  121.88 input   66.30 | X-H torsion
[ 10763 10752 10751 10750 ] final  -42.68 input  -60.55 | X-H torsion
[ 11005 11000 10999 10996 ] final  -20.05 input  -57.11 | X-H torsion

> <Gold.Protein.ActiveResidues>
 VAL166  LYS551  ARG553  GLY616  TRP617  ASP618  TYR619  PRO620  LYS621  CYS622 
 ASP623  PHE694  ASN695  SER759  ASP760  ASP761  ALA762  ILE779  LEU786  VAL792 
 PHE793  MET794  SER795  GLU796  ALA797  LYS798  CYS799  TRP800  GLU811  SER814 

> <Gold.Protein.RotatedAtoms>
  152.2737  133.5406  159.5454 H   0  0  0  0  0  0  0  0  0  0  0  0  # atno 6907 bound_to 6896
  150.7169  134.0661  159.3857 H   0  0  0  0  0  0  0  0  0  0  0  0  # atno 6908 bound_to 6896
  151.8575  135.0536  160.0516 H   0  0  0  0  0  0  0  0  0  0  0  0  # atno 6909 bound_to 6896
  146.2143  140.3092  142.8381 H   0  0  0  0  0  0  0  0  0  0  0  0  # atno 7974 bound_to 7965
  155.0488  140.3177  155.4699 H   0  0  0  0  0  0  0  0  0  0  0  0  # atno 8008 bound_to 7997
  156.2839  140.2150  156.5557 H   0  0  0  0  0  0  0  0  0  0  0  0  # atno 8009 bound_to 7997
  154.7228  140.0488  157.0643 H   0  0  0  0  0  0  0  0  0  0  0  0  # atno 8010 bound_to 7997
  139.4836  144.5397  151.7586 H   0  0  0  0  0  0  0  0  0  0  0  0  # atno 10167 bound_to 10162
  157.5784  131.1077  150.8234 H   0  0  0  0  0  0  0  0  0  0  0  0  # atno 10718 bound_to 10713
  153.9830  135.6714  153.4751 H   0  0  0  0  0  0  0  0  0  0  0  0  # atno 10763 bound_to 10752
  153.0740  135.4959  154.8361 H   0  0  0  0  0  0  0  0  0  0  0  0  # atno 10764 bound_to 10752
  154.7153  135.3106  154.9094 H   0  0  0  0  0  0  0  0  0  0  0  0  # atno 10765 bound_to 10752
  140.8426  133.7915  155.9878 H   0  0  0  0  0  0  0  0  0  0  0  0  # atno 11005 bound_to 11000
  144.9001  140.7632  143.5872 LP  0  0  0  0  0  0  0  0  0  0  0  0  # atno 17320 bound_to 7965
  145.3017  139.1848  143.4686 LP  0  0  0  0  0  0  0  0  0  0  0  0  # atno 17321 bound_to 7965
  140.4934  144.1276  150.5955 LP  0  0  0  0  0  0  0  0  0  0  0  0  # atno 17342 bound_to 10162
  140.4145  143.2641  151.9792 LP  0  0  0  0  0  0  0  0  0  0  0  0  # atno 17343 bound_to 10162
  156.8687  130.5138  149.5298 LP  0  0  0  0  0  0  0  0  0  0  0  0  # atno 17370 bound_to 10713
  156.0829  130.5835  150.9596 LP  0  0  0  0  0  0  0  0  0  0  0  0  # atno 17371 bound_to 10713
  140.8878  134.2532  157.5110 LP  0  0  0  0  0  0  0  0  0  0  0  0  # atno 17394 bound_to 11000
  139.8703  134.9647  156.4503 LP  0  0  0  0  0  0  0  0  0  0  0  0  # atno 17395 bound_to 11000

$$$$
