AV-unprocessed.smi:2311|AV-procd|sdf|9261|dock10
  -GOLD-   2272012483D 1   1.00000     0.00000
 Structure written by MMmdl.
 40 41  0  0  0  0  0  0  0  0  1 V2000
  141.7325  134.2632  152.8599 C   0  0  0  0  0  0  0  0  0  0  0  0
  143.1083  134.2220  152.2289 C   0  0  0  0  0  0  0  0  0  0  0  0
  143.4569  133.2078  151.3154 C   0  0  0  0  0  0  0  0  0  0  0  0
  144.7522  133.2257  150.7678 C   0  0  0  0  0  0  0  0  0  0  0  0
  145.6393  134.2490  151.1539 C   0  0  0  0  0  0  0  0  0  0  0  0
  145.2107  135.2291  152.0774 C   0  0  0  0  0  0  0  0  0  0  0  0
  146.1794  136.2161  152.4014 N   0  0  0  0  0  0  0  0  0  0  0  0
  146.0027  137.3629  153.0816 C   0  0  0  0  0  0  0  0  0  0  0  0
  144.9338  137.7570  153.5492 O   0  0  0  0  0  0  0  0  0  0  0  0
  147.1538  138.0416  153.1958 N   0  0  0  0  0  0  0  0  0  0  0  0
  147.3102  139.3233  153.8782 C   0  0  2  0  0  0  0  0  0  0  0  0
  147.1017  140.4701  152.8820 C   0  0  0  0  0  0  0  0  0  0  0  0
  147.3780  141.8234  153.5509 C   0  0  0  0  0  0  0  0  0  0  0  0
  148.6932  141.8480  154.1026 O   0  0  0  0  0  0  0  0  0  0  0  0
  148.9857  140.8510  155.0875 C   0  0  0  0  0  0  0  0  0  0  0  0
  150.4861  141.0066  155.3855 C   0  0  0  0  0  0  0  0  0  0  0  0
  148.1897  141.1106  156.3848 C   0  0  0  0  0  0  0  0  0  0  0  0
  148.7134  139.4450  154.5002 C   0  0  0  0  0  0  0  0  0  0  0  0
  143.9589  135.2032  152.5995 N   0  0  0  0  0  0  0  0  0  0  0  0
  141.0644  133.5352  152.3989 H   0  0  0  0  0  0  0  0  0  0  0  0
  141.2884  135.2522  152.7438 H   0  0  0  0  0  0  0  0  0  0  0  0
  141.7992  134.0392  153.9248 H   0  0  0  0  0  0  0  0  0  0  0  0
  142.7535  132.4353  151.0406 H   0  0  0  0  0  0  0  0  0  0  0  0
  145.0613  132.4675  150.0635 H   0  0  0  0  0  0  0  0  0  0  0  0
  146.6380  134.2765  150.7426 H   0  0  0  0  0  0  0  0  0  0  0  0
  147.1166  136.0252  152.0798 H   0  0  0  0  0  0  0  0  0  0  0  0
  147.9839  137.6438  152.7819 H   0  0  0  0  0  0  0  0  0  0  0  0
  146.5529  139.4021  154.6597 H   0  0  0  0  0  0  0  0  0  0  0  0
  147.7714  140.3491  152.0291 H   0  0  0  0  0  0  0  0  0  0  0  0
  146.0852  140.4501  152.4872 H   0  0  0  0  0  0  0  0  0  0  0  0
  147.3010  142.6214  152.8123 H   0  0  0  0  0  0  0  0  0  0  0  0
  146.6317  142.0415  154.3144 H   0  0  0  0  0  0  0  0  0  0  0  0
  150.8230  140.2739  156.1199 H   0  0  0  0  0  0  0  0  0  0  0  0
  150.7098  141.9982  155.7803 H   0  0  0  0  0  0  0  0  0  0  0  0
  151.0856  140.8712  154.4848 H   0  0  0  0  0  0  0  0  0  0  0  0
  148.4868  140.4139  157.1695 H   0  0  0  0  0  0  0  0  0  0  0  0
  147.1149  140.9970  156.2512 H   0  0  0  0  0  0  0  0  0  0  0  0
  148.3677  142.1196  156.7577 H   0  0  0  0  0  0  0  0  0  0  0  0
  148.8554  138.6853  155.2702 H   0  0  0  0  0  0  0  0  0  0  0  0
  149.4538  139.2327  153.7271 H   0  0  0  0  0  0  0  0  0  0  0  0
  1  2  1  0  0  0  0
  1 20  1  0  0  0  0
  1 21  1  0  0  0  0
  1 22  1  0  0  0  0
  2 19  1  0  0  0  0
  2  3  2  0  0  0  0
  3  4  1  0  0  0  0
  3 23  1  0  0  0  0
  4  5  2  0  0  0  0
  4 24  1  0  0  0  0
  5  6  1  0  0  0  0
  5 25  1  0  0  0  0
  6  7  1  0  0  0  0
  6 19  2  0  0  0  0
  7  8  1  0  0  0  0
  7 26  1  0  0  0  0
  8  9  2  0  0  0  0
  8 10  1  0  0  0  0
 10 11  1  0  0  0  0
 10 27  1  0  0  0  0
 11 18  1  0  0  0  0
 11 12  1  0  0  0  0
 11 28  1  0  0  0  0
 12 13  1  0  0  0  0
 12 29  1  0  0  0  0
 12 30  1  0  0  0  0
 13 14  1  0  0  0  0
 13 31  1  0  0  0  0
 13 32  1  0  0  0  0
 14 15  1  0  0  0  0
 15 16  1  0  0  0  0
 15 17  1  0  0  0  0
 15 18  1  0  0  0  0
 16 33  1  0  0  0  0
 16 34  1  0  0  0  0
 16 35  1  0  0  0  0
 17 36  1  0  0  0  0
 17 37  1  0  0  0  0
 17 38  1  0  0  0  0
 18 39  1  0  0  0  0
 18 40  1  0  0  0  0
M  END
> <s_m_source_file>
AV-unprocessed.smi

> <i_m_source_file_index>
2311

> <i_lp_mmshare_version>
43012

> <i_f3d_flags>
0

> <s_epik_input>
W0NIM11jMVtjSF1bY0hdW2NIXWMobjEpW05IXUMoPU8pW05IXVtDQEBIXShbQ0gyXTIpW0NIMl1bQ0gyXU9DMihbQ0gzXSlbQ0gzXQ==

> <s_epik_cmdline>
J2VwaWtfcHl0aG9uJywgJy1waCcsICc3LjAnLCAnLXRuJywgJzgnLCAnLW1hJywgJzIwMCcsICctbWV0YWxfYmluZGluZycsICctaW1hZScsICc8aW5maWxlLm1hZT4nLCAnLW9tYWUnLCAnPG91dGZpbGUubWFlPic=

> <r_lp_tautomer_probability>
1

> <r_epik_Ionization_Penalty>
8.54628e-05

> <r_epik_Ionization_Penalty_Charging>
0

> <r_epik_Ionization_Penalty_Neutral>
8.54628e-05

> <r_epik_State_Penalty>
-0

> <r_epik_Charging_Adjusted_Penalty>
0

> <i_epik_Tot_Q>
0

> <i_epik_Tot_abs_Q>
0

> <r_epik_Metal_State_Penalty>
-0

> <b_epik_Metal_Only>
0

> <s_lp_Force_Field>
OPLS_2005

> <r_lp_Energy>
12.4956

> <b_lp_Chiralities_Consistent>
1

> <s_lp_Variant>
AV-unprocessed.smi:2311-1

> <Gold.Version>
5.8.1

> <Gold.Id.Protein>
6NUR|6NUR_protein|mol2

> <Gold.PLP.Fitness>
36.4770

> <Gold.PLP.PLP>
-30.2683

> <Gold.PLP.part.hbond>
-3.0000

> <Gold.PLP.part.metal>
0.0000

> <Gold.PLP.part.buried>
-3.4699

> <Gold.PLP.part.nonpolar>
-23.7255

> <Gold.PLP.part.repulsive>
0.5047

> <Gold.PLP.ligand.clash>
0.0000

> <Gold.PLP.ligand.torsion>
0.3989

> <Gold.PLP.Chemscore.Hbond>
2.3354

> <Gold.PLP.Chemscore.CHOScore>
0.0000

> <Gold.PLP.Chemscore.Metal>
0.0000

> <Gold.Chemscore.Hbonds>
donor molecule, donor type, donor heavy atom, donor atom, acceptor molecule, acceptor atom, score
      L1  H     7    26       P1  7948  1.00
      L1  H    10    27       P1  7948  1.00
      P1  H  8011  8017       L1    14  0.32

> <Gold.PLP.Chemscore.Internal.Correction>
0.0002

> <Gold.Rescore>
     Score         DG    S(hbond)    S(metal)    S(lipo)     H(rot)  DE(clash)    DE(int)     intcor
     16.64     -18.39       1.96        0.00      76.35       1.00       0.09       1.66       ----

> <Gold.Chemscore.Fitness>
16.6401

> <Gold.Chemscore.DG>
-18.3926

> <Gold.Chemscore.ZeroCoef>
-5.4800

> <Gold.Chemscore.Hbond>
1.9578

> <Gold.Chemscore.Metal>
0.0000

> <Gold.Chemscore.Lipo>
76.3535

> <Gold.Chemscore.Internal_Hbond>
0.0000

> <Gold.Chemscore.DEClash>
0.0895

> <Gold.Chemscore.DEInternal>
1.6630

> <Gold.Chemscore.Rot>
1.0000

> <Gold.Chemscore.Internal.Correction>
   9.000000E+99

> <Gold.Chemscore.Hbonds>
donor molecule, donor type, donor heavy atom, donor atom, acceptor molecule, acceptor atom, score
      L1  H     7    26       P1  7948  1.00
      L1  H    10    27       P1  7948  0.97
      P1  H  8011  8017       L1    14  0.07

> <Gold.Chemscore.Hbond.Weighted>
-6.5392

> <Gold.Chemscore.Metal.Weighted>
-0.0000

> <Gold.Chemscore.Lipo.Weighted>
-8.9334

> <Gold.Chemscore.Internal_Hbond.Weighted>
0.0000

> <Gold.Chemscore.DEClash.Weighted>
0.0895

> <Gold.Chemscore.DEInternal.Weighted>
1.6630

> <Gold.Chemscore.Rot.Weighted>
2.5600

> <Gold.Chemscore.Internal.Correction.Weighted>
   9.000000E+99

> <Gold.Protein.RotatedTorsions>
[ 6907 6896 6895 6894 ] final  126.03 input  -60.11 | X-H torsion
[ 7974 7965 7964 7962 ] final   77.92 input  175.53 | X-H torsion
[ 8008 7997 7996 7995 ] final   48.22 input   59.86 | X-H torsion
[ 10167 10162 10161 10158 ] final  155.35 input  -65.29 | X-H torsion
[ 10718 10713 10712 10709 ] final   30.82 input   66.30 | X-H torsion
[ 10763 10752 10751 10750 ] final  135.78 input  -60.55 | X-H torsion
[ 11005 11000 10999 10996 ] final  138.99 input  -57.11 | X-H torsion

> <Gold.Protein.ActiveResidues>
 VAL166  LYS551  ARG553  GLY616  TRP617  ASP618  TYR619  PRO620  LYS621  CYS622 
 ASP623  PHE694  ASN695  SER759  ASP760  ASP761  ALA762  ILE779  LEU786  VAL792 
 PHE793  MET794  SER795  GLU796  ALA797  LYS798  CYS799  TRP800  GLU811  SER814 

> <Gold.Protein.RotatedAtoms>
  152.3939  133.6719  159.6260 H   0  0  0  0  0  0  0  0  0  0  0  0  # atno 6907 bound_to 6896
  150.7842  133.8907  159.3321 H   0  0  0  0  0  0  0  0  0  0  0  0  # atno 6908 bound_to 6896
  151.6687  135.0980  160.0245 H   0  0  0  0  0  0  0  0  0  0  0  0  # atno 6909 bound_to 6896
  145.6838  139.2531  143.1799 H   0  0  0  0  0  0  0  0  0  0  0  0  # atno 7974 bound_to 7965
  155.3821  140.3429  155.4247 H   0  0  0  0  0  0  0  0  0  0  0  0  # atno 8008 bound_to 7997
  156.1605  140.1599  156.8654 H   0  0  0  0  0  0  0  0  0  0  0  0  # atno 8009 bound_to 7997
  154.5135  140.0784  156.8017 H   0  0  0  0  0  0  0  0  0  0  0  0  # atno 8010 bound_to 7997
  139.4821  144.5106  151.8030 H   0  0  0  0  0  0  0  0  0  0  0  0  # atno 10167 bound_to 10162
  157.2645  130.7177  149.6471 H   0  0  0  0  0  0  0  0  0  0  0  0  # atno 10718 bound_to 10713
  153.8457  135.3086  155.3429 H   0  0  0  0  0  0  0  0  0  0  0  0  # atno 10763 bound_to 10752
  154.7913  135.4781  154.0063 H   0  0  0  0  0  0  0  0  0  0  0  0  # atno 10764 bound_to 10752
  153.1549  135.6850  153.8920 H   0  0  0  0  0  0  0  0  0  0  0  0  # atno 10765 bound_to 10752
  140.0223  134.9391  157.0498 H   0  0  0  0  0  0  0  0  0  0  0  0  # atno 11005 bound_to 11000
  146.0941  140.7621  142.9581 LP  0  0  0  0  0  0  0  0  0  0  0  0  # atno 17320 bound_to 7965
  144.7018  140.3684  143.7150 LP  0  0  0  0  0  0  0  0  0  0  0  0  # atno 17321 bound_to 7965
  140.4609  144.1723  150.5906 LP  0  0  0  0  0  0  0  0  0  0  0  0  # atno 17342 bound_to 10162
  140.4485  143.2496  151.9379 LP  0  0  0  0  0  0  0  0  0  0  0  0  # atno 17343 bound_to 10162
  155.9663  130.4387  150.5228 LP  0  0  0  0  0  0  0  0  0  0  0  0  # atno 17370 bound_to 10713
  157.3139  131.0669  151.1981 LP  0  0  0  0  0  0  0  0  0  0  0  0  # atno 17371 bound_to 10713
  140.4366  134.1724  155.7171 LP  0  0  0  0  0  0  0  0  0  0  0  0  # atno 17394 bound_to 11000
  141.1781  133.8471  157.1352 LP  0  0  0  0  0  0  0  0  0  0  0  0  # atno 17395 bound_to 11000

$$$$
