#       Name:                AV-unprocessed.smi:2813
#       Creating user name   scv26
#       Creation time:       Fri Mar 27 15:27:58 2020


#       File generated by GOLD software.
#

@<TRIPOS>MOLECULE
AV-unprocessed.smi:2813
    48    49     1
SMALL
NO_CHARGES


@<TRIPOS>ATOM
      1 ****        -3.1964   5.8580  -0.0085 C.3            1 S1                 0.0000
      2 ****        -2.7231   4.4160   0.0410 C.2            1 S1                 0.0000
      3 ****        -2.7580   3.8123   1.3013 N.2            1 S1                 0.0000
      4 ****        -2.3731   2.5858   1.4397 C.2            1 S1                 0.0000
      5 ****        -1.9191   1.8269   0.3484 N.am           1 S1                 0.0000
      6 ****        -1.5121   0.4419   0.6408 C.3            1 S1                 0.0000
      7 ****         0.0202   0.3046   0.7919 C.3            1 S1                 0.0000
      8 ****         0.3623   0.6914   2.1087 O.3            1 S1                 0.0000
      9 ****         0.4880  -1.1497   0.6109 C.3            1 S1                 0.0000
     10 ****         1.8822  -1.1518   0.3322 O.3            1 S1                 0.0000
     11 ****         2.5126  -2.3641   0.1501 C.ar           1 S1                 0.0000
     12 ****         3.8956  -2.3297  -0.1190 C.ar           1 S1                 0.0000
     13 ****         4.6190  -3.5196  -0.3210 C.ar           1 S1                 0.0000
     14 ****         3.9637  -4.7625  -0.2513 C.ar           1 S1                 0.0000
     15 ****         2.5808  -4.8206   0.0231 C.ar           1 S1                 0.0000
     16 ****         1.8617  -6.1600   0.0928 C.3            1 S1                 0.0000
     17 ****         0.9057  -6.1322   1.0221 F              1 S1                 0.0000
     18 ****         1.3039  -6.4202  -1.0889 F              1 S1                 0.0000
     19 ****         2.7061  -7.1469   0.3944 F              1 S1                 0.0000
     20 ****         1.8602  -3.6214   0.2154 C.ar           1 S1                 0.0000
     21 ****        -1.8442   2.3415  -0.9132 C.2            1 S1                 0.0000
     22 ****        -1.4302   1.6713  -1.8611 O.2            1 S1                 0.0000
     23 ****        -2.2868   3.7381  -1.0557 C.2            1 S1                 0.0000
     24 ****        -2.2248   4.3441  -2.4523 C.3            1 S1                 0.0000
     25 ****        -4.0447   5.9596  -0.6860 H              1 S1                 0.0000
     26 ****        -2.3937   6.5109  -0.3526 H              1 S1                 0.0000
     27 ****        -3.5124   6.2065   0.9757 H              1 S1                 0.0000
     28 ****        -2.3739   2.0713   2.4022 H              1 S1                 0.0000
     29 ****        -2.0227   0.0391   1.5183 H              1 S1                 0.0000
     30 ****        -1.8569  -0.1910  -0.1787 H              1 S1                 0.0000
     31 ****         0.5331   0.9425   0.0709 H              1 S1                 0.0000
     32 ****        -0.0486   0.0942   2.7149 H              1 S1                 0.0000
     33 ****         0.2499  -1.7466   1.4933 H              1 S1                 0.0000
     34 ****        -0.0264  -1.5951  -0.2422 H              1 S1                 0.0000
     35 ****         4.4075  -1.3799  -0.1736 H              1 S1                 0.0000
     36 ****         5.6777  -3.4779  -0.5304 H              1 S1                 0.0000
     37 ****         4.5287  -5.6688  -0.4119 H              1 S1                 0.0000
     38 ****         0.8012  -3.6897   0.4110 H              1 S1                 0.0000
     39 ****        -1.1996   4.3284  -2.8235 H              1 S1                 0.0000
     40 ****        -2.5712   5.3756  -2.4891 H              1 S1                 0.0000
     41 ****        -2.8433   3.7667  -3.1403 H              1 S1                 0.0000
     42 ****        -3.0802   4.3285   2.0949 LP             1 S1                 0.0000
     43 ****         0.0391   1.6219   2.2812 LP             1 S1                 0.0000
     44 ****         1.3552   0.6570   2.2227 LP             1 S1                 0.0000
     45 ****         2.3371  -0.6938   1.0960 LP             1 S1                 0.0000
     46 ****         2.0174  -0.6198  -0.5037 LP             1 S1                 0.0000
     47 ****        -1.1389   0.7258  -1.7155 LP             1 S1                 0.0000
     48 ****        -1.3856   2.0730  -2.7758 LP             1 S1                 0.0000
@<TRIPOS>BOND
    1    1    2 1     
    2    1   25 1     
    3    1   26 1     
    4    1   27 1     
    5    2   23 2     
    6    2    3 1     
    7    3    4 2     
    8    4    5 1     
    9    4   28 1     
   10    5    6 1     
   11    5   21 am    
   12    6    7 1     
   13    6   29 1     
   14    6   30 1     
   15    7    8 1     
   16    7    9 1     
   17    7   31 1     
   18    8   32 1     
   19    9   10 1     
   20    9   33 1     
   21    9   34 1     
   22   10   11 1     
   23   11   20 ar    
   24   11   12 ar    
   25   12   13 ar    
   26   12   35 1     
   27   13   14 ar    
   28   13   36 1     
   29   14   15 ar    
   30   14   37 1     
   31   15   16 1     
   32   15   20 ar    
   33   16   17 1     
   34   16   18 1     
   35   16   19 1     
   36   20   38 1     
   37   21   22 2     
   38   21   23 1     
   39   23   24 1     
   40   24   39 1     
   41   24   40 1     
   42   24   41 1     
   43    3   42 1     
   44    8   43 1     
   45    8   44 1     
   46   10   45 1     
   47   10   46 1     
   48   22   47 1     
   49   22   48 1     
@<TRIPOS>SUBSTRUCTURE
      1 S1             1
@<TRIPOS>SET
LONE_PAIRS      STATIC     ATOMS    <user>   **** ""
7 42 43 44 45 46 47 48
DONOR_HYDROGENS      STATIC     ATOMS    <user>   **** ""
1 32
ATOM$BLUE        STATIC     ATOMS    COLORGROUP SYSTEM
7 42 43 44 45 46 47 48
ATOM$RED        STATIC     ATOMS    COLORGROUP SYSTEM
1 32
