AV-unprocessed.smi:1032|AV-procd|sdf|4489|dock2
  -GOLD-   22720 2473D 1   1.00000     0.00000
 Structure written by MMmdl.
 47 48  0  0  0  0  0  0  0  0  3 V2000
  145.0108  131.2201  152.1646 C   0  0  0  0  0  0  0  0  0  0  0  0
  145.4291  131.5001  150.7107 C   0  0  2  0  0  0  0  0  0  0  0  0
  146.7077  132.3522  150.6107 C   0  0  0  0  0  0  0  0  0  0  0  0
  146.4544  133.8296  150.9609 C   0  0  0  0  0  0  0  0  0  0  0  0
  145.3734  134.4041  150.1171 N   0  3  2  0  0  0  0  0  0  0  0  0
  145.1799  135.8628  150.3229 C   0  0  0  0  0  0  0  0  0  0  0  0
  146.4242  136.6862  149.9304 C   0  0  1  0  0  0  0  0  0  0  0  0
  146.4025  136.8196  148.5226 O   0  0  0  0  0  0  0  0  0  0  0  0
  146.3885  138.0963  150.5551 C   0  0  0  0  0  0  0  0  0  0  0  0
  147.5615  138.3596  151.3833 N   0  0  0  0  0  0  0  0  0  0  0  0
  147.8521  139.5374  151.9533 C   0  0  0  0  0  0  0  0  0  0  0  0
  147.1620  140.5464  151.8124 O   0  0  0  0  0  0  0  0  0  0  0  0
  148.9908  139.4693  152.6648 N   0  0  0  0  0  0  0  0  0  0  0  0
  149.6119  140.4875  153.4384 C   0  0  0  0  0  0  0  0  0  0  0  0
  150.6929  140.1129  154.2674 C   0  0  0  0  0  0  0  0  0  0  0  0
  151.3268  141.0864  155.0661 C   0  0  0  0  0  0  0  0  0  0  0  0
  150.8910  142.3641  155.0418 N   0  3  0  0  0  0  0  0  0  0  0  0
  149.8534  142.7671  154.2774 C   0  0  0  0  0  0  0  0  0  0  0  0
  149.1807  141.8387  153.4570 C   0  0  0  0  0  0  0  0  0  0  0  0
  144.1073  133.6399  150.2542 C   0  0  0  0  0  0  0  0  0  0  0  0
  144.3085  132.1589  149.8860 C   0  0  0  0  0  0  0  0  0  0  0  0
  144.7721  132.1336  152.7083 H   0  0  0  0  0  0  0  0  0  0  0  0
  145.8075  130.7117  152.7083 H   0  0  0  0  0  0  0  0  0  0  0  0
  144.1314  130.5766  152.1998 H   0  0  0  0  0  0  0  0  0  0  0  0
  145.6438  130.5301  150.2600 H   0  0  0  0  0  0  0  0  0  0  0  0
  147.4861  131.9425  151.2556 H   0  0  0  0  0  0  0  0  0  0  0  0
  147.0975  132.2934  149.5933 H   0  0  0  0  0  0  0  0  0  0  0  0
  146.1909  133.9311  152.0146 H   0  0  0  0  0  0  0  0  0  0  0  0
  147.3796  134.3867  150.8182 H   0  0  0  0  0  0  0  0  0  0  0  0
  144.3343  136.2132  149.7280 H   0  0  0  0  0  0  0  0  0  0  0  0
  144.9093  136.0439  151.3643 H   0  0  0  0  0  0  0  0  0  0  0  0
  147.3360  136.1725  150.2345 H   0  0  0  0  0  0  0  0  0  0  0  0
  146.3093  135.9598  148.1396 H   0  0  0  0  0  0  0  0  0  0  0  0
  146.2488  138.8706  149.7979 H   0  0  0  0  0  0  0  0  0  0  0  0
  145.5307  138.1743  151.2235 H   0  0  0  0  0  0  0  0  0  0  0  0
  148.1859  137.5831  151.5468 H   0  0  0  0  0  0  0  0  0  0  0  0
  149.4963  138.5970  152.6104 H   0  0  0  0  0  0  0  0  0  0  0  0
  151.0403  139.0901  154.2902 H   0  0  0  0  0  0  0  0  0  0  0  0
  152.1618  140.8821  155.7205 H   0  0  0  0  0  0  0  0  0  0  0  0
  149.5892  143.8121  154.3491 H   0  0  0  0  0  0  0  0  0  0  0  0
  148.3408  142.1784  152.8703 H   0  0  0  0  0  0  0  0  0  0  0  0
  143.7272  133.7368  151.2719 H   0  0  0  0  0  0  0  0  0  0  0  0
  143.3501  134.0658  149.5949 H   0  0  0  0  0  0  0  0  0  0  0  0
  144.5586  132.0905  148.8262 H   0  0  0  0  0  0  0  0  0  0  0  0
  143.3740  131.6108  150.0111 H   0  0  0  0  0  0  0  0  0  0  0  0
  145.6597  134.2953  149.1542 H   0  0  0  0  0  0  0  0  0  0  0  0
  151.3623  143.0529  155.6287 H   0  0  0  0  0  0  0  0  0  0  0  0
  1  2  1  0  0  0  0
  1 22  1  0  0  0  0
  1 23  1  0  0  0  0
  1 24  1  0  0  0  0
  2 21  1  0  0  0  0
  2  3  1  0  0  0  0
  2 25  1  0  0  0  0
  3  4  1  0  0  0  0
  3 26  1  0  0  0  0
  3 27  1  0  0  0  0
  4  5  1  0  0  0  0
  4 28  1  0  0  0  0
  4 29  1  0  0  0  0
  5  6  1  0  0  0  0
  5 20  1  0  0  0  0
  5 46  1  0  0  0  0
  6  7  1  0  0  0  0
  6 30  1  0  0  0  0
  6 31  1  0  0  0  0
  7  8  1  0  0  0  0
  7  9  1  0  0  0  0
  7 32  1  0  0  0  0
  8 33  1  0  0  0  0
  9 10  1  0  0  0  0
  9 34  1  0  0  0  0
  9 35  1  0  0  0  0
 10 11  1  0  0  0  0
 10 36  1  0  0  0  0
 11 12  2  0  0  0  0
 11 13  1  0  0  0  0
 13 14  1  0  0  0  0
 13 37  1  0  0  0  0
 14 19  1  0  0  0  0
 14 15  2  0  0  0  0
 15 16  1  0  0  0  0
 15 38  1  0  0  0  0
 16 17  2  0  0  0  0
 16 39  1  0  0  0  0
 17 18  1  0  0  0  0
 17 47  1  0  0  0  0
 18 19  2  0  0  0  0
 18 40  1  0  0  0  0
 19 41  1  0  0  0  0
 20 21  1  0  0  0  0
 20 42  1  0  0  0  0
 20 43  1  0  0  0  0
 21 44  1  0  0  0  0
 21 45  1  0  0  0  0
M  CHG  1   5   1
M  CHG  1  17   1
M  END
> <s_m_source_file>
AV-unprocessed.smi

> <i_m_source_file_index>
1032

> <i_lp_mmshare_version>
43012

> <i_f3d_flags>
0

> <s_epik_input>
W0NIM11bQ0hdMVtDSDJdW0NIMl1OKFtDSDJdW0NIMl0xKVtDSDJdW0NASF0oW09IXSlbQ0gyXVtOSF1DKD1PKVtOSF1jMltjSF1bY0hdbltjSF1bY0hdMg==

> <s_epik_cmdline>
J2VwaWtfcHl0aG9uJywgJy1waCcsICc3LjAnLCAnLXRuJywgJzgnLCAnLW1hJywgJzIwMCcsICctbWV0YWxfYmluZGluZycsICctaW1hZScsICc8aW5maWxlLm1hZT4nLCAnLW9tYWUnLCAnPG91dGZpbGUubWFlPic=

> <r_epik_Ionization_Penalty>
1.02509

> <r_epik_Ionization_Penalty_Charging>
1.02507

> <r_epik_Ionization_Penalty_Neutral>
1.85474e-05

> <r_epik_State_Penalty>
1.07411

> <r_epik_Charging_Adjusted_Penalty>
2.09917

> <i_epik_Tot_Q>
2

> <i_epik_Tot_abs_Q>
2

> <r_epik_Metal_State_Penalty>
1.1725

> <b_epik_Metal_Only>
0

> <s_lp_Force_Field>
OPLS_2005

> <r_lp_Energy>
32.8821

> <b_lp_Chiralities_Consistent>
1

> <s_lp_Variant>
AV-unprocessed.smi:1032-8

> <Gold.Version>
5.8.1

> <Gold.Id.Protein>
6NUR|6NUR_protein|mol2

> <Gold.PLP.Fitness>
47.5187

> <Gold.PLP.PLP>
-40.4114

> <Gold.PLP.part.hbond>
-6.7765

> <Gold.PLP.part.metal>
0.0000

> <Gold.PLP.part.buried>
9.5660

> <Gold.PLP.part.nonpolar>
-42.4523

> <Gold.PLP.part.repulsive>
0.5580

> <Gold.PLP.ligand.clash>
0.0000

> <Gold.PLP.ligand.torsion>
0.9879

> <Gold.PLP.Chemscore.Hbond>
3.0000

> <Gold.PLP.Chemscore.CHOScore>
0.0000

> <Gold.PLP.Chemscore.Metal>
0.0000

> <Gold.Chemscore.Hbonds>
donor molecule, donor type, donor heavy atom, donor atom, acceptor molecule, acceptor atom, score
      L1  H     5    46       P1  7921  1.00
      L1  H     8    33       P1  7921  0.19
      L1  H    10    36       P1  7948  1.00

> <Gold.PLP.Chemscore.Internal.Correction>
0.0831

> <Gold.Rescore>
     Score         DG    S(hbond)    S(metal)    S(lipo)     H(rot)  DE(clash)    DE(int)     intcor
     17.93     -23.35       3.17        0.00     113.29       2.34       3.22       2.20       ----

> <Gold.Chemscore.Fitness>
17.9279

> <Gold.Chemscore.DG>
-23.3481

> <Gold.Chemscore.ZeroCoef>
-5.4800

> <Gold.Chemscore.Hbond>
3.1743

> <Gold.Chemscore.Metal>
0.0000

> <Gold.Chemscore.Lipo>
113.2865

> <Gold.Chemscore.Internal_Hbond>
0.0000

> <Gold.Chemscore.DEClash>
3.2205

> <Gold.Chemscore.DEInternal>
2.1996

> <Gold.Chemscore.Rot>
2.3393

> <Gold.Chemscore.Internal.Correction>
   9.000000E+99

> <Gold.Chemscore.Hbonds>
donor molecule, donor type, donor heavy atom, donor atom, acceptor molecule, acceptor atom, score
      L1  H     5    46       P1  7921  0.77
      L1  H     8    33       P1  7921  0.17
      L1  H    10    36       P1  7948  0.94
      L1  H    13    37       P1  7948  0.01

> <Gold.Chemscore.Hbond.Weighted>
-10.6022

> <Gold.Chemscore.Metal.Weighted>
-0.0000

> <Gold.Chemscore.Lipo.Weighted>
-13.2545

> <Gold.Chemscore.Internal_Hbond.Weighted>
0.0000

> <Gold.Chemscore.DEClash.Weighted>
3.2205

> <Gold.Chemscore.DEInternal.Weighted>
2.1996

> <Gold.Chemscore.Rot.Weighted>
5.9886

> <Gold.Chemscore.Internal.Correction.Weighted>
   9.000000E+99

> <Gold.Protein.RotatedTorsions>
[ 6907 6896 6895 6894 ] final  100.79 input  -60.11 | X-H torsion
[ 7974 7965 7964 7962 ] final -100.59 input  175.53 | X-H torsion
[ 8008 7997 7996 7995 ] final  147.51 input   59.86 | X-H torsion
[ 10167 10162 10161 10158 ] final   47.15 input  -65.29 | X-H torsion
[ 10718 10713 10712 10709 ] final  103.94 input   66.30 | X-H torsion
[ 10763 10752 10751 10750 ] final  136.54 input  -60.55 | X-H torsion
[ 11005 11000 10999 10996 ] final -102.45 input  -57.11 | X-H torsion

> <Gold.Protein.ActiveResidues>
 VAL166  LYS551  ARG553  GLY616  TRP617  ASP618  TYR619  PRO620  LYS621  CYS622 
 ASP623  PHE694  ASN695  SER759  ASP760  ASP761  ALA762  ILE779  LEU786  VAL792 
 PHE793  MET794  SER795  GLU796  ALA797  LYS798  CYS799  TRP800  GLU811  SER814 

> <Gold.Protein.RotatedAtoms>
  152.5364  134.0223  159.7987 H   0  0  0  0  0  0  0  0  0  0  0  0  # atno 6907 bound_to 6896
  151.0407  133.5700  159.2658 H   0  0  0  0  0  0  0  0  0  0  0  0  # atno 6908 bound_to 6896
  151.2671  135.0680  159.9174 H   0  0  0  0  0  0  0  0  0  0  0  0  # atno 6909 bound_to 6896
  145.2926  140.9357  143.2869 H   0  0  0  0  0  0  0  0  0  0  0  0  # atno 7974 bound_to 7965
  156.2822  140.2153  156.5550 H   0  0  0  0  0  0  0  0  0  0  0  0  # atno 8008 bound_to 7997
  154.7260  140.0499  157.0706 H   0  0  0  0  0  0  0  0  0  0  0  0  # atno 8009 bound_to 7997
  155.0416  140.3146  155.4726 H   0  0  0  0  0  0  0  0  0  0  0  0  # atno 8010 bound_to 7997
  140.3066  144.2871  150.6208 H   0  0  0  0  0  0  0  0  0  0  0  0  # atno 10167 bound_to 10162
  157.6756  131.0791  150.5630 H   0  0  0  0  0  0  0  0  0  0  0  0  # atno 10718 bound_to 10713
  153.8583  135.3070  155.3436 H   0  0  0  0  0  0  0  0  0  0  0  0  # atno 10763 bound_to 10752
  154.7860  135.4809  153.9951 H   0  0  0  0  0  0  0  0  0  0  0  0  # atno 10764 bound_to 10752
  153.1477  135.6837  153.9023 H   0  0  0  0  0  0  0  0  0  0  0  0  # atno 10765 bound_to 10752
  141.1188  133.8559  157.1361 H   0  0  0  0  0  0  0  0  0  0  0  0  # atno 11005 bound_to 11000
  144.9160  139.4470  143.6564 LP  0  0  0  0  0  0  0  0  0  0  0  0  # atno 17320 bound_to 7965
  146.3179  139.7994  142.8968 LP  0  0  0  0  0  0  0  0  0  0  0  0  # atno 17321 bound_to 7965
  140.5605  143.2193  151.7773 LP  0  0  0  0  0  0  0  0  0  0  0  0  # atno 17342 bound_to 10162
  139.4903  144.4355  151.9824 LP  0  0  0  0  0  0  0  0  0  0  0  0  # atno 17343 bound_to 10162
  156.5933  130.4335  149.5927 LP  0  0  0  0  0  0  0  0  0  0  0  0  # atno 17370 bound_to 10713
  156.2566  130.6938  151.1693 LP  0  0  0  0  0  0  0  0  0  0  0  0  # atno 17371 bound_to 10713
  140.0130  134.9980  157.0435 LP  0  0  0  0  0  0  0  0  0  0  0  0  # atno 17394 bound_to 11000
  140.4567  134.1526  155.7187 LP  0  0  0  0  0  0  0  0  0  0  0  0  # atno 17395 bound_to 11000

$$$$
