AV-unprocessed.smi:258|AV-procd|sdf|1972|dock4
  -GOLD-   2262021133D 1   1.00000     0.00000
 Structure written by MMmdl.
 57 60  0  0  0  0  0  0  0  0  1 V2000
  142.6248  132.7459  150.0978 O   0  0  0  0  0  0  0  0  0  0  0  0
  143.9986  133.0622  150.0194 C   0  0  0  0  0  0  0  0  0  0  0  0
  144.6843  132.7896  151.3643 C   0  0  0  0  0  0  0  0  0  0  0  0
  145.1267  131.4399  151.3951 O   0  0  0  0  0  0  0  0  0  0  0  0
  145.7057  131.0354  152.6293 C   0  0  1  0  0  0  0  0  0  0  0  0
  146.0552  129.5335  152.6079 C   0  0  0  0  0  0  0  0  0  0  0  0
  146.8269  129.1458  153.8781 C   0  0  0  0  0  0  0  0  0  0  0  0
  148.0694  130.0314  154.0602 C   0  0  0  0  0  0  0  0  0  0  0  0
  147.7057  131.4491  154.0325 N   0  0  0  0  0  0  0  0  0  0  0  0
  148.6254  132.3417  154.4789 C   0  0  0  0  0  0  0  0  0  0  0  0
  149.8620  131.9152  154.8529 N   0  0  0  0  0  0  0  0  0  0  0  0
  150.7778  132.7894  155.2809 C   0  0  0  0  0  0  0  0  0  0  0  0
  150.6698  134.1125  155.4154 N   0  0  0  0  0  0  0  0  0  0  0  0
  149.4286  134.5447  155.0519 C   0  0  0  0  0  0  0  0  0  0  0  0
  148.3578  133.7366  154.5761 C   0  0  0  0  0  0  0  0  0  0  0  0
  147.2465  134.5311  154.3159 N   0  0  0  0  0  0  0  0  0  0  0  0
  147.6413  135.7397  154.6124 C   0  0  0  0  0  0  0  0  0  0  0  0
  148.9380  135.8374  155.0622 N   0  0  0  0  0  0  0  0  0  0  0  0
  149.6380  137.0456  155.4554 C   0  0  0  0  0  0  0  0  0  0  0  0
  149.7747  138.0452  154.2786 C   0  0  1  0  0  0  0  0  0  0  0  0
  148.4512  138.8039  154.0227 C   0  0  0  0  0  0  0  0  0  0  0  0
  148.0928  138.7285  152.6589 O   0  0  0  0  0  0  0  0  0  0  0  0
  151.0006  138.9734  154.4765 C   0  0  1  0  0  0  0  0  0  0  0  0
  150.9701  139.8552  155.7256 C   0  0  0  0  0  0  0  0  0  0  0  0
  152.3776  139.7254  156.3116 C   0  0  0  0  0  0  0  0  0  0  0  0
  153.1661  139.2335  155.2395 O   0  0  0  0  0  0  0  0  0  0  0  0
  152.3686  138.2857  154.5507 C   0  0  0  0  0  0  0  0  0  0  0  0
  146.9775  131.8775  152.8384 C   0  0  0  0  0  0  0  0  0  0  0  0
  142.1266  133.5426  149.9975 H   0  0  0  0  0  0  0  0  0  0  0  0
  144.4742  132.5066  149.2106 H   0  0  0  0  0  0  0  0  0  0  0  0
  144.0777  134.1214  149.7740 H   0  0  0  0  0  0  0  0  0  0  0  0
  145.5554  133.4399  151.4550 H   0  0  0  0  0  0  0  0  0  0  0  0
  144.0179  133.0259  152.1944 H   0  0  0  0  0  0  0  0  0  0  0  0
  145.0189  131.2452  153.4518 H   0  0  0  0  0  0  0  0  0  0  0  0
  145.1555  128.9239  152.5299 H   0  0  0  0  0  0  0  0  0  0  0  0
  146.6618  129.3094  151.7294 H   0  0  0  0  0  0  0  0  0  0  0  0
  146.1749  129.2504  154.7463 H   0  0  0  0  0  0  0  0  0  0  0  0
  147.1199  128.0965  153.8342 H   0  0  0  0  0  0  0  0  0  0  0  0
  148.5534  129.7867  155.0068 H   0  0  0  0  0  0  0  0  0  0  0  0
  148.7898  129.8279  153.2664 H   0  0  0  0  0  0  0  0  0  0  0  0
  151.7338  132.3681  155.5550 H   0  0  0  0  0  0  0  0  0  0  0  0
  146.9943  136.5985  154.5088 H   0  0  0  0  0  0  0  0  0  0  0  0
  149.1086  137.4925  156.2981 H   0  0  0  0  0  0  0  0  0  0  0  0
  150.6132  136.7527  155.8462 H   0  0  0  0  0  0  0  0  0  0  0  0
  149.9919  137.4767  153.3720 H   0  0  0  0  0  0  0  0  0  0  0  0
  147.6368  138.3937  154.6200 H   0  0  0  0  0  0  0  0  0  0  0  0
  148.5373  139.8576  154.2845 H   0  0  0  0  0  0  0  0  0  0  0  0
  148.6735  139.2863  152.1640 H   0  0  0  0  0  0  0  0  0  0  0  0
  151.0359  139.6599  153.6283 H   0  0  0  0  0  0  0  0  0  0  0  0
  150.7634  140.8888  155.4450 H   0  0  0  0  0  0  0  0  0  0  0  0
  150.2131  139.5633  156.4531 H   0  0  0  0  0  0  0  0  0  0  0  0
  152.7644  140.6707  156.6927 H   0  0  0  0  0  0  0  0  0  0  0  0
  152.3883  138.9990  157.1257 H   0  0  0  0  0  0  0  0  0  0  0  0
  152.3415  137.3634  155.1309 H   0  0  0  0  0  0  0  0  0  0  0  0
  152.7798  138.0587  153.5669 H   0  0  0  0  0  0  0  0  0  0  0  0
  147.6366  131.7742  151.9752 H   0  0  0  0  0  0  0  0  0  0  0  0
  146.7052  132.9311  152.8965 H   0  0  0  0  0  0  0  0  0  0  0  0
  1  2  1  0  0  0  0
  1 29  1  0  0  0  0
  2  3  1  0  0  0  0
  2 30  1  0  0  0  0
  2 31  1  0  0  0  0
  3  4  1  0  0  0  0
  3 32  1  0  0  0  0
  3 33  1  0  0  0  0
  4  5  1  0  0  0  0
  5 28  1  0  0  0  0
  5  6  1  0  0  0  0
  5 34  1  0  0  0  0
  6  7  1  0  0  0  0
  6 35  1  0  0  0  0
  6 36  1  0  0  0  0
  7  8  1  0  0  0  0
  7 37  1  0  0  0  0
  7 38  1  0  0  0  0
  8  9  1  0  0  0  0
  8 39  1  0  0  0  0
  8 40  1  0  0  0  0
  9 10  1  0  0  0  0
  9 28  1  0  0  0  0
 10 15  1  0  0  0  0
 10 11  2  0  0  0  0
 11 12  1  0  0  0  0
 12 13  2  0  0  0  0
 12 41  1  0  0  0  0
 13 14  1  0  0  0  0
 14 18  1  0  0  0  0
 14 15  2  0  0  0  0
 15 16  1  0  0  0  0
 16 17  2  0  0  0  0
 17 18  1  0  0  0  0
 17 42  1  0  0  0  0
 18 19  1  0  0  0  0
 19 20  1  0  0  0  0
 19 43  1  0  0  0  0
 19 44  1  0  0  0  0
 20 21  1  0  0  0  0
 20 23  1  0  0  0  0
 20 45  1  0  0  0  0
 21 22  1  0  0  0  0
 21 46  1  0  0  0  0
 21 47  1  0  0  0  0
 22 48  1  0  0  0  0
 23 27  1  0  0  0  0
 23 24  1  0  0  0  0
 23 49  1  0  0  0  0
 24 25  1  0  0  0  0
 24 50  1  0  0  0  0
 24 51  1  0  0  0  0
 25 26  1  0  0  0  0
 25 52  1  0  0  0  0
 25 53  1  0  0  0  0
 26 27  1  0  0  0  0
 27 54  1  0  0  0  0
 27 55  1  0  0  0  0
 28 56  1  0  0  0  0
 28 57  1  0  0  0  0
M  END
> <s_m_source_file>
AV-unprocessed.smi

> <i_m_source_file_index>
258

> <i_lp_mmshare_version>
43012

> <i_f3d_flags>
0

> <s_epik_input>
W09IXVtDSDJdW0NIMl1PW0NAQEhdMVtDSDJdW0NIMl1bQ0gyXU4oW0NIMl0xKWMobltjSF1uMiljKGMyMyluW2NIXW4zW0NIMl1bQ0BIXShbQ0gyXVtPSF0pW0NAQEhdNFtDSDJdW0NIMl1PW0NIMl00

> <s_epik_cmdline>
J2VwaWtfcHl0aG9uJywgJy1waCcsICc3LjAnLCAnLXRuJywgJzgnLCAnLW1hJywgJzIwMCcsICctbWV0YWxfYmluZGluZycsICctaW1hZScsICc8aW5maWxlLm1hZT4nLCAnLW9tYWUnLCAnPG91dGZpbGUubWFlPic=

> <r_lp_tautomer_probability>
1

> <r_epik_Ionization_Penalty>
0.00349036

> <r_epik_Ionization_Penalty_Charging>
0

> <r_epik_Ionization_Penalty_Neutral>
0.00349036

> <r_epik_State_Penalty>
0.00229798

> <r_epik_Charging_Adjusted_Penalty>
0.00229798

> <i_epik_Tot_Q>
0

> <i_epik_Tot_abs_Q>
0

> <r_epik_Metal_State_Penalty>
-0

> <b_epik_Metal_Only>
0

> <s_lp_Force_Field>
OPLS_2005

> <r_lp_Energy>
51.0481

> <b_lp_Chiralities_Consistent>
1

> <s_lp_Variant>
AV-unprocessed.smi:258-8

> <Gold.Version>
5.8.1

> <Gold.Id.Protein>
6NUR|6NUR_protein|mol2

> <Gold.PLP.Fitness>
50.3005

> <Gold.PLP.PLP>
-43.3255

> <Gold.PLP.part.hbond>
-4.9680

> <Gold.PLP.part.metal>
0.0000

> <Gold.PLP.part.buried>
-6.8539

> <Gold.PLP.part.nonpolar>
-32.2169

> <Gold.PLP.part.repulsive>
0.3298

> <Gold.PLP.ligand.clash>
0.0000

> <Gold.PLP.ligand.torsion>
1.3162

> <Gold.PLP.Chemscore.Hbond>
3.0000

> <Gold.PLP.Chemscore.CHOScore>
0.0000

> <Gold.PLP.Chemscore.Metal>
0.0000

> <Gold.Chemscore.Hbonds>
donor molecule, donor type, donor heavy atom, donor atom, acceptor molecule, acceptor atom, score
      L1  H     1    29       P1 10186  0.89
      L1  H    22    48       P1  7957  1.00

> <Gold.PLP.Chemscore.Internal.Correction>
0.6074

> <Gold.Rescore>
     Score         DG    S(hbond)    S(metal)    S(lipo)     H(rot)  DE(clash)    DE(int)     intcor
     13.63     -15.34       2.99        0.00      91.39       4.22       0.30       1.41       ----

> <Gold.Chemscore.Fitness>
13.6333

> <Gold.Chemscore.DG>
-15.3433

> <Gold.Chemscore.ZeroCoef>
-5.4800

> <Gold.Chemscore.Hbond>
2.9896

> <Gold.Chemscore.Metal>
0.0000

> <Gold.Chemscore.Lipo>
91.3931

> <Gold.Chemscore.Internal_Hbond>
0.0000

> <Gold.Chemscore.DEClash>
0.2971

> <Gold.Chemscore.DEInternal>
1.4130

> <Gold.Chemscore.Rot>
4.2246

> <Gold.Chemscore.Internal.Correction>
   9.000000E+99

> <Gold.Chemscore.Hbonds>
donor molecule, donor type, donor heavy atom, donor atom, acceptor molecule, acceptor atom, score
      L1  H     1    29       P1 10186  0.86
      L1  H    22    48       P1  7957  0.95

> <Gold.Chemscore.Hbond.Weighted>
-9.9852

> <Gold.Chemscore.Metal.Weighted>
-0.0000

> <Gold.Chemscore.Lipo.Weighted>
-10.6930

> <Gold.Chemscore.Internal_Hbond.Weighted>
0.0000

> <Gold.Chemscore.DEClash.Weighted>
0.2971

> <Gold.Chemscore.DEInternal.Weighted>
1.4130

> <Gold.Chemscore.Rot.Weighted>
10.8149

> <Gold.Chemscore.Internal.Correction.Weighted>
   9.000000E+99

> <Gold.Protein.RotatedTorsions>
[ 6907 6896 6895 6894 ] final  -78.31 input  -60.11 | X-H torsion
[ 7974 7965 7964 7962 ] final   38.72 input  175.53 | X-H torsion
[ 8008 7997 7996 7995 ] final   74.40 input   59.86 | X-H torsion
[ 10167 10162 10161 10158 ] final  173.85 input  -65.29 | X-H torsion
[ 10718 10713 10712 10709 ] final   -4.87 input   66.30 | X-H torsion
[ 10763 10752 10751 10750 ] final    0.64 input  -60.55 | X-H torsion
[ 11005 11000 10999 10996 ] final   -4.30 input  -57.11 | X-H torsion

> <Gold.Protein.ActiveResidues>
 VAL166  LYS551  ARG553  GLY616  TRP617  ASP618  TYR619  PRO620  LYS621  CYS622 
 ASP623  PHE694  ASN695  SER759  ASP760  ASP761  ALA762  ILE779  LEU786  VAL792 
 PHE793  MET794  SER795  GLU796  ALA797  LYS798  CYS799  TRP800  GLU811  SER814 

> <Gold.Protein.RotatedAtoms>
  150.6976  134.4292  159.5240 H   0  0  0  0  0  0  0  0  0  0  0  0  # atno 6907 bound_to 6896
  152.2021  134.8575  160.0516 H   0  0  0  0  0  0  0  0  0  0  0  0  # atno 6908 bound_to 6896
  151.9491  133.3626  159.4030 H   0  0  0  0  0  0  0  0  0  0  0  0  # atno 6909 bound_to 6896
  146.1040  139.5738  142.9395 H   0  0  0  0  0  0  0  0  0  0  0  0  # atno 7974 bound_to 7965
  155.7978  140.3477  155.5385 H   0  0  0  0  0  0  0  0  0  0  0  0  # atno 8008 bound_to 7997
  155.8569  140.0965  157.1659 H   0  0  0  0  0  0  0  0  0  0  0  0  # atno 8009 bound_to 7997
  154.4010  140.1366  156.3900 H   0  0  0  0  0  0  0  0  0  0  0  0  # atno 8010 bound_to 7997
  139.5122  144.3213  152.0199 H   0  0  0  0  0  0  0  0  0  0  0  0  # atno 10167 bound_to 10162
  156.7549  130.5251  149.5796 H   0  0  0  0  0  0  0  0  0  0  0  0  # atno 10718 bound_to 10713
  153.3181  135.6967  153.7055 H   0  0  0  0  0  0  0  0  0  0  0  0  # atno 10763 bound_to 10752
  153.5906  135.3480  155.2910 H   0  0  0  0  0  0  0  0  0  0  0  0  # atno 10764 bound_to 10752
  154.8591  135.4317  154.2337 H   0  0  0  0  0  0  0  0  0  0  0  0  # atno 10765 bound_to 10752
  140.6787  133.9172  155.8541 H   0  0  0  0  0  0  0  0  0  0  0  0  # atno 11005 bound_to 11000
  145.5797  141.0384  143.2129 LP  0  0  0  0  0  0  0  0  0  0  0  0  # atno 17320 bound_to 7965
  144.7456  139.7330  143.7293 LP  0  0  0  0  0  0  0  0  0  0  0  0  # atno 17321 bound_to 7965
  140.2655  144.4021  150.6170 LP  0  0  0  0  0  0  0  0  0  0  0  0  # atno 17342 bound_to 10162
  140.6126  143.2170  151.6855 LP  0  0  0  0  0  0  0  0  0  0  0  0  # atno 17343 bound_to 10162
  156.1377  130.6223  151.0423 LP  0  0  0  0  0  0  0  0  0  0  0  0  # atno 17370 bound_to 10713
  157.6761  131.0850  150.7492 LP  0  0  0  0  0  0  0  0  0  0  0  0  # atno 17371 bound_to 10713
  141.0334  134.0723  157.3987 LP  0  0  0  0  0  0  0  0  0  0  0  0  # atno 17394 bound_to 11000
  139.8958  135.0143  156.7022 LP  0  0  0  0  0  0  0  0  0  0  0  0  # atno 17395 bound_to 11000

$$$$
