AV-unprocessed.smi:101|AV-procd|sdf|915|dock8
  -GOLD-   2262017413D 1   1.00000     0.00000
 Structure written by MMmdl.
 44 46  0  0  0  0  0  0  0  0  1 V2000
  144.7513  138.1525  156.8102 C   0  0  0  0  0  0  0  0  0  0  0  0
  146.1978  137.9354  157.2230 C   0  0  0  0  0  0  0  0  0  0  0  0
  147.2430  138.3138  156.4430 C   0  0  0  0  0  0  0  0  0  0  0  0
  148.5753  138.1418  156.8010 N   0  0  0  0  0  0  0  0  0  0  0  0
  149.7214  138.5920  155.9171 C   0  0  2  0  0  0  0  0  0  0  0  0
  150.3500  139.7005  156.4958 O   0  0  0  0  0  0  0  0  0  0  0  0
  150.3771  140.7913  155.5818 C   0  0  2  0  0  0  0  0  0  0  0  0
  150.3385  142.1288  156.3384 C   0  0  0  0  0  0  0  0  0  0  0  0
  151.2435  142.0923  157.4306 O   0  0  0  0  0  0  0  0  0  0  0  0
  151.4410  143.1750  158.2027 C   0  0  0  0  0  0  0  0  0  0  0  0
  151.1162  144.3184  157.8769 O   0  0  0  0  0  0  0  0  0  0  0  0
  152.1052  142.8403  159.4952 C   0  0  0  0  0  0  0  0  0  0  0  0
  153.0449  141.7844  159.5398 C   0  0  0  0  0  0  0  0  0  0  0  0
  153.6821  141.4427  160.7484 C   0  0  0  0  0  0  0  0  0  0  0  0
  153.3904  142.1552  161.9261 C   0  0  0  0  0  0  0  0  0  0  0  0
  152.4622  143.2116  161.8936 C   0  0  0  0  0  0  0  0  0  0  0  0
  151.8216  143.5532  160.6868 C   0  0  0  0  0  0  0  0  0  0  0  0
  149.2115  140.5316  154.6266 C   0  0  1  0  0  0  0  0  0  0  0  0
  149.3622  141.1790  153.3772 O   0  0  0  0  0  0  0  0  0  0  0  0
  149.2054  139.0123  154.5253 C   0  0  1  0  0  0  0  0  0  0  0  0
  150.0524  138.5217  153.5019 O   0  0  0  0  0  0  0  0  0  0  0  0
  148.8818  137.5432  158.0406 C   0  0  0  0  0  0  0  0  0  0  0  0
  150.0373  137.3628  158.4238 O   0  0  0  0  0  0  0  0  0  0  0  0
  147.8101  137.1464  158.8377 N   0  0  0  0  0  0  0  0  0  0  0  0
  146.4594  137.2975  158.5160 C   0  0  0  0  0  0  0  0  0  0  0  0
  145.6004  136.9037  159.3032 O   0  0  0  0  0  0  0  0  0  0  0  0
  148.0276  136.7144  159.7240 H   0  0  0  0  0  0  0  0  0  0  0  0
  144.6746  138.6722  155.8547 H   0  0  0  0  0  0  0  0  0  0  0  0
  144.2270  138.7518  157.5552 H   0  0  0  0  0  0  0  0  0  0  0  0
  144.2348  137.1969  156.7145 H   0  0  0  0  0  0  0  0  0  0  0  0
  147.0059  138.7780  155.4988 H   0  0  0  0  0  0  0  0  0  0  0  0
  150.4174  137.7503  155.9017 H   0  0  0  0  0  0  0  0  0  0  0  0
  151.3175  140.7159  155.0333 H   0  0  0  0  0  0  0  0  0  0  0  0
  150.5868  142.9419  155.6548 H   0  0  0  0  0  0  0  0  0  0  0  0
  149.3343  142.3169  156.7192 H   0  0  0  0  0  0  0  0  0  0  0  0
  153.2843  141.2230  158.6480 H   0  0  0  0  0  0  0  0  0  0  0  0
  154.3959  140.6325  160.7711 H   0  0  0  0  0  0  0  0  0  0  0  0
  153.8794  141.8924  162.8525 H   0  0  0  0  0  0  0  0  0  0  0  0
  152.2375  143.7599  162.7966 H   0  0  0  0  0  0  0  0  0  0  0  0
  151.1111  144.3667  160.6990 H   0  0  0  0  0  0  0  0  0  0  0  0
  148.2688  140.8466  155.0750 H   0  0  0  0  0  0  0  0  0  0  0  0
  149.2980  140.5300  152.6931 H   0  0  0  0  0  0  0  0  0  0  0  0
  148.1999  138.6333  154.3386 H   0  0  0  0  0  0  0  0  0  0  0  0
  149.5448  137.9578  152.9383 H   0  0  0  0  0  0  0  0  0  0  0  0
  1  2  1  0  0  0  0
  1 28  1  0  0  0  0
  1 29  1  0  0  0  0
  1 30  1  0  0  0  0
  2 25  1  0  0  0  0
  2  3  2  0  0  0  0
  3  4  1  0  0  0  0
  3 31  1  0  0  0  0
  4  5  1  0  0  0  0
  4 22  1  0  0  0  0
  5 20  1  0  0  0  0
  5  6  1  0  0  0  0
  5 32  1  0  0  0  0
  6  7  1  0  0  0  0
  7  8  1  0  0  0  0
  7 18  1  0  0  0  0
  7 33  1  0  0  0  0
  8  9  1  0  0  0  0
  8 34  1  0  0  0  0
  8 35  1  0  0  0  0
  9 10  1  0  0  0  0
 10 11  2  0  0  0  0
 10 12  1  0  0  0  0
 12 17  1  0  0  0  0
 12 13  2  0  0  0  0
 13 14  1  0  0  0  0
 13 36  1  0  0  0  0
 14 15  2  0  0  0  0
 14 37  1  0  0  0  0
 15 16  1  0  0  0  0
 15 38  1  0  0  0  0
 16 17  2  0  0  0  0
 16 39  1  0  0  0  0
 17 40  1  0  0  0  0
 18 19  1  0  0  0  0
 18 20  1  0  0  0  0
 18 41  1  0  0  0  0
 19 42  1  0  0  0  0
 20 21  1  0  0  0  0
 20 43  1  0  0  0  0
 21 44  1  0  0  0  0
 22 23  2  0  0  0  0
 22 24  1  0  0  0  0
 24 27  1  0  0  0  0
 24 25  1  0  0  0  0
 25 26  2  0  0  0  0
M  END
> <s_m_source_file>
AV-unprocessed.smi

> <i_m_source_file_index>
101

> <i_lp_mmshare_version>
43012

> <i_f3d_flags>
0

> <s_epik_input>
Tz1jMVtuSF1jKD1PKW4oW2NIXWMxW0NIM10pW0NAQEhdMk9bQ0BIXShbQ0BASF0oW09IXSlbQ0BIXTJbT0hdKVtDSDJdT0MoPU8pYzNbY0hdW2NIXVtjSF1bY0hdW2NIXTM=

> <s_epik_cmdline>
J2VwaWtfcHl0aG9uJywgJy1waCcsICc3LjAnLCAnLXRuJywgJzgnLCAnLW1hJywgJzIwMCcsICctbWV0YWxfYmluZGluZycsICctaW1hZScsICc8aW5maWxlLm1hZT4nLCAnLW9tYWUnLCAnPG91dGZpbGUubWFlPic=

> <r_lp_tautomer_probability>
0.999537

> <r_epik_Ionization_Penalty>
0.00263537

> <r_epik_Ionization_Penalty_Charging>
0.00263428

> <r_epik_Ionization_Penalty_Neutral>
1.09111e-06

> <r_epik_State_Penalty>
0.00183335

> <r_epik_Charging_Adjusted_Penalty>
0.00446763

> <i_epik_Tot_Q>
0

> <i_epik_Tot_abs_Q>
0

> <r_epik_Metal_State_Penalty>
1.00528

> <b_epik_Metal_Only>
0

> <s_epik_Chemistry_Notes>
This compound has an ester and may undergo hydrolysis at high or low pH. This compound contains an acetal/aminal-like group ( X-CH(R)-Y where X, Y are N, S, or O) that may be acid/base labile, releasing an aldehyde.

> <s_lp_Force_Field>
OPLS_2005

> <r_lp_Energy>
35.2309

> <b_lp_Chiralities_Consistent>
1

> <s_lp_Variant>
AV-unprocessed.smi:101-3

> <Gold.Version>
5.8.1

> <Gold.Id.Protein>
6NUR|6NUR_protein|mol2

> <Gold.PLP.Fitness>
50.3441

> <Gold.PLP.PLP>
-43.3540

> <Gold.PLP.part.hbond>
-4.5582

> <Gold.PLP.part.metal>
0.0000

> <Gold.PLP.part.buried>
-5.3170

> <Gold.PLP.part.nonpolar>
-33.4395

> <Gold.PLP.part.repulsive>
0.3544

> <Gold.PLP.ligand.clash>
0.0000

> <Gold.PLP.ligand.torsion>
0.9756

> <Gold.PLP.Chemscore.Hbond>
2.9675

> <Gold.PLP.Chemscore.CHOScore>
0.0000

> <Gold.PLP.Chemscore.Metal>
0.0000

> <Gold.Chemscore.Hbonds>
donor molecule, donor type, donor heavy atom, donor atom, acceptor molecule, acceptor atom, score
      L1  H    19    42       P1  7957  0.99
      L1  H    21    44       P1  7948  0.88
      P1  H  7989  7998       L1    19  0.02
      P1  H  8011  8017       L1    19  0.70

> <Gold.PLP.Chemscore.Internal.Correction>
0.0390

> <Gold.Rescore>
     Score         DG    S(hbond)    S(metal)    S(lipo)     H(rot)  DE(clash)    DE(int)     intcor
     14.33     -15.34       2.22        0.00      93.46       3.32       0.01       0.99       ----

> <Gold.Chemscore.Fitness>
14.3322

> <Gold.Chemscore.DG>
-15.3387

> <Gold.Chemscore.ZeroCoef>
-5.4800

> <Gold.Chemscore.Hbond>
2.2202

> <Gold.Chemscore.Metal>
0.0000

> <Gold.Chemscore.Lipo>
93.4642

> <Gold.Chemscore.Internal_Hbond>
0.0000

> <Gold.Chemscore.DEClash>
0.0128

> <Gold.Chemscore.DEInternal>
0.9937

> <Gold.Chemscore.Rot>
3.3172

> <Gold.Chemscore.Internal.Correction>
   9.000000E+99

> <Gold.Chemscore.Hbonds>
donor molecule, donor type, donor heavy atom, donor atom, acceptor molecule, acceptor atom, score
      L1  H    19    42       P1  7957  0.94
      L1  H    21    44       P1  7948  0.70
      P1  H  8011  8017       L1    19  0.07

> <Gold.Chemscore.Hbond.Weighted>
-7.4154

> <Gold.Chemscore.Metal.Weighted>
-0.0000

> <Gold.Chemscore.Lipo.Weighted>
-10.9353

> <Gold.Chemscore.Internal_Hbond.Weighted>
0.0000

> <Gold.Chemscore.DEClash.Weighted>
0.0128

> <Gold.Chemscore.DEInternal.Weighted>
0.9937

> <Gold.Chemscore.Rot.Weighted>
8.4920

> <Gold.Chemscore.Internal.Correction.Weighted>
   9.000000E+99

> <Gold.Protein.RotatedTorsions>
[ 6907 6896 6895 6894 ] final -107.53 input  -60.11 | X-H torsion
[ 7974 7965 7964 7962 ] final  159.03 input  175.53 | X-H torsion
[ 8008 7997 7996 7995 ] final -146.58 input   59.86 | X-H torsion
[ 10167 10162 10161 10158 ] final  -72.84 input  -65.29 | X-H torsion
[ 10718 10713 10712 10709 ] final  144.12 input   66.30 | X-H torsion
[ 10763 10752 10751 10750 ] final -117.49 input  -60.55 | X-H torsion
[ 11005 11000 10999 10996 ] final   52.14 input  -57.11 | X-H torsion

> <Gold.Protein.ActiveResidues>
 VAL166  LYS551  ARG553  GLY616  TRP617  ASP618  TYR619  PRO620  LYS621  CYS622 
 ASP623  PHE694  ASN695  SER759  ASP760  ASP761  ALA762  ILE779  LEU786  VAL792 
 PHE793  MET794  SER795  GLU796  ALA797  LYS798  CYS799  TRP800  GLU811  SER814 

> <Gold.Protein.RotatedAtoms>
  150.7449  133.9812  159.3576 H   0  0  0  0  0  0  0  0  0  0  0  0  # atno 6907 bound_to 6896
  151.7753  135.0773  160.0375 H   0  0  0  0  0  0  0  0  0  0  0  0  # atno 6908 bound_to 6896
  152.3311  133.5922  159.5846 H   0  0  0  0  0  0  0  0  0  0  0  0  # atno 6909 bound_to 6896
  144.7813  139.7560  143.6259 H   0  0  0  0  0  0  0  0  0  0  0  0  # atno 7974 bound_to 7965
  155.5617  140.0626  157.2827 H   0  0  0  0  0  0  0  0  0  0  0  0  # atno 8008 bound_to 7997
  154.4388  140.1884  156.0835 H   0  0  0  0  0  0  0  0  0  0  0  0  # atno 8009 bound_to 7997
  156.0442  140.3292  155.7281 H   0  0  0  0  0  0  0  0  0  0  0  0  # atno 8010 bound_to 7997
  140.5160  143.2338  151.7513 H   0  0  0  0  0  0  0  0  0  0  0  0  # atno 10167 bound_to 10162
  157.3609  131.0965  151.0916 H   0  0  0  0  0  0  0  0  0  0  0  0  # atno 10718 bound_to 10713
  154.8556  135.4307  154.1989 H   0  0  0  0  0  0  0  0  0  0  0  0  # atno 10763 bound_to 10752
  153.3040  135.6971  153.7182 H   0  0  0  0  0  0  0  0  0  0  0  0  # atno 10764 bound_to 10752
  153.6301  135.3486  155.3013 H   0  0  0  0  0  0  0  0  0  0  0  0  # atno 10765 bound_to 10752
  140.0874  134.5256  155.8886 H   0  0  0  0  0  0  0  0  0  0  0  0  # atno 11005 bound_to 11000
  146.2022  139.5323  142.9736 LP  0  0  0  0  0  0  0  0  0  0  0  0  # atno 17320 bound_to 7965
  145.6044  141.0350  143.2001 LP  0  0  0  0  0  0  0  0  0  0  0  0  # atno 17321 bound_to 7965
  139.4909  144.4324  151.9858 LP  0  0  0  0  0  0  0  0  0  0  0  0  # atno 17342 bound_to 10162
  140.3418  144.3194  150.5966 LP  0  0  0  0  0  0  0  0  0  0  0  0  # atno 17343 bound_to 10162
  157.2056  130.6415  149.5755 LP  0  0  0  0  0  0  0  0  0  0  0  0  # atno 17370 bound_to 10713
  155.9737  130.4676  150.6332 LP  0  0  0  0  0  0  0  0  0  0  0  0  # atno 17371 bound_to 10713
  141.2067  133.6657  156.6258 LP  0  0  0  0  0  0  0  0  0  0  0  0  # atno 17394 bound_to 11000
  140.3401  134.7856  157.4391 LP  0  0  0  0  0  0  0  0  0  0  0  0  # atno 17395 bound_to 11000

$$$$
