AV-unprocessed.smi:3139|AV-procd|sdf|11956|dock7
  -GOLD-   2272017353D 1   1.00000     0.00000
 Structure written by MMmdl.
 33 33  0  0  0  0  0  0  0  0  2 V2000
  153.7994  141.5815  160.6373 C   0  0  0  0  0  0  0  0  0  0  0  0
  152.4563  141.3585  159.9114 C   0  0  2  0  0  0  0  0  0  0  0  0
  152.4141  140.0428  159.1164 C   0  0  0  0  0  0  0  0  0  0  0  0
  152.0740  140.0314  157.9323 O   0  0  0  0  0  0  0  0  0  0  0  0
  152.7797  138.9385  159.7863 N   0  0  0  0  0  0  0  0  0  0  0  0
  152.8526  137.5843  159.2370 C   0  0  0  0  0  0  0  0  0  0  0  0
  154.1996  136.8624  159.5292 C   0  0  0  0  0  0  0  0  0  0  0  0
  155.3404  137.6065  158.8056 C   0  0  0  0  0  0  0  0  0  0  0  0
  154.4821  136.8719  161.0515 C   0  0  0  0  0  0  0  0  0  0  0  0
  154.1639  135.4064  158.9946 C   0  0  0  0  0  0  0  0  0  0  0  0
  153.9339  135.2181  157.7787 O   0  0  0  0  0  0  0  0  0  0  0  0
  154.3608  134.4903  159.8244 O   0  5  0  0  0  0  0  0  0  0  0  0
  152.0971  142.4846  159.0561 N   0  0  0  0  0  0  0  0  0  0  0  0
  152.8001  143.6562  158.8592 C   0  0  0  0  0  0  0  0  0  0  0  0
  152.0686  144.4378  158.0118 C   0  0  0  0  0  0  0  0  0  0  0  0
  150.9092  143.6568  157.7493 C   0  0  0  0  0  0  0  0  0  0  0  0
  150.9241  142.4943  158.3802 N   0  0  0  0  0  0  0  0  0  0  0  0
  154.0154  140.7611  161.3226 H   0  0  0  0  0  0  0  0  0  0  0  0
  153.7754  142.4992  161.2256 H   0  0  0  0  0  0  0  0  0  0  0  0
  154.6351  141.6578  159.9403 H   0  0  0  0  0  0  0  0  0  0  0  0
  151.6865  141.2855  160.6815 H   0  0  0  0  0  0  0  0  0  0  0  0
  153.0559  139.0423  160.7521 H   0  0  0  0  0  0  0  0  0  0  0  0
  152.0277  137.0215  159.6759 H   0  0  0  0  0  0  0  0  0  0  0  0
  152.6551  137.5888  158.1637 H   0  0  0  0  0  0  0  0  0  0  0  0
  155.4267  138.6337  159.1612 H   0  0  0  0  0  0  0  0  0  0  0  0
  155.1758  137.6496  157.7279 H   0  0  0  0  0  0  0  0  0  0  0  0
  156.3033  137.1216  158.9716 H   0  0  0  0  0  0  0  0  0  0  0  0
  154.4682  137.8885  161.4455 H   0  0  0  0  0  0  0  0  0  0  0  0
  155.4612  136.4509  161.2841 H   0  0  0  0  0  0  0  0  0  0  0  0
  153.7380  136.3005  161.6076 H   0  0  0  0  0  0  0  0  0  0  0  0
  153.7531  143.8345  159.3354 H   0  0  0  0  0  0  0  0  0  0  0  0
  152.3206  145.4203  157.6414 H   0  0  0  0  0  0  0  0  0  0  0  0
  150.0608  143.8999  157.1267 H   0  0  0  0  0  0  0  0  0  0  0  0
  1  2  1  0  0  0  0
  1 18  1  0  0  0  0
  1 19  1  0  0  0  0
  1 20  1  0  0  0  0
  2  3  1  0  0  0  0
  2 13  1  0  0  0  0
  2 21  1  0  0  0  0
  3  4  2  0  0  0  0
  3  5  1  0  0  0  0
  5  6  1  0  0  0  0
  5 22  1  0  0  0  0
  6  7  1  0  0  0  0
  6 23  1  0  0  0  0
  6 24  1  0  0  0  0
  7  8  1  0  0  0  0
  7  9  1  0  0  0  0
  7 10  1  0  0  0  0
  8 25  1  0  0  0  0
  8 26  1  0  0  0  0
  8 27  1  0  0  0  0
  9 28  1  0  0  0  0
  9 29  1  0  0  0  0
  9 30  1  0  0  0  0
 10 11  2  0  0  0  0
 10 12  1  0  0  0  0
 13 17  1  0  0  0  0
 13 14  1  0  0  0  0
 14 15  2  0  0  0  0
 14 31  1  0  0  0  0
 15 16  1  0  0  0  0
 15 32  1  0  0  0  0
 16 17  2  0  0  0  0
 16 33  1  0  0  0  0
M  CHG  1  12  -1
M  END
> <s_m_source_file>
AV-unprocessed.smi

> <i_m_source_file_index>
3139

> <i_lp_mmshare_version>
43012

> <i_f3d_flags>
0

> <s_epik_input>
bjFbY0hdW2NIXVtjSF1uMVtDQEhdKFtDSDNdKUMoPU8pW05IXVtDSDJdQyhbQ0gzXSkoW0NIM10pQyg9TylbT0hd

> <s_epik_cmdline>
J2VwaWtfcHl0aG9uJywgJy1waCcsICc3LjAnLCAnLXRuJywgJzgnLCAnLW1hJywgJzIwMCcsICctbWV0YWxfYmluZGluZycsICctaW1hZScsICc8aW5maWxlLm1hZT4nLCAnLW9tYWUnLCAnPG91dGZpbGUubWFlPic=

> <r_lp_tautomer_probability>
1

> <r_epik_Ionization_Penalty>
0.00184643

> <r_epik_Ionization_Penalty_Charging>
0.00181045

> <r_epik_Ionization_Penalty_Neutral>
3.59763e-05

> <r_epik_State_Penalty>
0.00122842

> <r_epik_Charging_Adjusted_Penalty>
0.00303887

> <i_epik_Tot_Q>
-1

> <i_epik_Tot_abs_Q>
1

> <r_epik_Metal_State_Penalty>
-0

> <b_epik_Metal_Only>
0

> <s_lp_Force_Field>
OPLS_2005

> <r_lp_Energy>
5.55707

> <b_lp_Chiralities_Consistent>
1

> <s_lp_Variant>
AV-unprocessed.smi:3139-1

> <Gold.Version>
5.8.1

> <Gold.Id.Protein>
6NUR|6NUR_protein|mol2

> <Gold.PLP.Fitness>
49.3422

> <Gold.PLP.PLP>
-31.7262

> <Gold.PLP.part.hbond>
-3.0000

> <Gold.PLP.part.metal>
0.0000

> <Gold.PLP.part.buried>
-3.2225

> <Gold.PLP.part.nonpolar>
-26.1753

> <Gold.PLP.part.repulsive>
0.1431

> <Gold.PLP.ligand.clash>
0.0000

> <Gold.PLP.ligand.torsion>
0.1961

> <Gold.PLP.Chemscore.Hbond>
4.9600

> <Gold.PLP.Chemscore.CHOScore>
1.0000

> <Gold.PLP.Chemscore.Metal>
0.0000

> <Gold.Chemscore.Hbonds>
donor molecule, donor type, donor heavy atom, donor atom, acceptor molecule, acceptor atom, score
      P1  H  6896  6908       L1    12  1.00
      P1  H 10752 10763       L1    11  0.23
      L1  C    16    33       P1  8028  1.00

> <Gold.PLP.Chemscore.Internal.Correction>
0.1281

> <Gold.Rescore>
     Score         DG    S(hbond)    S(metal)    S(lipo)     H(rot)  DE(clash)    DE(int)     intcor
     15.64     -17.26       2.71        0.00      74.14       2.32       0.03       1.59       ----

> <Gold.Chemscore.Fitness>
15.6404

> <Gold.Chemscore.DG>
-17.2570

> <Gold.Chemscore.ZeroCoef>
-5.4800

> <Gold.Chemscore.Hbond>
2.7104

> <Gold.Chemscore.Metal>
0.0000

> <Gold.Chemscore.Lipo>
74.1383

> <Gold.Chemscore.Internal_Hbond>
0.0000

> <Gold.Chemscore.DEClash>
0.0308

> <Gold.Chemscore.DEInternal>
1.5859

> <Gold.Chemscore.Rot>
2.3241

> <Gold.Chemscore.Internal.Correction>
   9.000000E+99

> <Gold.Chemscore.Hbonds>
donor molecule, donor type, donor heavy atom, donor atom, acceptor molecule, acceptor atom, score
      P1  H  6896  6908       L1    12  0.02
      P1  H 10752 10763       L1    11  0.14

> <Gold.Chemscore.Hbond.Weighted>
-9.0526

> <Gold.Chemscore.Metal.Weighted>
-0.0000

> <Gold.Chemscore.Lipo.Weighted>
-8.6742

> <Gold.Chemscore.Internal_Hbond.Weighted>
0.0000

> <Gold.Chemscore.DEClash.Weighted>
0.0308

> <Gold.Chemscore.DEInternal.Weighted>
1.5859

> <Gold.Chemscore.Rot.Weighted>
5.9498

> <Gold.Chemscore.Internal.Correction.Weighted>
   9.000000E+99

> <Gold.Protein.RotatedTorsions>
[ 6907 6896 6895 6894 ] final  -26.15 input  -60.11 | X-H torsion
[ 7974 7965 7964 7962 ] final   28.56 input  175.53 | X-H torsion
[ 8008 7997 7996 7995 ] final  -67.26 input   59.86 | X-H torsion
[ 10167 10162 10161 10158 ] final -107.06 input  -65.29 | X-H torsion
[ 10718 10713 10712 10709 ] final   94.63 input   66.30 | X-H torsion
[ 10763 10752 10751 10750 ] final  130.41 input  -60.55 | X-H torsion
[ 11005 11000 10999 10996 ] final  126.77 input  -57.11 | X-H torsion

> <Gold.Protein.ActiveResidues>
 VAL166  LYS551  ARG553  GLY616  TRP617  ASP618  TYR619  PRO620  LYS621  CYS622 
 ASP623  PHE694  ASN695  SER759  ASP760  ASP761  ALA762  ILE779  LEU786  VAL792 
 PHE793  MET794  SER795  GLU796  ALA797  LYS798  CYS799  TRP800  GLU811  SER814 

> <Gold.Protein.RotatedAtoms>
  151.1650  135.0291  159.8726 H   0  0  0  0  0  0  0  0  0  0  0  0  # atno 6907 bound_to 6896
  152.5450  134.1236  159.8419 H   0  0  0  0  0  0  0  0  0  0  0  0  # atno 6908 bound_to 6896
  151.1335  133.4974  159.2631 H   0  0  0  0  0  0  0  0  0  0  0  0  # atno 6909 bound_to 6896
  146.1722  139.7039  142.8960 H   0  0  0  0  0  0  0  0  0  0  0  0  # atno 7974 bound_to 7965
  154.4788  140.0896  156.7328 H   0  0  0  0  0  0  0  0  0  0  0  0  # atno 8008 bound_to 7997
  155.4524  140.3458  155.4284 H   0  0  0  0  0  0  0  0  0  0  0  0  # atno 8009 bound_to 7997
  156.1159  140.1460  156.9261 H   0  0  0  0  0  0  0  0  0  0  0  0  # atno 8010 bound_to 7997
  140.1811  143.3966  152.1281 H   0  0  0  0  0  0  0  0  0  0  0  0  # atno 10167 bound_to 10162
  157.6946  131.0519  150.4215 H   0  0  0  0  0  0  0  0  0  0  0  0  # atno 10718 bound_to 10713
  153.7577  135.3200  155.3332 H   0  0  0  0  0  0  0  0  0  0  0  0  # atno 10763 bound_to 10752
  154.8241  135.4582  154.0869 H   0  0  0  0  0  0  0  0  0  0  0  0  # atno 10764 bound_to 10752
  153.2091  135.6933  153.8220 H   0  0  0  0  0  0  0  0  0  0  0  0  # atno 10765 bound_to 10752
  139.9473  134.9627  156.8756 H   0  0  0  0  0  0  0  0  0  0  0  0  # atno 11005 bound_to 11000
  145.4310  141.0415  143.2911 LP  0  0  0  0  0  0  0  0  0  0  0  0  # atno 17320 bound_to 7965
  144.8180  139.5842  143.6999 LP  0  0  0  0  0  0  0  0  0  0  0  0  # atno 17321 bound_to 7965
  139.5296  144.7143  151.5104 LP  0  0  0  0  0  0  0  0  0  0  0  0  # atno 17342 bound_to 10162
  140.6519  143.8679  150.6795 LP  0  0  0  0  0  0  0  0  0  0  0  0  # atno 17343 bound_to 10162
  156.4590  130.4028  149.6588 LP  0  0  0  0  0  0  0  0  0  0  0  0  # atno 17370 bound_to 10713
  156.3710  130.7530  151.2513 LP  0  0  0  0  0  0  0  0  0  0  0  0  # atno 17371 bound_to 10713
  140.5803  134.0358  155.7462 LP  0  0  0  0  0  0  0  0  0  0  0  0  # atno 17394 bound_to 11000
  141.1127  133.9590  157.2880 LP  0  0  0  0  0  0  0  0  0  0  0  0  # atno 17395 bound_to 11000

$$$$
