AV-unprocessed.smi:1878|AV-procd|sdf|7629|dock5
  -GOLD-   22720 9353D 1   1.00000     0.00000
 Structure written by MMmdl.
 35 36  0  0  0  0  0  0  0  0  3 V2000
  151.7096  130.8758  155.9264 O   0  0  0  0  0  0  0  0  0  0  0  0
  151.6189  131.8820  156.6391 C   0  0  0  0  0  0  0  0  0  0  0  0
  152.3284  132.1701  157.7618 N   0  5  0  0  0  0  0  0  0  0  0  0
  153.5568  131.4807  158.1676 C   0  0  0  0  0  0  0  0  0  0  0  0
  154.7481  131.9306  157.3013 C   0  0  0  0  0  0  0  0  0  0  0  0
  155.8559  131.3287  157.7346 F   0  0  0  0  0  0  0  0  0  0  0  0
  154.5564  131.5950  156.0244 F   0  0  0  0  0  0  0  0  0  0  0  0
  154.9231  133.2504  157.3870 F   0  0  0  0  0  0  0  0  0  0  0  0
  150.7208  132.8413  156.3508 N   0  0  0  0  0  0  0  0  0  0  0  0
  149.8105  132.9195  155.2631 C   0  0  0  0  0  0  0  0  0  0  0  0
  149.3703  131.7103  154.6849 C   0  0  0  0  0  0  0  0  0  0  0  0
  148.4558  131.7399  153.6124 C   0  0  0  0  0  0  0  0  0  0  0  0
  147.9800  132.9859  153.1412 C   0  0  0  0  0  0  0  0  0  0  0  0
  147.0798  133.1281  152.0762 N   0  0  0  0  0  0  0  0  0  0  0  0
  145.9274  133.9775  152.3272 C   0  0  0  0  0  0  0  0  0  0  0  0
  144.9380  133.6567  151.2045 C   0  0  0  0  0  0  0  0  0  0  0  0
  145.3313  132.2543  150.7241 C   0  0  0  0  0  0  0  0  0  0  0  0
  146.5489  131.8737  151.5712 C   0  0  0  0  0  0  0  0  0  0  0  0
  148.4135  134.1207  153.7318 N   0  3  0  0  0  0  0  0  0  0  0  0
  149.2896  134.1360  154.7597 C   0  0  0  0  0  0  0  0  0  0  0  0
  153.7921  131.6732  159.2155 H   0  0  0  0  0  0  0  0  0  0  0  0
  153.4517  130.3979  158.0844 H   0  0  0  0  0  0  0  0  0  0  0  0
  150.6458  133.5775  157.0375 H   0  0  0  0  0  0  0  0  0  0  0  0
  149.7380  130.7637  155.0536 H   0  0  0  0  0  0  0  0  0  0  0  0
  148.1332  130.8140  153.1598 H   0  0  0  0  0  0  0  0  0  0  0  0
  145.4794  133.7503  153.2949 H   0  0  0  0  0  0  0  0  0  0  0  0
  146.2081  135.0312  152.3253 H   0  0  0  0  0  0  0  0  0  0  0  0
  143.9050  133.7049  151.5499 H   0  0  0  0  0  0  0  0  0  0  0  0
  145.0489  134.3715  150.3882 H   0  0  0  0  0  0  0  0  0  0  0  0
  144.5215  131.5335  150.8421 H   0  0  0  0  0  0  0  0  0  0  0  0
  145.5974  132.2844  149.6668 H   0  0  0  0  0  0  0  0  0  0  0  0
  147.2958  131.3388  150.9838 H   0  0  0  0  0  0  0  0  0  0  0  0
  146.2461  131.2300  152.3985 H   0  0  0  0  0  0  0  0  0  0  0  0
  149.5274  135.1176  155.1417 H   0  0  0  0  0  0  0  0  0  0  0  0
  148.0590  135.0129  153.3869 H   0  0  0  0  0  0  0  0  0  0  0  0
  1  2  2  0  0  0  0
  2  3  1  0  0  0  0
  2  9  1  0  0  0  0
  3  4  1  0  0  0  0
  4  5  1  0  0  0  0
  4 21  1  0  0  0  0
  4 22  1  0  0  0  0
  5  6  1  0  0  0  0
  5  7  1  0  0  0  0
  5  8  1  0  0  0  0
  9 10  1  0  0  0  0
  9 23  1  0  0  0  0
 10 20  1  0  0  0  0
 10 11  2  0  0  0  0
 11 12  1  0  0  0  0
 11 24  1  0  0  0  0
 12 13  2  0  0  0  0
 12 25  1  0  0  0  0
 13 14  1  0  0  0  0
 13 19  1  0  0  0  0
 14 18  1  0  0  0  0
 14 15  1  0  0  0  0
 15 16  1  0  0  0  0
 15 26  1  0  0  0  0
 15 27  1  0  0  0  0
 16 17  1  0  0  0  0
 16 28  1  0  0  0  0
 16 29  1  0  0  0  0
 17 18  1  0  0  0  0
 17 30  1  0  0  0  0
 17 31  1  0  0  0  0
 18 32  1  0  0  0  0
 18 33  1  0  0  0  0
 19 20  2  0  0  0  0
 19 35  1  0  0  0  0
 20 34  1  0  0  0  0
M  CHG  1   3  -1
M  CHG  1  19   1
M  END
> <s_m_source_file>
AV-unprocessed.smi

> <i_m_source_file_index>
1878

> <i_lp_mmshare_version>
43012

> <i_f3d_flags>
0

> <s_epik_input>
RkMoRikoRilbQ0gyXVtOSF1DKD1PKVtOSF1jMVtjSF1bY0hdYyhuW2NIXTEpTjJbQ0gyXVtDSDJdW0NIMl1bQ0gyXTI=

> <s_epik_cmdline>
J2VwaWtfcHl0aG9uJywgJy1waCcsICc3LjAnLCAnLXRuJywgJzgnLCAnLW1hJywgJzIwMCcsICctbWV0YWxfYmluZGluZycsICctaW1hZScsICc8aW5maWxlLm1hZT4nLCAnLW9tYWUnLCAnPG91dGZpbGUubWFlPic=

> <r_lp_tautomer_probability>
0.999994

> <r_epik_Ionization_Penalty>
8.03425

> <r_epik_Ionization_Penalty_Charging>
8.03425

> <r_epik_Ionization_Penalty_Neutral>
2.43273e-06

> <r_epik_State_Penalty>
7.63947

> <r_epik_Charging_Adjusted_Penalty>
15.6737

> <i_epik_Tot_Q>
0

> <i_epik_Tot_abs_Q>
2

> <r_epik_Metal_State_Penalty>
3.63831

> <b_epik_Metal_Only>
1

> <s_lp_Force_Field>
OPLS_2005

> <r_lp_Energy>
42.9348

> <b_lp_Chiralities_Consistent>
1

> <s_lp_Variant>
AV-unprocessed.smi:1878-4

> <Gold.Version>
5.8.1

> <Gold.Id.Protein>
6NUR|6NUR_protein|mol2

> <Gold.PLP.Fitness>
38.7102

> <Gold.PLP.PLP>
-27.4954

> <Gold.PLP.part.hbond>
-2.0000

> <Gold.PLP.part.metal>
0.0000

> <Gold.PLP.part.buried>
-3.3063

> <Gold.PLP.part.nonpolar>
-22.7463

> <Gold.PLP.part.repulsive>
0.2717

> <Gold.PLP.ligand.clash>
0.0000

> <Gold.PLP.ligand.torsion>
0.4166

> <Gold.PLP.Chemscore.Hbond>
4.0000

> <Gold.PLP.Chemscore.CHOScore>
0.0000

> <Gold.PLP.Chemscore.Metal>
0.0000

> <Gold.Chemscore.Hbonds>
donor molecule, donor type, donor heavy atom, donor atom, acceptor molecule, acceptor atom, score
      L1  H    19    35       P1  7948  0.76
      P1  H  6896  6908       L1     3  2.00

> <Gold.PLP.Chemscore.Internal.Correction>
0.0480

> <Gold.Rescore>
     Score         DG    S(hbond)    S(metal)    S(lipo)     H(rot)  DE(clash)    DE(int)     intcor
     10.82     -12.87       1.55        0.00      47.93       1.33       0.07       1.98       ----

> <Gold.Chemscore.Fitness>
10.8246

> <Gold.Chemscore.DG>
-12.8683

> <Gold.Chemscore.ZeroCoef>
-5.4800

> <Gold.Chemscore.Hbond>
1.5539

> <Gold.Chemscore.Metal>
0.0000

> <Gold.Chemscore.Lipo>
47.9268

> <Gold.Chemscore.Internal_Hbond>
0.0000

> <Gold.Chemscore.DEClash>
0.0660

> <Gold.Chemscore.DEInternal>
1.9778

> <Gold.Chemscore.Rot>
1.3317

> <Gold.Chemscore.Internal.Correction>
   9.000000E+99

> <Gold.Chemscore.Hbonds>
donor molecule, donor type, donor heavy atom, donor atom, acceptor molecule, acceptor atom, score
      L1  H    19    35       P1  7948  0.37
      P1  H  6896  6908       L1     3  0.24

> <Gold.Chemscore.Hbond.Weighted>
-5.1901

> <Gold.Chemscore.Metal.Weighted>
-0.0000

> <Gold.Chemscore.Lipo.Weighted>
-5.6074

> <Gold.Chemscore.Internal_Hbond.Weighted>
0.0000

> <Gold.Chemscore.DEClash.Weighted>
0.0660

> <Gold.Chemscore.DEInternal.Weighted>
1.9778

> <Gold.Chemscore.Rot.Weighted>
3.4092

> <Gold.Chemscore.Internal.Correction.Weighted>
   9.000000E+99

> <Gold.Protein.RotatedTorsions>
[ 6907 6896 6895 6894 ] final   37.04 input  -60.11 | X-H torsion
[ 7974 7965 7964 7962 ] final   87.21 input  175.53 | X-H torsion
[ 8008 7997 7996 7995 ] final -148.72 input   59.86 | X-H torsion
[ 10167 10162 10161 10158 ] final  -58.92 input  -65.29 | X-H torsion
[ 10718 10713 10712 10709 ] final  132.98 input   66.30 | X-H torsion
[ 10763 10752 10751 10750 ] final   89.61 input  -60.55 | X-H torsion
[ 11005 11000 10999 10996 ] final   74.77 input  -57.11 | X-H torsion

> <Gold.Protein.ActiveResidues>
 VAL166  LYS551  ARG553  GLY616  TRP617  ASP618  TYR619  PRO620  LYS621  CYS622 
 ASP623  PHE694  ASN695  SER759  ASP760  ASP761  ALA762  ILE779  LEU786  VAL792 
 PHE793  MET794  SER795  GLU796  ALA797  LYS798  CYS799  TRP800  GLU811  SER814 

> <Gold.Protein.RotatedAtoms>
  152.1379  134.9085  160.0555 H   0  0  0  0  0  0  0  0  0  0  0  0  # atno 6907 bound_to 6896
  152.0164  133.3876  159.4249 H   0  0  0  0  0  0  0  0  0  0  0  0  # atno 6908 bound_to 6896
  150.6862  134.3595  159.4988 H   0  0  0  0  0  0  0  0  0  0  0  0  # atno 6909 bound_to 6896
  145.5620  139.2305  143.2454 H   0  0  0  0  0  0  0  0  0  0  0  0  # atno 7974 bound_to 7965
  155.5961  140.0657  157.2745 H   0  0  0  0  0  0  0  0  0  0  0  0  # atno 8008 bound_to 7997
  154.4292  140.1826  156.1172 H   0  0  0  0  0  0  0  0  0  0  0  0  # atno 8009 bound_to 7997
  156.0195  140.3318  155.7028 H   0  0  0  0  0  0  0  0  0  0  0  0  # atno 8010 bound_to 7997
  140.6167  143.2405  151.5579 H   0  0  0  0  0  0  0  0  0  0  0  0  # atno 10167 bound_to 10162
  157.4818  131.1086  150.9672 H   0  0  0  0  0  0  0  0  0  0  0  0  # atno 10718 bound_to 10713
  153.1889  135.4464  155.0124 H   0  0  0  0  0  0  0  0  0  0  0  0  # atno 10763 bound_to 10752
  154.8078  135.3281  154.7388 H   0  0  0  0  0  0  0  0  0  0  0  0  # atno 10764 bound_to 10752
  153.7844  135.6975  153.4938 H   0  0  0  0  0  0  0  0  0  0  0  0  # atno 10765 bound_to 10752
  139.9375  134.7461  156.1189 H   0  0  0  0  0  0  0  0  0  0  0  0  # atno 11005 bound_to 11000
  146.1844  140.6445  142.9174 LP  0  0  0  0  0  0  0  0  0  0  0  0  # atno 17320 bound_to 7965
  144.7478  140.5114  143.6823 LP  0  0  0  0  0  0  0  0  0  0  0  0  # atno 17321 bound_to 7965
  139.5405  144.2662  152.1340 LP  0  0  0  0  0  0  0  0  0  0  0  0  # atno 17342 bound_to 10162
  140.1873  144.4786  150.6497 LP  0  0  0  0  0  0  0  0  0  0  0  0  # atno 17343 bound_to 10162
  157.0403  130.5746  149.5355 LP  0  0  0  0  0  0  0  0  0  0  0  0  # atno 17370 bound_to 10713
  156.0125  130.5218  150.8034 LP  0  0  0  0  0  0  0  0  0  0  0  0  # atno 17371 bound_to 10713
  141.0995  133.6682  156.2722 LP  0  0  0  0  0  0  0  0  0  0  0  0  # atno 17394 bound_to 11000
  140.6037  134.5528  157.5522 LP  0  0  0  0  0  0  0  0  0  0  0  0  # atno 17395 bound_to 11000

$$$$
