AV-unprocessed.smi:3164|AV-procd|sdf|12081|dock4
  -GOLD-   2272017513D 1   1.00000     0.00000
 Structure written by MMmdl.
 40 41  0  0  0  0  0  0  0  0  3 V2000
  146.6201  139.0709  151.5174 C   0  0  0  0  0  0  0  0  0  0  0  0
  146.2283  139.4910  152.8828 N   0  3  1  0  0  0  0  0  0  0  0  0
  146.1754  138.3759  153.8577 C   0  0  0  0  0  0  0  0  0  0  0  0
  147.5833  137.9966  154.3522 C   0  0  0  0  0  0  0  0  0  0  0  0
  148.2276  139.1472  154.8867 O   0  0  0  0  0  0  0  0  0  0  0  0
  148.4095  140.1722  153.9146 C   0  0  2  0  0  0  0  0  0  0  0  0
  149.1800  141.3252  154.5760 C   0  0  0  0  0  0  0  0  0  0  0  0
  148.6240  141.6557  155.9041 N   0  3  0  0  0  0  0  0  0  0  0  0
  149.5396  141.3670  157.0249 C   0  0  0  0  0  0  0  0  0  0  0  0
  150.9150  142.0081  156.7953 C   0  0  0  0  0  0  0  0  0  0  0  0
  151.5197  142.5387  158.0810 C   0  0  0  0  0  0  0  0  0  0  0  0
  151.6512  143.9268  158.2994 C   0  0  0  0  0  0  0  0  0  0  0  0
  152.2276  144.3632  159.5082 C   0  0  0  0  0  0  0  0  0  0  0  0
  152.6487  143.4000  160.4452 C   0  0  0  0  0  0  0  0  0  0  0  0
  152.4740  142.0375  160.1314 C   0  0  0  0  0  0  0  0  0  0  0  0
  151.9233  141.6083  158.9749 N   0  0  0  0  0  0  0  0  0  0  0  0
  147.0212  140.6276  153.4113 C   0  0  0  0  0  0  0  0  0  0  0  0
  147.6368  138.6794  151.4861 H   0  0  0  0  0  0  0  0  0  0  0  0
  146.5593  139.9124  150.8267 H   0  0  0  0  0  0  0  0  0  0  0  0
  145.9480  138.2952  151.1491 H   0  0  0  0  0  0  0  0  0  0  0  0
  145.5696  138.6930  154.7077 H   0  0  0  0  0  0  0  0  0  0  0  0
  145.6697  137.5127  153.4233 H   0  0  0  0  0  0  0  0  0  0  0  0
  147.5124  137.2397  155.1334 H   0  0  0  0  0  0  0  0  0  0  0  0
  148.1846  137.5651  153.5507 H   0  0  0  0  0  0  0  0  0  0  0  0
  148.9991  139.7869  153.0808 H   0  0  0  0  0  0  0  0  0  0  0  0
  150.2265  141.0435  154.7001 H   0  0  0  0  0  0  0  0  0  0  0  0
  149.1595  142.2100  153.9379 H   0  0  0  0  0  0  0  0  0  0  0  0
  148.3958  142.6400  155.9219 H   0  0  0  0  0  0  0  0  0  0  0  0
  149.1010  141.7444  157.9500 H   0  0  0  0  0  0  0  0  0  0  0  0
  149.6462  140.2868  157.1349 H   0  0  0  0  0  0  0  0  0  0  0  0
  151.5970  141.2819  156.3506 H   0  0  0  0  0  0  0  0  0  0  0  0
  150.8320  142.8289  156.0812 H   0  0  0  0  0  0  0  0  0  0  0  0
  151.3201  144.6428  157.5616 H   0  0  0  0  0  0  0  0  0  0  0  0
  152.3447  145.4171  159.7130 H   0  0  0  0  0  0  0  0  0  0  0  0
  153.0945  143.6980  161.3825 H   0  0  0  0  0  0  0  0  0  0  0  0
  152.7855  141.2723  160.8269 H   0  0  0  0  0  0  0  0  0  0  0  0
  147.1175  141.4033  152.6504 H   0  0  0  0  0  0  0  0  0  0  0  0
  146.4637  141.0733  154.2366 H   0  0  0  0  0  0  0  0  0  0  0  0
  147.7758  141.1244  156.0425 H   0  0  0  0  0  0  0  0  0  0  0  0
  145.2799  139.8275  152.7889 H   0  0  0  0  0  0  0  0  0  0  0  0
  1  2  1  0  0  0  0
  1 18  1  0  0  0  0
  1 19  1  0  0  0  0
  1 20  1  0  0  0  0
  2 17  1  0  0  0  0
  2  3  1  0  0  0  0
  2 40  1  0  0  0  0
  3  4  1  0  0  0  0
  3 21  1  0  0  0  0
  3 22  1  0  0  0  0
  4  5  1  0  0  0  0
  4 23  1  0  0  0  0
  4 24  1  0  0  0  0
  5  6  1  0  0  0  0
  6  7  1  0  0  0  0
  6 17  1  0  0  0  0
  6 25  1  0  0  0  0
  7  8  1  0  0  0  0
  7 26  1  0  0  0  0
  7 27  1  0  0  0  0
  8  9  1  0  0  0  0
  8 28  1  0  0  0  0
  8 39  1  0  0  0  0
  9 10  1  0  0  0  0
  9 29  1  0  0  0  0
  9 30  1  0  0  0  0
 10 11  1  0  0  0  0
 10 31  1  0  0  0  0
 10 32  1  0  0  0  0
 11 16  1  0  0  0  0
 11 12  2  0  0  0  0
 12 13  1  0  0  0  0
 12 33  1  0  0  0  0
 13 14  2  0  0  0  0
 13 34  1  0  0  0  0
 14 15  1  0  0  0  0
 14 35  1  0  0  0  0
 15 16  2  0  0  0  0
 15 36  1  0  0  0  0
 17 37  1  0  0  0  0
 17 38  1  0  0  0  0
M  CHG  1   2   1
M  CHG  1   8   1
M  END
> <s_m_source_file>
AV-unprocessed.smi

> <i_m_source_file_index>
3164

> <i_lp_mmshare_version>
43012

> <i_f3d_flags>
0

> <s_epik_input>
W0NIM11OMVtDSDJdW0NIMl1PW0NASF0oW0NIMl0xKVtDSDJdW05IXVtDSDJdW0NIMl1jMltjSF1bY0hdW2NIXVtjSF1uMg==

> <s_epik_cmdline>
J2VwaWtfcHl0aG9uJywgJy1waCcsICc3LjAnLCAnLXRuJywgJzgnLCAnLW1hJywgJzIwMCcsICctbWV0YWxfYmluZGluZycsICctaW1hZScsICc8aW5maWxlLm1hZT4nLCAnLW9tYWUnLCAnPG91dGZpbGUubWFlPic=

> <r_epik_Ionization_Penalty>
0.294944

> <r_epik_Ionization_Penalty_Charging>
0.29381

> <r_epik_Ionization_Penalty_Neutral>
0.00113372

> <r_epik_State_Penalty>
0.271365

> <r_epik_Charging_Adjusted_Penalty>
0.565175

> <i_epik_Tot_Q>
2

> <i_epik_Tot_abs_Q>
2

> <r_epik_Metal_State_Penalty>
0.271365

> <b_epik_Metal_Only>
0

> <s_lp_Force_Field>
OPLS_2005

> <r_lp_Energy>
22.4387

> <b_lp_Chiralities_Consistent>
1

> <s_lp_Variant>
AV-unprocessed.smi:3164-3

> <Gold.Version>
5.8.1

> <Gold.Id.Protein>
6NUR|6NUR_protein|mol2

> <Gold.PLP.Fitness>
49.0983

> <Gold.PLP.PLP>
-38.7402

> <Gold.PLP.part.hbond>
-2.0000

> <Gold.PLP.part.metal>
0.0000

> <Gold.PLP.part.buried>
-1.8825

> <Gold.PLP.part.nonpolar>
-35.3018

> <Gold.PLP.part.repulsive>
0.1608

> <Gold.PLP.ligand.clash>
0.0000

> <Gold.PLP.ligand.torsion>
0.8219

> <Gold.PLP.Chemscore.Hbond>
4.0000

> <Gold.PLP.Chemscore.CHOScore>
0.0000

> <Gold.PLP.Chemscore.Metal>
0.0000

> <Gold.Chemscore.Hbonds>
donor molecule, donor type, donor heavy atom, donor atom, acceptor molecule, acceptor atom, score
      L1  H     2    40       P1 10175  2.00
      L1  H     8    28       P1  8028  1.43

> <Gold.PLP.Chemscore.Internal.Correction>
0.0019

> <Gold.Rescore>
     Score         DG    S(hbond)    S(metal)    S(lipo)     H(rot)  DE(clash)    DE(int)     intcor
     20.11     -20.75       1.99        0.00     109.81       1.65       0.04       0.59       ----

> <Gold.Chemscore.Fitness>
20.1099

> <Gold.Chemscore.DG>
-20.7456

> <Gold.Chemscore.ZeroCoef>
-5.4800

> <Gold.Chemscore.Hbond>
1.9852

> <Gold.Chemscore.Metal>
0.0000

> <Gold.Chemscore.Lipo>
109.8052

> <Gold.Chemscore.Internal_Hbond>
0.0000

> <Gold.Chemscore.DEClash>
0.0434

> <Gold.Chemscore.DEInternal>
0.5922

> <Gold.Chemscore.Rot>
1.6454

> <Gold.Chemscore.Internal.Correction>
   9.000000E+99

> <Gold.Chemscore.Hbonds>
donor molecule, donor type, donor heavy atom, donor atom, acceptor molecule, acceptor atom, score
      L1  H     2    40       P1 10175  1.00
      L1  H     8    28       P1  8028  0.67

> <Gold.Chemscore.Hbond.Weighted>
-6.6306

> <Gold.Chemscore.Metal.Weighted>
-0.0000

> <Gold.Chemscore.Lipo.Weighted>
-12.8472

> <Gold.Chemscore.Internal_Hbond.Weighted>
0.0000

> <Gold.Chemscore.DEClash.Weighted>
0.0434

> <Gold.Chemscore.DEInternal.Weighted>
0.5922

> <Gold.Chemscore.Rot.Weighted>
4.2122

> <Gold.Chemscore.Internal.Correction.Weighted>
   9.000000E+99

> <Gold.Protein.RotatedTorsions>
[ 6907 6896 6895 6894 ] final  -53.98 input  -60.11 | X-H torsion
[ 7974 7965 7964 7962 ] final   43.02 input  175.53 | X-H torsion
[ 8008 7997 7996 7995 ] final   76.13 input   59.86 | X-H torsion
[ 10167 10162 10161 10158 ] final -148.35 input  -65.29 | X-H torsion
[ 10718 10713 10712 10709 ] final   -2.47 input   66.30 | X-H torsion
[ 10763 10752 10751 10750 ] final  158.04 input  -60.55 | X-H torsion
[ 11005 11000 10999 10996 ] final  111.66 input  -57.11 | X-H torsion

> <Gold.Protein.ActiveResidues>
 VAL166  LYS551  ARG553  GLY616  TRP617  ASP618  TYR619  PRO620  LYS621  CYS622 
 ASP623  PHE694  ASN695  SER759  ASP760  ASP761  ALA762  ILE779  LEU786  VAL792 
 PHE793  MET794  SER795  GLU796  ALA797  LYS798  CYS799  TRP800  GLU811  SER814 

> <Gold.Protein.RotatedAtoms>
  150.8379  134.7659  159.6907 H   0  0  0  0  0  0  0  0  0  0  0  0  # atno 6907 bound_to 6896
  152.4472  134.5467  159.9864 H   0  0  0  0  0  0  0  0  0  0  0  0  # atno 6908 bound_to 6896
  151.5613  133.3365  159.3007 H   0  0  0  0  0  0  0  0  0  0  0  0  # atno 6909 bound_to 6896
  146.0691  139.5234  142.9609 H   0  0  0  0  0  0  0  0  0  0  0  0  # atno 7974 bound_to 7965
  155.8230  140.3469  155.5525 H   0  0  0  0  0  0  0  0  0  0  0  0  # atno 8008 bound_to 7997
  155.8323  140.0929  157.1805 H   0  0  0  0  0  0  0  0  0  0  0  0  # atno 8009 bound_to 7997
  154.4004  140.1410  156.3615 H   0  0  0  0  0  0  0  0  0  0  0  0  # atno 8010 bound_to 7997
  139.7539  143.8477  152.2592 H   0  0  0  0  0  0  0  0  0  0  0  0  # atno 10167 bound_to 10162
  156.7904  130.5360  149.5736 H   0  0  0  0  0  0  0  0  0  0  0  0  # atno 10718 bound_to 10713
  154.2098  135.2786  155.2962 H   0  0  0  0  0  0  0  0  0  0  0  0  # atno 10763 bound_to 10752
  154.5788  135.5596  153.7168 H   0  0  0  0  0  0  0  0  0  0  0  0  # atno 10764 bound_to 10752
  153.0067  135.6339  154.2237 H   0  0  0  0  0  0  0  0  0  0  0  0  # atno 10765 bound_to 10752
  139.8909  134.9513  156.6466 H   0  0  0  0  0  0  0  0  0  0  0  0  # atno 11005 bound_to 11000
  145.6423  141.0281  143.1805 LP  0  0  0  0  0  0  0  0  0  0  0  0  # atno 17320 bound_to 7965
  144.7220  139.7997  143.7378 LP  0  0  0  0  0  0  0  0  0  0  0  0  # atno 17321 bound_to 7965
  139.8463  144.7186  150.9268 LP  0  0  0  0  0  0  0  0  0  0  0  0  # atno 17342 bound_to 10162
  140.7801  143.3938  151.1264 LP  0  0  0  0  0  0  0  0  0  0  0  0  # atno 17343 bound_to 10162
  156.1162  130.6077  151.0124 LP  0  0  0  0  0  0  0  0  0  0  0  0  # atno 17370 bound_to 10713
  157.6603  131.0882  150.7853 LP  0  0  0  0  0  0  0  0  0  0  0  0  # atno 17371 bound_to 10713
  140.7553  133.8863  155.8377 LP  0  0  0  0  0  0  0  0  0  0  0  0  # atno 17394 bound_to 11000
  140.9967  134.1205  157.4356 LP  0  0  0  0  0  0  0  0  0  0  0  0  # atno 17395 bound_to 11000

$$$$
