AV-unprocessed.smi:2706|AV-procd|sdf|10454|dock6
  -GOLD-   2272014493D 1   1.00000     0.00000
 Structure written by MMmdl.
 43 46  0  0  0  0  0  0  0  0  1 V2000
  152.0600  145.3724  160.4342 C   0  0  0  0  0  0  0  0  0  0  0  0
  151.8867  144.4317  159.3325 N   0  0  0  0  0  0  0  0  0  0  0  0
  151.1646  144.9872  158.1926 C   0  0  0  0  0  0  0  0  0  0  0  0
  152.3062  143.1015  159.4113 C   0  0  0  0  0  0  0  0  0  0  0  0
  152.9034  142.6245  160.5269 C   0  0  0  0  0  0  0  0  0  0  0  0
  153.3477  141.2468  160.5831 C   0  0  0  0  0  0  0  0  0  0  0  0
  153.1633  140.4106  159.5428 C   0  0  0  0  0  0  0  0  0  0  0  0
  152.4959  140.8633  158.3370 C   0  0  0  0  0  0  0  0  0  0  0  0
  152.3086  140.0433  157.3410 N   0  0  0  0  0  0  0  0  0  0  0  0
  151.5494  140.3668  156.2159 C   0  0  0  0  0  0  0  0  0  0  0  0
  151.6469  139.7578  155.1512 O   0  0  0  0  0  0  0  0  0  0  0  0
  150.6050  141.3128  156.3964 N   0  0  0  0  0  0  0  0  0  0  0  0
  149.6524  141.7574  155.4312 C   0  0  2  0  0  0  0  0  0  0  0  0
  148.1812  141.3626  155.5371 C   0  0  2  0  0  0  0  0  0  0  0  0
  147.5571  140.1360  156.2081 C   0  0  1  0  0  0  0  0  0  0  0  0
  146.5162  139.5535  155.2269 C   0  0  0  0  0  0  0  0  0  0  0  0
  147.4091  138.9320  154.1229 C   0  0  0  0  0  0  0  0  0  0  0  0
  148.8306  139.2590  154.6273 C   0  0  2  0  0  0  0  0  0  0  0  0
  148.6159  139.0379  156.1257 C   0  0  0  0  0  0  0  0  0  0  0  0
  149.0345  140.7666  154.4550 C   0  0  2  0  0  0  0  0  0  0  0  0
  152.1274  142.2221  158.3402 N   0  0  0  0  0  0  0  0  0  0  0  0
  151.1534  145.4092  161.0386 H   0  0  0  0  0  0  0  0  0  0  0  0
  152.2646  146.3775  160.0638 H   0  0  0  0  0  0  0  0  0  0  0  0
  152.8879  145.0952  161.0855 H   0  0  0  0  0  0  0  0  0  0  0  0
  151.7659  144.9066  157.2866 H   0  0  0  0  0  0  0  0  0  0  0  0
  150.9187  146.0399  158.3363 H   0  0  0  0  0  0  0  0  0  0  0  0
  150.2295  144.4488  158.0364 H   0  0  0  0  0  0  0  0  0  0  0  0
  153.0727  143.2494  161.3909 H   0  0  0  0  0  0  0  0  0  0  0  0
  153.8423  140.8861  161.4728 H   0  0  0  0  0  0  0  0  0  0  0  0
  153.5185  139.3951  159.6424 H   0  0  0  0  0  0  0  0  0  0  0  0
  150.5437  141.7372  157.3107 H   0  0  0  0  0  0  0  0  0  0  0  0
  149.8221  142.7541  155.0268 H   0  0  0  0  0  0  0  0  0  0  0  0
  147.4683  142.1343  155.2522 H   0  0  0  0  0  0  0  0  0  0  0  0
  147.1694  140.3454  157.2041 H   0  0  0  0  0  0  0  0  0  0  0  0
  145.9086  138.7864  155.7089 H   0  0  0  0  0  0  0  0  0  0  0  0
  145.8426  140.3171  154.8360 H   0  0  0  0  0  0  0  0  0  0  0  0
  147.2528  137.8541  154.0613 H   0  0  0  0  0  0  0  0  0  0  0  0
  147.2100  139.3552  153.1377 H   0  0  0  0  0  0  0  0  0  0  0  0
  149.6256  138.6675  154.1730 H   0  0  0  0  0  0  0  0  0  0  0  0
  149.4904  139.1890  156.7519 H   0  0  0  0  0  0  0  0  0  0  0  0
  148.2267  138.0458  156.3642 H   0  0  0  0  0  0  0  0  0  0  0  0
  148.8946  141.1320  153.4392 H   0  0  0  0  0  0  0  0  0  0  0  0
  151.6847  142.6235  157.5262 H   0  0  0  0  0  0  0  0  0  0  0  0
  1  2  1  0  0  0  0
  1 22  1  0  0  0  0
  1 23  1  0  0  0  0
  1 24  1  0  0  0  0
  2  3  1  0  0  0  0
  2  4  1  0  0  0  0
  3 25  1  0  0  0  0
  3 26  1  0  0  0  0
  3 27  1  0  0  0  0
  4 21  1  0  0  0  0
  4  5  2  0  0  0  0
  5  6  1  0  0  0  0
  5 28  1  0  0  0  0
  6  7  2  0  0  0  0
  6 29  1  0  0  0  0
  7  8  1  0  0  0  0
  7 30  1  0  0  0  0
  8  9  2  0  0  0  0
  8 21  1  0  0  0  0
  9 10  1  0  0  0  0
 10 11  2  0  0  0  0
 10 12  1  0  0  0  0
 12 13  1  0  0  0  0
 12 31  1  0  0  0  0
 13 20  1  0  0  0  0
 13 14  1  0  0  0  0
 13 32  1  0  0  0  0
 14 20  1  0  0  0  0
 14 15  1  0  0  0  0
 14 33  1  0  0  0  0
 15 19  1  0  0  0  0
 15 16  1  0  0  0  0
 15 34  1  0  0  0  0
 16 17  1  0  0  0  0
 16 35  1  0  0  0  0
 16 36  1  0  0  0  0
 17 18  1  0  0  0  0
 17 37  1  0  0  0  0
 17 38  1  0  0  0  0
 18 19  1  0  0  0  0
 18 20  1  0  0  0  0
 18 39  1  0  0  0  0
 19 40  1  0  0  0  0
 19 41  1  0  0  0  0
 20 42  1  0  0  0  0
 21 43  1  0  0  0  0
M  END
> <s_m_source_file>
AV-unprocessed.smi

> <i_m_source_file_index>
2706

> <i_lp_mmshare_version>
43012

> <i_f3d_flags>
0

> <s_epik_input>
W0NIM11OKFtDSDNdKWMxW2NIXVtjSF1bY0hdYyhuMSlbTkhdQyg9TylbTkhdW0NASF0yW0NAQEhdM1tDQEBIXShbQ0gyXTQpW0NIMl1bQ0gyXVtDQEBIXTRbQ0BIXTIz

> <s_epik_cmdline>
J2VwaWtfcHl0aG9uJywgJy1waCcsICc3LjAnLCAnLXRuJywgJzgnLCAnLW1hJywgJzIwMCcsICctbWV0YWxfYmluZGluZycsICctaW1hZScsICc8aW5maWxlLm1hZT4nLCAnLW9tYWUnLCAnPG91dGZpbGUubWFlPic=

> <r_lp_tautomer_probability>
0.999994

> <r_epik_Ionization_Penalty>
2.07242

> <r_epik_Ionization_Penalty_Charging>
2.07242

> <r_epik_Ionization_Penalty_Neutral>
9.73808e-07

> <r_epik_State_Penalty>
3.96009

> <r_epik_Charging_Adjusted_Penalty>
6.03251

> <i_epik_Tot_Q>
0

> <i_epik_Tot_abs_Q>
0

> <r_epik_Metal_State_Penalty>
3.98849

> <b_epik_Metal_Only>
1

> <s_lp_Force_Field>
OPLS_2005

> <r_lp_Energy>
93.8849

> <b_lp_Chiralities_Consistent>
1

> <s_lp_Variant>
AV-unprocessed.smi:2706-11

> <Gold.Version>
5.8.1

> <Gold.Id.Protein>
6NUR|6NUR_protein|mol2

> <Gold.PLP.Fitness>
46.7037

> <Gold.PLP.PLP>
-41.6486

> <Gold.PLP.part.hbond>
-2.0000

> <Gold.PLP.part.metal>
0.0000

> <Gold.PLP.part.buried>
-3.7427

> <Gold.PLP.part.nonpolar>
-35.2603

> <Gold.PLP.part.repulsive>
0.2032

> <Gold.PLP.ligand.clash>
0.1230

> <Gold.PLP.ligand.torsion>
0.3567

> <Gold.PLP.Chemscore.Hbond>
1.9440

> <Gold.PLP.Chemscore.CHOScore>
0.0000

> <Gold.PLP.Chemscore.Metal>
0.0000

> <Gold.Chemscore.Hbonds>
donor molecule, donor type, donor heavy atom, donor atom, acceptor molecule, acceptor atom, score
      P1  H  7989  7998       L1    11  1.00
      P1  H  7997  8009       L1     9  0.49

> <Gold.PLP.Chemscore.Internal.Correction>
0.0596

> <Gold.Rescore>
     Score         DG    S(hbond)    S(metal)    S(lipo)     H(rot)  DE(clash)    DE(int)     intcor
     13.53     -16.54       0.99        0.00      88.22       1.00       0.30       2.71       ----

> <Gold.Chemscore.Fitness>
13.5273

> <Gold.Chemscore.DG>
-16.5425

> <Gold.Chemscore.ZeroCoef>
-5.4800

> <Gold.Chemscore.Hbond>
0.9881

> <Gold.Chemscore.Metal>
0.0000

> <Gold.Chemscore.Lipo>
88.2244

> <Gold.Chemscore.Internal_Hbond>
0.0000

> <Gold.Chemscore.DEClash>
0.3030

> <Gold.Chemscore.DEInternal>
2.7122

> <Gold.Chemscore.Rot>
1.0000

> <Gold.Chemscore.Internal.Correction>
   9.000000E+99

> <Gold.Chemscore.Hbonds>
donor molecule, donor type, donor heavy atom, donor atom, acceptor molecule, acceptor atom, score
      P1  H  7989  7998       L1    11  0.88
      P1  H  7997  8009       L1     9  0.03

> <Gold.Chemscore.Hbond.Weighted>
-3.3003

> <Gold.Chemscore.Metal.Weighted>
-0.0000

> <Gold.Chemscore.Lipo.Weighted>
-10.3222

> <Gold.Chemscore.Internal_Hbond.Weighted>
0.0000

> <Gold.Chemscore.DEClash.Weighted>
0.3030

> <Gold.Chemscore.DEInternal.Weighted>
2.7122

> <Gold.Chemscore.Rot.Weighted>
2.5600

> <Gold.Chemscore.Internal.Correction.Weighted>
   9.000000E+99

> <Gold.Protein.RotatedTorsions>
[ 6907 6896 6895 6894 ] final   -3.48 input  -60.11 | X-H torsion
[ 7974 7965 7964 7962 ] final -160.33 input  175.53 | X-H torsion
[ 8008 7997 7996 7995 ] final -175.81 input   59.86 | X-H torsion
[ 10167 10162 10161 10158 ] final  -10.86 input  -65.29 | X-H torsion
[ 10718 10713 10712 10709 ] final   79.21 input   66.30 | X-H torsion
[ 10763 10752 10751 10750 ] final -163.51 input  -60.55 | X-H torsion
[ 11005 11000 10999 10996 ] final   65.86 input  -57.11 | X-H torsion

> <Gold.Protein.ActiveResidues>
 VAL166  LYS551  ARG553  GLY616  TRP617  ASP618  TYR619  PRO620  LYS621  CYS622 
 ASP623  PHE694  ASN695  SER759  ASP760  ASP761  ALA762  ILE779  LEU786  VAL792 
 PHE793  MET794  SER795  GLU796  ALA797  LYS798  CYS799  TRP800  GLU811  SER814 

> <Gold.Protein.RotatedAtoms>
  151.5131  135.1065  159.9858 H   0  0  0  0  0  0  0  0  0  0  0  0  # atno 6907 bound_to 6896
  152.4653  133.7905  159.6910 H   0  0  0  0  0  0  0  0  0  0  0  0  # atno 6908 bound_to 6896
  150.8634  133.7547  159.3010 H   0  0  0  0  0  0  0  0  0  0  0  0  # atno 6909 bound_to 6896
  144.7431  140.3557  143.6106 H   0  0  0  0  0  0  0  0  0  0  0  0  # atno 7974 bound_to 7965
  155.9872  140.1193  157.0672 H   0  0  0  0  0  0  0  0  0  0  0  0  # atno 8008 bound_to 7997
  154.4200  140.1133  156.5583 H   0  0  0  0  0  0  0  0  0  0  0  0  # atno 8009 bound_to 7997
  155.6392  140.3473  155.4711 H   0  0  0  0  0  0  0  0  0  0  0  0  # atno 8010 bound_to 7997
  140.7124  143.5702  150.9101 H   0  0  0  0  0  0  0  0  0  0  0  0  # atno 10167 bound_to 10162
  157.6770  130.9904  150.1900 H   0  0  0  0  0  0  0  0  0  0  0  0  # atno 10718 bound_to 10713
  154.7115  135.3007  154.9189 H   0  0  0  0  0  0  0  0  0  0  0  0  # atno 10763 bound_to 10752
  154.0089  135.6697  153.4768 H   0  0  0  0  0  0  0  0  0  0  0  0  # atno 10764 bound_to 10752
  153.0759  135.5035  154.8316 H   0  0  0  0  0  0  0  0  0  0  0  0  # atno 10765 bound_to 10752
  139.9868  134.6656  156.0162 H   0  0  0  0  0  0  0  0  0  0  0  0  # atno 11005 bound_to 11000
  145.7229  139.1715  143.2474 LP  0  0  0  0  0  0  0  0  0  0  0  0  # atno 17320 bound_to 7965
  146.1263  140.7243  142.9433 LP  0  0  0  0  0  0  0  0  0  0  0  0  # atno 17321 bound_to 7965
  139.9428  143.6362  152.3049 LP  0  0  0  0  0  0  0  0  0  0  0  0  # atno 17342 bound_to 10162
  139.6853  144.7652  151.1535 LP  0  0  0  0  0  0  0  0  0  0  0  0  # atno 17343 bound_to 10162
  156.2613  130.3711  149.8127 LP  0  0  0  0  0  0  0  0  0  0  0  0  # atno 17370 bound_to 10713
  156.5871  130.8490  151.3398 LP  0  0  0  0  0  0  0  0  0  0  0  0  # atno 17371 bound_to 10713
  141.1531  133.6546  156.4076 LP  0  0  0  0  0  0  0  0  0  0  0  0  # atno 17394 bound_to 11000
  140.4987  134.6506  157.5240 LP  0  0  0  0  0  0  0  0  0  0  0  0  # atno 17395 bound_to 11000

$$$$
