AV-unprocessed.smi:1830|AV-procd|sdf|7440|dock5
  -GOLD-   22720 9123D 1   1.00000     0.00000
 Structure written by MMmdl.
 52 55  0  0  0  0  0  0  0  0  1 V2000
  149.8157  132.5711  155.2026 O   0  0  0  0  0  0  0  0  0  0  0  0
  149.2369  133.3112  154.4087 C   0  0  0  0  0  0  0  0  0  0  0  0
  149.4527  134.6324  154.3416 N   0  0  0  0  0  0  0  0  0  0  0  0
  150.3555  135.3846  155.2067 C   0  0  0  0  0  0  0  0  0  0  0  0
  150.3253  136.8875  154.8815 C   0  0  2  0  0  0  0  0  0  0  0  0
  151.1312  137.7171  155.9079 C   0  0  0  0  0  0  0  0  0  0  0  0
  150.9862  139.1312  155.6193 N   0  0  0  0  0  0  0  0  0  0  0  0
  151.6217  140.0553  156.5293 C   0  0  0  0  0  0  0  0  0  0  0  0
  150.9625  141.4098  156.2138 C   0  0  0  0  0  0  0  0  0  0  0  0
  149.6389  141.0395  155.5079 C   0  0  0  0  0  0  0  0  0  0  0  0
  149.6009  139.5162  155.6396 C   0  0  1  0  0  0  0  0  0  0  0  0
  148.8027  138.7290  154.5907 C   0  0  0  0  0  0  0  0  0  0  0  0
  148.9639  137.3367  154.8702 O   0  0  0  0  0  0  0  0  0  0  0  0
  148.3145  132.9328  153.5072 N   0  0  0  0  0  0  0  0  0  0  0  0
  147.7486  131.6480  153.2481 C   0  0  0  0  0  0  0  0  0  0  0  0
  148.2421  130.4431  153.8093 C   0  0  0  0  0  0  0  0  0  0  0  0
  147.6083  129.2272  153.4969 C   0  0  0  0  0  0  0  0  0  0  0  0
  146.5024  129.2526  152.6308 C   0  0  0  0  0  0  0  0  0  0  0  0
  146.0225  130.3868  152.0839 N   0  0  0  0  0  0  0  0  0  0  0  0
  146.6230  131.5649  152.3827 C   0  0  0  0  0  0  0  0  0  0  0  0
  146.1162  132.7280  151.7655 N   0  0  0  0  0  0  0  0  0  0  0  0
  146.0934  132.6456  150.3076 C   0  0  0  0  0  0  0  0  0  0  0  0
  144.8124  133.3473  149.8518 C   0  0  0  0  0  0  0  0  0  0  0  0
  143.8827  133.1755  151.0464 C   0  0  0  0  0  0  0  0  0  0  0  0
  144.8445  133.2813  152.2282 C   0  0  0  0  0  0  0  0  0  0  0  0
  148.9324  135.1635  153.6590 H   0  0  0  0  0  0  0  0  0  0  0  0
  150.1260  135.2131  156.2599 H   0  0  0  0  0  0  0  0  0  0  0  0
  151.3608  134.9949  155.0445 H   0  0  0  0  0  0  0  0  0  0  0  0
  150.7507  137.0446  153.8885 H   0  0  0  0  0  0  0  0  0  0  0  0
  150.7773  137.5037  156.9178 H   0  0  0  0  0  0  0  0  0  0  0  0
  152.1850  137.4382  155.8752 H   0  0  0  0  0  0  0  0  0  0  0  0
  151.4116  139.7716  157.5620 H   0  0  0  0  0  0  0  0  0  0  0  0
  152.7037  140.0726  156.3962 H   0  0  0  0  0  0  0  0  0  0  0  0
  150.7936  141.9861  157.1239 H   0  0  0  0  0  0  0  0  0  0  0  0
  151.5913  142.0057  155.5512 H   0  0  0  0  0  0  0  0  0  0  0  0
  148.7704  141.5139  155.9654 H   0  0  0  0  0  0  0  0  0  0  0  0
  149.6758  141.3362  154.4587 H   0  0  0  0  0  0  0  0  0  0  0  0
  149.1849  139.2812  156.6218 H   0  0  0  0  0  0  0  0  0  0  0  0
  147.7446  138.9868  154.6369 H   0  0  0  0  0  0  0  0  0  0  0  0
  149.1507  138.9490  153.5803 H   0  0  0  0  0  0  0  0  0  0  0  0
  147.9334  133.6774  152.9421 H   0  0  0  0  0  0  0  0  0  0  0  0
  149.0920  130.4118  154.4704 H   0  0  0  0  0  0  0  0  0  0  0  0
  147.9643  128.2962  153.9122 H   0  0  0  0  0  0  0  0  0  0  0  0
  145.9913  128.3385  152.3674 H   0  0  0  0  0  0  0  0  0  0  0  0
  146.9779  133.1136  149.8750 H   0  0  0  0  0  0  0  0  0  0  0  0
  146.0791  131.6021  149.9881 H   0  0  0  0  0  0  0  0  0  0  0  0
  145.0087  134.4075  149.6873 H   0  0  0  0  0  0  0  0  0  0  0  0
  144.4062  132.9313  148.9295 H   0  0  0  0  0  0  0  0  0  0  0  0
  143.0847  133.9175  151.0792 H   0  0  0  0  0  0  0  0  0  0  0  0
  143.4273  132.1844  151.0246 H   0  0  0  0  0  0  0  0  0  0  0  0
  144.4444  132.8036  153.1228 H   0  0  0  0  0  0  0  0  0  0  0  0
  145.0114  134.3295  152.4778 H   0  0  0  0  0  0  0  0  0  0  0  0
  1  2  2  0  0  0  0
  2  3  1  0  0  0  0
  2 14  1  0  0  0  0
  3  4  1  0  0  0  0
  3 26  1  0  0  0  0
  4  5  1  0  0  0  0
  4 27  1  0  0  0  0
  4 28  1  0  0  0  0
  5 13  1  0  0  0  0
  5  6  1  0  0  0  0
  5 29  1  0  0  0  0
  6  7  1  0  0  0  0
  6 30  1  0  0  0  0
  6 31  1  0  0  0  0
  7 11  1  0  0  0  0
  7  8  1  0  0  0  0
  8  9  1  0  0  0  0
  8 32  1  0  0  0  0
  8 33  1  0  0  0  0
  9 10  1  0  0  0  0
  9 34  1  0  0  0  0
  9 35  1  0  0  0  0
 10 11  1  0  0  0  0
 10 36  1  0  0  0  0
 10 37  1  0  0  0  0
 11 12  1  0  0  0  0
 11 38  1  0  0  0  0
 12 13  1  0  0  0  0
 12 39  1  0  0  0  0
 12 40  1  0  0  0  0
 14 15  1  0  0  0  0
 14 41  1  0  0  0  0
 15 20  1  0  0  0  0
 15 16  2  0  0  0  0
 16 17  1  0  0  0  0
 16 42  1  0  0  0  0
 17 18  2  0  0  0  0
 17 43  1  0  0  0  0
 18 19  1  0  0  0  0
 18 44  1  0  0  0  0
 19 20  2  0  0  0  0
 20 21  1  0  0  0  0
 21 25  1  0  0  0  0
 21 22  1  0  0  0  0
 22 23  1  0  0  0  0
 22 45  1  0  0  0  0
 22 46  1  0  0  0  0
 23 24  1  0  0  0  0
 23 47  1  0  0  0  0
 23 48  1  0  0  0  0
 24 25  1  0  0  0  0
 24 49  1  0  0  0  0
 24 50  1  0  0  0  0
 25 51  1  0  0  0  0
 25 52  1  0  0  0  0
M  END
> <s_m_source_file>
AV-unprocessed.smi

> <i_m_source_file_index>
1830

> <i_lp_mmshare_version>
43012

> <i_f3d_flags>
0

> <s_epik_input>
W0NIMl0xW0NIMl1bQ0gyXVtDQEhdKE4xMilbQ0gyXU9bQ0BASF0oW0NIMl0yKVtDSDJdW05IXUMoPU8pW05IXWMzW2NIXVtjSF1bY0hdbmMzTjRbQ0gyXVtDSDJdW0NIMl1bQ0gyXTQ=

> <s_epik_cmdline>
J2VwaWtfcHl0aG9uJywgJy1waCcsICc3LjAnLCAnLXRuJywgJzgnLCAnLW1hJywgJzIwMCcsICctbWV0YWxfYmluZGluZycsICctaW1hZScsICc8aW5maWxlLm1hZT4nLCAnLW9tYWUnLCAnPG91dGZpbGUubWFlPic=

> <r_lp_tautomer_probability>
1

> <r_epik_Ionization_Penalty>
1.16487

> <r_epik_Ionization_Penalty_Charging>
0

> <r_epik_Ionization_Penalty_Neutral>
1.16487

> <r_epik_State_Penalty>
1.21807

> <r_epik_Charging_Adjusted_Penalty>
1.21807

> <i_epik_Tot_Q>
0

> <i_epik_Tot_abs_Q>
0

> <r_epik_Metal_State_Penalty>
1.19922

> <b_epik_Metal_Only>
0

> <s_lp_Force_Field>
OPLS_2005

> <r_lp_Energy>
77.1598

> <b_lp_Chiralities_Consistent>
1

> <s_lp_Variant>
AV-unprocessed.smi:1830-9

> <Gold.Version>
5.8.1

> <Gold.Id.Protein>
6NUR|6NUR_protein|mol2

> <Gold.PLP.Fitness>
40.4194

> <Gold.PLP.PLP>
-38.1102

> <Gold.PLP.part.hbond>
-1.0000

> <Gold.PLP.part.metal>
0.0000

> <Gold.PLP.part.buried>
-4.7334

> <Gold.PLP.part.nonpolar>
-32.1554

> <Gold.PLP.part.repulsive>
0.9488

> <Gold.PLP.ligand.clash>
0.0000

> <Gold.PLP.ligand.torsion>
0.2245

> <Gold.PLP.Chemscore.Hbond>
0.8800

> <Gold.PLP.Chemscore.CHOScore>
0.0000

> <Gold.PLP.Chemscore.Metal>
0.0000

> <Gold.Chemscore.Hbonds>
donor molecule, donor type, donor heavy atom, donor atom, acceptor molecule, acceptor atom, score
      L1  H     3    26       P1  7948  0.86

> <Gold.PLP.Chemscore.Internal.Correction>
0.1181

> <Gold.Rescore>
     Score         DG    S(hbond)    S(metal)    S(lipo)     H(rot)  DE(clash)    DE(int)     intcor
     13.96     -15.20       0.53        0.00      98.02       1.37       0.06       1.18       ----

> <Gold.Chemscore.Fitness>
13.9570

> <Gold.Chemscore.DG>
-15.1976

> <Gold.Chemscore.ZeroCoef>
-5.4800

> <Gold.Chemscore.Hbond>
0.5292

> <Gold.Chemscore.Metal>
0.0000

> <Gold.Chemscore.Lipo>
98.0249

> <Gold.Chemscore.Internal_Hbond>
0.0000

> <Gold.Chemscore.DEClash>
0.0571

> <Gold.Chemscore.DEInternal>
1.1835

> <Gold.Chemscore.Rot>
1.3746

> <Gold.Chemscore.Internal.Correction>
   9.000000E+99

> <Gold.Chemscore.Hbonds>
donor molecule, donor type, donor heavy atom, donor atom, acceptor molecule, acceptor atom, score
      L1  H     3    26       P1  7948  0.48

> <Gold.Chemscore.Hbond.Weighted>
-1.7675

> <Gold.Chemscore.Metal.Weighted>
-0.0000

> <Gold.Chemscore.Lipo.Weighted>
-11.4689

> <Gold.Chemscore.Internal_Hbond.Weighted>
0.0000

> <Gold.Chemscore.DEClash.Weighted>
0.0571

> <Gold.Chemscore.DEInternal.Weighted>
1.1835

> <Gold.Chemscore.Rot.Weighted>
3.5189

> <Gold.Chemscore.Internal.Correction.Weighted>
   9.000000E+99

> <Gold.Protein.RotatedTorsions>
[ 6907 6896 6895 6894 ] final -121.64 input  -60.11 | X-H torsion
[ 7974 7965 7964 7962 ] final   -5.35 input  175.53 | X-H torsion
[ 8008 7997 7996 7995 ] final   17.45 input   59.86 | X-H torsion
[ 10167 10162 10161 10158 ] final  126.03 input  -65.29 | X-H torsion
[ 10718 10713 10712 10709 ] final   18.62 input   66.30 | X-H torsion
[ 10763 10752 10751 10750 ] final   93.76 input  -60.55 | X-H torsion
[ 11005 11000 10999 10996 ] final -158.67 input  -57.11 | X-H torsion

> <Gold.Protein.ActiveResidues>
 VAL166  LYS551  ARG553  GLY616  TRP617  ASP618  TYR619  PRO620  LYS621  CYS622 
 ASP623  PHE694  ASN695  SER759  ASP760  ASP761  ALA762  ILE779  LEU786  VAL792 
 PHE793  MET794  SER795  GLU796  ALA797  LYS798  CYS799  TRP800  GLU811  SER814 

> <Gold.Protein.RotatedAtoms>
  150.8502  133.7798  159.3027 H   0  0  0  0  0  0  0  0  0  0  0  0  # atno 6907 bound_to 6896
  151.5473  135.1066  159.9950 H   0  0  0  0  0  0  0  0  0  0  0  0  # atno 6908 bound_to 6896
  152.4546  133.7655  159.6826 H   0  0  0  0  0  0  0  0  0  0  0  0  # atno 6909 bound_to 6896
  146.2354  140.2008  142.8333 H   0  0  0  0  0  0  0  0  0  0  0  0  # atno 7974 bound_to 7965
  154.8916  140.2987  155.5367 H   0  0  0  0  0  0  0  0  0  0  0  0  # atno 8008 bound_to 7997
  156.3021  140.2423  156.3866 H   0  0  0  0  0  0  0  0  0  0  0  0  # atno 8009 bound_to 7997
  154.8613  140.0405  157.1656 H   0  0  0  0  0  0  0  0  0  0  0  0  # atno 8010 bound_to 7997
  139.5653  144.6907  151.3927 H   0  0  0  0  0  0  0  0  0  0  0  0  # atno 10167 bound_to 10162
  157.0989  130.6459  149.5867 H   0  0  0  0  0  0  0  0  0  0  0  0  # atno 10718 bound_to 10713
  153.2339  135.4314  155.0625 H   0  0  0  0  0  0  0  0  0  0  0  0  # atno 10763 bound_to 10752
  154.8310  135.3386  154.6747 H   0  0  0  0  0  0  0  0  0  0  0  0  # atno 10764 bound_to 10752
  153.7173  135.7019  153.5078 H   0  0  0  0  0  0  0  0  0  0  0  0  # atno 10765 bound_to 10752
  140.6511  134.4450  157.5235 H   0  0  0  0  0  0  0  0  0  0  0  0  # atno 11005 bound_to 11000
  144.9784  140.8435  143.5412 LP  0  0  0  0  0  0  0  0  0  0  0  0  # atno 17320 bound_to 7965
  145.1998  139.2258  143.5199 LP  0  0  0  0  0  0  0  0  0  0  0  0  # atno 17321 bound_to 7965
  140.6936  143.7802  150.7293 LP  0  0  0  0  0  0  0  0  0  0  0  0  # atno 17342 bound_to 10162
  140.1292  143.4541  152.2265 LP  0  0  0  0  0  0  0  0  0  0  0  0  # atno 17343 bound_to 10162
  155.9879  130.4920  150.7144 LP  0  0  0  0  0  0  0  0  0  0  0  0  # atno 17370 bound_to 10713
  157.4658  131.0888  151.0697 LP  0  0  0  0  0  0  0  0  0  0  0  0  # atno 17371 bound_to 10713
  139.9046  134.8479  156.1759 LP  0  0  0  0  0  0  0  0  0  0  0  0  # atno 17394 bound_to 11000
  141.0536  133.6876  156.1818 LP  0  0  0  0  0  0  0  0  0  0  0  0  # atno 17395 bound_to 11000

$$$$
