AV-unprocessed.smi:1591|AV-procd|sdf|6400|dock8
  -GOLD-   22720 7 33D 1   1.00000     0.00000
 Structure written by MMmdl.
 51 54  0  0  0  0  0  0  0  0  2 V2000
  147.9635  132.1592  157.4095 C   0  0  0  0  0  0  0  0  0  0  0  0
  147.2432  132.7894  158.6121 C   0  0  0  0  0  0  0  0  0  0  0  0
  147.8532  134.1353  159.0817 C   0  0  1  0  0  0  0  0  0  0  0  0
  147.7898  135.0967  157.9774 N   0  0  0  0  0  0  0  0  0  0  0  0
  148.7992  135.8557  157.5224 C   0  0  0  0  0  0  0  0  0  0  0  0
  149.9227  135.8719  158.0244 O   0  0  0  0  0  0  0  0  0  0  0  0
  148.4819  136.7349  156.3096 C   0  0  0  0  0  0  0  0  0  0  0  0
  149.6266  137.5896  155.9607 N   0  0  0  0  0  0  0  0  0  0  0  0
  150.1780  137.4331  154.6765 C   0  0  0  0  0  0  0  0  0  0  0  0
  151.2410  138.1501  154.2660 C   0  0  0  0  0  0  0  0  0  0  0  0
  151.8244  139.1105  155.1936 C   0  0  0  0  0  0  0  0  0  0  0  0
  152.7957  139.7741  154.8360 O   0  0  0  0  0  0  0  0  0  0  0  0
  151.2552  139.2259  156.4291 N   0  5  0  0  0  0  0  0  0  0  0  0
  150.1738  138.4891  156.8333 C   0  0  0  0  0  0  0  0  0  0  0  0
  149.6780  138.6097  157.9536 O   0  0  0  0  0  0  0  0  0  0  0  0
  147.2202  134.7440  160.3775 C   0  0  0  0  0  0  0  0  0  0  0  0
  147.8882  136.1173  160.6908 C   0  0  0  0  0  0  0  0  0  0  0  0
  147.3008  136.7425  161.9727 C   0  0  1  0  0  0  0  0  0  0  0  0
  145.7855  136.9617  161.7882 C   0  0  0  0  0  0  0  0  0  0  0  0
  145.1066  135.6035  161.5178 C   0  0  2  0  0  0  0  0  0  0  0  0
  145.3508  134.6581  162.7121 C   0  0  0  0  0  0  0  0  0  0  0  0
  146.8686  134.4486  162.8912 C   0  0  2  0  0  0  0  0  0  0  0  0
  147.5516  135.8019  163.1673 C   0  0  0  0  0  0  0  0  0  0  0  0
  147.4552  133.8206  161.6087 C   0  0  0  0  0  0  0  0  0  0  0  0
  145.6881  134.9776  160.2311 C   0  0  0  0  0  0  0  0  0  0  0  0
  147.5480  131.1773  157.1822 H   0  0  0  0  0  0  0  0  0  0  0  0
  149.0273  132.0308  157.6113 H   0  0  0  0  0  0  0  0  0  0  0  0
  147.8635  132.7692  156.5114 H   0  0  0  0  0  0  0  0  0  0  0  0
  146.1910  132.9168  158.3584 H   0  0  0  0  0  0  0  0  0  0  0  0
  147.2772  132.0612  159.4204 H   0  0  0  0  0  0  0  0  0  0  0  0
  148.8997  133.9302  159.3143 H   0  0  0  0  0  0  0  0  0  0  0  0
  146.9057  135.1653  157.4952 H   0  0  0  0  0  0  0  0  0  0  0  0
  148.2025  136.1074  155.4614 H   0  0  0  0  0  0  0  0  0  0  0  0
  147.5949  137.3336  156.5226 H   0  0  0  0  0  0  0  0  0  0  0  0
  149.6914  136.6959  154.0547 H   0  0  0  0  0  0  0  0  0  0  0  0
  151.6533  138.0152  153.2768 H   0  0  0  0  0  0  0  0  0  0  0  0
  148.9666  135.9943  160.8012 H   0  0  0  0  0  0  0  0  0  0  0  0
  147.7487  136.8176  159.8667 H   0  0  0  0  0  0  0  0  0  0  0  0
  147.7843  137.7016  162.1615 H   0  0  0  0  0  0  0  0  0  0  0  0
  145.3596  137.4275  162.6777 H   0  0  0  0  0  0  0  0  0  0  0  0
  145.6003  137.6485  160.9614 H   0  0  0  0  0  0  0  0  0  0  0  0
  144.0342  135.7553  161.3913 H   0  0  0  0  0  0  0  0  0  0  0  0
  144.9173  135.0778  163.6208 H   0  0  0  0  0  0  0  0  0  0  0  0
  144.8531  133.7020  162.5461 H   0  0  0  0  0  0  0  0  0  0  0  0
  147.0432  133.7787  163.7337 H   0  0  0  0  0  0  0  0  0  0  0  0
  148.6220  135.6613  163.3212 H   0  0  0  0  0  0  0  0  0  0  0  0
  147.1623  136.2431  164.0857 H   0  0  0  0  0  0  0  0  0  0  0  0
  146.9848  132.8487  161.4647 H   0  0  0  0  0  0  0  0  0  0  0  0
  148.5211  133.6303  161.7414 H   0  0  0  0  0  0  0  0  0  0  0  0
  145.4744  135.6311  159.3847 H   0  0  0  0  0  0  0  0  0  0  0  0
  145.1737  134.0383  160.0277 H   0  0  0  0  0  0  0  0  0  0  0  0
  1  2  1  0  0  0  0
  1 26  1  0  0  0  0
  1 27  1  0  0  0  0
  1 28  1  0  0  0  0
  2  3  1  0  0  0  0
  2 29  1  0  0  0  0
  2 30  1  0  0  0  0
  3  4  1  0  0  0  0
  3 16  1  0  0  0  0
  3 31  1  0  0  0  0
  4  5  1  0  0  0  0
  4 32  1  0  0  0  0
  5  6  2  0  0  0  0
  5  7  1  0  0  0  0
  7  8  1  0  0  0  0
  7 33  1  0  0  0  0
  7 34  1  0  0  0  0
  8 14  1  0  0  0  0
  8  9  1  0  0  0  0
  9 10  2  0  0  0  0
  9 35  1  0  0  0  0
 10 11  1  0  0  0  0
 10 36  1  0  0  0  0
 11 12  2  0  0  0  0
 11 13  1  0  0  0  0
 13 14  1  0  0  0  0
 14 15  2  0  0  0  0
 16 24  1  0  0  0  0
 16 25  1  0  0  0  0
 16 17  1  0  0  0  0
 17 18  1  0  0  0  0
 17 37  1  0  0  0  0
 17 38  1  0  0  0  0
 18 23  1  0  0  0  0
 18 19  1  0  0  0  0
 18 39  1  0  0  0  0
 19 20  1  0  0  0  0
 19 40  1  0  0  0  0
 19 41  1  0  0  0  0
 20 21  1  0  0  0  0
 20 25  1  0  0  0  0
 20 42  1  0  0  0  0
 21 22  1  0  0  0  0
 21 43  1  0  0  0  0
 21 44  1  0  0  0  0
 22 23  1  0  0  0  0
 22 24  1  0  0  0  0
 22 45  1  0  0  0  0
 23 46  1  0  0  0  0
 23 47  1  0  0  0  0
 24 48  1  0  0  0  0
 24 49  1  0  0  0  0
 25 50  1  0  0  0  0
 25 51  1  0  0  0  0
M  CHG  1  13  -1
M  END
> <s_m_source_file>
AV-unprocessed.smi

> <i_m_source_file_index>
1591

> <i_lp_mmshare_version>
43012

> <i_f3d_flags>
0

> <s_epik_input>
W0NIMl0xW0NASF0oW0NIMl0yKVtDSDJdW0NASF0oW0NIMl0zKVtDSDJdW0NAQEhdMVtDSDJdQzIzW0NASF0oW0NIMl1bQ0gzXSlbTkhdQyg9TylbQ0gyXW40W2NIXVtjSF1jKD1PKVtuSF1jND1P

> <s_epik_cmdline>
J2VwaWtfcHl0aG9uJywgJy1waCcsICc3LjAnLCAnLXRuJywgJzgnLCAnLW1hJywgJzIwMCcsICctbWV0YWxfYmluZGluZycsICctaW1hZScsICc8aW5maWxlLm1hZT4nLCAnLW9tYWUnLCAnPG91dGZpbGUubWFlPic=

> <r_lp_tautomer_probability>
0.999537

> <r_epik_Ionization_Penalty>
3.13902

> <r_epik_Ionization_Penalty_Charging>
2.97334e-08

> <r_epik_Ionization_Penalty_Neutral>
3.13902

> <r_epik_State_Penalty>
3.13814

> <r_epik_Charging_Adjusted_Penalty>
3.13814

> <i_epik_Tot_Q>
-1

> <i_epik_Tot_abs_Q>
1

> <r_epik_Metal_State_Penalty>
0.465244

> <b_epik_Metal_Only>
1

> <s_lp_Force_Field>
OPLS_2005

> <r_lp_Energy>
49.2124

> <b_lp_Chiralities_Consistent>
1

> <s_lp_Variant>
AV-unprocessed.smi:1591-4

> <Gold.Version>
5.8.1

> <Gold.Id.Protein>
6NUR|6NUR_protein|mol2

> <Gold.PLP.Fitness>
46.3891

> <Gold.PLP.PLP>
-36.9805

> <Gold.PLP.part.hbond>
-3.0000

> <Gold.PLP.part.metal>
0.0000

> <Gold.PLP.part.buried>
-2.9516

> <Gold.PLP.part.nonpolar>
-31.8567

> <Gold.PLP.part.repulsive>
0.0868

> <Gold.PLP.ligand.clash>
0.0000

> <Gold.PLP.ligand.torsion>
0.2404

> <Gold.PLP.Chemscore.Hbond>
2.2480

> <Gold.PLP.Chemscore.CHOScore>
1.0072

> <Gold.PLP.Chemscore.Metal>
0.0000

> <Gold.Chemscore.Hbonds>
donor molecule, donor type, donor heavy atom, donor atom, acceptor molecule, acceptor atom, score
      P1  H  6896  6908       L1     6  0.74
      P1  H  7989  7998       L1    12  0.29
      P1  H  7997  8010       L1    12  1.00
      L1  C     9    35       P1  7948  1.00

> <Gold.PLP.Chemscore.Internal.Correction>
0.1236

> <Gold.Rescore>
     Score         DG    S(hbond)    S(metal)    S(lipo)     H(rot)  DE(clash)    DE(int)     intcor
     16.92     -17.37       1.95        0.00      89.49       1.99       0.08       0.37       ----

> <Gold.Chemscore.Fitness>
16.9184

> <Gold.Chemscore.DG>
-17.3696

> <Gold.Chemscore.ZeroCoef>
-5.4800

> <Gold.Chemscore.Hbond>
1.9471

> <Gold.Chemscore.Metal>
0.0000

> <Gold.Chemscore.Lipo>
89.4850

> <Gold.Chemscore.Internal_Hbond>
0.0000

> <Gold.Chemscore.DEClash>
0.0814

> <Gold.Chemscore.DEInternal>
0.3698

> <Gold.Chemscore.Rot>
1.9858

> <Gold.Chemscore.Internal.Correction>
   9.000000E+99

> <Gold.Chemscore.Hbonds>
donor molecule, donor type, donor heavy atom, donor atom, acceptor molecule, acceptor atom, score
      P1  H  6896  6908       L1     6  0.70
      P1  H  7989  7998       L1    12  0.02
      P1  H  7997  8010       L1    12  0.94

> <Gold.Chemscore.Hbond.Weighted>
-6.5035

> <Gold.Chemscore.Metal.Weighted>
-0.0000

> <Gold.Chemscore.Lipo.Weighted>
-10.4697

> <Gold.Chemscore.Internal_Hbond.Weighted>
0.0000

> <Gold.Chemscore.DEClash.Weighted>
0.0814

> <Gold.Chemscore.DEInternal.Weighted>
0.3698

> <Gold.Chemscore.Rot.Weighted>
5.0836

> <Gold.Chemscore.Internal.Correction.Weighted>
   9.000000E+99

> <Gold.Protein.RotatedTorsions>
[ 6907 6896 6895 6894 ] final -178.25 input  -60.11 | X-H torsion
[ 7974 7965 7964 7962 ] final    8.31 input  175.53 | X-H torsion
[ 8008 7997 7996 7995 ] final  113.71 input   59.86 | X-H torsion
[ 10167 10162 10161 10158 ] final   60.58 input  -65.29 | X-H torsion
[ 10718 10713 10712 10709 ] final  -53.26 input   66.30 | X-H torsion
[ 10763 10752 10751 10750 ] final   82.45 input  -60.55 | X-H torsion
[ 11005 11000 10999 10996 ] final   10.87 input  -57.11 | X-H torsion

> <Gold.Protein.ActiveResidues>
 VAL166  LYS551  ARG553  GLY616  TRP617  ASP618  TYR619  PRO620  LYS621  CYS622 
 ASP623  PHE694  ASN695  SER759  ASP760  ASP761  ALA762  ILE779  LEU786  VAL792 
 PHE793  MET794  SER795  GLU796  ALA797  LYS798  CYS799  TRP800  GLU811  SER814 

> <Gold.Protein.RotatedAtoms>
  151.6342  133.3330  159.3115 H   0  0  0  0  0  0  0  0  0  0  0  0  # atno 6907 bound_to 6896
  150.8041  134.7158  159.6639 H   0  0  0  0  0  0  0  0  0  0  0  0  # atno 6908 bound_to 6896
  152.4135  134.6087  160.0071 H   0  0  0  0  0  0  0  0  0  0  0  0  # atno 6909 bound_to 6896
  146.2417  139.9952  142.8421 H   0  0  0  0  0  0  0  0  0  0  0  0  # atno 7974 bound_to 7965
  156.2275  140.2974  156.0104 H   0  0  0  0  0  0  0  0  0  0  0  0  # atno 8008 bound_to 7997
  155.2316  140.0419  157.2980 H   0  0  0  0  0  0  0  0  0  0  0  0  # atno 8009 bound_to 7997
  154.5940  140.2409  155.7889 H   0  0  0  0  0  0  0  0  0  0  0  0  # atno 8010 bound_to 7997
  140.1640  144.4342  150.6694 H   0  0  0  0  0  0  0  0  0  0  0  0  # atno 10167 bound_to 10162
  156.1550  130.4150  149.9883 H   0  0  0  0  0  0  0  0  0  0  0  0  # atno 10718 bound_to 10713
  153.1204  135.4728  154.9185 H   0  0  0  0  0  0  0  0  0  0  0  0  # atno 10763 bound_to 10752
  154.7569  135.3121  154.8454 H   0  0  0  0  0  0  0  0  0  0  0  0  # atno 10764 bound_to 10752
  153.9021  135.6874  153.4808 H   0  0  0  0  0  0  0  0  0  0  0  0  # atno 10765 bound_to 10752
  140.5096  134.0665  155.7815 H   0  0  0  0  0  0  0  0  0  0  0  0  # atno 11005 bound_to 11000
  145.1466  140.9600  143.4457 LP  0  0  0  0  0  0  0  0  0  0  0  0  # atno 17320 bound_to 7965
  145.0245  139.3395  143.6056 LP  0  0  0  0  0  0  0  0  0  0  0  0  # atno 17321 bound_to 7965
  140.6624  143.2256  151.5823 LP  0  0  0  0  0  0  0  0  0  0  0  0  # atno 17342 bound_to 10162
  139.5368  144.2759  152.1268 LP  0  0  0  0  0  0  0  0  0  0  0  0  # atno 17343 bound_to 10162
  156.7729  130.9193  151.3644 LP  0  0  0  0  0  0  0  0  0  0  0  0  # atno 17370 bound_to 10713
  157.6688  130.9032  149.9992 LP  0  0  0  0  0  0  0  0  0  0  0  0  # atno 17371 bound_to 10713
  141.1392  133.9167  157.2364 LP  0  0  0  0  0  0  0  0  0  0  0  0  # atno 17394 bound_to 11000
  139.9666  135.0140  156.9403 LP  0  0  0  0  0  0  0  0  0  0  0  0  # atno 17395 bound_to 11000

$$$$
