AV-unprocessed.smi:1565|AV-procd|sdf|6299|dock3
  -GOLD-   22720 6493D 1   1.00000     0.00000
 Structure written by MMmdl.
 40 41  0  0  0  0  0  0  0  0  1 V2000
  148.4629  140.7339  153.9511 C   0  0  0  0  0  0  0  0  0  0  0  0
  149.2968  139.7374  154.7633 C   0  0  1  0  0  0  0  0  0  0  0  0
  149.0406  138.2846  154.3242 C   0  0  0  0  0  0  0  0  0  0  0  0
  149.9423  137.3760  155.0246 N   0  0  0  0  0  0  0  0  0  0  0  0
  149.5981  136.0086  154.9672 C   0  0  0  0  0  0  0  0  0  0  0  0
  148.4888  135.5874  154.1969 C   0  0  0  0  0  0  0  0  0  0  0  0
  148.1653  134.2179  154.1487 C   0  0  0  0  0  0  0  0  0  0  0  0
  148.9590  133.2978  154.8648 C   0  0  0  0  0  0  0  0  0  0  0  0
  148.6305  131.8328  154.8533 C   0  0  0  0  0  0  0  0  0  0  0  0
  147.5433  131.4343  154.4351 O   0  0  0  0  0  0  0  0  0  0  0  0
  149.6114  131.0141  155.2657 N   0  0  0  0  0  0  0  0  0  0  0  0
  149.5358  129.5569  155.2872 C   0  0  0  0  0  0  0  0  0  0  0  0
  149.7311  128.9494  153.8877 C   0  0  0  0  0  0  0  0  0  0  0  0
  148.7802  129.4088  153.0756 F   0  0  0  0  0  0  0  0  0  0  0  0
  150.9185  129.2847  153.3837 F   0  0  0  0  0  0  0  0  0  0  0  0
  149.6378  127.6207  153.9452 F   0  0  0  0  0  0  0  0  0  0  0  0
  150.0349  133.8138  155.6211 C   0  0  0  0  0  0  0  0  0  0  0  0
  150.3486  135.1256  155.6707 N   0  0  0  0  0  0  0  0  0  0  0  0
  151.3505  137.7376  154.8780 C   0  0  0  0  0  0  0  0  0  0  0  0
  151.5880  139.2083  155.2725 C   0  0  2  0  0  0  0  0  0  0  0  0
  151.5620  139.4467  156.7930 C   0  0  0  0  0  0  0  0  0  0  0  0
  150.6745  140.0592  154.5764 O   0  0  0  0  0  0  0  0  0  0  0  0
  147.3965  140.5391  154.0667 H   0  0  0  0  0  0  0  0  0  0  0  0
  148.7016  140.6746  152.8888 H   0  0  0  0  0  0  0  0  0  0  0  0
  148.6513  141.7568  154.2786 H   0  0  0  0  0  0  0  0  0  0  0  0
  149.0305  139.8543  155.8140 H   0  0  0  0  0  0  0  0  0  0  0  0
  147.9956  138.0364  154.5048 H   0  0  0  0  0  0  0  0  0  0  0  0
  149.2081  138.1815  153.2512 H   0  0  0  0  0  0  0  0  0  0  0  0
  147.8774  136.2958  153.6579 H   0  0  0  0  0  0  0  0  0  0  0  0
  147.3181  133.8867  153.5657 H   0  0  0  0  0  0  0  0  0  0  0  0
  150.4810  131.4287  155.5676 H   0  0  0  0  0  0  0  0  0  0  0  0
  150.3158  129.1924  155.9565 H   0  0  0  0  0  0  0  0  0  0  0  0
  148.5876  129.2279  155.7157 H   0  0  0  0  0  0  0  0  0  0  0  0
  150.6666  133.1645  156.2095 H   0  0  0  0  0  0  0  0  0  0  0  0
  151.9799  137.0885  155.4885 H   0  0  0  0  0  0  0  0  0  0  0  0
  151.6443  137.5860  153.8382 H   0  0  0  0  0  0  0  0  0  0  0  0
  152.5845  139.4862  154.9282 H   0  0  0  0  0  0  0  0  0  0  0  0
  152.3592  138.8885  157.2842 H   0  0  0  0  0  0  0  0  0  0  0  0
  150.6223  139.1313  157.2456 H   0  0  0  0  0  0  0  0  0  0  0  0
  151.7083  140.5020  157.0237 H   0  0  0  0  0  0  0  0  0  0  0  0
  1  2  1  0  0  0  0
  1 23  1  0  0  0  0
  1 24  1  0  0  0  0
  1 25  1  0  0  0  0
  2 22  1  0  0  0  0
  2  3  1  0  0  0  0
  2 26  1  0  0  0  0
  3  4  1  0  0  0  0
  3 27  1  0  0  0  0
  3 28  1  0  0  0  0
  4  5  1  0  0  0  0
  4 19  1  0  0  0  0
  5 18  1  0  0  0  0
  5  6  2  0  0  0  0
  6  7  1  0  0  0  0
  6 29  1  0  0  0  0
  7  8  2  0  0  0  0
  7 30  1  0  0  0  0
  8  9  1  0  0  0  0
  8 17  1  0  0  0  0
  9 10  2  0  0  0  0
  9 11  1  0  0  0  0
 11 12  1  0  0  0  0
 11 31  1  0  0  0  0
 12 13  1  0  0  0  0
 12 32  1  0  0  0  0
 12 33  1  0  0  0  0
 13 14  1  0  0  0  0
 13 15  1  0  0  0  0
 13 16  1  0  0  0  0
 17 18  2  0  0  0  0
 17 34  1  0  0  0  0
 19 20  1  0  0  0  0
 19 35  1  0  0  0  0
 19 36  1  0  0  0  0
 20 21  1  0  0  0  0
 20 22  1  0  0  0  0
 20 37  1  0  0  0  0
 21 38  1  0  0  0  0
 21 39  1  0  0  0  0
 21 40  1  0  0  0  0
M  END
> <s_m_source_file>
AV-unprocessed.smi

> <i_m_source_file_index>
1565

> <i_lp_mmshare_version>
43012

> <i_f3d_flags>
0

> <s_epik_input>
W0NIM11bQ0BASF0xW0NIMl1OKFtDSDJdW0NASF0oTzEpW0NIM10pYzJbY0hdW2NIXWMoW2NIXW4yKUMoPU8pW05IXVtDSDJdQyhGKShGKUY=

> <s_epik_cmdline>
J2VwaWtfcHl0aG9uJywgJy1waCcsICc3LjAnLCAnLXRuJywgJzgnLCAnLW1hJywgJzIwMCcsICctbWV0YWxfYmluZGluZycsICctaW1hZScsICc8aW5maWxlLm1hZT4nLCAnLW9tYWUnLCAnPG91dGZpbGUubWFlPic=

> <r_lp_tautomer_probability>
1

> <r_epik_Ionization_Penalty>
1.48031e-05

> <r_epik_Ionization_Penalty_Charging>
0

> <r_epik_Ionization_Penalty_Neutral>
1.48031e-05

> <r_epik_State_Penalty>
-0

> <r_epik_Charging_Adjusted_Penalty>
0

> <i_epik_Tot_Q>
0

> <i_epik_Tot_abs_Q>
0

> <r_epik_Metal_State_Penalty>
0.00620302

> <b_epik_Metal_Only>
0

> <s_lp_Force_Field>
OPLS_2005

> <r_lp_Energy>
19.4369

> <b_lp_Chiralities_Consistent>
1

> <s_lp_Variant>
AV-unprocessed.smi:1565-3

> <Gold.Version>
5.8.1

> <Gold.Id.Protein>
6NUR|6NUR_protein|mol2

> <Gold.PLP.Fitness>
37.8475

> <Gold.PLP.PLP>
-32.3673

> <Gold.PLP.part.hbond>
-2.0000

> <Gold.PLP.part.metal>
0.0000

> <Gold.PLP.part.buried>
-2.4153

> <Gold.PLP.part.nonpolar>
-29.1001

> <Gold.PLP.part.repulsive>
0.1902

> <Gold.PLP.ligand.clash>
0.0000

> <Gold.PLP.ligand.torsion>
0.4334

> <Gold.PLP.Chemscore.Hbond>
2.0000

> <Gold.PLP.Chemscore.CHOScore>
0.0000

> <Gold.PLP.Chemscore.Metal>
0.0000

> <Gold.Chemscore.Hbonds>
donor molecule, donor type, donor heavy atom, donor atom, acceptor molecule, acceptor atom, score
      P1  H  7989  7998       L1    22  1.00

> <Gold.PLP.Chemscore.Internal.Correction>
0.3470

> <Gold.Rescore>
     Score         DG    S(hbond)    S(metal)    S(lipo)     H(rot)  DE(clash)    DE(int)     intcor
     12.02     -13.36       1.01        0.00      67.12       1.31       0.16       1.18       ----

> <Gold.Chemscore.Fitness>
12.0233

> <Gold.Chemscore.DG>
-13.3625

> <Gold.Chemscore.ZeroCoef>
-5.4800

> <Gold.Chemscore.Hbond>
1.0093

> <Gold.Chemscore.Metal>
0.0000

> <Gold.Chemscore.Lipo>
67.1193

> <Gold.Chemscore.Internal_Hbond>
0.0000

> <Gold.Chemscore.DEClash>
0.1556

> <Gold.Chemscore.DEInternal>
1.1837

> <Gold.Chemscore.Rot>
1.3052

> <Gold.Chemscore.Internal.Correction>
   9.000000E+99

> <Gold.Chemscore.Hbonds>
donor molecule, donor type, donor heavy atom, donor atom, acceptor molecule, acceptor atom, score
      P1  H  7989  7998       L1    22  0.45

> <Gold.Chemscore.Hbond.Weighted>
-3.3710

> <Gold.Chemscore.Metal.Weighted>
-0.0000

> <Gold.Chemscore.Lipo.Weighted>
-7.8530

> <Gold.Chemscore.Internal_Hbond.Weighted>
0.0000

> <Gold.Chemscore.DEClash.Weighted>
0.1556

> <Gold.Chemscore.DEInternal.Weighted>
1.1837

> <Gold.Chemscore.Rot.Weighted>
3.3414

> <Gold.Chemscore.Internal.Correction.Weighted>
   9.000000E+99

> <Gold.Protein.RotatedTorsions>
[ 6907 6896 6895 6894 ] final  -98.18 input  -60.11 | X-H torsion
[ 7974 7965 7964 7962 ] final  108.86 input  175.53 | X-H torsion
[ 8008 7997 7996 7995 ] final  131.48 input   59.86 | X-H torsion
[ 10167 10162 10161 10158 ] final   12.19 input  -65.29 | X-H torsion
[ 10718 10713 10712 10709 ] final   17.84 input   66.30 | X-H torsion
[ 10763 10752 10751 10750 ] final -150.07 input  -60.55 | X-H torsion
[ 11005 11000 10999 10996 ] final  151.79 input  -57.11 | X-H torsion

> <Gold.Protein.ActiveResidues>
 VAL166  LYS551  ARG553  GLY616  TRP617  ASP618  TYR619  PRO620  LYS621  CYS622 
 ASP623  PHE694  ASN695  SER759  ASP760  ASP761  ALA762  ILE779  LEU786  VAL792 
 PHE793  MET794  SER795  GLU796  ALA797  LYS798  CYS799  TRP800  GLU811  SER814 

> <Gold.Protein.RotatedAtoms>
  150.7039  134.1233  159.4042 H   0  0  0  0  0  0  0  0  0  0  0  0  # atno 6907 bound_to 6896
  151.9220  135.0292  160.0532 H   0  0  0  0  0  0  0  0  0  0  0  0  # atno 6908 bound_to 6896
  152.2248  133.4976  159.5219 H   0  0  0  0  0  0  0  0  0  0  0  0  # atno 6909 bound_to 6896
  145.2752  139.2652  143.3945 H   0  0  0  0  0  0  0  0  0  0  0  0  # atno 7974 bound_to 7965
  156.2970  140.2570  156.2932 H   0  0  0  0  0  0  0  0  0  0  0  0  # atno 8008 bound_to 7997
  154.9489  140.0394  157.2153 H   0  0  0  0  0  0  0  0  0  0  0  0  # atno 8009 bound_to 7997
  154.8055  140.2835  155.5895 H   0  0  0  0  0  0  0  0  0  0  0  0  # atno 8010 bound_to 7997
  140.6084  143.8460  150.7038 H   0  0  0  0  0  0  0  0  0  0  0  0  # atno 10167 bound_to 10162
  157.0878  130.6415  149.5841 H   0  0  0  0  0  0  0  0  0  0  0  0  # atno 10718 bound_to 10713
  154.8140  135.3293  154.7227 H   0  0  0  0  0  0  0  0  0  0  0  0  # atno 10763 bound_to 10752
  153.7871  135.6914  153.4882 H   0  0  0  0  0  0  0  0  0  0  0  0  # atno 10764 bound_to 10752
  153.1942  135.4540  155.0133 H   0  0  0  0  0  0  0  0  0  0  0  0  # atno 10765 bound_to 10752
  140.1250  134.8839  157.2125 H   0  0  0  0  0  0  0  0  0  0  0  0  # atno 11005 bound_to 11000
  146.3234  140.3205  142.8633 LP  0  0  0  0  0  0  0  0  0  0  0  0  # atno 17320 bound_to 7965
  144.9301  140.7965  143.5695 LP  0  0  0  0  0  0  0  0  0  0  0  0  # atno 17321 bound_to 7965
  140.2022  143.3950  152.1782 LP  0  0  0  0  0  0  0  0  0  0  0  0  # atno 17342 bound_to 10162
  139.5342  144.7192  151.4950 LP  0  0  0  0  0  0  0  0  0  0  0  0  # atno 17343 bound_to 10162
  155.9906  130.4957  150.7263 LP  0  0  0  0  0  0  0  0  0  0  0  0  # atno 17370 bound_to 10713
  157.4746  131.0896  151.0604 LP  0  0  0  0  0  0  0  0  0  0  0  0  # atno 17371 bound_to 10713
  140.2916  134.3234  155.7314 LP  0  0  0  0  0  0  0  0  0  0  0  0  # atno 17394 bound_to 11000
  141.2159  133.7538  156.9511 LP  0  0  0  0  0  0  0  0  0  0  0  0  # atno 17395 bound_to 11000

$$$$
