AV-unprocessed.smi:198|AV-procd|sdf|1557|dock3
  -GOLD-   2262019433D 1   1.00000     0.00000
 Structure written by MMmdl.
 59 63  0  0  0  0  0  0  0  0  2 V2000
  147.3502  142.8357  158.1571 C   0  0  0  0  0  0  0  0  0  0  0  0
  148.6969  142.7758  157.5490 N   0  3  2  0  0  0  0  0  0  0  0  0
  148.9309  141.5036  156.8246 C   0  0  0  0  0  0  0  0  0  0  0  0
  150.2860  141.5296  156.1000 C   0  0  0  0  0  0  0  0  0  0  0  0
  151.4584  141.8071  157.0712 C   0  0  1  0  0  0  0  0  0  0  0  0
  151.1609  143.1119  157.8510 C   0  0  2  0  0  0  0  0  0  0  0  0
  152.2954  143.4238  158.8471 C   0  0  0  0  0  0  0  0  0  0  0  0
  152.5851  142.2246  159.7627 C   0  0  0  0  0  0  0  0  0  0  0  0
  152.8392  140.9564  158.9355 C   0  0  0  0  0  0  0  0  0  0  0  0
  151.7439  140.7027  158.0007 N   0  0  0  0  0  0  0  0  0  0  0  0
  151.8584  139.4736  157.4505 C   0  0  0  0  0  0  0  0  0  0  0  0
  152.9041  139.2690  156.6132 N   0  0  0  0  0  0  0  0  0  0  0  0
  153.0680  138.0766  156.0319 C   0  0  0  0  0  0  0  0  0  0  0  0
  152.3175  136.9792  156.1508 N   0  0  0  0  0  0  0  0  0  0  0  0
  151.2644  137.1837  156.9937 C   0  0  0  0  0  0  0  0  0  0  0  0
  150.9598  138.3935  157.6785 C   0  0  0  0  0  0  0  0  0  0  0  0
  149.8043  138.2348  158.4330 N   0  0  0  0  0  0  0  0  0  0  0  0
  149.4408  137.0030  158.2003 C   0  0  0  0  0  0  0  0  0  0  0  0
  150.2758  136.2902  157.3688 N   0  0  0  0  0  0  0  0  0  0  0  0
  150.0836  134.9437  156.9139 C   0  0  0  0  0  0  0  0  0  0  0  0
  150.9451  134.3601  155.7899 C   0  0  0  0  0  0  0  0  0  0  0  0
  149.7312  133.5723  155.2501 C   0  0  0  0  0  0  0  0  0  0  0  0
  149.5198  133.6595  153.7305 C   0  0  0  0  0  0  0  0  0  0  0  0
  148.2580  133.1459  153.3544 O   0  0  0  0  0  0  0  0  0  0  0  0
  149.6297  132.0800  155.6374 C   0  0  0  0  0  0  0  0  0  0  0  0
  150.5911  131.2674  154.9951 O   0  0  0  0  0  0  0  0  0  0  0  0
  148.8650  134.5540  156.0713 C   0  0  0  0  0  0  0  0  0  0  0  0
  149.7722  143.0618  158.5303 C   0  0  0  0  0  0  0  0  0  0  0  0
  147.2286  142.0616  158.9160 H   0  0  0  0  0  0  0  0  0  0  0  0
  146.5785  142.6957  157.3992 H   0  0  0  0  0  0  0  0  0  0  0  0
  147.1817  143.8054  158.6265 H   0  0  0  0  0  0  0  0  0  0  0  0
  148.8892  140.6666  157.5233 H   0  0  0  0  0  0  0  0  0  0  0  0
  148.1341  141.3478  156.0963 H   0  0  0  0  0  0  0  0  0  0  0  0
  150.4340  140.6033  155.5444 H   0  0  0  0  0  0  0  0  0  0  0  0
  150.2635  142.3163  155.3448 H   0  0  0  0  0  0  0  0  0  0  0  0
  152.3580  141.9700  156.4764 H   0  0  0  0  0  0  0  0  0  0  0  0
  151.1329  143.9311  157.1307 H   0  0  0  0  0  0  0  0  0  0  0  0
  153.2009  143.6718  158.2916 H   0  0  0  0  0  0  0  0  0  0  0  0
  152.0524  144.3043  159.4426 H   0  0  0  0  0  0  0  0  0  0  0  0
  153.4509  142.4368  160.3903 H   0  0  0  0  0  0  0  0  0  0  0  0
  151.7499  142.0595  160.4435 H   0  0  0  0  0  0  0  0  0  0  0  0
  153.7713  141.0635  158.3789 H   0  0  0  0  0  0  0  0  0  0  0  0
  152.9660  140.1040  159.6047 H   0  0  0  0  0  0  0  0  0  0  0  0
  153.9231  137.9883  155.3779 H   0  0  0  0  0  0  0  0  0  0  0  0
  148.5480  136.5773  158.6349 H   0  0  0  0  0  0  0  0  0  0  0  0
  150.1459  134.3209  157.8070 H   0  0  0  0  0  0  0  0  0  0  0  0
  151.2931  135.1242  155.0926 H   0  0  0  0  0  0  0  0  0  0  0  0
  151.7747  133.7422  156.1344 H   0  0  0  0  0  0  0  0  0  0  0  0
  149.6040  134.6879  153.3774 H   0  0  0  0  0  0  0  0  0  0  0  0
  150.2809  133.0886  153.1980 H   0  0  0  0  0  0  0  0  0  0  0  0
  147.6212  133.4084  154.0015 H   0  0  0  0  0  0  0  0  0  0  0  0
  149.7545  131.9522  156.7131 H   0  0  0  0  0  0  0  0  0  0  0  0
  148.6473  131.6777  155.3882 H   0  0  0  0  0  0  0  0  0  0  0  0
  151.3037  131.1126  155.5963 H   0  0  0  0  0  0  0  0  0  0  0  0
  148.0580  134.0897  156.6393 H   0  0  0  0  0  0  0  0  0  0  0  0
  148.4892  135.3901  155.4793 H   0  0  0  0  0  0  0  0  0  0  0  0
  149.5695  144.0180  159.0146 H   0  0  0  0  0  0  0  0  0  0  0  0
  149.7465  142.3014  159.3118 H   0  0  0  0  0  0  0  0  0  0  0  0
  148.7329  143.5122  156.8586 H   0  0  0  0  0  0  0  0  0  0  0  0
  1  2  1  0  0  0  0
  1 29  1  0  0  0  0
  1 30  1  0  0  0  0
  1 31  1  0  0  0  0
  2 28  1  0  0  0  0
  2  3  1  0  0  0  0
  2 59  1  0  0  0  0
  3  4  1  0  0  0  0
  3 32  1  0  0  0  0
  3 33  1  0  0  0  0
  4  5  1  0  0  0  0
  4 34  1  0  0  0  0
  4 35  1  0  0  0  0
  5 10  1  0  0  0  0
  5  6  1  0  0  0  0
  5 36  1  0  0  0  0
  6  7  1  0  0  0  0
  6 28  1  0  0  0  0
  6 37  1  0  0  0  0
  7  8  1  0  0  0  0
  7 38  1  0  0  0  0
  7 39  1  0  0  0  0
  8  9  1  0  0  0  0
  8 40  1  0  0  0  0
  8 41  1  0  0  0  0
  9 10  1  0  0  0  0
  9 42  1  0  0  0  0
  9 43  1  0  0  0  0
 10 11  1  0  0  0  0
 11 16  1  0  0  0  0
 11 12  2  0  0  0  0
 12 13  1  0  0  0  0
 13 14  2  0  0  0  0
 13 44  1  0  0  0  0
 14 15  1  0  0  0  0
 15 19  1  0  0  0  0
 15 16  2  0  0  0  0
 16 17  1  0  0  0  0
 17 18  2  0  0  0  0
 18 19  1  0  0  0  0
 18 45  1  0  0  0  0
 19 20  1  0  0  0  0
 20 27  1  0  0  0  0
 20 21  1  0  0  0  0
 20 46  1  0  0  0  0
 21 22  1  0  0  0  0
 21 47  1  0  0  0  0
 21 48  1  0  0  0  0
 22 23  1  0  0  0  0
 22 25  1  0  0  0  0
 22 27  1  0  0  0  0
 23 24  1  0  0  0  0
 23 49  1  0  0  0  0
 23 50  1  0  0  0  0
 24 51  1  0  0  0  0
 25 26  1  0  0  0  0
 25 52  1  0  0  0  0
 25 53  1  0  0  0  0
 26 54  1  0  0  0  0
 27 55  1  0  0  0  0
 27 56  1  0  0  0  0
 28 57  1  0  0  0  0
 28 58  1  0  0  0  0
M  CHG  1   2   1
M  END
> <s_m_source_file>
AV-unprocessed.smi

> <i_m_source_file_index>
198

> <i_lp_mmshare_version>
43012

> <i_f3d_flags>
0

> <s_epik_input>
W0NIMl0xW0NIMl1OKFtDSDNdKVtDSDJdW0NAQEhdKFtDQEhdMTIpW0NIMl1bQ0gyXVtDSDJdTjJjKG5bY0hdbjMpYyhjMzQpbltjSF1uNFtDSF0oW0NIMl01KVtDSDJdQzUoW0NIMl1bT0hdKVtDSDJdW09IXQ==

> <s_epik_cmdline>
J2VwaWtfcHl0aG9uJywgJy1waCcsICc3LjAnLCAnLXRuJywgJzgnLCAnLW1hJywgJzIwMCcsICctbWV0YWxfYmluZGluZycsICctaW1hZScsICc8aW5maWxlLm1hZT4nLCAnLW9tYWUnLCAnPG91dGZpbGUubWFlPic=

> <r_lp_tautomer_probability>
1

> <r_epik_Ionization_Penalty>
0.00239938

> <r_epik_Ionization_Penalty_Charging>
0.00138697

> <r_epik_Ionization_Penalty_Neutral>
0.00101241

> <r_epik_State_Penalty>
-0

> <r_epik_Charging_Adjusted_Penalty>
0.00138697

> <i_epik_Tot_Q>
1

> <i_epik_Tot_abs_Q>
1

> <r_epik_Metal_State_Penalty>
-0

> <b_epik_Metal_Only>
0

> <s_lp_Force_Field>
OPLS_2005

> <r_lp_Energy>
60.6867

> <b_lp_Chiralities_Consistent>
1

> <s_lp_Variant>
AV-unprocessed.smi:198-6

> <Gold.Version>
5.8.1

> <Gold.Id.Protein>
6NUR|6NUR_protein|mol2

> <Gold.PLP.Fitness>
50.3814

> <Gold.PLP.PLP>
-38.4701

> <Gold.PLP.part.hbond>
-3.0780

> <Gold.PLP.part.metal>
0.0000

> <Gold.PLP.part.buried>
-6.2664

> <Gold.PLP.part.nonpolar>
-29.0171

> <Gold.PLP.part.repulsive>
0.0668

> <Gold.PLP.ligand.clash>
0.0000

> <Gold.PLP.ligand.torsion>
0.3091

> <Gold.PLP.Chemscore.Hbond>
3.9760

> <Gold.PLP.Chemscore.CHOScore>
0.0000

> <Gold.PLP.Chemscore.Metal>
0.0000

> <Gold.Chemscore.Hbonds>
donor molecule, donor type, donor heavy atom, donor atom, acceptor molecule, acceptor atom, score
      L1  H     2    59       P1  8028  2.00
      P1  H  7997  8008       L1    12  1.00
      P1  H 10752 10763       L1    14  0.98

> <Gold.PLP.Chemscore.Internal.Correction>
0.6014

> <Gold.Rescore>
     Score         DG    S(hbond)    S(metal)    S(lipo)     H(rot)  DE(clash)    DE(int)     intcor
     14.49     -16.06       2.09        0.00      98.17       3.08       0.15       1.43       ----

> <Gold.Chemscore.Fitness>
14.4857

> <Gold.Chemscore.DG>
-16.0626

> <Gold.Chemscore.ZeroCoef>
-5.4800

> <Gold.Chemscore.Hbond>
2.0889

> <Gold.Chemscore.Metal>
0.0000

> <Gold.Chemscore.Lipo>
98.1671

> <Gold.Chemscore.Internal_Hbond>
0.0000

> <Gold.Chemscore.DEClash>
0.1469

> <Gold.Chemscore.DEInternal>
1.4300

> <Gold.Chemscore.Rot>
3.0781

> <Gold.Chemscore.Internal.Correction>
   9.000000E+99

> <Gold.Chemscore.Hbonds>
donor molecule, donor type, donor heavy atom, donor atom, acceptor molecule, acceptor atom, score
      L1  H     2    59       P1  8028  0.45
      P1  H  7997  8008       L1    12  0.69
      P1  H 10752 10763       L1    14  0.60

> <Gold.Chemscore.Hbond.Weighted>
-6.9770

> <Gold.Chemscore.Metal.Weighted>
-0.0000

> <Gold.Chemscore.Lipo.Weighted>
-11.4856

> <Gold.Chemscore.Internal_Hbond.Weighted>
0.0000

> <Gold.Chemscore.DEClash.Weighted>
0.1469

> <Gold.Chemscore.DEInternal.Weighted>
1.4300

> <Gold.Chemscore.Rot.Weighted>
7.8800

> <Gold.Chemscore.Internal.Correction.Weighted>
   9.000000E+99

> <Gold.Protein.RotatedTorsions>
[ 6907 6896 6895 6894 ] final  -62.83 input  -60.11 | X-H torsion
[ 7974 7965 7964 7962 ] final   45.87 input  175.53 | X-H torsion
[ 8008 7997 7996 7995 ] final  -67.09 input   59.86 | X-H torsion
[ 10167 10162 10161 10158 ] final  119.87 input  -65.29 | X-H torsion
[ 10718 10713 10712 10709 ] final -155.64 input   66.30 | X-H torsion
[ 10763 10752 10751 10750 ] final   89.01 input  -60.55 | X-H torsion
[ 11005 11000 10999 10996 ] final  -99.71 input  -57.11 | X-H torsion

> <Gold.Protein.ActiveResidues>
 VAL166  LYS551  ARG553  GLY616  TRP617  ASP618  TYR619  PRO620  LYS621  CYS622 
 ASP623  PHE694  ASN695  SER759  ASP760  ASP761  ALA762  ILE779  LEU786  VAL792 
 PHE793  MET794  SER795  GLU796  ALA797  LYS798  CYS799  TRP800  GLU811  SER814 

> <Gold.Protein.RotatedAtoms>
  150.7689  134.6517  159.6291 H   0  0  0  0  0  0  0  0  0  0  0  0  # atno 6907 bound_to 6896
  152.3733  134.6698  160.0177 H   0  0  0  0  0  0  0  0  0  0  0  0  # atno 6908 bound_to 6896
  151.7051  133.3275  159.3312 H   0  0  0  0  0  0  0  0  0  0  0  0  # atno 6909 bound_to 6896
  146.0441  139.4918  142.9759 H   0  0  0  0  0  0  0  0  0  0  0  0  # atno 7974 bound_to 7965
  154.4777  140.0899  156.7301 H   0  0  0  0  0  0  0  0  0  0  0  0  # atno 8008 bound_to 7997
  155.4554  140.3459  155.4287 H   0  0  0  0  0  0  0  0  0  0  0  0  # atno 8009 bound_to 7997
  156.1142  140.1456  156.9284 H   0  0  0  0  0  0  0  0  0  0  0  0  # atno 8010 bound_to 7997
  139.6018  144.7059  151.3044 H   0  0  0  0  0  0  0  0  0  0  0  0  # atno 10167 bound_to 10162
  156.5157  130.8455  151.2663 H   0  0  0  0  0  0  0  0  0  0  0  0  # atno 10718 bound_to 10713
  153.1826  135.4486  155.0048 H   0  0  0  0  0  0  0  0  0  0  0  0  # atno 10763 bound_to 10752
  154.8040  135.3267  154.7481 H   0  0  0  0  0  0  0  0  0  0  0  0  # atno 10764 bound_to 10752
  153.7943  135.6967  153.4921 H   0  0  0  0  0  0  0  0  0  0  0  0  # atno 10765 bound_to 10752
  141.1298  133.8343  157.1008 H   0  0  0  0  0  0  0  0  0  0  0  0  # atno 11005 bound_to 11000
  145.6835  141.0184  143.1594 LP  0  0  0  0  0  0  0  0  0  0  0  0  # atno 17320 bound_to 7965
  144.7089  139.8448  143.7421 LP  0  0  0  0  0  0  0  0  0  0  0  0  # atno 17321 bound_to 7965
  140.7255  143.7015  150.7841 LP  0  0  0  0  0  0  0  0  0  0  0  0  # atno 17342 bound_to 10162
  140.0592  143.5171  152.2636 LP  0  0  0  0  0  0  0  0  0  0  0  0  # atno 17343 bound_to 10162
  157.7444  130.9934  150.2672 LP  0  0  0  0  0  0  0  0  0  0  0  0  # atno 17370 bound_to 10713
  156.3198  130.3784  149.7586 LP  0  0  0  0  0  0  0  0  0  0  0  0  # atno 17371 bound_to 10713
  140.0335  134.9890  157.0826 LP  0  0  0  0  0  0  0  0  0  0  0  0  # atno 17394 bound_to 11000
  140.4248  134.1843  155.7165 LP  0  0  0  0  0  0  0  0  0  0  0  0  # atno 17395 bound_to 11000

$$$$
