AV-unprocessed.smi:3298|AV-procd|sdf|12642|dock1
  -GOLD-   2272018573D 1   1.00000     0.00000
 Structure written by MMmdl.
 35 36  0  0  0  0  0  0  0  0  1 V2000
  153.6708  140.9162  160.4803 C   0  0  0  0  0  0  0  0  0  0  0  0
  152.8878  142.0400  159.8339 C   0  0  0  0  0  0  0  0  0  0  0  0
  152.0432  141.7919  158.7307 C   0  0  0  0  0  0  0  0  0  0  0  0
  151.3288  142.8766  158.1649 C   0  0  0  0  0  0  0  0  0  0  0  0
  150.4504  142.7776  157.0497 N   0  0  0  0  0  0  0  0  0  0  0  0
  150.3134  141.7860  156.1512 C   0  0  0  0  0  0  0  0  0  0  0  0
  150.9486  140.7320  156.1405 O   0  0  0  0  0  0  0  0  0  0  0  0
  149.3703  142.0845  155.2456 N   0  0  0  0  0  0  0  0  0  0  0  0
  148.9740  141.2275  154.1324 C   0  0  2  0  0  0  0  0  0  0  0  0
  147.6753  141.6830  153.5211 C   0  0  0  0  0  0  0  0  0  0  0  0
  146.7231  140.7557  153.5893 C   0  0  0  0  0  0  0  0  0  0  0  0
  147.1785  139.4978  154.2820 C   0  0  1  0  0  0  0  0  0  0  0  0
  146.9503  138.2468  153.4172 C   0  0  0  0  0  0  0  0  0  0  0  0
  147.5611  138.4082  152.1544 O   0  0  0  0  0  0  0  0  0  0  0  0
  148.6711  139.7817  154.5981 C   0  0  0  0  0  0  0  0  0  0  0  0
  151.5135  144.1557  158.7301 C   0  0  0  0  0  0  0  0  0  0  0  0
  152.3812  144.2960  159.8308 C   0  0  0  0  0  0  0  0  0  0  0  0
  153.0564  143.2642  160.3783 N   0  0  0  0  0  0  0  0  0  0  0  0
  149.7483  141.2182  153.3632 H   0  0  0  0  0  0  0  0  0  0  0  0
  146.6108  139.4126  155.2096 H   0  0  0  0  0  0  0  0  0  0  0  0
  153.5026  139.9688  159.9673 H   0  0  0  0  0  0  0  0  0  0  0  0
  153.3713  140.7963  161.5218 H   0  0  0  0  0  0  0  0  0  0  0  0
  154.7392  141.1320  160.4524 H   0  0  0  0  0  0  0  0  0  0  0  0
  151.9693  140.7878  158.3449 H   0  0  0  0  0  0  0  0  0  0  0  0
  149.8203  143.5577  156.9357 H   0  0  0  0  0  0  0  0  0  0  0  0
  148.8937  142.9707  155.3279 H   0  0  0  0  0  0  0  0  0  0  0  0
  147.5620  142.6589  153.0720 H   0  0  0  0  0  0  0  0  0  0  0  0
  145.7175  140.8718  153.2127 H   0  0  0  0  0  0  0  0  0  0  0  0
  147.3814  137.3681  153.8979 H   0  0  0  0  0  0  0  0  0  0  0  0
  145.8855  138.0526  153.2829 H   0  0  0  0  0  0  0  0  0  0  0  0
  147.9781  137.5945  151.9153 H   0  0  0  0  0  0  0  0  0  0  0  0
  149.3225  139.0843  154.0692 H   0  0  0  0  0  0  0  0  0  0  0  0
  148.8697  139.6433  155.6618 H   0  0  0  0  0  0  0  0  0  0  0  0
  150.9990  145.0179  158.3318 H   0  0  0  0  0  0  0  0  0  0  0  0
  152.5374  145.2640  160.2834 H   0  0  0  0  0  0  0  0  0  0  0  0
  1  2  1  0  0  0  0
  1 21  1  0  0  0  0
  1 22  1  0  0  0  0
  1 23  1  0  0  0  0
  2 18  1  0  0  0  0
  2  3  2  0  0  0  0
  3  4  1  0  0  0  0
  3 24  1  0  0  0  0
  4  5  1  0  0  0  0
  4 16  2  0  0  0  0
  5  6  1  0  0  0  0
  5 25  1  0  0  0  0
  6  7  2  0  0  0  0
  6  8  1  0  0  0  0
  8  9  1  0  0  0  0
  8 26  1  0  0  0  0
  9 19  1  0  0  0  0
  9 15  1  0  0  0  0
  9 10  1  0  0  0  0
 10 11  2  0  0  0  0
 10 27  1  0  0  0  0
 11 12  1  0  0  0  0
 11 28  1  0  0  0  0
 12 20  1  0  0  0  0
 12 13  1  0  0  0  0
 12 15  1  0  0  0  0
 13 14  1  0  0  0  0
 13 29  1  0  0  0  0
 13 30  1  0  0  0  0
 14 31  1  0  0  0  0
 15 32  1  0  0  0  0
 15 33  1  0  0  0  0
 16 17  1  0  0  0  0
 16 34  1  0  0  0  0
 17 18  2  0  0  0  0
 17 35  1  0  0  0  0
M  END
> <s_m_source_file>
AV-unprocessed.smi

> <i_m_source_file_index>
3298

> <i_lp_mmshare_version>
43012

> <i_f3d_flags>
0

> <s_epik_input>
W0NIM11jMVtjSF1jKFtjSF1bY0hdbjEpW05IXUMoPU8pW05IXVtDQEBIXTJbQ0hdPVtDSF1bQ0BASF0oW0NIMl0yKVtDSDJdW09IXQ==

> <s_epik_cmdline>
J2VwaWtfcHl0aG9uJywgJy1waCcsICc3LjAnLCAnLXRuJywgJzgnLCAnLW1hJywgJzIwMCcsICctbWV0YWxfYmluZGluZycsICctaW1hZScsICc8aW5maWxlLm1hZT4nLCAnLW9tYWUnLCAnPG91dGZpbGUubWFlPic=

> <r_epik_Ionization_Penalty>
0.379275

> <r_epik_Ionization_Penalty_Charging>
0

> <r_epik_Ionization_Penalty_Neutral>
0.379275

> <r_epik_State_Penalty>
0.377195

> <r_epik_Charging_Adjusted_Penalty>
0.377195

> <i_epik_Tot_Q>
0

> <i_epik_Tot_abs_Q>
0

> <r_epik_Metal_State_Penalty>
0.22815

> <b_epik_Metal_Only>
0

> <s_lp_Force_Field>
OPLS_2005

> <r_lp_Energy>
21.788

> <b_lp_Chiralities_Consistent>
1

> <s_lp_Variant>
AV-unprocessed.smi:3298-3

> <Gold.Version>
5.8.1

> <Gold.Id.Protein>
6NUR|6NUR_protein|mol2

> <Gold.PLP.Fitness>
45.9100

> <Gold.PLP.PLP>
-37.4601

> <Gold.PLP.part.hbond>
-4.0381

> <Gold.PLP.part.metal>
0.0000

> <Gold.PLP.part.buried>
-4.3242

> <Gold.PLP.part.nonpolar>
-29.3133

> <Gold.PLP.part.repulsive>
0.2396

> <Gold.PLP.ligand.clash>
0.0000

> <Gold.PLP.ligand.torsion>
0.1999

> <Gold.PLP.Chemscore.Hbond>
2.9440

> <Gold.PLP.Chemscore.CHOScore>
0.0000

> <Gold.PLP.Chemscore.Metal>
0.0000

> <Gold.Chemscore.Hbonds>
donor molecule, donor type, donor heavy atom, donor atom, acceptor molecule, acceptor atom, score
      L1  H     5    25       P1  8028  0.93
      L1  H     8    26       P1  8028  1.00
      L1  H    14    31       P1  7948  1.00

> <Gold.PLP.Chemscore.Internal.Correction>
0.0176

> <Gold.Rescore>
     Score         DG    S(hbond)    S(metal)    S(lipo)     H(rot)  DE(clash)    DE(int)     intcor
     19.92     -22.46       2.90        0.00     101.24       1.78       0.31       2.23       ----

> <Gold.Chemscore.Fitness>
19.9172

> <Gold.Chemscore.DG>
-22.4581

> <Gold.Chemscore.ZeroCoef>
-5.4800

> <Gold.Chemscore.Hbond>
2.9010

> <Gold.Chemscore.Metal>
0.0000

> <Gold.Chemscore.Lipo>
101.2363

> <Gold.Chemscore.Internal_Hbond>
0.0000

> <Gold.Chemscore.DEClash>
0.3085

> <Gold.Chemscore.DEInternal>
2.2324

> <Gold.Chemscore.Rot>
1.7796

> <Gold.Chemscore.Internal.Correction>
   9.000000E+99

> <Gold.Chemscore.Hbonds>
donor molecule, donor type, donor heavy atom, donor atom, acceptor molecule, acceptor atom, score
      L1  H     5    25       P1  8028  0.89
      L1  H     8    26       P1  8028  0.96
      L1  H    14    31       P1  7948  1.00

> <Gold.Chemscore.Hbond.Weighted>
-9.6893

> <Gold.Chemscore.Metal.Weighted>
-0.0000

> <Gold.Chemscore.Lipo.Weighted>
-11.8446

> <Gold.Chemscore.Internal_Hbond.Weighted>
0.0000

> <Gold.Chemscore.DEClash.Weighted>
0.3085

> <Gold.Chemscore.DEInternal.Weighted>
2.2324

> <Gold.Chemscore.Rot.Weighted>
4.5558

> <Gold.Chemscore.Internal.Correction.Weighted>
   9.000000E+99

> <Gold.Protein.RotatedTorsions>
[ 6907 6896 6895 6894 ] final   48.18 input  -60.11 | X-H torsion
[ 7974 7965 7964 7962 ] final -175.88 input  175.53 | X-H torsion
[ 8008 7997 7996 7995 ] final  -94.34 input   59.86 | X-H torsion
[ 10167 10162 10161 10158 ] final  -43.32 input  -65.29 | X-H torsion
[ 10718 10713 10712 10709 ] final  142.73 input   66.30 | X-H torsion
[ 10763 10752 10751 10750 ] final   86.77 input  -60.55 | X-H torsion
[ 11005 11000 10999 10996 ] final  -14.24 input  -57.11 | X-H torsion

> <Gold.Protein.ActiveResidues>
 VAL166  LYS551  ARG553  GLY616  TRP617  ASP618  TYR619  PRO620  LYS621  CYS622 
 ASP623  PHE694  ASN695  SER759  ASP760  ASP761  ALA762  ILE779  LEU786  VAL792 
 PHE793  MET794  SER795  GLU796  ALA797  LYS798  CYS799  TRP800  GLU811  SER814 

> <Gold.Protein.RotatedAtoms>
  152.2765  134.7875  160.0404 H   0  0  0  0  0  0  0  0  0  0  0  0  # atno 6907 bound_to 6896
  151.8470  133.3428  159.3669 H   0  0  0  0  0  0  0  0  0  0  0  0  # atno 6908 bound_to 6896
  150.7172  134.5264  159.5723 H   0  0  0  0  0  0  0  0  0  0  0  0  # atno 6909 bound_to 6896
  144.7127  140.1253  143.6402 H   0  0  0  0  0  0  0  0  0  0  0  0  # atno 7974 bound_to 7965
  154.7471  140.0490  157.0861 H   0  0  0  0  0  0  0  0  0  0  0  0  # atno 8008 bound_to 7997
  155.0104  140.3135  155.4813 H   0  0  0  0  0  0  0  0  0  0  0  0  # atno 8009 bound_to 7997
  156.2877  140.2185  156.5218 H   0  0  0  0  0  0  0  0  0  0  0  0  # atno 8010 bound_to 7997
  140.6938  143.2989  151.3336 H   0  0  0  0  0  0  0  0  0  0  0  0  # atno 10167 bound_to 10162
  157.3771  131.0987  151.0774 H   0  0  0  0  0  0  0  0  0  0  0  0  # atno 10718 bound_to 10713
  153.1602  135.4568  154.9762 H   0  0  0  0  0  0  0  0  0  0  0  0  # atno 10763 bound_to 10752
  154.7892  135.3214  154.7819 H   0  0  0  0  0  0  0  0  0  0  0  0  # atno 10764 bound_to 10752
  153.8310  135.6938  153.4869 H   0  0  0  0  0  0  0  0  0  0  0  0  # atno 10765 bound_to 10752
  140.7844  133.8337  155.9321 H   0  0  0  0  0  0  0  0  0  0  0  0  # atno 11005 bound_to 11000
  145.9334  139.2621  143.1311 LP  0  0  0  0  0  0  0  0  0  0  0  0  # atno 17320 bound_to 7965
  145.9499  140.8917  143.0265 LP  0  0  0  0  0  0  0  0  0  0  0  0  # atno 17321 bound_to 7965
  139.6369  144.0613  152.2523 LP  0  0  0  0  0  0  0  0  0  0  0  0  # atno 17342 bound_to 10162
  140.0106  144.6227  150.7651 LP  0  0  0  0  0  0  0  0  0  0  0  0  # atno 17343 bound_to 10162
  157.1856  130.6329  149.5686 LP  0  0  0  0  0  0  0  0  0  0  0  0  # atno 17370 bound_to 10713
  155.9768  130.4739  150.6549 LP  0  0  0  0  0  0  0  0  0  0  0  0  # atno 17371 bound_to 10713
  140.9451  134.1851  157.4769 LP  0  0  0  0  0  0  0  0  0  0  0  0  # atno 17394 bound_to 11000
  139.8738  134.9887  156.5425 LP  0  0  0  0  0  0  0  0  0  0  0  0  # atno 17395 bound_to 11000

$$$$
