AV-unprocessed.smi:37|AV-procd|sdf|328|dock8
  -GOLD-   2262016153D 1   1.00000     0.00000
 Structure written by MMmdl.
 43 44  0  0  0  0  0  0  0  0  2 V2000
  150.2680  131.2016  154.8934 C   0  0  0  0  0  0  0  0  0  0  0  0
  150.0989  132.5871  154.2545 C   0  0  0  0  0  0  0  0  0  0  0  0
  149.2283  133.5103  155.1039 C   0  0  0  0  0  0  0  0  0  0  0  0
  148.9707  134.6603  154.7474 O   0  0  0  0  0  0  0  0  0  0  0  0
  148.8090  132.9240  156.2337 O   0  0  0  0  0  0  0  0  0  0  0  0
  147.9256  133.6101  157.1053 C   0  0  0  0  0  0  0  0  0  0  0  0
  148.7294  134.3503  158.1825 C   0  0  1  0  0  0  0  0  0  0  0  0
  149.7940  135.0656  157.5660 O   0  0  0  0  0  0  0  0  0  0  0  0
  149.9870  136.2514  158.2640 C   0  0  1  0  0  0  0  0  0  0  0  0
  150.6753  137.2642  157.3793 N   0  0  0  0  0  0  0  0  0  0  0  0
  150.9390  136.9943  156.0460 C   0  0  0  0  0  0  0  0  0  0  0  0
  151.5435  137.9050  155.2565 C   0  0  0  0  0  0  0  0  0  0  0  0
  151.7812  137.6179  153.9650 F   0  0  0  0  0  0  0  0  0  0  0  0
  151.9323  139.1998  155.8124 C   0  0  0  0  0  0  0  0  0  0  0  0
  152.4867  140.0248  155.0880 O   0  0  0  0  0  0  0  0  0  0  0  0
  151.6583  139.4382  157.1280 N   0  5  0  0  0  0  0  0  0  0  0  0
  151.0426  138.5208  157.9303 C   0  0  0  0  0  0  0  0  0  0  0  0
  150.7836  138.7262  159.1163 O   0  0  0  0  0  0  0  0  0  0  0  0
  148.5947  136.7052  158.7162 C   0  0  1  0  0  0  0  0  0  0  0  0
  147.5853  137.6364  157.2661 Br  0  0  0  0  0  0  0  0  0  0  0  0
  147.9174  135.3708  159.0049 C   0  0  2  0  0  0  0  0  0  0  0  0
  148.0375  135.0473  160.3856 O   0  0  0  0  0  0  0  0  0  0  0  0
  147.4674  135.8298  161.3207 C   0  0  0  0  0  0  0  0  0  0  0  0
  147.1647  137.0152  161.1842 O   0  0  0  0  0  0  0  0  0  0  0  0
  147.2321  135.0959  162.6388 C   0  0  0  0  0  0  0  0  0  0  0  0
  147.4738  133.5851  162.5161 C   0  0  0  0  0  0  0  0  0  0  0  0
  150.8754  130.5572  154.2576 H   0  0  0  0  0  0  0  0  0  0  0  0
  149.3047  130.7111  155.0367 H   0  0  0  0  0  0  0  0  0  0  0  0
  150.7615  131.2628  155.8637 H   0  0  0  0  0  0  0  0  0  0  0  0
  151.0737  133.0546  154.1141 H   0  0  0  0  0  0  0  0  0  0  0  0
  149.6500  132.4876  153.2660 H   0  0  0  0  0  0  0  0  0  0  0  0
  147.3227  134.3161  156.5332 H   0  0  0  0  0  0  0  0  0  0  0  0
  147.2427  132.9024  157.5776 H   0  0  0  0  0  0  0  0  0  0  0  0
  149.1776  133.6111  158.8485 H   0  0  0  0  0  0  0  0  0  0  0  0
  150.6673  136.0558  159.0954 H   0  0  0  0  0  0  0  0  0  0  0  0
  150.6518  136.0472  155.6143 H   0  0  0  0  0  0  0  0  0  0  0  0
  148.6554  137.3778  159.5725 H   0  0  0  0  0  0  0  0  0  0  0  0
  146.8677  135.3798  158.7071 H   0  0  0  0  0  0  0  0  0  0  0  0
  147.8883  135.5195  163.3992 H   0  0  0  0  0  0  0  0  0  0  0  0
  146.2086  135.2805  162.9662 H   0  0  0  0  0  0  0  0  0  0  0  0
  147.2519  133.0838  163.4583 H   0  0  0  0  0  0  0  0  0  0  0  0
  148.5115  133.3650  162.2629 H   0  0  0  0  0  0  0  0  0  0  0  0
  146.8379  133.1426  161.7487 H   0  0  0  0  0  0  0  0  0  0  0  0
  1  2  1  0  0  0  0
  1 27  1  0  0  0  0
  1 28  1  0  0  0  0
  1 29  1  0  0  0  0
  2  3  1  0  0  0  0
  2 30  1  0  0  0  0
  2 31  1  0  0  0  0
  3  4  2  0  0  0  0
  3  5  1  0  0  0  0
  5  6  1  0  0  0  0
  6  7  1  0  0  0  0
  6 32  1  0  0  0  0
  6 33  1  0  0  0  0
  7 21  1  0  0  0  0
  7  8  1  0  0  0  0
  7 34  1  0  0  0  0
  8  9  1  0  0  0  0
  9 10  1  0  0  0  0
  9 19  1  0  0  0  0
  9 35  1  0  0  0  0
 10 17  1  0  0  0  0
 10 11  1  0  0  0  0
 11 12  2  0  0  0  0
 11 36  1  0  0  0  0
 12 13  1  0  0  0  0
 12 14  1  0  0  0  0
 14 15  2  0  0  0  0
 14 16  1  0  0  0  0
 16 17  1  0  0  0  0
 17 18  2  0  0  0  0
 19 20  1  0  0  0  0
 19 21  1  0  0  0  0
 19 37  1  0  0  0  0
 21 22  1  0  0  0  0
 21 38  1  0  0  0  0
 22 23  1  0  0  0  0
 23 24  2  0  0  0  0
 23 25  1  0  0  0  0
 25 26  1  0  0  0  0
 25 39  1  0  0  0  0
 25 40  1  0  0  0  0
 26 41  1  0  0  0  0
 26 42  1  0  0  0  0
 26 43  1  0  0  0  0
M  CHG  1  16  -1
M  END
> <s_m_source_file>
AV-unprocessed.smi

> <i_m_source_file_index>
37

> <i_lp_mmshare_version>
43012

> <i_f3d_flags>
0

> <s_epik_input>
W0NIM11bQ0gyXUMoPU8pT1tDSDJdW0NAQEhdMU9bQ0BASF0objJbY0hdYyhGKWMoPU8pW25IXWMyPU8pW0NAQEhdKEJyKVtDQEhdMU9DKD1PKVtDSDJdW0NIM10=

> <s_epik_cmdline>
J2VwaWtfcHl0aG9uJywgJy1waCcsICc3LjAnLCAnLXRuJywgJzgnLCAnLW1hJywgJzIwMCcsICctbWV0YWxfYmluZGluZycsICctaW1hZScsICc8aW5maWxlLm1hZT4nLCAnLW9tYWUnLCAnPG91dGZpbGUubWFlPic=

> <r_epik_Ionization_Penalty>
1.08158

> <r_epik_Ionization_Penalty_Charging>
9.05154e-09

> <r_epik_Ionization_Penalty_Neutral>
1.08158

> <r_epik_State_Penalty>
1.13706

> <r_epik_Charging_Adjusted_Penalty>
1.13706

> <i_epik_Tot_Q>
-1

> <i_epik_Tot_abs_Q>
1

> <r_epik_Metal_State_Penalty>
0.00343535

> <b_epik_Metal_Only>
0

> <s_epik_Chemistry_Notes>
This compound has an ester and may undergo hydrolysis at high or low pH. This compound contains an acetal/aminal-like group ( X-CH(R)-Y where X, Y are N, S, or O) that may be acid/base labile, releasing an aldehyde.

> <s_lp_Force_Field>
OPLS_2005

> <r_lp_Energy>
31.9934

> <b_lp_Chiralities_Consistent>
1

> <s_lp_Variant>
AV-unprocessed.smi:37-26

> <Gold.Version>
5.8.1

> <Gold.Id.Protein>
6NUR|6NUR_protein|mol2

> <Gold.PLP.Fitness>
43.7735

> <Gold.PLP.PLP>
-35.2073

> <Gold.PLP.part.hbond>
-4.7958

> <Gold.PLP.part.metal>
0.0000

> <Gold.PLP.part.buried>
-2.0323

> <Gold.PLP.part.nonpolar>
-28.5757

> <Gold.PLP.part.repulsive>
0.1535

> <Gold.PLP.ligand.clash>
0.0000

> <Gold.PLP.ligand.torsion>
0.7751

> <Gold.PLP.Chemscore.Hbond>
3.3200

> <Gold.PLP.Chemscore.CHOScore>
0.0000

> <Gold.PLP.Chemscore.Metal>
0.0000

> <Gold.Chemscore.Hbonds>
donor molecule, donor type, donor heavy atom, donor atom, acceptor molecule, acceptor atom, score
      P1  H  6931  6943       L1    24  0.17
      P1  H  6934  6947       L1    24  1.00
      P1  H  7989  7998       L1    15  0.58
      P1  H  7997  8009       L1    15  0.76

> <Gold.PLP.Chemscore.Internal.Correction>
0.1564

> <Gold.Rescore>
     Score         DG    S(hbond)    S(metal)    S(lipo)     H(rot)  DE(clash)    DE(int)     intcor
     10.04     -12.69       2.93        0.00      49.41       3.27       0.36       2.29       ----

> <Gold.Chemscore.Fitness>
10.0446

> <Gold.Chemscore.DG>
-12.6940

> <Gold.Chemscore.ZeroCoef>
-5.4800

> <Gold.Chemscore.Hbond>
2.9330

> <Gold.Chemscore.Metal>
0.0000

> <Gold.Chemscore.Lipo>
49.4131

> <Gold.Chemscore.Internal_Hbond>
0.0000

> <Gold.Chemscore.DEClash>
0.3552

> <Gold.Chemscore.DEInternal>
2.2942

> <Gold.Chemscore.Rot>
3.2669

> <Gold.Chemscore.Internal.Correction>
   9.000000E+99

> <Gold.Chemscore.Hbonds>
donor molecule, donor type, donor heavy atom, donor atom, acceptor molecule, acceptor atom, score
      P1  H  6931  6943       L1    24  0.10
      P1  H  6934  6947       L1    24  0.93
      P1  H  7989  7998       L1    15  0.57
      P1  H  7997  8009       L1    15  0.37

> <Gold.Chemscore.Hbond.Weighted>
-9.7961

> <Gold.Chemscore.Metal.Weighted>
-0.0000

> <Gold.Chemscore.Lipo.Weighted>
-5.7813

> <Gold.Chemscore.Internal_Hbond.Weighted>
0.0000

> <Gold.Chemscore.DEClash.Weighted>
0.3552

> <Gold.Chemscore.DEInternal.Weighted>
2.2942

> <Gold.Chemscore.Rot.Weighted>
8.3634

> <Gold.Chemscore.Internal.Correction.Weighted>
   9.000000E+99

> <Gold.Protein.RotatedTorsions>
[ 6907 6896 6895 6894 ] final -119.27 input  -60.11 | X-H torsion
[ 7974 7965 7964 7962 ] final   46.19 input  175.53 | X-H torsion
[ 8008 7997 7996 7995 ] final -133.85 input   59.86 | X-H torsion
[ 10167 10162 10161 10158 ] final  -53.73 input  -65.29 | X-H torsion
[ 10718 10713 10712 10709 ] final -153.38 input   66.30 | X-H torsion
[ 10763 10752 10751 10750 ] final -176.01 input  -60.55 | X-H torsion
[ 11005 11000 10999 10996 ] final -112.90 input  -57.11 | X-H torsion

> <Gold.Protein.ActiveResidues>
 VAL166  LYS551  ARG553  GLY616  TRP617  ASP618  TYR619  PRO620  LYS621  CYS622 
 ASP623  PHE694  ASN695  SER759  ASP760  ASP761  ALA762  ILE779  LEU786  VAL792 
 PHE793  MET794  SER795  GLU796  ALA797  LYS798  CYS799  TRP800  GLU811  SER814 

> <Gold.Protein.RotatedAtoms>
  150.8291  133.8122  159.3105 H   0  0  0  0  0  0  0  0  0  0  0  0  # atno 6907 bound_to 6896
  151.5857  135.1054  160.0037 H   0  0  0  0  0  0  0  0  0  0  0  0  # atno 6908 bound_to 6896
  152.4372  133.7342  159.6661 H   0  0  0  0  0  0  0  0  0  0  0  0  # atno 6909 bound_to 6896
  146.0412  139.4883  142.9777 H   0  0  0  0  0  0  0  0  0  0  0  0  # atno 7974 bound_to 7965
  155.3524  140.0478  157.3046 H   0  0  0  0  0  0  0  0  0  0  0  0  # atno 8008 bound_to 7997
  154.5220  140.2228  155.8922 H   0  0  0  0  0  0  0  0  0  0  0  0  # atno 8009 bound_to 7997
  156.1700  140.3098  155.8962 H   0  0  0  0  0  0  0  0  0  0  0  0  # atno 8010 bound_to 7997
  140.6469  143.2541  151.4835 H   0  0  0  0  0  0  0  0  0  0  0  0  # atno 10167 bound_to 10162
  156.4850  130.8321  151.2546 H   0  0  0  0  0  0  0  0  0  0  0  0  # atno 10718 bound_to 10713
  154.5776  135.2833  155.0765 H   0  0  0  0  0  0  0  0  0  0  0  0  # atno 10763 bound_to 10752
  154.2114  135.6407  153.5120 H   0  0  0  0  0  0  0  0  0  0  0  0  # atno 10764 bound_to 10752
  153.0077  135.5492  154.6419 H   0  0  0  0  0  0  0  0  0  0  0  0  # atno 10765 bound_to 10752
  141.0647  133.9478  157.2601 H   0  0  0  0  0  0  0  0  0  0  0  0  # atno 11005 bound_to 11000
  145.6881  141.0172  143.1570 LP  0  0  0  0  0  0  0  0  0  0  0  0  # atno 17320 bound_to 7965
  144.7075  139.8500  143.7425 LP  0  0  0  0  0  0  0  0  0  0  0  0  # atno 17321 bound_to 7965
  139.5680  144.1996  152.1794 LP  0  0  0  0  0  0  0  0  0  0  0  0  # atno 17342 bound_to 10162
  140.1283  144.5311  150.6818 LP  0  0  0  0  0  0  0  0  0  0  0  0  # atno 17343 bound_to 10162
  157.7479  131.0032  150.3030 LP  0  0  0  0  0  0  0  0  0  0  0  0  # atno 17370 bound_to 10713
  156.3483  130.3827  149.7350 LP  0  0  0  0  0  0  0  0  0  0  0  0  # atno 17371 bound_to 10713
  139.9465  135.0183  156.8868 LP  0  0  0  0  0  0  0  0  0  0  0  0  # atno 17394 bound_to 11000
  140.5797  134.0363  155.7460 LP  0  0  0  0  0  0  0  0  0  0  0  0  # atno 17395 bound_to 11000

$$$$
