AV-unprocessed.smi:1198|AV-procd|sdf|5012|dock2
  -GOLD-   22720 4 23D 1   1.00000     0.00000
 Structure written by MMmdl.
 40 41  0  0  0  0  0  0  0  0  2 V2000
  150.4571  142.4120  157.3566 C   0  0  0  0  0  0  0  0  0  0  0  0
  151.0404  141.8154  156.2035 O   0  0  0  0  0  0  0  0  0  0  0  0
  150.2935  140.9007  155.4900 C   0  0  0  0  0  0  0  0  0  0  0  0
  148.8914  141.0357  155.4819 C   0  0  0  0  0  0  0  0  0  0  0  0
  148.1253  140.1064  154.7539 C   0  0  0  0  0  0  0  0  0  0  0  0
  148.7778  139.0663  154.0620 C   0  0  0  0  0  0  0  0  0  0  0  0
  147.9723  138.1566  153.3243 N   0  0  0  0  0  0  0  0  0  0  0  0
  146.6328  138.0526  153.2878 C   0  0  0  0  0  0  0  0  0  0  0  0
  145.8416  138.7682  153.9011 O   0  0  0  0  0  0  0  0  0  0  0  0
  146.2483  137.0594  152.4739 N   0  0  0  0  0  0  0  0  0  0  0  0
  144.8641  136.6833  152.2069 C   0  0  0  0  0  0  0  0  0  0  0  0
  144.7410  135.2243  151.7263 C   0  0  2  0  0  0  0  0  0  0  0  0
  146.0031  134.3805  151.8979 C   0  0  0  0  0  0  0  0  0  0  0  0
  145.7603  133.2236  150.9322 C   0  0  0  0  0  0  0  0  0  0  0  0
  145.0421  133.8141  149.7819 N   0  3  1  0  0  0  0  0  0  0  0  0
  144.1043  132.8870  149.1146 C   0  0  0  0  0  0  0  0  0  0  0  0
  144.4290  135.0872  150.2298 C   0  0  0  0  0  0  0  0  0  0  0  0
  150.1923  139.0214  154.1240 C   0  0  0  0  0  0  0  0  0  0  0  0
  150.9330  139.9108  154.8195 N   0  0  0  0  0  0  0  0  0  0  0  0
  151.1730  143.0981  157.8089 H   0  0  0  0  0  0  0  0  0  0  0  0
  150.1988  141.6630  158.1066 H   0  0  0  0  0  0  0  0  0  0  0  0
  149.5653  142.9859  157.1005 H   0  0  0  0  0  0  0  0  0  0  0  0
  148.4124  141.8386  156.0227 H   0  0  0  0  0  0  0  0  0  0  0  0
  147.0486  140.1926  154.7314 H   0  0  0  0  0  0  0  0  0  0  0  0
  148.4797  137.5353  152.7117 H   0  0  0  0  0  0  0  0  0  0  0  0
  146.9647  136.5265  152.0024 H   0  0  0  0  0  0  0  0  0  0  0  0
  144.2588  136.8390  153.1016 H   0  0  0  0  0  0  0  0  0  0  0  0
  144.4725  137.3619  151.4488 H   0  0  0  0  0  0  0  0  0  0  0  0
  143.9360  134.7342  152.2771 H   0  0  0  0  0  0  0  0  0  0  0  0
  146.8841  134.9459  151.5907 H   0  0  0  0  0  0  0  0  0  0  0  0
  146.1553  134.0460  152.9248 H   0  0  0  0  0  0  0  0  0  0  0  0
  146.6841  132.7358  150.6199 H   0  0  0  0  0  0  0  0  0  0  0  0
  145.1332  132.4739  151.4181 H   0  0  0  0  0  0  0  0  0  0  0  0
  143.2961  132.5949  149.7867 H   0  0  0  0  0  0  0  0  0  0  0  0
  144.6247  131.9853  148.7896 H   0  0  0  0  0  0  0  0  0  0  0  0
  143.6652  133.3582  148.2347 H   0  0  0  0  0  0  0  0  0  0  0  0
  143.3548  135.1280  150.0428 H   0  0  0  0  0  0  0  0  0  0  0  0
  144.8898  135.8958  149.6610 H   0  0  0  0  0  0  0  0  0  0  0  0
  150.7680  138.2773  153.5968 H   0  0  0  0  0  0  0  0  0  0  0  0
  145.7454  134.0665  149.1019 H   0  0  0  0  0  0  0  0  0  0  0  0
  1  2  1  0  0  0  0
  1 20  1  0  0  0  0
  1 21  1  0  0  0  0
  1 22  1  0  0  0  0
  2  3  1  0  0  0  0
  3 19  1  0  0  0  0
  3  4  2  0  0  0  0
  4  5  1  0  0  0  0
  4 23  1  0  0  0  0
  5  6  2  0  0  0  0
  5 24  1  0  0  0  0
  6  7  1  0  0  0  0
  6 18  1  0  0  0  0
  7  8  1  0  0  0  0
  7 25  1  0  0  0  0
  8  9  2  0  0  0  0
  8 10  1  0  0  0  0
 10 11  1  0  0  0  0
 10 26  1  0  0  0  0
 11 12  1  0  0  0  0
 11 27  1  0  0  0  0
 11 28  1  0  0  0  0
 12 17  1  0  0  0  0
 12 13  1  0  0  0  0
 12 29  1  0  0  0  0
 13 14  1  0  0  0  0
 13 30  1  0  0  0  0
 13 31  1  0  0  0  0
 14 15  1  0  0  0  0
 14 32  1  0  0  0  0
 14 33  1  0  0  0  0
 15 16  1  0  0  0  0
 15 17  1  0  0  0  0
 15 40  1  0  0  0  0
 16 34  1  0  0  0  0
 16 35  1  0  0  0  0
 16 36  1  0  0  0  0
 17 37  1  0  0  0  0
 17 38  1  0  0  0  0
 18 19  2  0  0  0  0
 18 39  1  0  0  0  0
M  CHG  1  15   1
M  END
> <s_m_source_file>
AV-unprocessed.smi

> <i_m_source_file_index>
1198

> <i_lp_mmshare_version>
43012

> <i_f3d_flags>
0

> <s_epik_input>
W0NIM11PYzFbY0hdW2NIXWMoW2NIXW4xKVtOSF1DKD1PKVtOSF1bQ0gyXVtDQEBIXTJbQ0gyXVtDSDJdTihbQ0gzXSlbQ0gyXTI=

> <s_epik_cmdline>
J2VwaWtfcHl0aG9uJywgJy1waCcsICc3LjAnLCAnLXRuJywgJzgnLCAnLW1hJywgJzIwMCcsICctbWV0YWxfYmluZGluZycsICctaW1hZScsICc8aW5maWxlLm1hZT4nLCAnLW9tYWUnLCAnPG91dGZpbGUubWFlPic=

> <r_lp_tautomer_probability>
1

> <r_epik_Ionization_Penalty>
0.00131396

> <r_epik_Ionization_Penalty_Charging>
0.0012301

> <r_epik_Ionization_Penalty_Neutral>
8.38549e-05

> <r_epik_State_Penalty>
0.00081314

> <r_epik_Charging_Adjusted_Penalty>
0.00204324

> <i_epik_Tot_Q>
1

> <i_epik_Tot_abs_Q>
1

> <r_epik_Metal_State_Penalty>
-0

> <b_epik_Metal_Only>
0

> <s_lp_Force_Field>
OPLS_2005

> <r_lp_Energy>
29.8617

> <b_lp_Chiralities_Consistent>
1

> <s_lp_Variant>
AV-unprocessed.smi:1198-3

> <Gold.Version>
5.8.1

> <Gold.Id.Protein>
6NUR|6NUR_protein|mol2

> <Gold.PLP.Fitness>
41.3152

> <Gold.PLP.PLP>
-31.9947

> <Gold.PLP.part.hbond>
-4.0000

> <Gold.PLP.part.metal>
0.0000

> <Gold.PLP.part.buried>
-3.3813

> <Gold.PLP.part.nonpolar>
-24.5069

> <Gold.PLP.part.repulsive>
0.4316

> <Gold.PLP.ligand.clash>
0.0000

> <Gold.PLP.ligand.torsion>
1.2178

> <Gold.PLP.Chemscore.Hbond>
3.9120

> <Gold.PLP.Chemscore.CHOScore>
0.0000

> <Gold.PLP.Chemscore.Metal>
0.0000

> <Gold.Chemscore.Hbonds>
donor molecule, donor type, donor heavy atom, donor atom, acceptor molecule, acceptor atom, score
      L1  H     7    25       P1  7948  1.00
      L1  H    10    26       P1  7948  0.91
      L1  H    15    40       P1  7921  0.99
      P1  H  7989  7998       L1    19  0.95

> <Gold.PLP.Chemscore.Internal.Correction>
0.0201

> <Gold.Rescore>
     Score         DG    S(hbond)    S(metal)    S(lipo)     H(rot)  DE(clash)    DE(int)     intcor
     16.78     -19.61       2.97        0.00      69.07       1.51       0.16       2.67       ----

> <Gold.Chemscore.Fitness>
16.7845

> <Gold.Chemscore.DG>
-19.6113

> <Gold.Chemscore.ZeroCoef>
-5.4800

> <Gold.Chemscore.Hbond>
2.9724

> <Gold.Chemscore.Metal>
0.0000

> <Gold.Chemscore.Lipo>
69.0748

> <Gold.Chemscore.Internal_Hbond>
0.0000

> <Gold.Chemscore.DEClash>
0.1613

> <Gold.Chemscore.DEInternal>
2.6656

> <Gold.Chemscore.Rot>
1.5149

> <Gold.Chemscore.Internal.Correction>
   9.000000E+99

> <Gold.Chemscore.Hbonds>
donor molecule, donor type, donor heavy atom, donor atom, acceptor molecule, acceptor atom, score
      L1  H     7    25       P1  7948  0.99
      L1  H    10    26       P1  7948  0.85
      L1  H    15    40       P1  7921  0.47
      P1  H  7989  7998       L1    19  0.06

> <Gold.Chemscore.Hbond.Weighted>
-9.9277

> <Gold.Chemscore.Metal.Weighted>
-0.0000

> <Gold.Chemscore.Lipo.Weighted>
-8.0817

> <Gold.Chemscore.Internal_Hbond.Weighted>
0.0000

> <Gold.Chemscore.DEClash.Weighted>
0.1613

> <Gold.Chemscore.DEInternal.Weighted>
2.6656

> <Gold.Chemscore.Rot.Weighted>
3.8781

> <Gold.Chemscore.Internal.Correction.Weighted>
   9.000000E+99

> <Gold.Protein.RotatedTorsions>
[ 6907 6896 6895 6894 ] final -134.15 input  -60.11 | X-H torsion
[ 7974 7965 7964 7962 ] final -178.46 input  175.53 | X-H torsion
[ 8008 7997 7996 7995 ] final   64.76 input   59.86 | X-H torsion
[ 10167 10162 10161 10158 ] final  -51.94 input  -65.29 | X-H torsion
[ 10718 10713 10712 10709 ] final  -22.31 input   66.30 | X-H torsion
[ 10763 10752 10751 10750 ] final  -83.36 input  -60.55 | X-H torsion
[ 11005 11000 10999 10996 ] final -177.67 input  -57.11 | X-H torsion

> <Gold.Protein.ActiveResidues>
 VAL166  LYS551  ARG553  GLY616  TRP617  ASP618  TYR619  PRO620  LYS621  CYS622 
 ASP623  PHE694  ASN695  SER759  ASP760  ASP761  ALA762  ILE779  LEU786  VAL792 
 PHE793  MET794  SER795  GLU796  ALA797  LYS798  CYS799  TRP800  GLU811  SER814 

> <Gold.Protein.RotatedAtoms>
  150.9824  133.6231  159.2720 H   0  0  0  0  0  0  0  0  0  0  0  0  # atno 6907 bound_to 6896
  151.3481  135.0877  159.9403 H   0  0  0  0  0  0  0  0  0  0  0  0  # atno 6908 bound_to 6896
  152.5220  133.9422  159.7686 H   0  0  0  0  0  0  0  0  0  0  0  0  # atno 6909 bound_to 6896
  144.7131  140.0865  143.6423 H   0  0  0  0  0  0  0  0  0  0  0  0  # atno 7974 bound_to 7965
  155.6511  140.3497  155.4748 H   0  0  0  0  0  0  0  0  0  0  0  0  # atno 8008 bound_to 7997
  155.9847  140.1181  157.0717 H   0  0  0  0  0  0  0  0  0  0  0  0  # atno 8009 bound_to 7997
  154.4201  140.1131  156.5469 H   0  0  0  0  0  0  0  0  0  0  0  0  # atno 8010 bound_to 7997
  140.6563  143.2601  151.4577 H   0  0  0  0  0  0  0  0  0  0  0  0  # atno 10167 bound_to 10162
  156.5063  130.4600  149.6672 H   0  0  0  0  0  0  0  0  0  0  0  0  # atno 10718 bound_to 10713
  154.5868  135.5559  153.7239 H   0  0  0  0  0  0  0  0  0  0  0  0  # atno 10763 bound_to 10752
  153.0102  135.6333  154.1905 H   0  0  0  0  0  0  0  0  0  0  0  0  # atno 10764 bound_to 10752
  154.1846  135.2885  155.3021 H   0  0  0  0  0  0  0  0  0  0  0  0  # atno 10765 bound_to 10752
  140.4384  134.6454  157.4745 H   0  0  0  0  0  0  0  0  0  0  0  0  # atno 11005 bound_to 11000
  145.9657  139.2833  143.1129 LP  0  0  0  0  0  0  0  0  0  0  0  0  # atno 17320 bound_to 7965
  145.9172  140.9140  143.0424 LP  0  0  0  0  0  0  0  0  0  0  0  0  # atno 17321 bound_to 7965
  139.5786  144.1762  152.1937 LP  0  0  0  0  0  0  0  0  0  0  0  0  # atno 17342 bound_to 10162
  140.1080  144.5482  150.6944 LP  0  0  0  0  0  0  0  0  0  0  0  0  # atno 17343 bound_to 10162
  156.3283  130.7318  151.2243 LP  0  0  0  0  0  0  0  0  0  0  0  0  # atno 17370 bound_to 10713
  157.7456  131.0437  150.4755 LP  0  0  0  0  0  0  0  0  0  0  0  0  # atno 17371 bound_to 10713
  140.0087  134.6724  155.9415 LP  0  0  0  0  0  0  0  0  0  0  0  0  # atno 17394 bound_to 11000
  141.1716  133.6537  156.4673 LP  0  0  0  0  0  0  0  0  0  0  0  0  # atno 17395 bound_to 11000

$$$$
