AV-unprocessed.smi:1836|AV-procd|sdf|7478|dock6
  -GOLD-   22720 9173D 1   1.00000     0.00000
 Structure written by MMmdl.
 33 34  0  0  0  0  0  0  0  0  1 V2000
  147.3968  140.9659  153.3783 C   0  0  0  0  0  0  0  0  0  0  0  0
  148.3167  139.8283  153.8423 C   0  0  1  0  0  0  0  0  0  0  0  0
  148.3106  139.7047  155.3839 C   0  0  0  0  0  0  0  0  0  0  0  0
  149.1588  140.7035  156.0328 N   0  0  0  0  0  0  0  0  0  0  0  0
  148.6120  141.6068  157.0321 C   0  0  0  0  0  0  0  0  0  0  0  0
  149.8382  142.2658  157.6777 C   0  0  0  0  0  0  0  0  0  0  0  0
  150.9983  142.0112  156.7092 C   0  0  0  0  0  0  0  0  0  0  0  0
  150.4595  140.9189  155.8011 C   0  0  0  0  0  0  0  0  0  0  0  0
  151.1584  140.3269  154.9800 O   0  0  0  0  0  0  0  0  0  0  0  0
  147.8600  138.5844  153.2241 N   0  0  0  0  0  0  0  0  0  0  0  0
  146.6358  138.0515  153.3578 C   0  0  0  0  0  0  0  0  0  0  0  0
  145.7456  138.5545  154.0437 O   0  0  0  0  0  0  0  0  0  0  0  0
  146.5185  136.9177  152.6451 N   0  0  0  0  0  0  0  0  0  0  0  0
  145.3676  136.1041  152.4723 C   0  0  0  0  0  0  0  0  0  0  0  0
  144.4730  135.8640  153.4439 N   0  0  0  0  0  0  0  0  0  0  0  0
  143.4393  135.0453  153.0076 N   0  0  0  0  0  0  0  0  0  0  0  0
  143.5937  134.7023  151.7257 C   0  0  0  0  0  0  0  0  0  0  0  0
  145.0154  135.3485  150.9249 S   0  0  0  0  0  0  0  0  0  0  0  0
  147.7252  141.9238  153.7826 H   0  0  0  0  0  0  0  0  0  0  0  0
  146.3676  140.8042  153.7007 H   0  0  0  0  0  0  0  0  0  0  0  0
  147.3966  141.0532  152.2912 H   0  0  0  0  0  0  0  0  0  0  0  0
  149.3222  140.0697  153.4930 H   0  0  0  0  0  0  0  0  0  0  0  0
  147.2948  139.8364  155.7601 H   0  0  0  0  0  0  0  0  0  0  0  0
  148.6147  138.7019  155.6879 H   0  0  0  0  0  0  0  0  0  0  0  0
  147.9846  142.3494  156.5374 H   0  0  0  0  0  0  0  0  0  0  0  0
  148.0026  141.0790  157.7665 H   0  0  0  0  0  0  0  0  0  0  0  0
  149.6792  143.3287  157.8615 H   0  0  0  0  0  0  0  0  0  0  0  0
  150.0513  141.7935  158.6380 H   0  0  0  0  0  0  0  0  0  0  0  0
  151.2246  142.8972  156.1154 H   0  0  0  0  0  0  0  0  0  0  0  0
  151.9040  141.6911  157.2255 H   0  0  0  0  0  0  0  0  0  0  0  0
  148.5268  138.0990  152.6420 H   0  0  0  0  0  0  0  0  0  0  0  0
  147.3441  136.6095  152.1533 H   0  0  0  0  0  0  0  0  0  0  0  0
  142.8639  134.0657  151.2479 H   0  0  0  0  0  0  0  0  0  0  0  0
  1  2  1  0  0  0  0
  1 19  1  0  0  0  0
  1 20  1  0  0  0  0
  1 21  1  0  0  0  0
  2  3  1  0  0  0  0
  2 10  1  0  0  0  0
  2 22  1  0  0  0  0
  3  4  1  0  0  0  0
  3 23  1  0  0  0  0
  3 24  1  0  0  0  0
  4  8  1  0  0  0  0
  4  5  1  0  0  0  0
  5  6  1  0  0  0  0
  5 25  1  0  0  0  0
  5 26  1  0  0  0  0
  6  7  1  0  0  0  0
  6 27  1  0  0  0  0
  6 28  1  0  0  0  0
  7  8  1  0  0  0  0
  7 29  1  0  0  0  0
  7 30  1  0  0  0  0
  8  9  2  0  0  0  0
 10 11  1  0  0  0  0
 10 31  1  0  0  0  0
 11 12  2  0  0  0  0
 11 13  1  0  0  0  0
 13 14  1  0  0  0  0
 13 32  1  0  0  0  0
 14 18  1  0  0  0  0
 14 15  2  0  0  0  0
 15 16  1  0  0  0  0
 16 17  2  0  0  0  0
 17 18  1  0  0  0  0
 17 33  1  0  0  0  0
M  END
> <s_m_source_file>
AV-unprocessed.smi

> <i_m_source_file_index>
1836

> <i_lp_mmshare_version>
43012

> <i_f3d_flags>
0

> <s_epik_input>
Tz1DMVtDSDJdW0NIMl1bQ0gyXU4xW0NIMl1bQ0BASF0oW0NIM10pW05IXUMoPU8pW05IXWMybm5bY0hdczI=

> <s_epik_cmdline>
J2VwaWtfcHl0aG9uJywgJy1waCcsICc3LjAnLCAnLXRuJywgJzgnLCAnLW1hJywgJzIwMCcsICctbWV0YWxfYmluZGluZycsICctaW1hZScsICc8aW5maWxlLm1hZT4nLCAnLW9tYWUnLCAnPG91dGZpbGUubWFlPic=

> <r_lp_tautomer_probability>
1

> <r_epik_Ionization_Penalty>
0.00192022

> <r_epik_Ionization_Penalty_Charging>
0

> <r_epik_Ionization_Penalty_Neutral>
0.00192022

> <r_epik_State_Penalty>
-0

> <r_epik_Charging_Adjusted_Penalty>
0

> <i_epik_Tot_Q>
0

> <i_epik_Tot_abs_Q>
0

> <r_epik_Metal_State_Penalty>
0.336618

> <b_epik_Metal_Only>
0

> <s_lp_Force_Field>
OPLS_2005

> <r_lp_Energy>
17.3914

> <b_lp_Chiralities_Consistent>
1

> <s_lp_Variant>
AV-unprocessed.smi:1836-2

> <Gold.Version>
5.8.1

> <Gold.Id.Protein>
6NUR|6NUR_protein|mol2

> <Gold.PLP.Fitness>
35.4046

> <Gold.PLP.PLP>
-24.7456

> <Gold.PLP.part.hbond>
-3.9035

> <Gold.PLP.part.metal>
0.0000

> <Gold.PLP.part.buried>
-3.5856

> <Gold.PLP.part.nonpolar>
-18.8110

> <Gold.PLP.part.repulsive>
0.4333

> <Gold.PLP.ligand.clash>
0.0000

> <Gold.PLP.ligand.torsion>
0.4861

> <Gold.PLP.Chemscore.Hbond>
2.8723

> <Gold.PLP.Chemscore.CHOScore>
1.0000

> <Gold.PLP.Chemscore.Metal>
0.0000

> <Gold.Chemscore.Hbonds>
donor molecule, donor type, donor heavy atom, donor atom, acceptor molecule, acceptor atom, score
      L1  H    10    31       P1  7948  0.84
      L1  H    13    32       P1  7948  1.00
      P1  H  7989  7998       L1     9  1.00
      L1  C    17    33       P1 10186  1.00

> <Gold.PLP.Chemscore.Internal.Correction>
0.0143

> <Gold.Rescore>
     Score         DG    S(hbond)    S(metal)    S(lipo)     H(rot)  DE(clash)    DE(int)     intcor
     14.15     -15.78       2.95        0.00      42.23       1.76       0.01       1.62       ----

> <Gold.Chemscore.Fitness>
14.1452

> <Gold.Chemscore.DG>
-15.7765

> <Gold.Chemscore.ZeroCoef>
-5.4800

> <Gold.Chemscore.Hbond>
2.9503

> <Gold.Chemscore.Metal>
0.0000

> <Gold.Chemscore.Lipo>
42.2305

> <Gold.Chemscore.Internal_Hbond>
0.0000

> <Gold.Chemscore.DEClash>
0.0069

> <Gold.Chemscore.DEInternal>
1.6245

> <Gold.Chemscore.Rot>
1.7571

> <Gold.Chemscore.Internal.Correction>
   9.000000E+99

> <Gold.Chemscore.Hbonds>
donor molecule, donor type, donor heavy atom, donor atom, acceptor molecule, acceptor atom, score
      L1  H    10    31       P1  7948  0.77
      L1  H    13    32       P1  7948  1.00
      P1  H  7989  7998       L1     9  0.98

> <Gold.Chemscore.Hbond.Weighted>
-9.8538

> <Gold.Chemscore.Metal.Weighted>
-0.0000

> <Gold.Chemscore.Lipo.Weighted>
-4.9410

> <Gold.Chemscore.Internal_Hbond.Weighted>
0.0000

> <Gold.Chemscore.DEClash.Weighted>
0.0069

> <Gold.Chemscore.DEInternal.Weighted>
1.6245

> <Gold.Chemscore.Rot.Weighted>
4.4983

> <Gold.Chemscore.Internal.Correction.Weighted>
   9.000000E+99

> <Gold.Protein.RotatedTorsions>
[ 6907 6896 6895 6894 ] final   55.28 input  -60.11 | X-H torsion
[ 7974 7965 7964 7962 ] final -135.46 input  175.53 | X-H torsion
[ 8008 7997 7996 7995 ] final -137.77 input   59.86 | X-H torsion
[ 10167 10162 10161 10158 ] final  -42.04 input  -65.29 | X-H torsion
[ 10718 10713 10712 10709 ] final  141.87 input   66.30 | X-H torsion
[ 10763 10752 10751 10750 ] final  -79.17 input  -60.55 | X-H torsion
[ 11005 11000 10999 10996 ] final  -24.98 input  -57.11 | X-H torsion

> <Gold.Protein.ActiveResidues>
 VAL166  LYS551  ARG553  GLY616  TRP617  ASP618  TYR619  PRO620  LYS621  CYS622 
 ASP623  PHE694  ASN695  SER759  ASP760  ASP761  ALA762  ILE779  LEU786  VAL792 
 PHE793  MET794  SER795  GLU796  ALA797  LYS798  CYS799  TRP800  GLU811  SER814 

> <Gold.Protein.RotatedAtoms>
  152.3523  134.6988  160.0232 H   0  0  0  0  0  0  0  0  0  0  0  0  # atno 6907 bound_to 6896
  151.7338  133.3313  159.3355 H   0  0  0  0  0  0  0  0  0  0  0  0  # atno 6908 bound_to 6896
  150.7548  134.6273  159.6212 H   0  0  0  0  0  0  0  0  0  0  0  0  # atno 6909 bound_to 6896
  144.9012  140.6773  143.5084 H   0  0  0  0  0  0  0  0  0  0  0  0  # atno 7974 bound_to 7965
  155.4173  140.0516  157.3028 H   0  0  0  0  0  0  0  0  0  0  0  0  # atno 8008 bound_to 7997
  154.4918  140.2123  155.9490 H   0  0  0  0  0  0  0  0  0  0  0  0  # atno 8009 bound_to 7997
  156.1353  140.3164  155.8416 H   0  0  0  0  0  0  0  0  0  0  0  0  # atno 8010 bound_to 7997
  140.6983  143.3060  151.3152 H   0  0  0  0  0  0  0  0  0  0  0  0  # atno 10167 bound_to 10162
  157.3871  131.1000  151.0683 H   0  0  0  0  0  0  0  0  0  0  0  0  # atno 10718 bound_to 10713
  154.5352  135.5705  153.6792 H   0  0  0  0  0  0  0  0  0  0  0  0  # atno 10763 bound_to 10752
  152.9949  135.6214  154.2576 H   0  0  0  0  0  0  0  0  0  0  0  0  # atno 10764 bound_to 10752
  154.2504  135.2859  155.2798 H   0  0  0  0  0  0  0  0  0  0  0  0  # atno 10765 bound_to 10752
  140.8895  133.7598  156.0403 H   0  0  0  0  0  0  0  0  0  0  0  0  # atno 11005 bound_to 11000
  145.3613  139.1681  143.4381 LP  0  0  0  0  0  0  0  0  0  0  0  0  # atno 17320 bound_to 7965
  146.3109  140.3676  142.8671 LP  0  0  0  0  0  0  0  0  0  0  0  0  # atno 17321 bound_to 7965
  139.6466  144.0439  152.2595 LP  0  0  0  0  0  0  0  0  0  0  0  0  # atno 17342 bound_to 10162
  139.9962  144.6326  150.7770 LP  0  0  0  0  0  0  0  0  0  0  0  0  # atno 17343 bound_to 10162
  157.1730  130.6276  149.5647 LP  0  0  0  0  0  0  0  0  0  0  0  0  # atno 17370 bound_to 10713
  155.9789  130.4779  150.6685 LP  0  0  0  0  0  0  0  0  0  0  0  0  # atno 17371 bound_to 10713
  140.8364  134.3118  157.5330 LP  0  0  0  0  0  0  0  0  0  0  0  0  # atno 17394 bound_to 11000
  139.8728  134.9392  156.3734 LP  0  0  0  0  0  0  0  0  0  0  0  0  # atno 17395 bound_to 11000

$$$$
