#       Name:                AV-unprocessed.smi:21
#       Creating user name   scv26
#       Creation time:       Thu Mar 26 15:40:40 2020


#       File generated by GOLD software.
#

@<TRIPOS>MOLECULE
AV-unprocessed.smi:21
    71    74     1
SMALL
NO_CHARGES


@<TRIPOS>ATOM
      1 ****        -1.0046  -4.4124  -0.9441 C.3            1 S1                 0.0000
      2 ****        -2.3734  -4.0388  -0.9447 O.3            1 S1                 0.0000
      3 ****        -2.7403  -3.2337  -2.0572 C.3            1 S1                 0.0000
      4 ****        -2.2638  -1.7802  -1.8892 C.3            1 S1                 0.0000
      5 ****        -3.5345  -0.9330  -2.0564 C.3            1 S1                 0.0000
      6 ****        -3.4626   0.4380  -1.3440 C.3            1 S1                 0.0000
      7 ****        -2.5347   1.3766  -1.9772 N.pl3          1 S1                 0.0000
      8 ****        -2.9701   2.0071  -3.2211 C.3            1 S1                 0.0000
      9 ****        -1.1974   1.2216  -1.7693 C.ar           1 S1                 0.0000
     10 ****        -0.3537   1.2997  -2.8343 N.ar           1 S1                 0.0000
     11 ****         0.9601   1.1174  -2.6803 C.ar           1 S1                 0.0000
     12 ****         1.6388   0.8515  -1.5642 N.ar           1 S1                 0.0000
     13 ****         0.8071   0.7866  -0.4862 C.ar           1 S1                 0.0000
     14 ****        -0.6072   0.9636  -0.4957 C.ar           1 S1                 0.0000
     15 ****        -1.0970   0.8428   0.8005 N.2            1 S1                 0.0000
     16 ****        -0.0432   0.5904   1.5262 C.2            1 S1                 0.0000
     17 ****         1.1439   0.5436   0.8339 N.pl3          1 S1                 0.0000
     18 ****         2.4595   0.2793   1.3913 C.3            1 S1                 0.0000
     19 ****         3.0116   1.4491   2.2440 C.3            1 S1                 0.0000
     20 ****         3.1345   2.7437   1.4001 C.3            1 S1                 0.0000
     21 ****         3.2001   3.8954   2.2141 O.3            1 S1                 0.0000
     22 ****         4.3588   1.0429   2.9028 C.3            1 S1                 0.0000
     23 ****         4.9538   2.0528   3.8694 C.3            1 S1                 0.0000
     24 ****         5.9453   1.2048   4.6567 C.3            1 S1                 0.0000
     25 ****         5.3581  -0.0874   4.7380 O.3            1 S1                 0.0000
     26 ****         4.2791  -0.1890   3.8144 C.3            1 S1                 0.0000
     27 ****        -4.5991  -1.8008  -1.5782 N.3            1 S1                 0.0000
     28 ****        -5.9354  -1.3726  -1.9709 C.3            1 S1                 0.0000
     29 ****        -4.2665  -3.1071  -2.1158 C.3            1 S1                 0.0000
     30 ****        -2.3769  -3.6741  -2.9873 H              1 S1                 0.0000
     31 ****        -3.6861  -0.7662  -3.1244 H              1 S1                 0.0000
     32 ****        -0.7965  -5.0312  -0.0714 H              1 S1                 0.0000
     33 ****        -0.3480  -3.5427  -0.9010 H              1 S1                 0.0000
     34 ****        -0.7551  -4.9929  -1.8330 H              1 S1                 0.0000
     35 ****        -1.8492  -1.6363  -0.8906 H              1 S1                 0.0000
     36 ****        -1.4914  -1.5157  -2.6118 H              1 S1                 0.0000
     37 ****        -4.4444   0.9096  -1.3663 H              1 S1                 0.0000
     38 ****        -3.2478   0.2999  -0.2872 H              1 S1                 0.0000
     39 ****        -2.4406   2.9463  -3.3865 H              1 S1                 0.0000
     40 ****        -4.0363   2.2319  -3.1866 H              1 S1                 0.0000
     41 ****        -2.7905   1.3509  -4.0736 H              1 S1                 0.0000
     42 ****         1.5507   1.1913  -3.5816 H              1 S1                 0.0000
     43 ****        -0.1026   0.4342   2.5935 H              1 S1                 0.0000
     44 ****         2.3733  -0.6291   1.9867 H              1 S1                 0.0000
     45 ****         3.1484   0.0484   0.5779 H              1 S1                 0.0000
     46 ****         2.2874   1.6352   3.0388 H              1 S1                 0.0000
     47 ****         4.0102   2.7019   0.7519 H              1 S1                 0.0000
     48 ****         2.2718   2.8836   0.7505 H              1 S1                 0.0000
     49 ****         3.2592   4.6553   1.6553 H              1 S1                 0.0000
     50 ****         5.0948   0.8454   2.1215 H              1 S1                 0.0000
     51 ****         5.4374   2.8937   3.3720 H              1 S1                 0.0000
     52 ****         4.1837   2.4433   4.5364 H              1 S1                 0.0000
     53 ****         6.8895   1.1242   4.1168 H              1 S1                 0.0000
     54 ****         6.1527   1.6134   5.6457 H              1 S1                 0.0000
     55 ****         3.3470  -0.1919   4.3810 H              1 S1                 0.0000
     56 ****         4.3368  -1.1239   3.2568 H              1 S1                 0.0000
     57 ****        -6.6811  -2.0935  -1.6347 H              1 S1                 0.0000
     58 ****        -6.0192  -1.2794  -3.0545 H              1 S1                 0.0000
     59 ****        -6.1872  -0.4107  -1.5254 H              1 S1                 0.0000
     60 ****        -4.5825  -3.1679  -3.1588 H              1 S1                 0.0000
     61 ****        -4.7761  -3.9050  -1.5743 H              1 S1                 0.0000
     62 ****        -2.5621  -3.5263  -0.1070 LP             1 S1                 0.0000
     63 ****        -2.9286  -4.8704  -0.9588 LP             1 S1                 0.0000
     64 ****        -0.7220   1.4960  -3.7430 LP             1 S1                 0.0000
     65 ****         2.6289   0.7172  -1.5231 LP             1 S1                 0.0000
     66 ****        -2.0448   0.9300   1.1073 LP             1 S1                 0.0000
     67 ****         4.0068   3.8465   2.8032 LP             1 S1                 0.0000
     68 ****         2.3776   3.9559   2.7796 LP             1 S1                 0.0000
     69 ****         5.0159  -0.2382   5.6655 LP             1 S1                 0.0000
     70 ****         6.0470  -0.7788   4.5204 LP             1 S1                 0.0000
     71 ****        -4.6446  -1.7909  -0.5793 LP             1 S1                 0.0000
@<TRIPOS>BOND
    1    1    2 1     
    2    1   32 1     
    3    1   33 1     
    4    1   34 1     
    5    2    3 1     
    6    3   30 1     
    7    3   29 1     
    8    3    4 1     
    9    4    5 1     
   10    4   35 1     
   11    4   36 1     
   12    5   31 1     
   13    5    6 1     
   14    5   27 1     
   15    6    7 1     
   16    6   37 1     
   17    6   38 1     
   18    7    8 1     
   19    7    9 1     
   20    8   39 1     
   21    8   40 1     
   22    8   41 1     
   23    9   14 ar    
   24    9   10 ar    
   25   10   11 ar    
   26   11   12 ar    
   27   11   42 1     
   28   12   13 ar    
   29   13   17 1     
   30   13   14 ar    
   31   14   15 1     
   32   15   16 2     
   33   16   17 1     
   34   16   43 1     
   35   17   18 1     
   36   18   19 1     
   37   18   44 1     
   38   18   45 1     
   39   19   20 1     
   40   19   22 1     
   41   19   46 1     
   42   20   21 1     
   43   20   47 1     
   44   20   48 1     
   45   21   49 1     
   46   22   26 1     
   47   22   23 1     
   48   22   50 1     
   49   23   24 1     
   50   23   51 1     
   51   23   52 1     
   52   24   25 1     
   53   24   53 1     
   54   24   54 1     
   55   25   26 1     
   56   26   55 1     
   57   26   56 1     
   58   27   28 1     
   59   27   29 1     
   60   28   57 1     
   61   28   58 1     
   62   28   59 1     
   63   29   60 1     
   64   29   61 1     
   65    2   62 1     
   66    2   63 1     
   67   10   64 1     
   68   12   65 1     
   69   15   66 1     
   70   21   67 1     
   71   21   68 1     
   72   25   69 1     
   73   25   70 1     
   74   27   71 1     
@<TRIPOS>SUBSTRUCTURE
      1 S1             1
@<TRIPOS>SET
LONE_PAIRS      STATIC     ATOMS    <user>   **** ""
10 62 63 64 65 66 67 68 69 70 71
DONOR_HYDROGENS      STATIC     ATOMS    <user>   **** ""
1 49
ATOM$BLUE        STATIC     ATOMS    COLORGROUP SYSTEM
10 62 63 64 65 66 67 68 69 70 71
ATOM$RED        STATIC     ATOMS    COLORGROUP SYSTEM
1 49
