AV-unprocessed.smi:3095|AV-procd|sdf|11794|dock1
  -GOLD-   2272017173D 1   1.00000     0.00000
 Structure written by MMmdl.
 24 25  0  0  0  0  0  0  0  0  1 V2000
  151.6055  144.4203  159.5781 C   0  0  0  0  0  0  0  0  0  0  0  0
  151.7880  143.0119  159.1062 C   0  0  0  0  0  0  0  0  0  0  0  0
  152.1992  141.9372  159.8543 C   0  0  0  0  0  0  0  0  0  0  0  0
  152.2806  140.4789  158.9049 S   0  0  0  0  0  0  0  0  0  0  0  0
  151.7276  141.3925  157.5056 C   0  0  0  0  0  0  0  0  0  0  0  0
  151.5654  140.7787  156.1514 C   0  0  2  0  0  0  0  0  0  0  0  0
  150.1410  140.9626  155.5933 C   0  0  0  0  0  0  0  0  0  0  0  0
  150.0103  140.2827  154.3058 N   0  0  0  0  0  0  0  0  0  0  0  0
  150.3802  138.8722  154.4140 C   0  0  0  0  0  0  0  0  0  0  0  0
  151.7938  138.7327  155.0076 C   0  0  0  0  0  0  0  0  0  0  0  0
  151.8494  139.3866  156.2713 O   0  0  0  0  0  0  0  0  0  0  0  0
  151.5328  142.6888  157.7705 N   0  0  0  0  0  0  0  0  0  0  0  0
  151.9059  144.5338  160.6201 H   0  0  0  0  0  0  0  0  0  0  0  0
  150.5628  144.7293  159.5000 H   0  0  0  0  0  0  0  0  0  0  0  0
  152.2022  145.1144  158.9862 H   0  0  0  0  0  0  0  0  0  0  0  0
  152.4614  141.9147  160.9017 H   0  0  0  0  0  0  0  0  0  0  0  0
  152.2943  141.2408  155.4830 H   0  0  0  0  0  0  0  0  0  0  0  0
  149.4136  140.5590  156.2992 H   0  0  0  0  0  0  0  0  0  0  0  0
  149.9148  142.0232  155.4813 H   0  0  0  0  0  0  0  0  0  0  0  0
  149.0530  140.3589  153.9767 H   0  0  0  0  0  0  0  0  0  0  0  0
  149.6641  138.3485  155.0484 H   0  0  0  0  0  0  0  0  0  0  0  0
  150.3362  138.3973  153.4337 H   0  0  0  0  0  0  0  0  0  0  0  0
  152.0400  137.6798  155.1449 H   0  0  0  0  0  0  0  0  0  0  0  0
  152.5439  139.1493  154.3332 H   0  0  0  0  0  0  0  0  0  0  0  0
  1  2  1  0  0  0  0
  1 13  1  0  0  0  0
  1 14  1  0  0  0  0
  1 15  1  0  0  0  0
  2 12  1  0  0  0  0
  2  3  2  0  0  0  0
  3  4  1  0  0  0  0
  3 16  1  0  0  0  0
  4  5  1  0  0  0  0
  5  6  1  0  0  0  0
  5 12  2  0  0  0  0
  6 11  1  0  0  0  0
  6  7  1  0  0  0  0
  6 17  1  0  0  0  0
  7  8  1  0  0  0  0
  7 18  1  0  0  0  0
  7 19  1  0  0  0  0
  8  9  1  0  0  0  0
  8 20  1  0  0  0  0
  9 10  1  0  0  0  0
  9 21  1  0  0  0  0
  9 22  1  0  0  0  0
 10 11  1  0  0  0  0
 10 23  1  0  0  0  0
 10 24  1  0  0  0  0
M  END
> <s_m_source_file>
AV-unprocessed.smi

> <i_m_source_file_index>
3095

> <i_lp_mmshare_version>
43012

> <i_f3d_flags>
0

> <s_epik_input>
W0NIM11jMVtjSF1zYyhuMSlbQ0BASF0yW0NIMl1bTkhdW0NIMl1bQ0gyXU8y

> <s_epik_cmdline>
J2VwaWtfcHl0aG9uJywgJy1waCcsICc3LjAnLCAnLXRuJywgJzgnLCAnLW1hJywgJzIwMCcsICctbWV0YWxfYmluZGluZycsICctaW1hZScsICc8aW5maWxlLm1hZT4nLCAnLW9tYWUnLCAnPG91dGZpbGUubWFlPic=

> <r_epik_Ionization_Penalty>
0.982843

> <r_epik_Ionization_Penalty_Charging>
0

> <r_epik_Ionization_Penalty_Neutral>
0.982843

> <r_epik_State_Penalty>
2.16535

> <r_epik_Charging_Adjusted_Penalty>
2.16535

> <i_epik_Tot_Q>
0

> <i_epik_Tot_abs_Q>
0

> <r_epik_Metal_State_Penalty>
2.16288

> <b_epik_Metal_Only>
0

> <s_lp_Force_Field>
OPLS_2005

> <r_lp_Energy>
7.28811

> <b_lp_Chiralities_Consistent>
1

> <s_lp_Variant>
AV-unprocessed.smi:3095-3

> <Gold.Version>
5.8.1

> <Gold.Id.Protein>
6NUR|6NUR_protein|mol2

> <Gold.PLP.Fitness>
29.5349

> <Gold.PLP.PLP>
-26.8195

> <Gold.PLP.part.hbond>
-1.5982

> <Gold.PLP.part.metal>
0.0000

> <Gold.PLP.part.buried>
-4.1004

> <Gold.PLP.part.nonpolar>
-20.9227

> <Gold.PLP.part.repulsive>
0.0524

> <Gold.PLP.ligand.clash>
0.0000

> <Gold.PLP.ligand.torsion>
0.0158

> <Gold.PLP.Chemscore.Hbond>
0.9120

> <Gold.PLP.Chemscore.CHOScore>
0.0000

> <Gold.PLP.Chemscore.Metal>
0.0000

> <Gold.Chemscore.Hbonds>
donor molecule, donor type, donor heavy atom, donor atom, acceptor molecule, acceptor atom, score
      P1  H  7989  7998       L1     8  0.74

> <Gold.PLP.Chemscore.Internal.Correction>
0.0111

> <Gold.Rescore>
     Score         DG    S(hbond)    S(metal)    S(lipo)     H(rot)  DE(clash)    DE(int)     intcor
     12.03     -12.12       0.12        0.00      75.08       1.00       0.00       0.08       ----

> <Gold.Chemscore.Fitness>
12.0303

> <Gold.Chemscore.DG>
-12.1150

> <Gold.Chemscore.ZeroCoef>
-5.4800

> <Gold.Chemscore.Hbond>
0.1231

> <Gold.Chemscore.Metal>
0.0000

> <Gold.Chemscore.Lipo>
75.0768

> <Gold.Chemscore.Internal_Hbond>
0.0000

> <Gold.Chemscore.DEClash>
0.0048

> <Gold.Chemscore.DEInternal>
0.0799

> <Gold.Chemscore.Rot>
1.0000

> <Gold.Chemscore.Internal.Correction>
   9.000000E+99

> <Gold.Chemscore.Hbonds>
donor molecule, donor type, donor heavy atom, donor atom, acceptor molecule, acceptor atom, score
      P1  H  7989  7998       L1     8  0.03

> <Gold.Chemscore.Hbond.Weighted>
-0.4110

> <Gold.Chemscore.Metal.Weighted>
-0.0000

> <Gold.Chemscore.Lipo.Weighted>
-8.7840

> <Gold.Chemscore.Internal_Hbond.Weighted>
0.0000

> <Gold.Chemscore.DEClash.Weighted>
0.0048

> <Gold.Chemscore.DEInternal.Weighted>
0.0799

> <Gold.Chemscore.Rot.Weighted>
2.5600

> <Gold.Chemscore.Internal.Correction.Weighted>
   9.000000E+99

> <Gold.Protein.RotatedTorsions>
[ 6907 6896 6895 6894 ] final   27.46 input  -60.11 | X-H torsion
[ 7974 7965 7964 7962 ] final  -72.40 input  175.53 | X-H torsion
[ 8008 7997 7996 7995 ] final -168.00 input   59.86 | X-H torsion
[ 10167 10162 10161 10158 ] final  -39.48 input  -65.29 | X-H torsion
[ 10718 10713 10712 10709 ] final -105.43 input   66.30 | X-H torsion
[ 10763 10752 10751 10750 ] final -139.68 input  -60.55 | X-H torsion
[ 11005 11000 10999 10996 ] final  -96.06 input  -57.11 | X-H torsion

> <Gold.Protein.ActiveResidues>
 VAL166  LYS551  ARG553  GLY616  TRP617  ASP618  TYR619  PRO620  LYS621  CYS622 
 ASP623  PHE694  ASN695  SER759  ASP760  ASP761  ALA762  ILE779  LEU786  VAL792 
 PHE793  MET794  SER795  GLU796  ALA797  LYS798  CYS799  TRP800  GLU811  SER814 

> <Gold.Protein.RotatedAtoms>
  152.0025  134.9920  160.0565 H   0  0  0  0  0  0  0  0  0  0  0  0  # atno 6907 bound_to 6896
  152.1505  133.4514  159.4819 H   0  0  0  0  0  0  0  0  0  0  0  0  # atno 6908 bound_to 6896
  150.6875  134.2112  159.4403 H   0  0  0  0  0  0  0  0  0  0  0  0  # atno 6909 bound_to 6896
  145.6656  140.9238  143.0910 H   0  0  0  0  0  0  0  0  0  0  0  0  # atno 7974 bound_to 7965
  155.8854  140.1016  157.1456 H   0  0  0  0  0  0  0  0  0  0  0  0  # atno 8008 bound_to 7997
  154.4009  140.1321  156.4312 H   0  0  0  0  0  0  0  0  0  0  0  0  # atno 8009 bound_to 7997
  155.7595  140.3463  155.5193 H   0  0  0  0  0  0  0  0  0  0  0  0  # atno 8010 bound_to 7997
  140.7063  143.3212  151.2788 H   0  0  0  0  0  0  0  0  0  0  0  0  # atno 10167 bound_to 10162
  156.0346  130.5563  150.7538 H   0  0  0  0  0  0  0  0  0  0  0  0  # atno 10718 bound_to 10713
  154.8602  135.3575  154.5585 H   0  0  0  0  0  0  0  0  0  0  0  0  # atno 10763 bound_to 10752
  153.6201  135.7006  153.5318 H   0  0  0  0  0  0  0  0  0  0  0  0  # atno 10764 bound_to 10752
  153.3136  135.4171  155.1317 H   0  0  0  0  0  0  0  0  0  0  0  0  # atno 10765 bound_to 10752
  141.1423  133.8070  157.0520 H   0  0  0  0  0  0  0  0  0  0  0  0  # atno 11005 bound_to 11000
  144.7074  139.8505  143.7425 LP  0  0  0  0  0  0  0  0  0  0  0  0  # atno 17320 bound_to 7965
  146.1089  139.4091  143.0300 LP  0  0  0  0  0  0  0  0  0  0  0  0  # atno 17321 bound_to 7965
  139.6666  144.0094  152.2727 LP  0  0  0  0  0  0  0  0  0  0  0  0  # atno 17342 bound_to 10162
  139.9679  144.6514  150.8017 LP  0  0  0  0  0  0  0  0  0  0  0  0  # atno 17343 bound_to 10162
  157.5075  131.0923  151.0239 LP  0  0  0  0  0  0  0  0  0  0  0  0  # atno 17370 bound_to 10713
  157.0603  130.5823  149.5385 LP  0  0  0  0  0  0  0  0  0  0  0  0  # atno 17371 bound_to 10713
  140.0626  134.9746  157.1330 LP  0  0  0  0  0  0  0  0  0  0  0  0  # atno 17394 bound_to 11000
  140.3826  134.2270  155.7170 LP  0  0  0  0  0  0  0  0  0  0  0  0  # atno 17395 bound_to 11000

$$$$
