AV-unprocessed.smi:87|AV-procd|sdf|821|dock8
  -GOLD-   2262017223D 1   1.00000     0.00000
 Structure written by MMmdl.
 58 60  0  0  0  0  0  0  0  0  1 V2000
  153.5483  141.3730  160.7228 C   0  0  0  0  0  0  0  0  0  0  0  0
  152.8048  142.6376  160.2680 C   0  0  0  0  0  0  0  0  0  0  0  0
  152.4241  142.6498  158.7684 C   0  0  0  0  0  0  0  0  0  0  0  0
  151.7846  143.9958  158.3580 C   0  0  0  0  0  0  0  0  0  0  0  0
  150.7972  144.5609  159.3895 C   0  0  0  0  0  0  0  0  0  0  0  0
  151.4744  141.4698  158.4390 C   0  0  0  0  0  0  0  0  0  0  0  0
  151.4802  141.0772  157.0271 N   0  0  0  0  0  0  0  0  0  0  0  0
  152.3804  139.9888  156.6521 C   0  0  0  0  0  0  0  0  0  0  0  0
  151.9748  138.6425  157.2700 C   0  0  0  0  0  0  0  0  0  0  0  0
  152.7556  137.5211  156.7284 C   0  0  0  0  0  0  0  0  0  0  0  0
  153.3697  136.6380  156.3024 N   0  0  0  0  0  0  0  0  0  0  0  0
  150.2974  141.0484  156.3598 C   0  0  0  0  0  0  0  0  0  0  0  0
  150.2808  140.8928  155.0085 N   0  0  0  0  0  0  0  0  0  0  0  0
  149.1225  140.9044  154.3424 C   0  0  0  0  0  0  0  0  0  0  0  0
  147.8872  141.0665  154.8198 N   0  0  0  0  0  0  0  0  0  0  0  0
  147.8980  141.2211  156.1745 C   0  0  0  0  0  0  0  0  0  0  0  0
  149.0461  141.2164  157.0150 C   0  0  0  0  0  0  0  0  0  0  0  0
  148.6640  141.3873  158.3404 N   0  0  0  0  0  0  0  0  0  0  0  0
  147.3665  141.5131  158.2840 C   0  0  0  0  0  0  0  0  0  0  0  0
  146.8260  141.4434  157.0200 N   0  0  0  0  0  0  0  0  0  0  0  0
  145.4267  141.5867  156.6638 C   0  0  0  0  0  0  0  0  0  0  0  0
  145.2018  142.5133  155.4477 C   0  0  1  0  0  0  0  0  0  0  0  0
  145.4196  141.7355  154.2876 O   0  0  0  0  0  0  0  0  0  0  0  0
  143.7972  143.1571  155.3711 C   0  0  2  0  0  0  0  0  0  0  0  0
  143.5903  144.0751  154.1625 C   0  0  0  0  0  0  0  0  0  0  0  0
  142.4854  144.9863  154.6441 C   0  0  0  0  0  0  0  0  0  0  0  0
  142.8796  145.1974  156.1004 C   0  0  0  0  0  0  0  0  0  0  0  0
  143.5545  144.0069  156.4935 O   0  0  0  0  0  0  0  0  0  0  0  0
  153.6983  141.3849  161.8025 H   0  0  0  0  0  0  0  0  0  0  0  0
  154.5316  141.2866  160.2623 H   0  0  0  0  0  0  0  0  0  0  0  0
  152.9812  140.4740  160.4797 H   0  0  0  0  0  0  0  0  0  0  0  0
  151.9022  142.7125  160.8748 H   0  0  0  0  0  0  0  0  0  0  0  0
  153.3979  143.5207  160.5081 H   0  0  0  0  0  0  0  0  0  0  0  0
  153.3436  142.5381  158.1934 H   0  0  0  0  0  0  0  0  0  0  0  0
  152.5639  144.7314  158.1552 H   0  0  0  0  0  0  0  0  0  0  0  0
  151.2372  143.8764  157.4243 H   0  0  0  0  0  0  0  0  0  0  0  0
  150.3094  145.4557  159.0026 H   0  0  0  0  0  0  0  0  0  0  0  0
  151.2911  144.8395  160.3196 H   0  0  0  0  0  0  0  0  0  0  0  0
  150.0176  143.8362  159.6257 H   0  0  0  0  0  0  0  0  0  0  0  0
  151.7555  140.6083  159.0459 H   0  0  0  0  0  0  0  0  0  0  0  0
  150.4492  141.7058  158.7216 H   0  0  0  0  0  0  0  0  0  0  0  0
  152.4317  139.8931  155.5680 H   0  0  0  0  0  0  0  0  0  0  0  0
  153.3901  140.2460  156.9730 H   0  0  0  0  0  0  0  0  0  0  0  0
  152.1136  138.6553  158.3508 H   0  0  0  0  0  0  0  0  0  0  0  0
  150.9231  138.4288  157.0788 H   0  0  0  0  0  0  0  0  0  0  0  0
  149.1974  140.7731  153.2730 H   0  0  0  0  0  0  0  0  0  0  0  0
  146.7669  141.6792  159.1671 H   0  0  0  0  0  0  0  0  0  0  0  0
  145.0244  140.5930  156.4630 H   0  0  0  0  0  0  0  0  0  0  0  0
  144.8908  141.9710  157.5329 H   0  0  0  0  0  0  0  0  0  0  0  0
  145.9525  143.3044  155.4532 H   0  0  0  0  0  0  0  0  0  0  0  0
  144.5903  141.6064  153.8533 H   0  0  0  0  0  0  0  0  0  0  0  0
  143.0274  142.3836  155.3648 H   0  0  0  0  0  0  0  0  0  0  0  0
  144.4908  144.6576  153.9626 H   0  0  0  0  0  0  0  0  0  0  0  0
  143.3274  143.5312  153.2547 H   0  0  0  0  0  0  0  0  0  0  0  0
  142.4170  145.9170  154.0805 H   0  0  0  0  0  0  0  0  0  0  0  0
  141.5237  144.4748  154.5830 H   0  0  0  0  0  0  0  0  0  0  0  0
  143.5745  146.0329  156.1915 H   0  0  0  0  0  0  0  0  0  0  0  0
  142.0207  145.3993  156.7407 H   0  0  0  0  0  0  0  0  0  0  0  0
  1  2  1  0  0  0  0
  1 29  1  0  0  0  0
  1 30  1  0  0  0  0
  1 31  1  0  0  0  0
  2  3  1  0  0  0  0
  2 32  1  0  0  0  0
  2 33  1  0  0  0  0
  3  4  1  0  0  0  0
  3  6  1  0  0  0  0
  3 34  1  0  0  0  0
  4  5  1  0  0  0  0
  4 35  1  0  0  0  0
  4 36  1  0  0  0  0
  5 37  1  0  0  0  0
  5 38  1  0  0  0  0
  5 39  1  0  0  0  0
  6  7  1  0  0  0  0
  6 40  1  0  0  0  0
  6 41  1  0  0  0  0
  7  8  1  0  0  0  0
  7 12  1  0  0  0  0
  8  9  1  0  0  0  0
  8 42  1  0  0  0  0
  8 43  1  0  0  0  0
  9 10  1  0  0  0  0
  9 44  1  0  0  0  0
  9 45  1  0  0  0  0
 10 11  3  0  0  0  0
 12 17  1  0  0  0  0
 12 13  2  0  0  0  0
 13 14  1  0  0  0  0
 14 15  2  0  0  0  0
 14 46  1  0  0  0  0
 15 16  1  0  0  0  0
 16 20  1  0  0  0  0
 16 17  2  0  0  0  0
 17 18  1  0  0  0  0
 18 19  2  0  0  0  0
 19 20  1  0  0  0  0
 19 47  1  0  0  0  0
 20 21  1  0  0  0  0
 21 22  1  0  0  0  0
 21 48  1  0  0  0  0
 21 49  1  0  0  0  0
 22 23  1  0  0  0  0
 22 24  1  0  0  0  0
 22 50  1  0  0  0  0
 23 51  1  0  0  0  0
 24 28  1  0  0  0  0
 24 25  1  0  0  0  0
 24 52  1  0  0  0  0
 25 26  1  0  0  0  0
 25 53  1  0  0  0  0
 25 54  1  0  0  0  0
 26 27  1  0  0  0  0
 26 55  1  0  0  0  0
 26 56  1  0  0  0  0
 27 28  1  0  0  0  0
 27 57  1  0  0  0  0
 27 58  1  0  0  0  0
M  END
> <s_m_source_file>
AV-unprocessed.smi

> <i_m_source_file_index>
87

> <i_lp_mmshare_version>
43012

> <i_f3d_flags>
0

> <s_epik_input>
W0NIM11bQ0gyXVtDSF0oW0NIMl1bQ0gzXSlbQ0gyXU4oW0NIMl1bQ0gyXUMjTiljKG5bY0hdbjEpYyhjMTIpbltjSF1uMltDSDJdW0NASF0oW09IXSlbQ0BASF0zW0NIMl1bQ0gyXVtDSDJdTzM=

> <s_epik_cmdline>
J2VwaWtfcHl0aG9uJywgJy1waCcsICc3LjAnLCAnLXRuJywgJzgnLCAnLW1hJywgJzIwMCcsICctbWV0YWxfYmluZGluZycsICctaW1hZScsICc8aW5maWxlLm1hZT4nLCAnLW9tYWUnLCAnPG91dGZpbGUubWFlPic=

> <r_lp_tautomer_probability>
1

> <r_epik_Ionization_Penalty>
0.000348566

> <r_epik_Ionization_Penalty_Charging>
0

> <r_epik_Ionization_Penalty_Neutral>
0.000348566

> <r_epik_State_Penalty>
-0

> <r_epik_Charging_Adjusted_Penalty>
0

> <i_epik_Tot_Q>
0

> <i_epik_Tot_abs_Q>
0

> <r_epik_Metal_State_Penalty>
-0

> <b_epik_Metal_Only>
0

> <s_lp_Force_Field>
OPLS_2005

> <r_lp_Energy>
32.9267

> <b_lp_Chiralities_Consistent>
1

> <s_lp_Variant>
AV-unprocessed.smi:87-2

> <Gold.Version>
5.8.1

> <Gold.Id.Protein>
6NUR|6NUR_protein|mol2

> <Gold.PLP.Fitness>
56.2142

> <Gold.PLP.PLP>
-50.7463

> <Gold.PLP.part.hbond>
-2.3033

> <Gold.PLP.part.metal>
0.0000

> <Gold.PLP.part.buried>
-5.8775

> <Gold.PLP.part.nonpolar>
-42.5138

> <Gold.PLP.part.repulsive>
0.4039

> <Gold.PLP.ligand.clash>
0.0000

> <Gold.PLP.ligand.torsion>
1.7482

> <Gold.PLP.Chemscore.Hbond>
1.6817

> <Gold.PLP.Chemscore.CHOScore>
1.0000

> <Gold.PLP.Chemscore.Metal>
0.0000

> <Gold.Chemscore.Hbonds>
donor molecule, donor type, donor heavy atom, donor atom, acceptor molecule, acceptor atom, score
      L1  H    23    51       P1 10175  0.66
      P1  H  7989  7998       L1    13  0.77
      P1  H 10752 10764       L1    11  0.70
      L1  C    14    46       P1  7957  1.00

> <Gold.PLP.Chemscore.Internal.Correction>
0.9192

> <Gold.Rescore>
     Score         DG    S(hbond)    S(metal)    S(lipo)     H(rot)  DE(clash)    DE(int)     intcor
     11.28     -14.28       1.56        0.00     110.29       3.64       0.07       2.92       ----

> <Gold.Chemscore.Fitness>
11.2818

> <Gold.Chemscore.DG>
-14.2783

> <Gold.Chemscore.ZeroCoef>
-5.4800

> <Gold.Chemscore.Hbond>
1.5583

> <Gold.Chemscore.Metal>
0.0000

> <Gold.Chemscore.Lipo>
110.2875

> <Gold.Chemscore.Internal_Hbond>
0.0000

> <Gold.Chemscore.DEClash>
0.0731

> <Gold.Chemscore.DEInternal>
2.9233

> <Gold.Chemscore.Rot>
3.6368

> <Gold.Chemscore.Internal.Correction>
   9.000000E+99

> <Gold.Chemscore.Hbonds>
donor molecule, donor type, donor heavy atom, donor atom, acceptor molecule, acceptor atom, score
      L1  H    23    51       P1 10175  0.08
      P1  H  7989  7998       L1    13  0.25
      P1  H 10752 10764       L1    11  0.69

> <Gold.Chemscore.Hbond.Weighted>
-5.2048

> <Gold.Chemscore.Metal.Weighted>
-0.0000

> <Gold.Chemscore.Lipo.Weighted>
-12.9036

> <Gold.Chemscore.Internal_Hbond.Weighted>
0.0000

> <Gold.Chemscore.DEClash.Weighted>
0.0731

> <Gold.Chemscore.DEInternal.Weighted>
2.9233

> <Gold.Chemscore.Rot.Weighted>
9.3102

> <Gold.Chemscore.Internal.Correction.Weighted>
   9.000000E+99

> <Gold.Protein.RotatedTorsions>
[ 6907 6896 6895 6894 ] final -155.58 input  -60.11 | X-H torsion
[ 7974 7965 7964 7962 ] final  -29.05 input  175.53 | X-H torsion
[ 8008 7997 7996 7995 ] final  149.25 input   59.86 | X-H torsion
[ 10167 10162 10161 10158 ] final  -80.62 input  -65.29 | X-H torsion
[ 10718 10713 10712 10709 ] final  -26.34 input   66.30 | X-H torsion
[ 10763 10752 10751 10750 ] final  -16.60 input  -60.55 | X-H torsion
[ 11005 11000 10999 10996 ] final  -88.52 input  -57.11 | X-H torsion

> <Gold.Protein.ActiveResidues>
 VAL166  LYS551  ARG553  GLY616  TRP617  ASP618  TYR619  PRO620  LYS621  CYS622 
 ASP623  PHE694  ASN695  SER759  ASP760  ASP761  ALA762  ILE779  LEU786  VAL792 
 PHE793  MET794  SER795  GLU796  ALA797  LYS798  CYS799  TRP800  GLU811  SER814 

> <Gold.Protein.RotatedAtoms>
  151.2747  133.4238  159.2623 H   0  0  0  0  0  0  0  0  0  0  0  0  # atno 6907 bound_to 6896
  151.0414  134.9610  159.8174 H   0  0  0  0  0  0  0  0  0  0  0  0  # atno 6908 bound_to 6896
  152.5366  134.2705  159.9022 H   0  0  0  0  0  0  0  0  0  0  0  0  # atno 6909 bound_to 6896
  146.1245  140.5362  142.8721 H   0  0  0  0  0  0  0  0  0  0  0  0  # atno 7974 bound_to 7965
  156.2762  140.2107  156.5829 H   0  0  0  0  0  0  0  0  0  0  0  0  # atno 8008 bound_to 7997
  154.7044  140.0518  157.0513 H   0  0  0  0  0  0  0  0  0  0  0  0  # atno 8009 bound_to 7997
  155.0690  140.3174  155.4639 H   0  0  0  0  0  0  0  0  0  0  0  0  # atno 8010 bound_to 7997
  140.4487  143.2490  151.8521 H   0  0  0  0  0  0  0  0  0  0  0  0  # atno 10167 bound_to 10162
  156.4524  130.4487  149.6981 H   0  0  0  0  0  0  0  0  0  0  0  0  # atno 10718 bound_to 10713
  153.5611  135.7009  153.5547 H   0  0  0  0  0  0  0  0  0  0  0  0  # atno 10763 bound_to 10752
  153.3428  135.4016  155.1585 H   0  0  0  0  0  0  0  0  0  0  0  0  # atno 10764 bound_to 10752
  154.8647  135.3746  154.5128 H   0  0  0  0  0  0  0  0  0  0  0  0  # atno 10765 bound_to 10752
  141.1600  133.7574  156.9462 H   0  0  0  0  0  0  0  0  0  0  0  0  # atno 11005 bound_to 11000
  144.7628  140.5462  143.6723 LP  0  0  0  0  0  0  0  0  0  0  0  0  # atno 17320 bound_to 7965
  145.5396  139.1475  143.3454 LP  0  0  0  0  0  0  0  0  0  0  0  0  # atno 17321 bound_to 7965
  139.4795  144.5145  151.8886 LP  0  0  0  0  0  0  0  0  0  0  0  0  # atno 17342 bound_to 10162
  140.4233  144.2214  150.5887 LP  0  0  0  0  0  0  0  0  0  0  0  0  # atno 17343 bound_to 10162
  156.3802  130.7575  151.2567 LP  0  0  0  0  0  0  0  0  0  0  0  0  # atno 17370 bound_to 10713
  157.7502  131.0298  150.4108 LP  0  0  0  0  0  0  0  0  0  0  0  0  # atno 17371 bound_to 10713
  140.1288  134.9369  157.2307 LP  0  0  0  0  0  0  0  0  0  0  0  0  # atno 17394 bound_to 11000
  140.2979  134.3165  155.7297 LP  0  0  0  0  0  0  0  0  0  0  0  0  # atno 17395 bound_to 11000

$$$$
