AV-unprocessed.smi:160|AV-procd|sdf|1343|dock6
  -GOLD-   2262019 43D 1   1.00000     0.00000
 Structure written by MMmdl.
 29 30  0  0  0  0  0  0  0  0  1 V2000
  147.4869  137.0532  158.7278 N   0  0  0  0  0  0  0  0  0  0  0  0
  148.5877  136.9712  159.4823 C   0  0  0  0  0  0  0  0  0  0  0  0
  148.5433  136.7247  160.6863 O   0  0  0  0  0  0  0  0  0  0  0  0
  149.8958  137.1985  158.7763 C   0  0  0  0  0  0  0  0  0  0  0  0
  151.0855  136.9250  159.3893 N   0  0  0  0  0  0  0  0  0  0  0  0
  151.9101  137.2762  158.4108 C   0  0  0  0  0  0  0  0  0  0  0  0
  151.2948  137.7073  157.3051 N   0  0  0  0  0  0  0  0  0  0  0  0
  151.8695  138.2169  156.0238 C   0  0  2  0  0  0  0  0  0  0  0  0
  151.6019  139.5871  155.9685 O   0  0  0  0  0  0  0  0  0  0  0  0
  150.9280  139.9249  154.7584 C   0  0  2  0  0  0  0  0  0  0  0  0
  149.9846  141.1113  155.0090 C   0  0  0  0  0  0  0  0  0  0  0  0
  149.3818  141.5165  153.7989 O   0  0  0  0  0  0  0  0  0  0  0  0
  150.1982  138.6327  154.3879 C   0  0  1  0  0  0  0  0  0  0  0  0
  149.8552  138.5531  153.0168 O   0  0  0  0  0  0  0  0  0  0  0  0
  151.1883  137.5563  154.8156 C   0  0  1  0  0  0  0  0  0  0  0  0
  152.1362  137.2551  153.8080 O   0  0  0  0  0  0  0  0  0  0  0  0
  149.9575  137.6761  157.5320 N   0  0  0  0  0  0  0  0  0  0  0  0
  152.9387  138.0125  156.1000 H   0  0  0  0  0  0  0  0  0  0  0  0
  151.6692  140.1586  153.9915 H   0  0  0  0  0  0  0  0  0  0  0  0
  149.2882  138.5424  154.9822 H   0  0  0  0  0  0  0  0  0  0  0  0
  150.6887  136.6288  155.0996 H   0  0  0  0  0  0  0  0  0  0  0  0
  146.5792  136.9101  159.1452 H   0  0  0  0  0  0  0  0  0  0  0  0
  147.5724  137.2583  157.7430 H   0  0  0  0  0  0  0  0  0  0  0  0
  152.9848  137.2193  158.5027 H   0  0  0  0  0  0  0  0  0  0  0  0
  149.1846  140.8191  155.6896 H   0  0  0  0  0  0  0  0  0  0  0  0
  150.5133  141.9464  155.4701 H   0  0  0  0  0  0  0  0  0  0  0  0
  148.5777  141.0333  153.6865 H   0  0  0  0  0  0  0  0  0  0  0  0
  149.9101  137.6496  152.7450 H   0  0  0  0  0  0  0  0  0  0  0  0
  151.6714  136.9244  153.0543 H   0  0  0  0  0  0  0  0  0  0  0  0
  1  2  1  0  0  0  0
  1 22  1  0  0  0  0
  1 23  1  0  0  0  0
  2  3  2  0  0  0  0
  2  4  1  0  0  0  0
  4 17  2  0  0  0  0
  4  5  1  0  0  0  0
  5  6  2  0  0  0  0
  6  7  1  0  0  0  0
  6 24  1  0  0  0  0
  7  8  1  0  0  0  0
  7 17  1  0  0  0  0
  8 18  1  0  0  0  0
  8 15  1  0  0  0  0
  8  9  1  0  0  0  0
  9 10  1  0  0  0  0
 10 19  1  0  0  0  0
 10 11  1  0  0  0  0
 10 13  1  0  0  0  0
 11 12  1  0  0  0  0
 11 25  1  0  0  0  0
 11 26  1  0  0  0  0
 12 27  1  0  0  0  0
 13 20  1  0  0  0  0
 13 14  1  0  0  0  0
 13 15  1  0  0  0  0
 14 28  1  0  0  0  0
 15 21  1  0  0  0  0
 15 16  1  0  0  0  0
 16 29  1  0  0  0  0
M  END
> <s_m_source_file>
AV-unprocessed.smi

> <i_m_source_file_index>
160

> <i_lp_mmshare_version>
43012

> <i_f3d_flags>
0

> <s_epik_input>
W05IMl1DKD1PKWMxbltjSF1uKG4xKVtDQEBIXTJPW0NASF0oW0NIMl1bT0hdKVtDQEBIXShbT0hdKVtDQEhdMltPSF0=

> <s_epik_cmdline>
J2VwaWtfcHl0aG9uJywgJy1waCcsICc3LjAnLCAnLXRuJywgJzgnLCAnLW1hJywgJzIwMCcsICctbWV0YWxfYmluZGluZycsICctaW1hZScsICc8aW5maWxlLm1hZT4nLCAnLW9tYWUnLCAnPG91dGZpbGUubWFlPic=

> <r_lp_tautomer_probability>
1

> <r_epik_Ionization_Penalty>
1.06932e-05

> <r_epik_Ionization_Penalty_Charging>
0

> <r_epik_Ionization_Penalty_Neutral>
1.06932e-05

> <r_epik_State_Penalty>
-0

> <r_epik_Charging_Adjusted_Penalty>
0

> <i_epik_Tot_Q>
0

> <i_epik_Tot_abs_Q>
0

> <r_epik_Metal_State_Penalty>
0.0142097

> <b_epik_Metal_Only>
0

> <s_epik_Chemistry_Notes>
This compound contains an acetal/aminal-like group ( X-CH(R)-Y where X, Y are N, S, or O) that may be acid/base labile, releasing an aldehyde.

> <s_lp_Force_Field>
OPLS_2005

> <r_lp_Energy>
39.0499

> <b_lp_Chiralities_Consistent>
1

> <s_lp_Variant>
AV-unprocessed.smi:160-1

> <Gold.Version>
5.8.1

> <Gold.Id.Protein>
6NUR|6NUR_protein|mol2

> <Gold.PLP.Fitness>
42.9799

> <Gold.PLP.PLP>
-26.2167

> <Gold.PLP.part.hbond>
-9.0178

> <Gold.PLP.part.metal>
0.0000

> <Gold.PLP.part.buried>
-1.6365

> <Gold.PLP.part.nonpolar>
-15.7426

> <Gold.PLP.part.repulsive>
0.1088

> <Gold.PLP.ligand.clash>
0.0000

> <Gold.PLP.ligand.torsion>
0.2712

> <Gold.PLP.Chemscore.Hbond>
5.7600

> <Gold.PLP.Chemscore.CHOScore>
0.0000

> <Gold.PLP.Chemscore.Metal>
0.0000

> <Gold.Chemscore.Hbonds>
donor molecule, donor type, donor heavy atom, donor atom, acceptor molecule, acceptor atom, score
      L1  H    14    28       P1  7948  0.85
      L1  H    16    29       P1  7949  1.00
      P1  H  6896  6908       L1     5  1.00
      P1  H  6931  6943       L1     3  0.98
      P1  H  8011  8017       L1    12  0.74
      P1  H 10752 10764       L1    16  0.70

> <Gold.PLP.Chemscore.Internal.Correction>
0.0256

> <Gold.Rescore>
     Score         DG    S(hbond)    S(metal)    S(lipo)     H(rot)  DE(clash)    DE(int)     intcor
     11.69     -12.14       4.11        0.00      28.44       4.06       0.33       0.13       ----

> <Gold.Chemscore.Fitness>
11.6886

> <Gold.Chemscore.DG>
-12.1434

> <Gold.Chemscore.ZeroCoef>
-5.4800

> <Gold.Chemscore.Hbond>
4.1107

> <Gold.Chemscore.Metal>
0.0000

> <Gold.Chemscore.Lipo>
28.4376

> <Gold.Chemscore.Internal_Hbond>
0.0000

> <Gold.Chemscore.DEClash>
0.3255

> <Gold.Chemscore.DEInternal>
0.1293

> <Gold.Chemscore.Rot>
4.0600

> <Gold.Chemscore.Internal.Correction>
   9.000000E+99

> <Gold.Chemscore.Hbonds>
donor molecule, donor type, donor heavy atom, donor atom, acceptor molecule, acceptor atom, score
      L1  H    14    28       P1  7948  0.19
      L1  H    16    29       P1  7949  0.98
      P1  H  6896  6908       L1     5  0.63
      P1  H  6931  6943       L1     3  0.81
      P1  H  8011  8017       L1    12  0.58
      P1  H 10752 10764       L1    16  0.06

> <Gold.Chemscore.Hbond.Weighted>
-13.7298

> <Gold.Chemscore.Metal.Weighted>
-0.0000

> <Gold.Chemscore.Lipo.Weighted>
-3.3272

> <Gold.Chemscore.Internal_Hbond.Weighted>
0.0000

> <Gold.Chemscore.DEClash.Weighted>
0.3255

> <Gold.Chemscore.DEInternal.Weighted>
0.1293

> <Gold.Chemscore.Rot.Weighted>
10.3936

> <Gold.Chemscore.Internal.Correction.Weighted>
   9.000000E+99

> <Gold.Protein.RotatedTorsions>
[ 6907 6896 6895 6894 ] final -148.23 input  -60.11 | X-H torsion
[ 7974 7965 7964 7962 ] final  -37.00 input  175.53 | X-H torsion
[ 8008 7997 7996 7995 ] final  178.31 input   59.86 | X-H torsion
[ 10167 10162 10161 10158 ] final -141.37 input  -65.29 | X-H torsion
[ 10718 10713 10712 10709 ] final  -22.62 input   66.30 | X-H torsion
[ 10763 10752 10751 10750 ] final  -83.36 input  -60.55 | X-H torsion
[ 11005 11000 10999 10996 ] final  -22.05 input  -57.11 | X-H torsion

> <Gold.Protein.ActiveResidues>
 VAL166  LYS551  ARG553  GLY616  TRP617  ASP618  TYR619  PRO620  LYS621  CYS622 
 ASP623  PHE694  ASN695  SER759  ASP760  ASP761  ALA762  ILE779  LEU786  VAL792 
 PHE793  MET794  SER795  GLU796  ALA797  LYS798  CYS799  TRP800  GLU811  SER814 

> <Gold.Protein.RotatedAtoms>
  151.1669  133.4809  159.2593 H   0  0  0  0  0  0  0  0  0  0  0  0  # atno 6907 bound_to 6896
  151.1396  135.0172  159.8629 H   0  0  0  0  0  0  0  0  0  0  0  0  # atno 6908 bound_to 6896
  152.5462  134.1564  159.8593 H   0  0  0  0  0  0  0  0  0  0  0  0  # atno 6909 bound_to 6896
  146.0613  140.6345  142.8996 H   0  0  0  0  0  0  0  0  0  0  0  0  # atno 7974 bound_to 7965
  156.0561  140.1336  156.9995 H   0  0  0  0  0  0  0  0  0  0  0  0  # atno 8008 bound_to 7997
  154.4458  140.1001  156.6518 H   0  0  0  0  0  0  0  0  0  0  0  0  # atno 8009 bound_to 7997
  155.5450  140.3461  155.4457 H   0  0  0  0  0  0  0  0  0  0  0  0  # atno 8010 bound_to 7997
  139.8191  143.7598  152.2665 H   0  0  0  0  0  0  0  0  0  0  0  0  # atno 10167 bound_to 10162
  156.5021  130.4590  149.6695 H   0  0  0  0  0  0  0  0  0  0  0  0  # atno 10718 bound_to 10713
  154.5868  135.5558  153.7239 H   0  0  0  0  0  0  0  0  0  0  0  0  # atno 10763 bound_to 10752
  153.0102  135.6333  154.1905 H   0  0  0  0  0  0  0  0  0  0  0  0  # atno 10764 bound_to 10752
  154.1846  135.2885  155.3021 H   0  0  0  0  0  0  0  0  0  0  0  0  # atno 10765 bound_to 10752
  140.8620  133.7781  156.0086 H   0  0  0  0  0  0  0  0  0  0  0  0  # atno 11005 bound_to 11000
  144.7176  140.4264  143.7032 LP  0  0  0  0  0  0  0  0  0  0  0  0  # atno 17320 bound_to 7965
  145.6556  139.1572  143.2837 LP  0  0  0  0  0  0  0  0  0  0  0  0  # atno 17321 bound_to 7965
  139.7771  144.7457  151.0142 LP  0  0  0  0  0  0  0  0  0  0  0  0  # atno 17342 bound_to 10162
  140.7814  143.4582  151.0315 LP  0  0  0  0  0  0  0  0  0  0  0  0  # atno 17343 bound_to 10162
  156.3323  130.7338  151.2269 LP  0  0  0  0  0  0  0  0  0  0  0  0  # atno 17370 bound_to 10713
  157.7461  131.0426  150.4705 LP  0  0  0  0  0  0  0  0  0  0  0  0  # atno 17371 bound_to 10713
  140.8672  134.2770  157.5208 LP  0  0  0  0  0  0  0  0  0  0  0  0  # atno 17394 bound_to 11000
  139.8707  134.9548  156.4188 LP  0  0  0  0  0  0  0  0  0  0  0  0  # atno 17395 bound_to 11000

$$$$
