#       Name:                AV-unprocessed.smi:37
#       Creating user name   scv26
#       Creation time:       Thu Mar 26 16:11:41 2020


#       File generated by GOLD software.
#

@<TRIPOS>MOLECULE
AV-unprocessed.smi:37
    54    55     1
SMALL
NO_CHARGES


@<TRIPOS>ATOM
      1 ****        -5.4887  -0.2284  -0.8825 C.3            1 S1                 0.0000
      2 ****        -4.0968   0.2647  -0.4607 C.3            1 S1                 0.0000
      3 ****        -2.9806  -0.1632  -1.4155 C.2            1 S1                 0.0000
      4 ****        -3.2003  -0.7917  -2.4524 O.2            1 S1                 0.0000
      5 ****        -1.7751   0.2210  -0.9763 O.3            1 S1                 0.0000
      6 ****        -0.6146  -0.1025  -1.7235 C.3            1 S1                 0.0000
      7 ****         0.6602   0.2480  -0.9361 C.3            1 S1                 0.0000
      8 ****         0.6940   1.6589  -0.7092 O.3            1 S1                 0.0000
      9 ****         1.1953   1.9364   0.5646 C.3            1 S1                 0.0000
     10 ****         2.7080   2.0967   0.5184 N.am           1 S1                 0.0000
     11 ****         3.4405   1.9903  -0.6605 C.2            1 S1                 0.0000
     12 ****         4.7828   2.1607  -0.7156 C.2            1 S1                 0.0000
     13 ****         5.4184   2.0405  -1.8936 F              1 S1                 0.0000
     14 ****         5.5426   2.4912   0.4852 C.2            1 S1                 0.0000
     15 ****         6.7604   2.6501   0.5379 O.2            1 S1                 0.0000
     16 ****         4.7639   2.6382   1.6356 N.am           1 S1                 0.0000
     17 ****         3.3794   2.4768   1.7037 C.2            1 S1                 0.0000
     18 ****         2.7930   2.6715   2.7676 O.2            1 S1                 0.0000
     19 ****         0.7751   0.7381   1.4279 C.3            1 S1                 0.0000
     20 ****        -1.0936   1.0317   2.0662 Br             1 S1                 0.0000
     21 ****         0.8565  -0.4195   0.4416 C.3            1 S1                 0.0000
     22 ****        -0.0611  -1.4559   0.7744 O.3            1 S1                 0.0000
     23 ****         0.1617  -2.7199   0.3705 C.2            1 S1                 0.0000
     24 ****         1.1145  -3.1021  -0.3088 O.2            1 S1                 0.0000
     25 ****        -0.9135  -3.6923   0.8512 C.3            1 S1                 0.0000
     26 ****        -2.3102  -3.3252   0.3316 C.3            1 S1                 0.0000
     27 ****         5.2426   2.8942   2.4870 H              1 S1                 0.0000
     28 ****        -6.2437   0.0986  -0.1675 H              1 S1                 0.0000
     29 ****        -5.5282  -1.3175  -0.9285 H              1 S1                 0.0000
     30 ****        -5.7703   0.1632  -1.8606 H              1 S1                 0.0000
     31 ****        -4.0964   1.3529  -0.3946 H              1 S1                 0.0000
     32 ****        -3.8620  -0.1107   0.5356 H              1 S1                 0.0000
     33 ****        -0.6149  -1.1657  -1.9673 H              1 S1                 0.0000
     34 ****        -0.6304   0.4426  -2.6680 H              1 S1                 0.0000
     35 ****         1.5113  -0.0233  -1.5605 H              1 S1                 0.0000
     36 ****         0.8287   2.8991   0.9255 H              1 S1                 0.0000
     37 ****         2.9462   1.7762  -1.5950 H              1 S1                 0.0000
     38 ****         1.4028   0.5911   2.3054 H              1 S1                 0.0000
     39 ****         1.8775  -0.8031   0.4853 H              1 S1                 0.0000
     40 ****        -0.6500  -4.6963   0.5174 H              1 S1                 0.0000
     41 ****        -0.9120  -3.7109   1.9412 H              1 S1                 0.0000
     42 ****        -3.0384  -4.0838   0.6186 H              1 S1                 0.0000
     43 ****        -2.3241  -3.2490  -0.7562 H              1 S1                 0.0000
     44 ****        -2.6496  -2.3736   0.7419 H              1 S1                 0.0000
     45 ****        -4.1373  -1.0411  -2.6969 LP             1 S1                 0.0000
     46 ****        -2.4416  -1.0523  -3.0494 LP             1 S1                 0.0000
     47 ****        -0.2326   2.0271  -0.7859 LP             1 S1                 0.0000
     48 ****         1.2812   2.0888  -1.3951 LP             1 S1                 0.0000
     49 ****         7.3135   2.5536  -0.2896 LP             1 S1                 0.0000
     50 ****         7.1980   2.8759   1.4082 LP             1 S1                 0.0000
     51 ****         1.8003   2.5621   2.8187 LP             1 S1                 0.0000
     52 ****         3.3090   2.9393   3.5812 LP             1 S1                 0.0000
     53 ****         1.8087  -2.4480  -0.6092 LP             1 S1                 0.0000
     54 ****         1.1943  -4.0666  -0.5603 LP             1 S1                 0.0000
@<TRIPOS>BOND
    1    1    2 1     
    2    1   28 1     
    3    1   29 1     
    4    1   30 1     
    5    2    3 1     
    6    2   31 1     
    7    2   32 1     
    8    3    4 2     
    9    3    5 1     
   10    5    6 1     
   11    6    7 1     
   12    6   33 1     
   13    6   34 1     
   14    7   21 1     
   15    7    8 1     
   16    7   35 1     
   17    8    9 1     
   18    9   10 1     
   19    9   19 1     
   20    9   36 1     
   21   10   17 1     
   22   10   11 1     
   23   11   12 2     
   24   11   37 1     
   25   12   13 1     
   26   12   14 1     
   27   14   15 2     
   28   14   16 1     
   29   16   27 1     
   30   16   17 1     
   31   17   18 2     
   32   19   20 1     
   33   19   21 1     
   34   19   38 1     
   35   21   22 1     
   36   21   39 1     
   37   22   23 1     
   38   23   24 2     
   39   23   25 1     
   40   25   26 1     
   41   25   40 1     
   42   25   41 1     
   43   26   42 1     
   44   26   43 1     
   45   26   44 1     
   46    4   45 1     
   47    4   46 1     
   48    8   47 1     
   49    8   48 1     
   50   15   49 1     
   51   15   50 1     
   52   18   51 1     
   53   18   52 1     
   54   24   53 1     
   55   24   54 1     
@<TRIPOS>SUBSTRUCTURE
      1 S1             1
@<TRIPOS>SET
LONE_PAIRS      STATIC     ATOMS    <user>   **** ""
10 45 46 47 48 49 50 51 52 53 54
DONOR_HYDROGENS      STATIC     ATOMS    <user>   **** ""
1 27
ATOM$BLUE        STATIC     ATOMS    COLORGROUP SYSTEM
10 45 46 47 48 49 50 51 52 53 54
ATOM$RED        STATIC     ATOMS    COLORGROUP SYSTEM
1 27
