AV-unprocessed.smi:2148|AV-procd|sdf|8748|dock9
  -GOLD-   2272011523D 1   1.00000     0.00000
 Structure written by MMmdl.
 44 45  0  0  0  0  0  0  0  0  1 V2000
  147.8798  132.9617  152.0941 C   0  0  0  0  0  0  0  0  0  0  0  0
  148.0771  133.9675  153.5904 S   0  0  0  0  0  0  0  0  0  0  0  0
  149.8718  133.8476  153.8567 C   0  0  2  0  0  0  0  0  0  0  0  0
  150.2584  132.4058  154.2229 C   0  0  0  0  0  0  0  0  0  0  0  0
  150.3616  134.8450  154.9150 C   0  0  0  0  0  0  0  0  0  0  0  0
  150.7836  134.4332  155.9956 O   0  0  0  0  0  0  0  0  0  0  0  0
  150.2637  136.1456  154.5814 N   0  0  0  0  0  0  0  0  0  0  0  0
  150.6012  137.2848  155.3595 C   0  0  0  0  0  0  0  0  0  0  0  0
  150.8007  138.5082  154.6912 C   0  0  0  0  0  0  0  0  0  0  0  0
  151.1413  139.6520  155.4371 C   0  0  0  0  0  0  0  0  0  0  0  0
  151.2840  139.5427  156.8399 C   0  0  0  0  0  0  0  0  0  0  0  0
  151.6071  140.6823  157.6064 N   0  0  0  0  0  0  0  0  0  0  0  0
  150.4822  141.5611  157.9145 C   0  0  0  0  0  0  0  0  0  0  0  0
  150.9707  142.9124  158.4720 C   0  0  2  0  0  0  0  0  0  0  0  0
  151.5519  143.8444  157.3936 C   0  0  0  0  0  0  0  0  0  0  0  0
  151.8811  142.7016  159.5534 O   0  0  0  0  0  0  0  0  0  0  0  0
  153.0083  141.8865  159.2352 C   0  0  1  0  0  0  0  0  0  0  0  0
  153.8705  141.7596  160.4951 C   0  0  0  0  0  0  0  0  0  0  0  0
  152.5271  140.5153  158.7281 C   0  0  0  0  0  0  0  0  0  0  0  0
  151.1205  138.3588  157.4796 N   0  0  0  0  0  0  0  0  0  0  0  0
  150.7906  137.2645  156.7614 C   0  0  0  0  0  0  0  0  0  0  0  0
  146.8245  132.8855  151.8329 H   0  0  0  0  0  0  0  0  0  0  0  0
  148.2686  131.9563  152.2558 H   0  0  0  0  0  0  0  0  0  0  0  0
  148.4078  133.4102  151.2528 H   0  0  0  0  0  0  0  0  0  0  0  0
  150.3549  134.0822  152.9069 H   0  0  0  0  0  0  0  0  0  0  0  0
  151.3294  132.3156  154.4074 H   0  0  0  0  0  0  0  0  0  0  0  0
  150.0079  131.7209  153.4124 H   0  0  0  0  0  0  0  0  0  0  0  0
  149.7346  132.0627  155.1160 H   0  0  0  0  0  0  0  0  0  0  0  0
  149.8207  136.3411  153.6955 H   0  0  0  0  0  0  0  0  0  0  0  0
  150.6890  138.5751  153.6188 H   0  0  0  0  0  0  0  0  0  0  0  0
  151.2983  140.5923  154.9293 H   0  0  0  0  0  0  0  0  0  0  0  0
  149.8498  141.7351  157.0448 H   0  0  0  0  0  0  0  0  0  0  0  0
  149.8585  141.0642  158.6588 H   0  0  0  0  0  0  0  0  0  0  0  0
  150.1082  143.4254  158.8985 H   0  0  0  0  0  0  0  0  0  0  0  0
  150.7922  144.0962  156.6535 H   0  0  0  0  0  0  0  0  0  0  0  0
  152.3849  143.3898  156.8581 H   0  0  0  0  0  0  0  0  0  0  0  0
  151.9052  144.7770  157.8341 H   0  0  0  0  0  0  0  0  0  0  0  0
  153.6070  142.3720  158.4645 H   0  0  0  0  0  0  0  0  0  0  0  0
  154.7562  141.1527  160.3056 H   0  0  0  0  0  0  0  0  0  0  0  0
  153.3134  141.2957  161.3095 H   0  0  0  0  0  0  0  0  0  0  0  0
  154.2055  142.7393  160.8369 H   0  0  0  0  0  0  0  0  0  0  0  0
  152.0217  139.9727  159.5285 H   0  0  0  0  0  0  0  0  0  0  0  0
  153.3885  139.9197  158.4226 H   0  0  0  0  0  0  0  0  0  0  0  0
  150.6979  136.3569  157.3374 H   0  0  0  0  0  0  0  0  0  0  0  0
  1  2  1  0  0  0  0
  1 22  1  0  0  0  0
  1 23  1  0  0  0  0
  1 24  1  0  0  0  0
  2  3  1  0  0  0  0
  3  4  1  0  0  0  0
  3  5  1  0  0  0  0
  3 25  1  0  0  0  0
  4 26  1  0  0  0  0
  4 27  1  0  0  0  0
  4 28  1  0  0  0  0
  5  6  2  0  0  0  0
  5  7  1  0  0  0  0
  7  8  1  0  0  0  0
  7 29  1  0  0  0  0
  8 21  1  0  0  0  0
  8  9  2  0  0  0  0
  9 10  1  0  0  0  0
  9 30  1  0  0  0  0
 10 11  2  0  0  0  0
 10 31  1  0  0  0  0
 11 12  1  0  0  0  0
 11 20  1  0  0  0  0
 12 19  1  0  0  0  0
 12 13  1  0  0  0  0
 13 14  1  0  0  0  0
 13 32  1  0  0  0  0
 13 33  1  0  0  0  0
 14 15  1  0  0  0  0
 14 16  1  0  0  0  0
 14 34  1  0  0  0  0
 15 35  1  0  0  0  0
 15 36  1  0  0  0  0
 15 37  1  0  0  0  0
 16 17  1  0  0  0  0
 17 18  1  0  0  0  0
 17 19  1  0  0  0  0
 17 38  1  0  0  0  0
 18 39  1  0  0  0  0
 18 40  1  0  0  0  0
 18 41  1  0  0  0  0
 19 42  1  0  0  0  0
 19 43  1  0  0  0  0
 20 21  2  0  0  0  0
 21 44  1  0  0  0  0
M  END
> <s_m_source_file>
AV-unprocessed.smi

> <i_m_source_file_index>
2148

> <i_lp_mmshare_version>
43012

> <i_f3d_flags>
0

> <s_epik_input>
W0NIM11TW0NASF0oW0NIM10pQyg9TylbTkhdYzFbY0hdW2NIXWMobltjSF0xKU4yW0NIMl1bQ0BASF0oW0NIM10pT1tDQEBIXShbQ0gzXSlbQ0gyXTI=

> <s_epik_cmdline>
J2VwaWtfcHl0aG9uJywgJy1waCcsICc3LjAnLCAnLXRuJywgJzgnLCAnLW1hJywgJzIwMCcsICctbWV0YWxfYmluZGluZycsICctaW1hZScsICc8aW5maWxlLm1hZT4nLCAnLW9tYWUnLCAnPG91dGZpbGUubWFlPic=

> <r_lp_tautomer_probability>
1

> <r_epik_Ionization_Penalty>
0.000646494

> <r_epik_Ionization_Penalty_Charging>
0

> <r_epik_Ionization_Penalty_Neutral>
0.000646494

> <r_epik_State_Penalty>
0.000408447

> <r_epik_Charging_Adjusted_Penalty>
0.000408447

> <i_epik_Tot_Q>
0

> <i_epik_Tot_abs_Q>
0

> <r_epik_Metal_State_Penalty>
-0

> <b_epik_Metal_Only>
0

> <s_lp_Force_Field>
OPLS_2005

> <r_lp_Energy>
25.6211

> <b_lp_Chiralities_Consistent>
1

> <s_lp_Variant>
AV-unprocessed.smi:2148-3

> <Gold.Version>
5.8.1

> <Gold.Id.Protein>
6NUR|6NUR_protein|mol2

> <Gold.PLP.Fitness>
37.9655

> <Gold.PLP.PLP>
-36.3925

> <Gold.PLP.part.hbond>
-1.0000

> <Gold.PLP.part.metal>
0.0000

> <Gold.PLP.part.buried>
-4.6618

> <Gold.PLP.part.nonpolar>
-30.8426

> <Gold.PLP.part.repulsive>
0.0565

> <Gold.PLP.ligand.clash>
0.0000

> <Gold.PLP.ligand.torsion>
0.8752

> <Gold.PLP.Chemscore.Hbond>
1.0000

> <Gold.PLP.Chemscore.CHOScore>
0.0000

> <Gold.PLP.Chemscore.Metal>
0.0000

> <Gold.Chemscore.Hbonds>
donor molecule, donor type, donor heavy atom, donor atom, acceptor molecule, acceptor atom, score
      L1  H     7    29       P1  7948  1.00

> <Gold.PLP.Chemscore.Internal.Correction>
0.3234

> <Gold.Rescore>
     Score         DG    S(hbond)    S(metal)    S(lipo)     H(rot)  DE(clash)    DE(int)     intcor
     14.09     -16.14       0.88        0.00      93.66       1.27       0.02       2.03       ----

> <Gold.Chemscore.Fitness>
14.0927

> <Gold.Chemscore.DG>
-16.1411

> <Gold.Chemscore.ZeroCoef>
-5.4800

> <Gold.Chemscore.Hbond>
0.8814

> <Gold.Chemscore.Metal>
0.0000

> <Gold.Chemscore.Lipo>
93.6572

> <Gold.Chemscore.Internal_Hbond>
0.0000

> <Gold.Chemscore.DEClash>
0.0207

> <Gold.Chemscore.DEInternal>
2.0277

> <Gold.Chemscore.Rot>
1.2659

> <Gold.Chemscore.Internal.Correction>
   9.000000E+99

> <Gold.Chemscore.Hbonds>
donor molecule, donor type, donor heavy atom, donor atom, acceptor molecule, acceptor atom, score
      L1  H     7    29       P1  7948  0.29

> <Gold.Chemscore.Hbond.Weighted>
-2.9438

> <Gold.Chemscore.Metal.Weighted>
-0.0000

> <Gold.Chemscore.Lipo.Weighted>
-10.9579

> <Gold.Chemscore.Internal_Hbond.Weighted>
0.0000

> <Gold.Chemscore.DEClash.Weighted>
0.0207

> <Gold.Chemscore.DEInternal.Weighted>
2.0277

> <Gold.Chemscore.Rot.Weighted>
3.2406

> <Gold.Chemscore.Internal.Correction.Weighted>
   9.000000E+99

> <Gold.Protein.RotatedTorsions>
[ 6907 6896 6895 6894 ] final   -8.14 input  -60.11 | X-H torsion
[ 7974 7965 7964 7962 ] final  -36.82 input  175.53 | X-H torsion
[ 8008 7997 7996 7995 ] final -117.58 input   59.86 | X-H torsion
[ 10167 10162 10161 10158 ] final   63.10 input  -65.29 | X-H torsion
[ 10718 10713 10712 10709 ] final  -28.57 input   66.30 | X-H torsion
[ 10763 10752 10751 10750 ] final  120.22 input  -60.55 | X-H torsion
[ 11005 11000 10999 10996 ] final  -94.50 input  -57.11 | X-H torsion

> <Gold.Protein.ActiveResidues>
 VAL166  LYS551  ARG553  GLY616  TRP617  ASP618  TYR619  PRO620  LYS621  CYS622 
 ASP623  PHE694  ASN695  SER759  ASP760  ASP761  ALA762  ILE779  LEU786  VAL792 
 PHE793  MET794  SER795  GLU796  ALA797  LYS798  CYS799  TRP800  GLU811  SER814 

> <Gold.Protein.RotatedAtoms>
  151.4384  135.1017  159.9662 H   0  0  0  0  0  0  0  0  0  0  0  0  # atno 6907 bound_to 6896
  152.4931  133.8552  159.7232 H   0  0  0  0  0  0  0  0  0  0  0  0  # atno 6908 bound_to 6896
  150.9105  133.6944  159.2883 H   0  0  0  0  0  0  0  0  0  0  0  0  # atno 6909 bound_to 6896
  146.0629  140.6323  142.8989 H   0  0  0  0  0  0  0  0  0  0  0  0  # atno 7974 bound_to 7965
  155.0860  140.0394  157.2654 H   0  0  0  0  0  0  0  0  0  0  0  0  # atno 8008 bound_to 7997
  154.6869  140.2645  155.6827 H   0  0  0  0  0  0  0  0  0  0  0  0  # atno 8009 bound_to 7997
  156.2715  140.2767  156.1433 H   0  0  0  0  0  0  0  0  0  0  0  0  # atno 8010 bound_to 7997
  140.1368  144.4591  150.6834 H   0  0  0  0  0  0  0  0  0  0  0  0  # atno 10167 bound_to 10162
  156.4235  130.4431  149.7167 H   0  0  0  0  0  0  0  0  0  0  0  0  # atno 10718 bound_to 10713
  153.5952  135.3458  155.2925 H   0  0  0  0  0  0  0  0  0  0  0  0  # atno 10763 bound_to 10752
  154.8646  135.4214  154.2473 H   0  0  0  0  0  0  0  0  0  0  0  0  # atno 10764 bound_to 10752
  153.3289  135.7043  153.7036 H   0  0  0  0  0  0  0  0  0  0  0  0  # atno 10765 bound_to 10752
  141.1469  133.7960  157.0306 H   0  0  0  0  0  0  0  0  0  0  0  0  # atno 11005 bound_to 11000
  144.7185  140.4293  143.7026 LP  0  0  0  0  0  0  0  0  0  0  0  0  # atno 17320 bound_to 7965
  145.6529  139.1568  143.2852 LP  0  0  0  0  0  0  0  0  0  0  0  0  # atno 17321 bound_to 7965
  140.6784  143.2315  151.5447 LP  0  0  0  0  0  0  0  0  0  0  0  0  # atno 17342 bound_to 10162
  139.5492  144.2440  152.1499 LP  0  0  0  0  0  0  0  0  0  0  0  0  # atno 17343 bound_to 10162
  156.4098  130.7716  151.2729 LP  0  0  0  0  0  0  0  0  0  0  0  0  # atno 17370 bound_to 10713
  157.7508  131.0215  150.3751 LP  0  0  0  0  0  0  0  0  0  0  0  0  # atno 17371 bound_to 10713
  140.0756  134.9677  157.1540 LP  0  0  0  0  0  0  0  0  0  0  0  0  # atno 17394 bound_to 11000
  140.3648  134.2454  155.7183 LP  0  0  0  0  0  0  0  0  0  0  0  0  # atno 17395 bound_to 11000

$$$$
