AV-unprocessed.smi:1207|AV-procd|sdf|5049|dock1
  -GOLD-   22720 4 73D 1   1.00000     0.00000
 Structure written by MMmdl.
 51 53  0  0  0  0  0  0  0  0  1 V2000
  151.7075  144.8493  159.5029 C   0  0  0  0  0  0  0  0  0  0  0  0
  151.8038  143.3591  159.2270 C   0  0  0  0  0  0  0  0  0  0  0  0
  151.5184  142.8807  157.9285 C   0  0  0  0  0  0  0  0  0  0  0  0
  151.5959  141.5024  157.6308 C   0  0  0  0  0  0  0  0  0  0  0  0
  151.3603  140.8245  156.4469 N   0  0  0  0  0  0  0  0  0  0  0  0
  151.5980  139.5667  156.8072 C   0  0  0  0  0  0  0  0  0  0  0  0
  151.9609  139.3488  158.0856 N   0  0  0  0  0  0  0  0  0  0  0  0
  152.2686  138.0684  158.6982 C   0  0  0  0  0  0  0  0  0  0  0  0
  153.4491  137.3543  158.0133 C   0  0  2  0  0  0  0  0  0  0  0  0
  153.0081  136.7878  156.7948 O   0  0  0  0  0  0  0  0  0  0  0  0
  154.0167  136.2242  158.8972 C   0  0  0  0  0  0  0  0  0  0  0  0
  154.5622  136.6448  160.1904 N   0  0  0  0  0  0  0  0  0  0  0  0
  155.4898  135.6344  160.6923 C   0  0  0  0  0  0  0  0  0  0  0  0
  153.5151  136.9269  161.1775 C   0  0  0  0  0  0  0  0  0  0  0  0
  154.0534  137.5454  162.4429 C   0  0  0  0  0  0  0  0  0  0  0  0
  154.0251  137.0120  163.7629 C   0  0  0  0  0  0  0  0  0  0  0  0
  153.4602  135.7005  164.2266 C   0  0  0  0  0  0  0  0  0  0  0  0
  154.5866  137.8294  164.6384 N   0  0  0  0  0  0  0  0  0  0  0  0
  155.0069  138.9445  163.9068 O   0  0  0  0  0  0  0  0  0  0  0  0
  154.6764  138.7525  162.6044 C   0  0  0  0  0  0  0  0  0  0  0  0
  155.0419  139.8387  161.6499 C   0  0  0  0  0  0  0  0  0  0  0  0
  151.9724  140.6085  158.6756 C   0  0  0  0  0  0  0  0  0  0  0  0
  152.2578  141.0725  159.9718 C   0  0  0  0  0  0  0  0  0  0  0  0
  152.1730  142.4523  160.2529 C   0  0  0  0  0  0  0  0  0  0  0  0
  152.4796  142.9421  161.6570 C   0  0  0  0  0  0  0  0  0  0  0  0
  151.4393  145.4044  158.6037 H   0  0  0  0  0  0  0  0  0  0  0  0
  152.6624  145.2348  159.8606 H   0  0  0  0  0  0  0  0  0  0  0  0
  150.9476  145.0489  160.2587 H   0  0  0  0  0  0  0  0  0  0  0  0
  151.2356  143.5708  157.1473 H   0  0  0  0  0  0  0  0  0  0  0  0
  151.5023  138.7546  156.1012 H   0  0  0  0  0  0  0  0  0  0  0  0
  152.4966  138.2432  159.7504 H   0  0  0  0  0  0  0  0  0  0  0  0
  151.3742  137.4441  158.6744 H   0  0  0  0  0  0  0  0  0  0  0  0
  154.2118  138.0981  157.7887 H   0  0  0  0  0  0  0  0  0  0  0  0
  152.1818  137.1850  156.5652 H   0  0  0  0  0  0  0  0  0  0  0  0
  153.2430  135.4734  159.0649 H   0  0  0  0  0  0  0  0  0  0  0  0
  154.7959  135.7190  158.3240 H   0  0  0  0  0  0  0  0  0  0  0  0
  155.9646  135.9561  161.6192 H   0  0  0  0  0  0  0  0  0  0  0  0
  156.2868  135.4484  159.9718 H   0  0  0  0  0  0  0  0  0  0  0  0
  154.9781  134.6901  160.8822 H   0  0  0  0  0  0  0  0  0  0  0  0
  152.7777  137.6067  160.7564 H   0  0  0  0  0  0  0  0  0  0  0  0
  152.9654  136.0100  161.3941 H   0  0  0  0  0  0  0  0  0  0  0  0
  152.3726  135.6989  164.1557 H   0  0  0  0  0  0  0  0  0  0  0  0
  153.7260  135.4886  165.2627 H   0  0  0  0  0  0  0  0  0  0  0  0
  153.8339  134.8785  163.6161 H   0  0  0  0  0  0  0  0  0  0  0  0
  154.2163  140.0490  160.9697 H   0  0  0  0  0  0  0  0  0  0  0  0
  155.9054  139.5486  161.0511 H   0  0  0  0  0  0  0  0  0  0  0  0
  155.2887  140.7607  162.1769 H   0  0  0  0  0  0  0  0  0  0  0  0
  152.5353  140.3700  160.7439 H   0  0  0  0  0  0  0  0  0  0  0  0
  152.7179  142.1131  162.3239 H   0  0  0  0  0  0  0  0  0  0  0  0
  151.6218  143.4698  162.0739 H   0  0  0  0  0  0  0  0  0  0  0  0
  153.3331  143.6202  161.6466 H   0  0  0  0  0  0  0  0  0  0  0  0
  1  2  1  0  0  0  0
  1 26  1  0  0  0  0
  1 27  1  0  0  0  0
  1 28  1  0  0  0  0
  2 24  1  0  0  0  0
  2  3  2  0  0  0  0
  3  4  1  0  0  0  0
  3 29  1  0  0  0  0
  4 22  2  0  0  0  0
  4  5  1  0  0  0  0
  5  6  2  0  0  0  0
  6  7  1  0  0  0  0
  6 30  1  0  0  0  0
  7  8  1  0  0  0  0
  7 22  1  0  0  0  0
  8  9  1  0  0  0  0
  8 31  1  0  0  0  0
  8 32  1  0  0  0  0
  9 10  1  0  0  0  0
  9 11  1  0  0  0  0
  9 33  1  0  0  0  0
 10 34  1  0  0  0  0
 11 12  1  0  0  0  0
 11 35  1  0  0  0  0
 11 36  1  0  0  0  0
 12 13  1  0  0  0  0
 12 14  1  0  0  0  0
 13 37  1  0  0  0  0
 13 38  1  0  0  0  0
 13 39  1  0  0  0  0
 14 15  1  0  0  0  0
 14 40  1  0  0  0  0
 14 41  1  0  0  0  0
 15 20  2  0  0  0  0
 15 16  1  0  0  0  0
 16 17  1  0  0  0  0
 16 18  2  0  0  0  0
 17 42  1  0  0  0  0
 17 43  1  0  0  0  0
 17 44  1  0  0  0  0
 18 19  1  0  0  0  0
 19 20  1  0  0  0  0
 20 21  1  0  0  0  0
 21 45  1  0  0  0  0
 21 46  1  0  0  0  0
 21 47  1  0  0  0  0
 22 23  1  0  0  0  0
 23 24  2  0  0  0  0
 23 48  1  0  0  0  0
 24 25  1  0  0  0  0
 25 49  1  0  0  0  0
 25 50  1  0  0  0  0
 25 51  1  0  0  0  0
M  END
> <s_m_source_file>
AV-unprocessed.smi

> <i_m_source_file_index>
1207

> <i_lp_mmshare_version>
43012

> <i_f3d_flags>
0

> <s_epik_input>
W0NIM11jKFtjSF0xKWMoW0NIM10pW2NIXWMoYzEyKW4oW2NIXW4yKVtDSDJdW0NASF0oW09IXSlbQ0gyXU4oW0NIM10pW0NIMl1jM2MoW0NIM10pbm9jM1tDSDNd

> <s_epik_cmdline>
J2VwaWtfcHl0aG9uJywgJy1waCcsICc3LjAnLCAnLXRuJywgJzgnLCAnLW1hJywgJzIwMCcsICctbWV0YWxfYmluZGluZycsICctaW1hZScsICc8aW5maWxlLm1hZT4nLCAnLW9tYWUnLCAnPG91dGZpbGUubWFlPic=

> <r_epik_Ionization_Penalty>
0.374039

> <r_epik_Ionization_Penalty_Charging>
0

> <r_epik_Ionization_Penalty_Neutral>
0.374039

> <r_epik_State_Penalty>
0.350767

> <r_epik_Charging_Adjusted_Penalty>
0.350767

> <i_epik_Tot_Q>
0

> <i_epik_Tot_abs_Q>
0

> <r_epik_Metal_State_Penalty>
0.343187

> <b_epik_Metal_Only>
0

> <s_lp_Force_Field>
OPLS_2005

> <r_lp_Energy>
17.2157

> <b_lp_Chiralities_Consistent>
1

> <s_lp_Variant>
AV-unprocessed.smi:1207-1

> <Gold.Version>
5.8.1

> <Gold.Id.Protein>
6NUR|6NUR_protein|mol2

> <Gold.PLP.Fitness>
49.5824

> <Gold.PLP.PLP>
-46.9250

> <Gold.PLP.part.hbond>
-1.0000

> <Gold.PLP.part.metal>
0.0000

> <Gold.PLP.part.buried>
-6.7880

> <Gold.PLP.part.nonpolar>
-38.7897

> <Gold.PLP.part.repulsive>
0.0584

> <Gold.PLP.ligand.clash>
0.0000

> <Gold.PLP.ligand.torsion>
0.3396

> <Gold.PLP.Chemscore.Hbond>
1.0000

> <Gold.PLP.Chemscore.CHOScore>
0.0000

> <Gold.PLP.Chemscore.Metal>
0.0000

> <Gold.Chemscore.Hbonds>
donor molecule, donor type, donor heavy atom, donor atom, acceptor molecule, acceptor atom, score
      P1  H 10752 10765       L1    10  0.85

> <Gold.PLP.Chemscore.Internal.Correction>
0.3366

> <Gold.Rescore>
     Score         DG    S(hbond)    S(metal)    S(lipo)     H(rot)  DE(clash)    DE(int)     intcor
     16.82     -18.59       0.93        0.00     137.35       2.38       0.02       1.75       ----

> <Gold.Chemscore.Fitness>
16.8170

> <Gold.Chemscore.DG>
-18.5895

> <Gold.Chemscore.ZeroCoef>
-5.4800

> <Gold.Chemscore.Hbond>
0.9344

> <Gold.Chemscore.Metal>
0.0000

> <Gold.Chemscore.Lipo>
137.3508

> <Gold.Chemscore.Internal_Hbond>
0.0000

> <Gold.Chemscore.DEClash>
0.0211

> <Gold.Chemscore.DEInternal>
1.7513

> <Gold.Chemscore.Rot>
2.3756

> <Gold.Chemscore.Internal.Correction>
   9.000000E+99

> <Gold.Chemscore.Hbonds>
donor molecule, donor type, donor heavy atom, donor atom, acceptor molecule, acceptor atom, score
      P1  H 10752 10765       L1    10  0.55

> <Gold.Chemscore.Hbond.Weighted>
-3.1210

> <Gold.Chemscore.Metal.Weighted>
-0.0000

> <Gold.Chemscore.Lipo.Weighted>
-16.0700

> <Gold.Chemscore.Internal_Hbond.Weighted>
0.0000

> <Gold.Chemscore.DEClash.Weighted>
0.0211

> <Gold.Chemscore.DEInternal.Weighted>
1.7513

> <Gold.Chemscore.Rot.Weighted>
6.0816

> <Gold.Chemscore.Internal.Correction.Weighted>
   9.000000E+99

> <Gold.Protein.RotatedTorsions>
[ 6907 6896 6895 6894 ] final   69.27 input  -60.11 | X-H torsion
[ 7974 7965 7964 7962 ] final  -14.09 input  175.53 | X-H torsion
[ 8008 7997 7996 7995 ] final  117.48 input   59.86 | X-H torsion
[ 10167 10162 10161 10158 ] final  112.45 input  -65.29 | X-H torsion
[ 10718 10713 10712 10709 ] final  128.94 input   66.30 | X-H torsion
[ 10763 10752 10751 10750 ] final -122.75 input  -60.55 | X-H torsion
[ 11005 11000 10999 10996 ] final -107.39 input  -57.11 | X-H torsion

> <Gold.Protein.ActiveResidues>
 VAL166  LYS551  ARG553  GLY616  TRP617  ASP618  TYR619  PRO620  LYS621  CYS622 
 ASP623  PHE694  ASN695  SER759  ASP760  ASP761  ALA762  ILE779  LEU786  VAL792 
 PHE793  MET794  SER795  GLU796  ALA797  LYS798  CYS799  TRP800  GLU811  SER814 

> <Gold.Protein.RotatedAtoms>
  152.4675  134.5041  159.9733 H   0  0  0  0  0  0  0  0  0  0  0  0  # atno 6907 bound_to 6896
  151.5075  133.3486  159.2887 H   0  0  0  0  0  0  0  0  0  0  0  0  # atno 6908 bound_to 6896
  150.8667  134.8060  159.7186 H   0  0  0  0  0  0  0  0  0  0  0  0  # atno 6909 bound_to 6896
  146.2088  140.3298  142.8398 H   0  0  0  0  0  0  0  0  0  0  0  0  # atno 7974 bound_to 7965
  156.2496  140.2895  156.0685 H   0  0  0  0  0  0  0  0  0  0  0  0  # atno 8008 bound_to 7997
  155.1697  140.0401  157.2877 H   0  0  0  0  0  0  0  0  0  0  0  0  # atno 8009 bound_to 7997
  154.6335  140.2505  155.7413 H   0  0  0  0  0  0  0  0  0  0  0  0  # atno 8010 bound_to 7997
  139.6534  144.7129  151.2003 H   0  0  0  0  0  0  0  0  0  0  0  0  # atno 10167 bound_to 10162
  157.5199  131.1098  150.9169 H   0  0  0  0  0  0  0  0  0  0  0  0  # atno 10718 bound_to 10713
  154.8695  135.4122  154.2832 H   0  0  0  0  0  0  0  0  0  0  0  0  # atno 10763 bound_to 10752
  153.3721  135.7008  153.6635 H   0  0  0  0  0  0  0  0  0  0  0  0  # atno 10764 bound_to 10752
  153.5493  135.3632  155.2724 H   0  0  0  0  0  0  0  0  0  0  0  0  # atno 10765 bound_to 10752
  141.0956  133.8976  157.1970 H   0  0  0  0  0  0  0  0  0  0  0  0  # atno 11005 bound_to 11000
  144.8860  140.7462  143.5956 LP  0  0  0  0  0  0  0  0  0  0  0  0  # atno 17320 bound_to 7965
  145.3220  139.1785  143.4583 LP  0  0  0  0  0  0  0  0  0  0  0  0  # atno 17321 bound_to 7965
  140.7548  143.6112  150.8604 LP  0  0  0  0  0  0  0  0  0  0  0  0  # atno 17342 bound_to 10162
  139.9762  143.6002  152.2958 LP  0  0  0  0  0  0  0  0  0  0  0  0  # atno 17343 bound_to 10162
  156.9783  130.5517  149.5294 LP  0  0  0  0  0  0  0  0  0  0  0  0  # atno 17370 bound_to 10713
  156.0346  130.5435  150.8621 LP  0  0  0  0  0  0  0  0  0  0  0  0  # atno 17371 bound_to 10713
  139.9793  135.0104  156.9709 LP  0  0  0  0  0  0  0  0  0  0  0  0  # atno 17394 bound_to 11000
  140.5147  134.0967  155.7278 LP  0  0  0  0  0  0  0  0  0  0  0  0  # atno 17395 bound_to 11000

$$$$
