AV-unprocessed.smi:2973|AV-procd|sdf|11347|dock2
  -GOLD-   2272016263D 1   1.00000     0.00000
 Structure written by MMmdl.
 48 50  0  0  0  0  0  0  0  0  2 V2000
  150.4322  142.0683  158.1699 C   0  0  0  0  0  0  0  0  0  0  0  0
  151.5087  141.2996  158.9682 C   0  0  2  0  0  0  0  0  0  0  0  0
  152.6878  142.2263  159.3358 C   0  0  0  0  0  0  0  0  0  0  0  0
  153.7165  141.5156  160.2279 C   0  0  0  0  0  0  0  0  0  0  0  0
  154.2372  140.2363  159.5606 C   0  0  0  0  0  0  0  0  0  0  0  0
  153.0812  139.2904  159.1906 C   0  0  0  0  0  0  0  0  0  0  0  0
  152.0082  139.9745  158.3036 C   0  0  2  0  0  0  0  0  0  0  0  0
  152.5341  140.2027  156.9667 N   0  5  0  0  0  0  0  0  0  0  0  0
  151.8152  139.4764  156.0802 C   0  0  0  0  0  0  0  0  0  0  0  0
  151.9752  139.4355  154.8611 O   0  0  0  0  0  0  0  0  0  0  0  0
  150.8446  138.7790  156.7012 N   0  0  0  0  0  0  0  0  0  0  0  0
  149.8566  137.9195  156.0299 C   0  0  0  0  0  0  0  0  0  0  0  0
  150.4273  136.6260  155.4218 C   0  0  0  0  0  0  0  0  0  0  0  0
  151.6483  136.4862  155.3557 O   0  0  0  0  0  0  0  0  0  0  0  0
  149.5659  135.6937  154.9798 N   0  0  0  0  0  0  0  0  0  0  0  0
  149.9347  134.4314  154.3519 C   0  0  0  0  0  0  0  0  0  0  0  0
  148.8258  133.3780  154.5136 C   0  0  0  0  0  0  0  0  0  0  0  0
  147.7912  133.4547  153.4070 C   0  0  0  0  0  0  0  0  0  0  0  0
  146.8466  134.5030  153.3766 C   0  0  0  0  0  0  0  0  0  0  0  0
  145.9092  134.5315  152.3258 C   0  0  0  0  0  0  0  0  0  0  0  0
  145.9524  133.5162  151.3509 C   0  0  0  0  0  0  0  0  0  0  0  0
  146.9365  132.5144  151.4697 C   0  0  0  0  0  0  0  0  0  0  0  0
  147.8408  132.4791  152.4719 N   0  0  0  0  0  0  0  0  0  0  0  0
  150.8708  139.0042  158.0195 C   0  0  0  0  0  0  0  0  0  0  0  0
  150.1165  138.5395  158.8754 O   0  0  0  0  0  0  0  0  0  0  0  0
  150.8066  142.3938  157.1991 H   0  0  0  0  0  0  0  0  0  0  0  0
  150.1104  142.9586  158.7102 H   0  0  0  0  0  0  0  0  0  0  0  0
  149.5422  141.4630  157.9989 H   0  0  0  0  0  0  0  0  0  0  0  0
  151.0370  141.0209  159.9122 H   0  0  0  0  0  0  0  0  0  0  0  0
  153.1766  142.5836  158.4285 H   0  0  0  0  0  0  0  0  0  0  0  0
  152.3178  143.1128  159.8521 H   0  0  0  0  0  0  0  0  0  0  0  0
  154.5482  142.1869  160.4424 H   0  0  0  0  0  0  0  0  0  0  0  0
  153.2619  141.2691  161.1882 H   0  0  0  0  0  0  0  0  0  0  0  0
  154.8046  140.4952  158.6659 H   0  0  0  0  0  0  0  0  0  0  0  0
  154.9333  139.7270  160.2272 H   0  0  0  0  0  0  0  0  0  0  0  0
  153.4811  138.4026  158.6975 H   0  0  0  0  0  0  0  0  0  0  0  0
  152.6189  138.9358  160.1133 H   0  0  0  0  0  0  0  0  0  0  0  0
  149.0697  137.6477  156.7352 H   0  0  0  0  0  0  0  0  0  0  0  0
  149.3549  138.4771  155.2375 H   0  0  0  0  0  0  0  0  0  0  0  0
  148.5783  135.8879  155.0681 H   0  0  0  0  0  0  0  0  0  0  0  0
  150.1630  134.5902  153.2967 H   0  0  0  0  0  0  0  0  0  0  0  0
  150.8544  134.0798  154.8206 H   0  0  0  0  0  0  0  0  0  0  0  0
  149.2604  132.3773  154.5233 H   0  0  0  0  0  0  0  0  0  0  0  0
  148.3249  133.5015  155.4748 H   0  0  0  0  0  0  0  0  0  0  0  0
  146.8402  135.2683  154.1390 H   0  0  0  0  0  0  0  0  0  0  0  0
  145.1708  135.3176  152.2694 H   0  0  0  0  0  0  0  0  0  0  0  0
  145.2485  133.5054  150.5319 H   0  0  0  0  0  0  0  0  0  0  0  0
  146.9985  131.7202  150.7404 H   0  0  0  0  0  0  0  0  0  0  0  0
  1  2  1  0  0  0  0
  1 26  1  0  0  0  0
  1 27  1  0  0  0  0
  1 28  1  0  0  0  0
  2  7  1  0  0  0  0
  2  3  1  0  0  0  0
  2 29  1  0  0  0  0
  3  4  1  0  0  0  0
  3 30  1  0  0  0  0
  3 31  1  0  0  0  0
  4  5  1  0  0  0  0
  4 32  1  0  0  0  0
  4 33  1  0  0  0  0
  5  6  1  0  0  0  0
  5 34  1  0  0  0  0
  5 35  1  0  0  0  0
  6  7  1  0  0  0  0
  6 36  1  0  0  0  0
  6 37  1  0  0  0  0
  7 24  1  0  0  0  0
  7  8  1  0  0  0  0
  8  9  1  0  0  0  0
  9 10  2  0  0  0  0
  9 11  1  0  0  0  0
 11 12  1  0  0  0  0
 11 24  1  0  0  0  0
 12 13  1  0  0  0  0
 12 38  1  0  0  0  0
 12 39  1  0  0  0  0
 13 14  2  0  0  0  0
 13 15  1  0  0  0  0
 15 16  1  0  0  0  0
 15 40  1  0  0  0  0
 16 17  1  0  0  0  0
 16 41  1  0  0  0  0
 16 42  1  0  0  0  0
 17 18  1  0  0  0  0
 17 43  1  0  0  0  0
 17 44  1  0  0  0  0
 18 23  1  0  0  0  0
 18 19  2  0  0  0  0
 19 20  1  0  0  0  0
 19 45  1  0  0  0  0
 20 21  2  0  0  0  0
 20 46  1  0  0  0  0
 21 22  1  0  0  0  0
 21 47  1  0  0  0  0
 22 23  2  0  0  0  0
 22 48  1  0  0  0  0
 24 25  2  0  0  0  0
M  CHG  1   8  -1
M  END
> <s_m_source_file>
AV-unprocessed.smi

> <i_m_source_file_index>
2973

> <i_lp_mmshare_version>
43012

> <i_f3d_flags>
0

> <s_epik_input>
W0NIMl0xW0NIMl1bQ0gyXVtDSDJdW0NAQEhdKFtDSDNdKVtDQF0xMltOSF1DKD1PKU4oQzI9TylbQ0gyXUMoPU8pW05IXVtDSDJdW0NIMl1jM1tjSF1bY0hdW2NIXVtjSF1uMw==

> <s_epik_cmdline>
J2VwaWtfcHl0aG9uJywgJy1waCcsICc3LjAnLCAnLXRuJywgJzgnLCAnLW1hJywgJzIwMCcsICctbWV0YWxfYmluZGluZycsICctaW1hZScsICc8aW5maWxlLm1hZT4nLCAnLW9tYWUnLCAnPG91dGZpbGUubWFlPic=

> <r_lp_tautomer_probability>
1

> <r_epik_Ionization_Penalty>
6.04175

> <r_epik_Ionization_Penalty_Charging>
6.01728

> <r_epik_Ionization_Penalty_Neutral>
0.0244696

> <r_epik_State_Penalty>
6.03712

> <r_epik_Charging_Adjusted_Penalty>
12.0544

> <i_epik_Tot_Q>
-1

> <i_epik_Tot_abs_Q>
1

> <r_epik_Metal_State_Penalty>
2.01153

> <b_epik_Metal_Only>
1

> <s_lp_Force_Field>
OPLS_2005

> <r_lp_Energy>
17.3345

> <b_lp_Chiralities_Consistent>
1

> <s_lp_Variant>
AV-unprocessed.smi:2973-11

> <Gold.Version>
5.8.1

> <Gold.Id.Protein>
6NUR|6NUR_protein|mol2

> <Gold.PLP.Fitness>
50.3959

> <Gold.PLP.PLP>
-37.4926

> <Gold.PLP.part.hbond>
-3.9853

> <Gold.PLP.part.metal>
0.0000

> <Gold.PLP.part.buried>
-2.6479

> <Gold.PLP.part.nonpolar>
-30.1772

> <Gold.PLP.part.repulsive>
0.3056

> <Gold.PLP.ligand.clash>
0.0000

> <Gold.PLP.ligand.torsion>
0.6727

> <Gold.PLP.Chemscore.Hbond>
3.9760

> <Gold.PLP.Chemscore.CHOScore>
0.7591

> <Gold.PLP.Chemscore.Metal>
0.0000

> <Gold.Chemscore.Hbonds>
donor molecule, donor type, donor heavy atom, donor atom, acceptor molecule, acceptor atom, score
      P1  H  7989  7998       L1    10  0.94
      P1  H  7997  8008       L1     8  2.00
      P1  H 10752 10765       L1    14  1.00
      L1  C    22    48       P1 10747  0.78

> <Gold.PLP.Chemscore.Internal.Correction>
0.0436

> <Gold.Rescore>
     Score         DG    S(hbond)    S(metal)    S(lipo)     H(rot)  DE(clash)    DE(int)     intcor
     19.55     -20.50       2.78        0.00      88.66       1.81       0.19       0.75       ----

> <Gold.Chemscore.Fitness>
19.5507

> <Gold.Chemscore.DG>
-20.4983

> <Gold.Chemscore.ZeroCoef>
-5.4800

> <Gold.Chemscore.Hbond>
2.7772

> <Gold.Chemscore.Metal>
0.0000

> <Gold.Chemscore.Lipo>
88.6627

> <Gold.Chemscore.Internal_Hbond>
0.0000

> <Gold.Chemscore.DEClash>
0.1930

> <Gold.Chemscore.DEInternal>
0.7546

> <Gold.Chemscore.Rot>
1.8090

> <Gold.Chemscore.Internal.Correction>
   9.000000E+99

> <Gold.Chemscore.Hbonds>
donor molecule, donor type, donor heavy atom, donor atom, acceptor molecule, acceptor atom, score
      P1  H  7989  7998       L1    10  0.88
      P1  H  7997  8008       L1     8  0.80
      P1  H 10752 10765       L1    14  1.00

> <Gold.Chemscore.Hbond.Weighted>
-9.2757

> <Gold.Chemscore.Metal.Weighted>
-0.0000

> <Gold.Chemscore.Lipo.Weighted>
-10.3735

> <Gold.Chemscore.Internal_Hbond.Weighted>
0.0000

> <Gold.Chemscore.DEClash.Weighted>
0.1930

> <Gold.Chemscore.DEInternal.Weighted>
0.7546

> <Gold.Chemscore.Rot.Weighted>
4.6310

> <Gold.Chemscore.Internal.Correction.Weighted>
   9.000000E+99

> <Gold.Protein.RotatedTorsions>
[ 6907 6896 6895 6894 ] final   78.37 input  -60.11 | X-H torsion
[ 7974 7965 7964 7962 ] final   48.90 input  175.53 | X-H torsion
[ 8008 7997 7996 7995 ] final  -61.65 input   59.86 | X-H torsion
[ 10167 10162 10161 10158 ] final -140.65 input  -65.29 | X-H torsion
[ 10718 10713 10712 10709 ] final   38.28 input   66.30 | X-H torsion
[ 10763 10752 10751 10750 ] final  177.50 input  -60.55 | X-H torsion
[ 11005 11000 10999 10996 ] final -154.29 input  -57.11 | X-H torsion

> <Gold.Protein.ActiveResidues>
 VAL166  LYS551  ARG553  GLY616  TRP617  ASP618  TYR619  PRO620  LYS621  CYS622 
 ASP623  PHE694  ASN695  SER759  ASP760  ASP761  ALA762  ILE779  LEU786  VAL792 
 PHE793  MET794  SER795  GLU796  ALA797  LYS798  CYS799  TRP800  GLU811  SER814 

> <Gold.Protein.RotatedAtoms>
  152.5156  134.3674  159.9306 H   0  0  0  0  0  0  0  0  0  0  0  0  # atno 6907 bound_to 6896
  151.3628  133.3877  159.2699 H   0  0  0  0  0  0  0  0  0  0  0  0  # atno 6908 bound_to 6896
  150.9638  134.9041  159.7805 H   0  0  0  0  0  0  0  0  0  0  0  0  # atno 6909 bound_to 6896
  146.0160  139.4597  142.9926 H   0  0  0  0  0  0  0  0  0  0  0  0  # atno 7974 bound_to 7965
  154.4458  140.1013  156.6463 H   0  0  0  0  0  0  0  0  0  0  0  0  # atno 8008 bound_to 7997
  155.5446  140.3484  155.4436 H   0  0  0  0  0  0  0  0  0  0  0  0  # atno 8009 bound_to 7997
  156.0572  140.1318  156.9971 H   0  0  0  0  0  0  0  0  0  0  0  0  # atno 8010 bound_to 7997
  139.8261  143.7509  152.2666 H   0  0  0  0  0  0  0  0  0  0  0  0  # atno 10167 bound_to 10162
  157.3569  130.7628  149.7019 H   0  0  0  0  0  0  0  0  0  0  0  0  # atno 10718 bound_to 10713
  154.4953  135.2781  155.1464 H   0  0  0  0  0  0  0  0  0  0  0  0  # atno 10763 bound_to 10752
  154.3119  135.6227  153.5473 H   0  0  0  0  0  0  0  0  0  0  0  0  # atno 10764 bound_to 10752
  152.9894  135.5722  154.5383 H   0  0  0  0  0  0  0  0  0  0  0  0  # atno 10765 bound_to 10752
  140.6990  134.3959  157.5212 H   0  0  0  0  0  0  0  0  0  0  0  0  # atno 11005 bound_to 11000
  145.7268  141.0056  143.1373 LP  0  0  0  0  0  0  0  0  0  0  0  0  # atno 17320 bound_to 7965
  144.6971  139.8936  143.7454 LP  0  0  0  0  0  0  0  0  0  0  0  0  # atno 17321 bound_to 7965
  139.7702  144.7479  151.0236 LP  0  0  0  0  0  0  0  0  0  0  0  0  # atno 17342 bound_to 10162
  140.7810  143.4654  151.0220 LP  0  0  0  0  0  0  0  0  0  0  0  0  # atno 17343 bound_to 10162
  155.9731  130.4125  150.4033 LP  0  0  0  0  0  0  0  0  0  0  0  0  # atno 17370 bound_to 10713
  157.2105  131.0459  151.2602 LP  0  0  0  0  0  0  0  0  0  0  0  0  # atno 17371 bound_to 10713
  139.8902  134.8810  156.2381 LP  0  0  0  0  0  0  0  0  0  0  0  0  # atno 17394 bound_to 11000
  141.0180  133.7058  156.1220 LP  0  0  0  0  0  0  0  0  0  0  0  0  # atno 17395 bound_to 11000

$$$$
