AV-unprocessed.smi:418|AV-procd|sdf|2528|dock1
  -GOLD-   2262022483D 1   1.00000     0.00000
 Structure written by MMmdl.
 40 42  0  0  0  0  0  0  0  0  1 V2000
  149.1076  135.7749  155.0948 C   0  0  0  0  0  0  0  0  0  0  0  0
  149.6385  137.1314  155.0349 N   0  0  0  0  0  0  0  0  0  0  0  0
  150.9000  137.5277  155.3245 C   0  0  0  0  0  0  0  0  0  0  0  0
  151.8218  136.8007  155.6942 O   0  0  0  0  0  0  0  0  0  0  0  0
  150.9701  138.8681  155.1427 N   0  0  0  0  0  0  0  0  0  0  0  0
  152.1465  139.7119  155.3436 C   0  0  0  0  0  0  0  0  0  0  0  0
  152.4415  139.9326  156.8412 C   0  0  2  0  0  0  0  0  0  0  0  0
  153.0045  138.7490  157.3699 O   0  0  0  0  0  0  0  0  0  0  0  0
  151.1659  140.2293  157.6440 C   0  0  0  0  0  0  0  0  0  0  0  0
  151.5257  140.9175  158.8347 O   0  0  0  0  0  0  0  0  0  0  0  0
  151.6803  142.2862  158.7802 C   0  0  0  0  0  0  0  0  0  0  0  0
  151.3177  143.0836  157.6647 C   0  0  0  0  0  0  0  0  0  0  0  0
  151.5149  144.4782  157.6905 C   0  0  0  0  0  0  0  0  0  0  0  0
  152.0729  145.0923  158.8267 C   0  0  0  0  0  0  0  0  0  0  0  0
  152.4325  144.3099  159.9392 C   0  0  0  0  0  0  0  0  0  0  0  0
  152.2360  142.9154  159.9147 C   0  0  0  0  0  0  0  0  0  0  0  0
  152.5874  142.1736  160.9924 F   0  0  0  0  0  0  0  0  0  0  0  0
  149.7160  139.3426  154.7324 C   0  0  0  0  0  0  0  0  0  0  0  0
  149.2689  140.6406  154.4285 C   0  0  0  0  0  0  0  0  0  0  0  0
  147.9159  140.7838  154.0410 C   0  0  0  0  0  0  0  0  0  0  0  0
  147.0573  139.6563  153.9662 C   0  0  0  0  0  0  0  0  0  0  0  0
  147.5326  138.3612  154.2797 C   0  0  0  0  0  0  0  0  0  0  0  0
  148.8797  138.2483  154.6632 C   0  0  0  0  0  0  0  0  0  0  0  0
  149.8560  135.0550  155.4285 H   0  0  0  0  0  0  0  0  0  0  0  0
  148.7568  135.4648  154.1102 H   0  0  0  0  0  0  0  0  0  0  0  0
  148.2666  135.7301  155.7871 H   0  0  0  0  0  0  0  0  0  0  0  0
  152.9930  139.2104  154.8718 H   0  0  0  0  0  0  0  0  0  0  0  0
  152.0443  140.6615  154.8168 H   0  0  0  0  0  0  0  0  0  0  0  0
  153.1489  140.7505  156.9849 H   0  0  0  0  0  0  0  0  0  0  0  0
  152.3055  138.2107  157.7086 H   0  0  0  0  0  0  0  0  0  0  0  0
  150.4765  140.8246  157.0425 H   0  0  0  0  0  0  0  0  0  0  0  0
  150.6678  139.2942  157.9067 H   0  0  0  0  0  0  0  0  0  0  0  0
  150.8854  142.6498  156.7762 H   0  0  0  0  0  0  0  0  0  0  0  0
  151.2373  145.0771  156.8357 H   0  0  0  0  0  0  0  0  0  0  0  0
  152.2244  146.1615  158.8452 H   0  0  0  0  0  0  0  0  0  0  0  0
  152.8611  144.7788  160.8128 H   0  0  0  0  0  0  0  0  0  0  0  0
  149.9252  141.4961  154.4882 H   0  0  0  0  0  0  0  0  0  0  0  0
  147.5318  141.7638  153.7992 H   0  0  0  0  0  0  0  0  0  0  0  0
  146.0279  139.7884  153.6672 H   0  0  0  0  0  0  0  0  0  0  0  0
  146.8853  137.4981  154.2269 H   0  0  0  0  0  0  0  0  0  0  0  0
  1  2  1  0  0  0  0
  1 24  1  0  0  0  0
  1 25  1  0  0  0  0
  1 26  1  0  0  0  0
  2 23  1  0  0  0  0
  2  3  1  0  0  0  0
  3  4  2  0  0  0  0
  3  5  1  0  0  0  0
  5  6  1  0  0  0  0
  5 18  1  0  0  0  0
  6  7  1  0  0  0  0
  6 27  1  0  0  0  0
  6 28  1  0  0  0  0
  7  8  1  0  0  0  0
  7  9  1  0  0  0  0
  7 29  1  0  0  0  0
  8 30  1  0  0  0  0
  9 10  1  0  0  0  0
  9 31  1  0  0  0  0
  9 32  1  0  0  0  0
 10 11  1  0  0  0  0
 11 16  1  0  0  0  0
 11 12  2  0  0  0  0
 12 13  1  0  0  0  0
 12 33  1  0  0  0  0
 13 14  2  0  0  0  0
 13 34  1  0  0  0  0
 14 15  1  0  0  0  0
 14 35  1  0  0  0  0
 15 16  2  0  0  0  0
 15 36  1  0  0  0  0
 16 17  1  0  0  0  0
 18 23  2  0  0  0  0
 18 19  1  0  0  0  0
 19 20  2  0  0  0  0
 19 37  1  0  0  0  0
 20 21  1  0  0  0  0
 20 38  1  0  0  0  0
 21 22  2  0  0  0  0
 21 39  1  0  0  0  0
 22 23  1  0  0  0  0
 22 40  1  0  0  0  0
M  END
> <s_m_source_file>
AV-unprocessed.smi

> <i_m_source_file_index>
418

> <i_lp_mmshare_version>
43012

> <i_f3d_flags>
0

> <s_epik_input>
W2NIXTFbY0hdW2NIXVtjSF1jKGMxMiluKFtDSDNdKWMoPU8pbjJbQ0gyXVtDQEhdKFtPSF0pW0NIMl1PYzNbY0hdW2NIXVtjSF1bY0hdYzNG

> <s_epik_cmdline>
J2VwaWtfcHl0aG9uJywgJy1waCcsICc3LjAnLCAnLXRuJywgJzgnLCAnLW1hJywgJzIwMCcsICctbWV0YWxfYmluZGluZycsICctaW1hZScsICc8aW5maWxlLm1hZT4nLCAnLW9tYWUnLCAnPG91dGZpbGUubWFlPic=

> <r_lp_tautomer_probability>
1

> <r_epik_Ionization_Penalty>
2.40171e-06

> <r_epik_Ionization_Penalty_Charging>
2.41238e-09

> <r_epik_Ionization_Penalty_Neutral>
2.3993e-06

> <r_epik_State_Penalty>
-0

> <r_epik_Charging_Adjusted_Penalty>
2.41238e-09

> <i_epik_Tot_Q>
0

> <i_epik_Tot_abs_Q>
0

> <r_epik_Metal_State_Penalty>
-0

> <b_epik_Metal_Only>
0

> <s_lp_Force_Field>
OPLS_2005

> <r_lp_Energy>
46.4637

> <b_lp_Chiralities_Consistent>
1

> <s_lp_Variant>
AV-unprocessed.smi:418-1

> <Gold.Version>
5.8.1

> <Gold.Id.Protein>
6NUR|6NUR_protein|mol2

> <Gold.PLP.Fitness>
48.4931

> <Gold.PLP.PLP>
-46.8718

> <Gold.PLP.part.hbond>
-2.0000

> <Gold.PLP.part.metal>
0.0000

> <Gold.PLP.part.buried>
-1.7282

> <Gold.PLP.part.nonpolar>
-43.8263

> <Gold.PLP.part.repulsive>
0.0445

> <Gold.PLP.ligand.clash>
0.0000

> <Gold.PLP.ligand.torsion>
0.7620

> <Gold.PLP.Chemscore.Hbond>
1.0000

> <Gold.PLP.Chemscore.CHOScore>
0.0000

> <Gold.PLP.Chemscore.Metal>
0.0000

> <Gold.Chemscore.Hbonds>
donor molecule, donor type, donor heavy atom, donor atom, acceptor molecule, acceptor atom, score
      P1  H 10752 10764       L1     4  1.00

> <Gold.PLP.Chemscore.Internal.Correction>
0.1453

> <Gold.Rescore>
     Score         DG    S(hbond)    S(metal)    S(lipo)     H(rot)  DE(clash)    DE(int)     intcor
     16.71     -18.17       0.99        0.00     129.76       2.27       0.72       0.74       ----

> <Gold.Chemscore.Fitness>
16.7092

> <Gold.Chemscore.DG>
-18.1688

> <Gold.Chemscore.ZeroCoef>
-5.4800

> <Gold.Chemscore.Hbond>
0.9938

> <Gold.Chemscore.Metal>
0.0000

> <Gold.Chemscore.Lipo>
129.7641

> <Gold.Chemscore.Internal_Hbond>
0.0000

> <Gold.Chemscore.DEClash>
0.7228

> <Gold.Chemscore.DEInternal>
0.7368

> <Gold.Chemscore.Rot>
2.2706

> <Gold.Chemscore.Internal.Correction>
   9.000000E+99

> <Gold.Chemscore.Hbonds>
donor molecule, donor type, donor heavy atom, donor atom, acceptor molecule, acceptor atom, score
      P1  H 10752 10764       L1     4  0.99

> <Gold.Chemscore.Hbond.Weighted>
-3.3192

> <Gold.Chemscore.Metal.Weighted>
-0.0000

> <Gold.Chemscore.Lipo.Weighted>
-15.1824

> <Gold.Chemscore.Internal_Hbond.Weighted>
0.0000

> <Gold.Chemscore.DEClash.Weighted>
0.7228

> <Gold.Chemscore.DEInternal.Weighted>
0.7368

> <Gold.Chemscore.Rot.Weighted>
5.8128

> <Gold.Chemscore.Internal.Correction.Weighted>
   9.000000E+99

> <Gold.Protein.RotatedTorsions>
[ 6907 6896 6895 6894 ] final   23.67 input  -60.11 | X-H torsion
[ 7974 7965 7964 7962 ] final  -99.42 input  175.53 | X-H torsion
[ 8008 7997 7996 7995 ] final   46.52 input   59.86 | X-H torsion
[ 10167 10162 10161 10158 ] final  122.53 input  -65.29 | X-H torsion
[ 10718 10713 10712 10709 ] final  -59.66 input   66.30 | X-H torsion
[ 10763 10752 10751 10750 ] final  -45.24 input  -60.55 | X-H torsion
[ 11005 11000 10999 10996 ] final -114.97 input  -57.11 | X-H torsion

> <Gold.Protein.ActiveResidues>
 VAL166  LYS551  ARG553  GLY616  TRP617  ASP618  TYR619  PRO620  LYS621  CYS622 
 ASP623  PHE694  ASN695  SER759  ASP760  ASP761  ALA762  ILE779  LEU786  VAL792 
 PHE793  MET794  SER795  GLU796  ALA797  LYS798  CYS799  TRP800  GLU811  SER814 

> <Gold.Protein.RotatedAtoms>
  151.9459  135.0192  160.0538 H   0  0  0  0  0  0  0  0  0  0  0  0  # atno 6907 bound_to 6896
  152.1996  133.4826  159.5059 H   0  0  0  0  0  0  0  0  0  0  0  0  # atno 6908 bound_to 6896
  150.6952  134.1525  159.4188 H   0  0  0  0  0  0  0  0  0  0  0  0  # atno 6909 bound_to 6896
  145.3078  140.9393  143.2787 H   0  0  0  0  0  0  0  0  0  0  0  0  # atno 7974 bound_to 7965
  155.3538  140.3415  155.4239 H   0  0  0  0  0  0  0  0  0  0  0  0  # atno 8008 bound_to 7997
  156.1750  140.1644  156.8415 H   0  0  0  0  0  0  0  0  0  0  0  0  # atno 8009 bound_to 7997
  154.5272  140.0753  156.8263 H   0  0  0  0  0  0  0  0  0  0  0  0  # atno 8010 bound_to 7997
  139.5853  144.7004  151.3424 H   0  0  0  0  0  0  0  0  0  0  0  0  # atno 10167 bound_to 10162
  156.1046  130.4182  150.0746 H   0  0  0  0  0  0  0  0  0  0  0  0  # atno 10718 bound_to 10713
  154.0253  135.6664  153.4776 H   0  0  0  0  0  0  0  0  0  0  0  0  # atno 10763 bound_to 10752
  153.0563  135.5054  154.7984 H   0  0  0  0  0  0  0  0  0  0  0  0  # atno 10764 bound_to 10752
  154.6912  135.3061  154.9442 H   0  0  0  0  0  0  0  0  0  0  0  0  # atno 10765 bound_to 10752
  141.0517  133.9676  157.2824 H   0  0  0  0  0  0  0  0  0  0  0  0  # atno 11005 bound_to 11000
  144.9041  139.4612  143.6618 LP  0  0  0  0  0  0  0  0  0  0  0  0  # atno 17320 bound_to 7965
  146.3129  139.7811  142.9006 LP  0  0  0  0  0  0  0  0  0  0  0  0  # atno 17321 bound_to 7965
  140.7126  143.7351  150.7594 LP  0  0  0  0  0  0  0  0  0  0  0  0  # atno 17342 bound_to 10162
  140.0894  143.4892  152.2487 LP  0  0  0  0  0  0  0  0  0  0  0  0  # atno 17343 bound_to 10162
  156.8724  130.9529  151.3608 LP  0  0  0  0  0  0  0  0  0  0  0  0  # atno 17370 bound_to 10713
  157.6221  130.8663  149.9126 LP  0  0  0  0  0  0  0  0  0  0  0  0  # atno 17371 bound_to 10713
  139.9356  135.0196  156.8545 LP  0  0  0  0  0  0  0  0  0  0  0  0  # atno 17394 bound_to 11000
  140.6042  134.0144  155.7549 LP  0  0  0  0  0  0  0  0  0  0  0  0  # atno 17395 bound_to 11000

$$$$
