#       Name:                AV-unprocessed.smi:484
#       Creating user name   scv26
#       Creation time:       Thu Mar 26 23:11:51 2020


#       File generated by GOLD software.
#

@<TRIPOS>MOLECULE
AV-unprocessed.smi:484
    53    55     1
SMALL
NO_CHARGES


@<TRIPOS>ATOM
      1 ****        -5.5510   3.2467   2.1008 C.3            1 S1                 0.0000
      2 ****        -5.0277   2.9613   0.6888 C.3            1 S1                 0.0000
      3 ****        -3.5552   2.5973   0.6860 C.ar           1 S1                 0.0000
      4 ****        -2.5776   3.5924   0.4872 C.ar           1 S1                 0.0000
      5 ****        -1.2115   3.2519   0.4938 C.ar           1 S1                 0.0000
      6 ****        -0.7992   1.9193   0.6991 C.ar           1 S1                 0.0000
      7 ****         0.5579   1.6770   0.6944 O.3            1 S1                 0.0000
      8 ****         1.0027   0.3450   0.9133 C.3            1 S1                 0.0000
      9 ****         2.5416   0.3203   0.8683 C.3            1 S1                 0.0000
     10 ****         3.0285   0.8164   2.0979 O.3            1 S1                 0.0000
     11 ****         3.1407  -1.0897   0.6825 C.3            1 S1                 0.0000
     12 ****         2.7360  -1.7275  -0.5641 N.pl3          1 S1                 0.0000
     13 ****         3.2509  -1.5423  -1.8064 C.2            1 S1                 0.0000
     14 ****         4.3812  -0.5846  -2.0574 C.3            1 S1                 0.0000
     15 ****         4.9538  -0.7052  -3.3436 O.3            1 S1                 0.0000
     16 ****         2.6769  -2.2534  -2.7800 N.2            1 S1                 0.0000
     17 ****         1.7097  -2.9724  -2.1063 C.ar           1 S1                 0.0000
     18 ****         0.7639  -3.9090  -2.5814 C.ar           1 S1                 0.0000
     19 ****        -0.1430  -4.5214  -1.6919 C.ar           1 S1                 0.0000
     20 ****        -0.1173  -4.2070  -0.3177 C.ar           1 S1                 0.0000
     21 ****         0.8182  -3.2779   0.1765 C.ar           1 S1                 0.0000
     22 ****         1.7215  -2.6690  -0.7158 C.ar           1 S1                 0.0000
     23 ****        -1.7878   0.9221   0.8964 C.ar           1 S1                 0.0000
     24 ****        -3.1547   1.2616   0.8893 C.ar           1 S1                 0.0000
     25 ****        -6.6097   3.5054   2.0777 H              1 S1                 0.0000
     26 ****        -5.0147   4.0786   2.5581 H              1 S1                 0.0000
     27 ****        -5.4344   2.3765   2.7474 H              1 S1                 0.0000
     28 ****        -5.5982   2.1477   0.2395 H              1 S1                 0.0000
     29 ****        -5.1849   3.8337   0.0535 H              1 S1                 0.0000
     30 ****        -2.8717   4.6203   0.3324 H              1 S1                 0.0000
     31 ****        -0.4710   4.0234   0.3423 H              1 S1                 0.0000
     32 ****         0.6384  -0.0522   1.8624 H              1 S1                 0.0000
     33 ****         0.5946  -0.2730   0.1139 H              1 S1                 0.0000
     34 ****         2.8942   0.9705   0.0679 H              1 S1                 0.0000
     35 ****         2.6897   1.6899   2.2227 H              1 S1                 0.0000
     36 ****         4.2294  -1.0490   0.7186 H              1 S1                 0.0000
     37 ****         2.8426  -1.7333   1.5110 H              1 S1                 0.0000
     38 ****         4.0193   0.4356  -1.9320 H              1 S1                 0.0000
     39 ****         5.1708  -0.7478  -1.3244 H              1 S1                 0.0000
     40 ****         4.2758  -0.5573  -3.9855 H              1 S1                 0.0000
     41 ****         0.7349  -4.1555  -3.6324 H              1 S1                 0.0000
     42 ****        -0.8624  -5.2349  -2.0663 H              1 S1                 0.0000
     43 ****        -0.8169  -4.6784   0.3572 H              1 S1                 0.0000
     44 ****         0.8367  -3.0330   1.2280 H              1 S1                 0.0000
     45 ****        -1.5250  -0.1124   1.0565 H              1 S1                 0.0000
     46 ****        -3.8963   0.4915   1.0439 H              1 S1                 0.0000
     47 ****         0.9633   2.2464   1.4095 LP             1 S1                 0.0000
     48 ****         0.9072   1.9635  -0.1978 LP             1 S1                 0.0000
     49 ****         4.0280   0.8413   2.0799 LP             1 S1                 0.0000
     50 ****         2.7232   0.2259   2.8449 LP             1 S1                 0.0000
     51 ****         5.3348  -1.6225  -3.4595 LP             1 S1                 0.0000
     52 ****         5.6794  -0.0263  -3.4557 LP             1 S1                 0.0000
     53 ****         2.8940  -2.2628  -3.7562 LP             1 S1                 0.0000
@<TRIPOS>BOND
    1    1    2 1     
    2    1   25 1     
    3    1   26 1     
    4    1   27 1     
    5    2    3 1     
    6    2   28 1     
    7    2   29 1     
    8    3   24 ar    
    9    3    4 ar    
   10    4    5 ar    
   11    4   30 1     
   12    5    6 ar    
   13    5   31 1     
   14    6    7 1     
   15    6   23 ar    
   16    7    8 1     
   17    8    9 1     
   18    8   32 1     
   19    8   33 1     
   20    9   10 1     
   21    9   11 1     
   22    9   34 1     
   23   10   35 1     
   24   11   12 1     
   25   11   36 1     
   26   11   37 1     
   27   12   22 1     
   28   12   13 1     
   29   13   14 1     
   30   13   16 2     
   31   14   15 1     
   32   14   38 1     
   33   14   39 1     
   34   15   40 1     
   35   16   17 1     
   36   17   22 ar    
   37   17   18 ar    
   38   18   19 ar    
   39   18   41 1     
   40   19   20 ar    
   41   19   42 1     
   42   20   21 ar    
   43   20   43 1     
   44   21   22 ar    
   45   21   44 1     
   46   23   24 ar    
   47   23   45 1     
   48   24   46 1     
   49    7   47 1     
   50    7   48 1     
   51   10   49 1     
   52   10   50 1     
   53   15   51 1     
   54   15   52 1     
   55   16   53 1     
@<TRIPOS>SUBSTRUCTURE
      1 S1             1
@<TRIPOS>SET
LONE_PAIRS      STATIC     ATOMS    <user>   **** ""
7 47 48 49 50 51 52 53
DONOR_HYDROGENS      STATIC     ATOMS    <user>   **** ""
2 35 40
ATOM$BLUE        STATIC     ATOMS    COLORGROUP SYSTEM
7 47 48 49 50 51 52 53
ATOM$RED        STATIC     ATOMS    COLORGROUP SYSTEM
2 35 40
