AV-unprocessed.smi:1304|AV-procd|sdf|5429|dock9
  -GOLD-   22720 4593D 1   1.00000     0.00000
 Structure written by MMmdl.
 47 48  0  0  0  0  0  0  0  0  1 V2000
  149.4273  140.4118  154.5614 C   0  0  0  0  0  0  0  0  0  0  0  0
  148.3779  141.4524  154.1303 C   0  0  0  0  0  0  0  0  0  0  0  0
  147.1769  141.6498  155.1098 C   0  0  1  0  0  0  0  0  0  0  0  0
  146.2923  140.3808  154.9740 C   0  0  0  0  0  0  0  0  0  0  0  0
  147.7221  141.7076  156.5744 C   0  0  0  0  0  0  0  0  0  0  0  0
  148.9407  142.5034  156.7200 N   0  0  0  0  0  0  0  0  0  0  0  0
  150.0189  142.1625  157.4422 C   0  0  0  0  0  0  0  0  0  0  0  0
  150.1208  141.0944  158.0465 O   0  0  0  0  0  0  0  0  0  0  0  0
  151.1582  143.1893  157.4802 C   0  0  0  0  0  0  0  0  0  0  0  0
  151.3942  143.7231  158.8316 N   0  0  0  0  0  0  0  0  0  0  0  0
  151.1630  145.0989  159.0310 C   0  0  0  0  0  0  0  0  0  0  0  0
  151.3502  145.6845  160.2244 C   0  0  0  0  0  0  0  0  0  0  0  0
  151.8010  144.8647  161.3240 C   0  0  0  0  0  0  0  0  0  0  0  0
  152.0279  143.5484  161.1435 C   0  0  0  0  0  0  0  0  0  0  0  0
  151.8274  142.9045  159.8403 C   0  0  0  0  0  0  0  0  0  0  0  0
  152.0357  141.7032  159.6656 O   0  0  0  0  0  0  0  0  0  0  0  0
  146.3984  142.8711  154.7563 N   0  0  0  0  0  0  0  0  0  0  0  0
  146.0171  142.9855  153.3434 C   0  0  0  0  0  0  0  0  0  0  0  0
  145.3466  144.3353  153.0350 C   0  0  0  0  0  0  0  0  0  0  0  0
  144.2132  144.5124  153.8762 O   0  0  0  0  0  0  0  0  0  0  0  0
  144.5492  144.4646  155.2578 C   0  0  0  0  0  0  0  0  0  0  0  0
  145.2094  143.1142  155.5828 C   0  0  0  0  0  0  0  0  0  0  0  0
  150.2190  140.3398  153.8155 H   0  0  0  0  0  0  0  0  0  0  0  0
  148.9944  139.4177  154.6710 H   0  0  0  0  0  0  0  0  0  0  0  0
  149.8982  140.6794  155.5068 H   0  0  0  0  0  0  0  0  0  0  0  0
  148.9051  142.3965  153.9914 H   0  0  0  0  0  0  0  0  0  0  0  0
  148.0150  141.1954  153.1351 H   0  0  0  0  0  0  0  0  0  0  0  0
  146.8832  139.4645  154.9947 H   0  0  0  0  0  0  0  0  0  0  0  0
  145.7316  140.3788  154.0390 H   0  0  0  0  0  0  0  0  0  0  0  0
  145.5699  140.2977  155.7860 H   0  0  0  0  0  0  0  0  0  0  0  0
  146.9598  142.0753  157.2614 H   0  0  0  0  0  0  0  0  0  0  0  0
  147.9761  140.7082  156.9251 H   0  0  0  0  0  0  0  0  0  0  0  0
  148.9508  143.3999  156.2554 H   0  0  0  0  0  0  0  0  0  0  0  0
  152.0572  142.7114  157.0888 H   0  0  0  0  0  0  0  0  0  0  0  0
  150.9457  144.0086  156.7903 H   0  0  0  0  0  0  0  0  0  0  0  0
  150.8342  145.6428  158.1575 H   0  0  0  0  0  0  0  0  0  0  0  0
  151.1722  146.7415  160.3576 H   0  0  0  0  0  0  0  0  0  0  0  0
  151.9583  145.3091  162.2956 H   0  0  0  0  0  0  0  0  0  0  0  0
  152.3654  142.9508  161.9776 H   0  0  0  0  0  0  0  0  0  0  0  0
  146.8871  142.8922  152.6956 H   0  0  0  0  0  0  0  0  0  0  0  0
  145.3299  142.1851  153.0700 H   0  0  0  0  0  0  0  0  0  0  0  0
  146.0490  145.1576  153.1798 H   0  0  0  0  0  0  0  0  0  0  0  0
  145.0250  144.3691  151.9939 H   0  0  0  0  0  0  0  0  0  0  0  0
  145.2168  145.2908  155.5077 H   0  0  0  0  0  0  0  0  0  0  0  0
  143.6431  144.5948  155.8493 H   0  0  0  0  0  0  0  0  0  0  0  0
  144.4745  142.3237  155.4317 H   0  0  0  0  0  0  0  0  0  0  0  0
  145.4610  143.1127  156.6416 H   0  0  0  0  0  0  0  0  0  0  0  0
  1  2  1  0  0  0  0
  1 23  1  0  0  0  0
  1 24  1  0  0  0  0
  1 25  1  0  0  0  0
  2  3  1  0  0  0  0
  2 26  1  0  0  0  0
  2 27  1  0  0  0  0
  3  4  1  0  0  0  0
  3  5  1  0  0  0  0
  3 17  1  0  0  0  0
  4 28  1  0  0  0  0
  4 29  1  0  0  0  0
  4 30  1  0  0  0  0
  5  6  1  0  0  0  0
  5 31  1  0  0  0  0
  5 32  1  0  0  0  0
  6  7  1  0  0  0  0
  6 33  1  0  0  0  0
  7  8  2  0  0  0  0
  7  9  1  0  0  0  0
  9 10  1  0  0  0  0
  9 34  1  0  0  0  0
  9 35  1  0  0  0  0
 10 15  1  0  0  0  0
 10 11  1  0  0  0  0
 11 12  2  0  0  0  0
 11 36  1  0  0  0  0
 12 13  1  0  0  0  0
 12 37  1  0  0  0  0
 13 14  2  0  0  0  0
 13 38  1  0  0  0  0
 14 15  1  0  0  0  0
 14 39  1  0  0  0  0
 15 16  2  0  0  0  0
 17 22  1  0  0  0  0
 17 18  1  0  0  0  0
 18 19  1  0  0  0  0
 18 40  1  0  0  0  0
 18 41  1  0  0  0  0
 19 20  1  0  0  0  0
 19 42  1  0  0  0  0
 19 43  1  0  0  0  0
 20 21  1  0  0  0  0
 21 22  1  0  0  0  0
 21 44  1  0  0  0  0
 21 45  1  0  0  0  0
 22 46  1  0  0  0  0
 22 47  1  0  0  0  0
M  END
> <s_m_source_file>
AV-unprocessed.smi

> <i_m_source_file_index>
1304

> <i_lp_mmshare_version>
43012

> <i_f3d_flags>
0

> <s_epik_input>
W0NIMl0xW0NIMl1PW0NIMl1bQ0gyXU4xW0NAQF0oW0NIM10pKFtDSDJdW0NIM10pW0NIMl1bTkhdQyg9TylbQ0gyXW4yW2NIXVtjSF1bY0hdW2NIXWMyPU8=

> <s_epik_cmdline>
J2VwaWtfcHl0aG9uJywgJy1waCcsICc3LjAnLCAnLXRuJywgJzgnLCAnLW1hJywgJzIwMCcsICctbWV0YWxfYmluZGluZycsICctaW1hZScsICc8aW5maWxlLm1hZT4nLCAnLW9tYWUnLCAnPG91dGZpbGUubWFlPic=

> <r_lp_tautomer_probability>
1

> <r_epik_Ionization_Penalty>
0.318667

> <r_epik_Ionization_Penalty_Charging>
3.55364e-07

> <r_epik_Ionization_Penalty_Neutral>
0.318667

> <r_epik_State_Penalty>
0.313095

> <r_epik_Charging_Adjusted_Penalty>
0.313095

> <i_epik_Tot_Q>
0

> <i_epik_Tot_abs_Q>
0

> <r_epik_Metal_State_Penalty>
0.313065

> <b_epik_Metal_Only>
0

> <s_lp_Force_Field>
OPLS_2005

> <r_lp_Energy>
51.6355

> <b_lp_Chiralities_Consistent>
1

> <s_lp_Variant>
AV-unprocessed.smi:1304-1

> <Gold.Version>
5.8.1

> <Gold.Id.Protein>
6NUR|6NUR_protein|mol2

> <Gold.PLP.Fitness>
49.4025

> <Gold.PLP.PLP>
-47.5462

> <Gold.PLP.part.hbond>
-1.0000

> <Gold.PLP.part.metal>
0.0000

> <Gold.PLP.part.buried>
-8.1193

> <Gold.PLP.part.nonpolar>
-39.4266

> <Gold.PLP.part.repulsive>
0.3384

> <Gold.PLP.ligand.clash>
0.0000

> <Gold.PLP.ligand.torsion>
0.6438

> <Gold.PLP.Chemscore.Hbond>
1.0000

> <Gold.PLP.Chemscore.CHOScore>
0.0000

> <Gold.PLP.Chemscore.Metal>
0.0000

> <Gold.Chemscore.Hbonds>
donor molecule, donor type, donor heavy atom, donor atom, acceptor molecule, acceptor atom, score
      L1  H     6    33       P1  8028  0.80

> <Gold.PLP.Chemscore.Internal.Correction>
0.1438

> <Gold.Rescore>
     Score         DG    S(hbond)    S(metal)    S(lipo)     H(rot)  DE(clash)    DE(int)     intcor
     13.78     -16.22       1.00        0.00     106.08       1.95       0.22       2.22       ----

> <Gold.Chemscore.Fitness>
13.7765

> <Gold.Chemscore.DG>
-16.2220

> <Gold.Chemscore.ZeroCoef>
-5.4800

> <Gold.Chemscore.Hbond>
0.9961

> <Gold.Chemscore.Metal>
0.0000

> <Gold.Chemscore.Lipo>
106.0760

> <Gold.Chemscore.Internal_Hbond>
0.0000

> <Gold.Chemscore.DEClash>
0.2249

> <Gold.Chemscore.DEInternal>
2.2206

> <Gold.Chemscore.Rot>
1.9515

> <Gold.Chemscore.Internal.Correction>
   9.000000E+99

> <Gold.Chemscore.Hbonds>
donor molecule, donor type, donor heavy atom, donor atom, acceptor molecule, acceptor atom, score
      L1  H     6    33       P1  8028  0.78

> <Gold.Chemscore.Hbond.Weighted>
-3.3270

> <Gold.Chemscore.Metal.Weighted>
-0.0000

> <Gold.Chemscore.Lipo.Weighted>
-12.4109

> <Gold.Chemscore.Internal_Hbond.Weighted>
0.0000

> <Gold.Chemscore.DEClash.Weighted>
0.2249

> <Gold.Chemscore.DEInternal.Weighted>
2.2206

> <Gold.Chemscore.Rot.Weighted>
4.9958

> <Gold.Chemscore.Internal.Correction.Weighted>
   9.000000E+99

> <Gold.Protein.RotatedTorsions>
[ 6907 6896 6895 6894 ] final   49.95 input  -60.11 | X-H torsion
[ 7974 7965 7964 7962 ] final -128.22 input  175.53 | X-H torsion
[ 8008 7997 7996 7995 ] final    6.73 input   59.86 | X-H torsion
[ 10167 10162 10161 10158 ] final -156.11 input  -65.29 | X-H torsion
[ 10718 10713 10712 10709 ] final  -17.03 input   66.30 | X-H torsion
[ 10763 10752 10751 10750 ] final   97.16 input  -60.55 | X-H torsion
[ 11005 11000 10999 10996 ] final   32.99 input  -57.11 | X-H torsion

> <Gold.Protein.ActiveResidues>
 VAL166  LYS551  ARG553  GLY616  TRP617  ASP618  TYR619  PRO620  LYS621  CYS622 
 ASP623  PHE694  ASN695  SER759  ASP760  ASP761  ALA762  ILE779  LEU786  VAL792 
 PHE793  MET794  SER795  GLU796  ALA797  LYS798  CYS799  TRP800  GLU811  SER814 

> <Gold.Protein.RotatedAtoms>
  152.2964  134.7662  160.0366 H   0  0  0  0  0  0  0  0  0  0  0  0  # atno 6907 bound_to 6896
  151.8190  133.3387  159.3586 H   0  0  0  0  0  0  0  0  0  0  0  0  # atno 6908 bound_to 6896
  150.7253  134.5521  159.5844 H   0  0  0  0  0  0  0  0  0  0  0  0  # atno 6909 bound_to 6896
  144.9692  140.7528  143.4681 H   0  0  0  0  0  0  0  0  0  0  0  0  # atno 7974 bound_to 7965
  154.7448  140.2755  155.6342 H   0  0  0  0  0  0  0  0  0  0  0  0  # atno 8008 bound_to 7997
  156.2882  140.2690  156.2111 H   0  0  0  0  0  0  0  0  0  0  0  0  # atno 8009 bound_to 7997
  155.0212  140.0371  157.2428 H   0  0  0  0  0  0  0  0  0  0  0  0  # atno 8010 bound_to 7997
  139.6877  143.9473  152.2369 H   0  0  0  0  0  0  0  0  0  0  0  0  # atno 10167 bound_to 10162
  156.5793  130.4770  149.6327 H   0  0  0  0  0  0  0  0  0  0  0  0  # atno 10718 bound_to 10713
  153.2736  135.4193  155.1011 H   0  0  0  0  0  0  0  0  0  0  0  0  # atno 10763 bound_to 10752
  154.8465  135.3478  154.6209 H   0  0  0  0  0  0  0  0  0  0  0  0  # atno 10764 bound_to 10752
  153.6630  135.7047  153.5229 H   0  0  0  0  0  0  0  0  0  0  0  0  # atno 10765 bound_to 10752
  140.2678  134.3117  155.7837 H   0  0  0  0  0  0  0  0  0  0  0  0  # atno 11005 bound_to 11000
  145.2584  139.2002  143.4905 LP  0  0  0  0  0  0  0  0  0  0  0  0  # atno 17320 bound_to 7965
  146.3377  140.2509  142.8598 LP  0  0  0  0  0  0  0  0  0  0  0  0  # atno 17321 bound_to 7965
  139.9281  144.6758  150.8391 LP  0  0  0  0  0  0  0  0  0  0  0  0  # atno 17342 bound_to 10162
  140.7673  143.3328  151.2374 LP  0  0  0  0  0  0  0  0  0  0  0  0  # atno 17343 bound_to 10162
  156.2646  130.6982  151.1761 LP  0  0  0  0  0  0  0  0  0  0  0  0  # atno 17370 bound_to 10713
  157.7330  131.0594  150.5598 LP  0  0  0  0  0  0  0  0  0  0  0  0  # atno 17371 bound_to 10713
  141.2182  133.7448  156.9287 LP  0  0  0  0  0  0  0  0  0  0  0  0  # atno 17394 bound_to 11000
  140.1402  134.9298  157.2457 LP  0  0  0  0  0  0  0  0  0  0  0  0  # atno 17395 bound_to 11000

$$$$
