AV-unprocessed.smi:752|AV-procd|sdf|3598|dock7
  -GOLD-   22720 0593D 1   1.00000     0.00000
 Structure written by MMmdl.
 41 42  0  0  0  0  0  0  0  0  1 V2000
  152.8013  142.8101  162.1698 C   0  0  0  0  0  0  0  0  0  0  0  0
  152.3605  144.0808  161.4356 C   0  0  0  0  0  0  0  0  0  0  0  0
  151.9738  143.8195  160.0187 C   0  0  0  0  0  0  0  0  0  0  0  0
  151.6386  142.6119  159.5576 N   0  0  0  0  0  0  0  0  0  0  0  0
  151.3229  142.6233  158.1944 C   0  0  0  0  0  0  0  0  0  0  0  0
  150.8563  141.3644  157.5206 C   0  0  0  0  0  0  0  0  0  0  0  0
  149.6679  141.6948  156.6179 C   0  0  0  0  0  0  0  0  0  0  0  0
  148.5285  141.7274  157.0823 O   0  0  0  0  0  0  0  0  0  0  0  0
  149.9462  141.8852  155.3190 N   0  0  0  0  0  0  0  0  0  0  0  0
  148.9553  141.9328  154.2508 C   0  0  0  0  0  0  0  0  0  0  0  0
  148.6001  140.5160  153.7495 C   0  0  1  0  0  0  0  0  0  0  0  0
  148.3775  139.5448  154.9241 C   0  0  0  0  0  0  0  0  0  0  0  0
  148.0656  138.1246  154.4265 C   0  0  0  0  0  0  0  0  0  0  0  0
  146.8453  138.1119  153.4904 C   0  0  0  0  0  0  0  0  0  0  0  0
  146.9992  139.1008  152.3199 C   0  0  2  0  0  0  0  0  0  0  0  0
  147.9786  138.6361  151.4114 O   0  0  0  0  0  0  0  0  0  0  0  0
  147.3676  140.5124  152.8131 C   0  0  0  0  0  0  0  0  0  0  0  0
  151.4609  143.8630  157.6196 C   0  0  0  0  0  0  0  0  0  0  0  0
  151.9684  145.0635  158.7746 S   0  0  0  0  0  0  0  0  0  0  0  0
  153.0766  143.0322  163.2008 H   0  0  0  0  0  0  0  0  0  0  0  0
  153.6656  142.3560  161.6846 H   0  0  0  0  0  0  0  0  0  0  0  0
  152.0011  142.0699  162.1904 H   0  0  0  0  0  0  0  0  0  0  0  0
  151.5155  144.5362  161.9531 H   0  0  0  0  0  0  0  0  0  0  0  0
  153.1660  144.8155  161.4468 H   0  0  0  0  0  0  0  0  0  0  0  0
  151.6572  140.9262  156.9240 H   0  0  0  0  0  0  0  0  0  0  0  0
  150.5612  140.6100  158.2513 H   0  0  0  0  0  0  0  0  0  0  0  0
  150.9155  141.8543  155.0369 H   0  0  0  0  0  0  0  0  0  0  0  0
  148.0606  142.4542  154.5953 H   0  0  0  0  0  0  0  0  0  0  0  0
  149.3638  142.5275  153.4335 H   0  0  0  0  0  0  0  0  0  0  0  0
  149.4548  140.1450  153.1812 H   0  0  0  0  0  0  0  0  0  0  0  0
  149.2636  139.5197  155.5596 H   0  0  0  0  0  0  0  0  0  0  0  0
  147.5584  139.9013  155.5502 H   0  0  0  0  0  0  0  0  0  0  0  0
  148.9343  137.7220  153.9038 H   0  0  0  0  0  0  0  0  0  0  0  0
  147.8865  137.4656  155.2763 H   0  0  0  0  0  0  0  0  0  0  0  0
  146.6704  137.1033  153.1143 H   0  0  0  0  0  0  0  0  0  0  0  0
  145.9579  138.3795  154.0655 H   0  0  0  0  0  0  0  0  0  0  0  0
  146.0584  139.1513  151.7704 H   0  0  0  0  0  0  0  0  0  0  0  0
  148.3564  137.8418  151.7569 H   0  0  0  0  0  0  0  0  0  0  0  0
  146.5153  140.9346  153.3468 H   0  0  0  0  0  0  0  0  0  0  0  0
  147.5325  141.1592  151.9513 H   0  0  0  0  0  0  0  0  0  0  0  0
  151.2794  144.1439  156.5926 H   0  0  0  0  0  0  0  0  0  0  0  0
  1  2  1  0  0  0  0
  1 20  1  0  0  0  0
  1 21  1  0  0  0  0
  1 22  1  0  0  0  0
  2  3  1  0  0  0  0
  2 23  1  0  0  0  0
  2 24  1  0  0  0  0
  3 19  1  0  0  0  0
  3  4  2  0  0  0  0
  4  5  1  0  0  0  0
  5  6  1  0  0  0  0
  5 18  2  0  0  0  0
  6  7  1  0  0  0  0
  6 25  1  0  0  0  0
  6 26  1  0  0  0  0
  7  8  2  0  0  0  0
  7  9  1  0  0  0  0
  9 10  1  0  0  0  0
  9 27  1  0  0  0  0
 10 11  1  0  0  0  0
 10 28  1  0  0  0  0
 10 29  1  0  0  0  0
 11 17  1  0  0  0  0
 11 12  1  0  0  0  0
 11 30  1  0  0  0  0
 12 13  1  0  0  0  0
 12 31  1  0  0  0  0
 12 32  1  0  0  0  0
 13 14  1  0  0  0  0
 13 33  1  0  0  0  0
 13 34  1  0  0  0  0
 14 15  1  0  0  0  0
 14 35  1  0  0  0  0
 14 36  1  0  0  0  0
 15 16  1  0  0  0  0
 15 17  1  0  0  0  0
 15 37  1  0  0  0  0
 16 38  1  0  0  0  0
 17 39  1  0  0  0  0
 17 40  1  0  0  0  0
 18 19  1  0  0  0  0
 18 41  1  0  0  0  0
M  END
> <s_m_source_file>
AV-unprocessed.smi

> <i_m_source_file_index>
752

> <i_lp_mmshare_version>
43012

> <i_f3d_flags>
0

> <s_epik_input>
W0NIM11bQ0gyXWMxbmMoW2NIXXMxKVtDSDJdQyg9TylbTkhdW0NIMl1bQ0BASF0yW0NIMl1bQ0gyXVtDSDJdW0NAQEhdKFtPSF0pW0NIMl0y

> <s_epik_cmdline>
J2VwaWtfcHl0aG9uJywgJy1waCcsICc3LjAnLCAnLXRuJywgJzgnLCAnLW1hJywgJzIwMCcsICctbWV0YWxfYmluZGluZycsICctaW1hZScsICc8aW5maWxlLm1hZT4nLCAnLW9tYWUnLCAnPG91dGZpbGUubWFlPic=

> <r_lp_tautomer_probability>
1

> <r_epik_Ionization_Penalty>
5.44903e-05

> <r_epik_Ionization_Penalty_Charging>
0

> <r_epik_Ionization_Penalty_Neutral>
5.44903e-05

> <r_epik_State_Penalty>
-0

> <r_epik_Charging_Adjusted_Penalty>
0

> <i_epik_Tot_Q>
0

> <i_epik_Tot_abs_Q>
0

> <r_epik_Metal_State_Penalty>
-0

> <b_epik_Metal_Only>
0

> <s_lp_Force_Field>
OPLS_2005

> <r_lp_Energy>
4.32924

> <b_lp_Chiralities_Consistent>
1

> <s_lp_Variant>
AV-unprocessed.smi:752-4

> <Gold.Version>
5.8.1

> <Gold.Id.Protein>
6NUR|6NUR_protein|mol2

> <Gold.PLP.Fitness>
47.2842

> <Gold.PLP.PLP>
-41.7073

> <Gold.PLP.part.hbond>
-3.3568

> <Gold.PLP.part.metal>
0.0000

> <Gold.PLP.part.buried>
-3.1062

> <Gold.PLP.part.nonpolar>
-34.7572

> <Gold.PLP.part.repulsive>
0.2489

> <Gold.PLP.ligand.clash>
0.0000

> <Gold.PLP.ligand.torsion>
1.1187

> <Gold.PLP.Chemscore.Hbond>
1.5920

> <Gold.PLP.Chemscore.CHOScore>
0.9993

> <Gold.PLP.Chemscore.Metal>
0.0000

> <Gold.Chemscore.Hbonds>
donor molecule, donor type, donor heavy atom, donor atom, acceptor molecule, acceptor atom, score
      L1  H    16    38       P1  7948  1.00
      P1  H  7954  7966       L1    16  0.20
      L1  C    18    41       P1  8028  0.71

> <Gold.PLP.Chemscore.Internal.Correction>
0.0403

> <Gold.Rescore>
     Score         DG    S(hbond)    S(metal)    S(lipo)     H(rot)  DE(clash)    DE(int)     intcor
     14.62     -16.95       1.00        0.00     115.09       2.08       0.41       1.91       ----

> <Gold.Chemscore.Fitness>
14.6198

> <Gold.Chemscore.DG>
-16.9495

> <Gold.Chemscore.ZeroCoef>
-5.4800

> <Gold.Chemscore.Hbond>
0.9997

> <Gold.Chemscore.Metal>
0.0000

> <Gold.Chemscore.Lipo>
115.0899

> <Gold.Chemscore.Internal_Hbond>
0.0000

> <Gold.Chemscore.DEClash>
0.4148

> <Gold.Chemscore.DEInternal>
1.9149

> <Gold.Chemscore.Rot>
2.0840

> <Gold.Chemscore.Internal.Correction>
   9.000000E+99

> <Gold.Chemscore.Hbonds>
donor molecule, donor type, donor heavy atom, donor atom, acceptor molecule, acceptor atom, score
      L1  H    16    38       P1  7948  0.99

> <Gold.Chemscore.Hbond.Weighted>
-3.3390

> <Gold.Chemscore.Metal.Weighted>
-0.0000

> <Gold.Chemscore.Lipo.Weighted>
-13.4655

> <Gold.Chemscore.Internal_Hbond.Weighted>
0.0000

> <Gold.Chemscore.DEClash.Weighted>
0.4148

> <Gold.Chemscore.DEInternal.Weighted>
1.9149

> <Gold.Chemscore.Rot.Weighted>
5.3350

> <Gold.Chemscore.Internal.Correction.Weighted>
   9.000000E+99

> <Gold.Protein.RotatedTorsions>
[ 6907 6896 6895 6894 ] final -129.82 input  -60.11 | X-H torsion
[ 7974 7965 7964 7962 ] final   15.81 input  175.53 | X-H torsion
[ 8008 7997 7996 7995 ] final  -53.20 input   59.86 | X-H torsion
[ 10167 10162 10161 10158 ] final    1.64 input  -65.29 | X-H torsion
[ 10718 10713 10712 10709 ] final -166.62 input   66.30 | X-H torsion
[ 10763 10752 10751 10750 ] final   22.29 input  -60.55 | X-H torsion
[ 11005 11000 10999 10996 ] final  149.22 input  -57.11 | X-H torsion

> <Gold.Protein.ActiveResidues>
 VAL166  LYS551  ARG553  GLY616  TRP617  ASP618  TYR619  PRO620  LYS621  CYS622 
 ASP623  PHE694  ASN695  SER759  ASP760  ASP761  ALA762  ILE779  LEU786  VAL792 
 PHE793  MET794  SER795  GLU796  ALA797  LYS798  CYS799  TRP800  GLU811  SER814 

> <Gold.Protein.RotatedAtoms>
  150.9330  133.6745  159.2806 H   0  0  0  0  0  0  0  0  0  0  0  0  # atno 6907 bound_to 6896
  151.4161  135.0990  159.9609 H   0  0  0  0  0  0  0  0  0  0  0  0  # atno 6908 bound_to 6896
  152.5034  133.8792  159.7392 H   0  0  0  0  0  0  0  0  0  0  0  0  # atno 6909 bound_to 6896
  146.2268  139.8840  142.8566 H   0  0  0  0  0  0  0  0  0  0  0  0  # atno 7974 bound_to 7965
  154.4127  140.1205  156.5116 H   0  0  0  0  0  0  0  0  0  0  0  0  # atno 8008 bound_to 7997
  155.6793  140.3496  155.4830 H   0  0  0  0  0  0  0  0  0  0  0  0  # atno 8009 bound_to 7997
  155.9565  140.1114  157.0922 H   0  0  0  0  0  0  0  0  0  0  0  0  # atno 8010 bound_to 7997
  140.6673  143.7144  150.7852 H   0  0  0  0  0  0  0  0  0  0  0  0  # atno 10167 bound_to 10162
  156.6706  130.9082  151.3043 H   0  0  0  0  0  0  0  0  0  0  0  0  # atno 10718 bound_to 10713
  153.0927  135.6651  153.9822 H   0  0  0  0  0  0  0  0  0  0  0  0  # atno 10763 bound_to 10752
  153.9414  135.2993  155.3444 H   0  0  0  0  0  0  0  0  0  0  0  0  # atno 10764 bound_to 10752
  154.7343  135.5108  153.9090 H   0  0  0  0  0  0  0  0  0  0  0  0  # atno 10765 bound_to 10752
  140.1026  134.8974  157.1818 H   0  0  0  0  0  0  0  0  0  0  0  0  # atno 11005 bound_to 11000
  145.2484  141.0035  143.3895 LP  0  0  0  0  0  0  0  0  0  0  0  0  # atno 17320 bound_to 7965
  144.9395  139.4206  143.6456 LP  0  0  0  0  0  0  0  0  0  0  0  0  # atno 17321 bound_to 7965
  140.0824  143.4956  152.2523 LP  0  0  0  0  0  0  0  0  0  0  0  0  # atno 17342 bound_to 10162
  139.5927  144.7556  151.3361 LP  0  0  0  0  0  0  0  0  0  0  0  0  # atno 17343 bound_to 10162
  157.7078  130.9405  150.0989 LP  0  0  0  0  0  0  0  0  0  0  0  0  # atno 17370 bound_to 10713
  156.1942  130.3656  149.8871 LP  0  0  0  0  0  0  0  0  0  0  0  0  # atno 17371 bound_to 10713
  140.3199  134.2928  155.7248 LP  0  0  0  0  0  0  0  0  0  0  0  0  # atno 17394 bound_to 11000
  141.2110  133.7703  156.9896 LP  0  0  0  0  0  0  0  0  0  0  0  0  # atno 17395 bound_to 11000

$$$$
