#       Name:                AV-unprocessed.smi:609
#       Creating user name   scv26
#       Creation time:       Thu Mar 26 23:56:50 2020


#       File generated by GOLD software.
#

@<TRIPOS>MOLECULE
AV-unprocessed.smi:609
    46    48     1
SMALL
NO_CHARGES


@<TRIPOS>ATOM
      1 ****        -3.9217   3.7570   2.7008 C.3            1 S1                 0.0000
      2 ****        -3.2508   2.6341   1.9293 C.ar           1 S1                 0.0000
      3 ****        -3.1349   2.7385   0.5248 C.ar           1 S1                 0.0000
      4 ****        -2.5180   1.7162  -0.2291 C.ar           1 S1                 0.0000
      5 ****        -2.2977   1.6126  -1.5920 N.2            1 S1                 0.0000
      6 ****        -1.6824   0.4367  -1.6754 C.2            1 S1                 0.0000
      7 ****        -1.4773  -0.2346  -0.5262 N.pl3          1 S1                 0.0000
      8 ****        -0.8300  -1.5255  -0.3747 C.3            1 S1                 0.0000
      9 ****         0.7043  -1.4098  -0.3187 C.3            1 S1                 0.0000
     10 ****         1.0811  -0.6198   0.7930 O.3            1 S1                 0.0000
     11 ****         1.3792  -2.7904  -0.2119 C.3            1 S1                 0.0000
     12 ****         3.1961  -2.7042  -0.3026 S.3            1 S1                 0.0000
     13 ****         3.4014  -2.1844  -1.9793 C.2            1 S1                 0.0000
     14 ****         2.5672  -2.4730  -2.9753 N.2            1 S1                 0.0000
     15 ****         3.1237  -1.8708  -4.0982 C.2            1 S1                 0.0000
     16 ****         4.2882  -1.2357  -3.7424 C.2            1 S1                 0.0000
     17 ****         4.4546  -1.4485  -2.3805 N.pl3          1 S1                 0.0000
     18 ****         5.5521  -0.9618  -1.5679 C.3            1 S1                 0.0000
     19 ****        -2.0170   0.5769   0.4660 C.ar           1 S1                 0.0000
     20 ****        -2.1258   0.4616   1.8631 C.ar           1 S1                 0.0000
     21 ****        -2.7444   1.4924   2.6012 C.ar           1 S1                 0.0000
     22 ****        -2.8558   1.3592   4.1096 C.3            1 S1                 0.0000
     23 ****        -4.2558   4.5536   2.0355 H              1 S1                 0.0000
     24 ****        -3.2300   4.1922   3.4223 H              1 S1                 0.0000
     25 ****        -4.7934   3.3834   3.2383 H              1 S1                 0.0000
     26 ****        -3.5199   3.6081   0.0128 H              1 S1                 0.0000
     27 ****        -1.3598   0.0393  -2.6267 H              1 S1                 0.0000
     28 ****        -1.2132  -2.0079   0.5255 H              1 S1                 0.0000
     29 ****        -1.1280  -2.1543  -1.2148 H              1 S1                 0.0000
     30 ****         1.0466  -0.9002  -1.2194 H              1 S1                 0.0000
     31 ****         0.6797   0.2313   0.7055 H              1 S1                 0.0000
     32 ****         1.1082  -3.2627   0.7329 H              1 S1                 0.0000
     33 ****         1.0188  -3.4550  -0.9974 H              1 S1                 0.0000
     34 ****         2.6482  -1.9410  -5.0653 H              1 S1                 0.0000
     35 ****         4.9937  -0.6667  -4.3299 H              1 S1                 0.0000
     36 ****         6.2511  -0.3919  -2.1807 H              1 S1                 0.0000
     37 ****         6.0806  -1.8033  -1.1196 H              1 S1                 0.0000
     38 ****         5.1674  -0.3165  -0.7776 H              1 S1                 0.0000
     39 ****        -1.7335  -0.4122   2.3621 H              1 S1                 0.0000
     40 ****        -2.4157   0.4252   4.4603 H              1 S1                 0.0000
     41 ****        -3.9012   1.3731   4.4187 H              1 S1                 0.0000
     42 ****        -2.3365   2.1799   4.6047 H              1 S1                 0.0000
     43 ****        -2.5379   2.2531  -2.3214 LP             1 S1                 0.0000
     44 ****         2.0761  -0.5228   0.8162 LP             1 S1                 0.0000
     45 ****         0.7688  -1.0549   1.6375 LP             1 S1                 0.0000
     46 ****         1.7232  -3.0071  -2.9267 LP             1 S1                 0.0000
@<TRIPOS>BOND
    1    1    2 1     
    2    1   23 1     
    3    1   24 1     
    4    1   25 1     
    5    2   21 ar    
    6    2    3 ar    
    7    3    4 ar    
    8    3   26 1     
    9    4   19 ar    
   10    4    5 1     
   11    5    6 2     
   12    6    7 1     
   13    6   27 1     
   14    7    8 1     
   15    7   19 1     
   16    8    9 1     
   17    8   28 1     
   18    8   29 1     
   19    9   10 1     
   20    9   11 1     
   21    9   30 1     
   22   10   31 1     
   23   11   12 1     
   24   11   32 1     
   25   11   33 1     
   26   12   13 1     
   27   13   17 1     
   28   13   14 2     
   29   14   15 1     
   30   15   16 2     
   31   15   34 1     
   32   16   17 1     
   33   16   35 1     
   34   17   18 1     
   35   18   36 1     
   36   18   37 1     
   37   18   38 1     
   38   19   20 ar    
   39   20   21 ar    
   40   20   39 1     
   41   21   22 1     
   42   22   40 1     
   43   22   41 1     
   44   22   42 1     
   45    5   43 1     
   46   10   44 1     
   47   10   45 1     
   48   14   46 1     
@<TRIPOS>SUBSTRUCTURE
      1 S1             1
@<TRIPOS>SET
LONE_PAIRS      STATIC     ATOMS    <user>   **** ""
4 43 44 45 46
DONOR_HYDROGENS      STATIC     ATOMS    <user>   **** ""
1 31
ATOM$BLUE        STATIC     ATOMS    COLORGROUP SYSTEM
4 43 44 45 46
ATOM$RED        STATIC     ATOMS    COLORGROUP SYSTEM
1 31
