AV-unprocessed.smi:1565|AV-procd|sdf|6301|dock1
  -GOLD-   22720 6503D 1   1.00000     0.00000
 Structure written by MMmdl.
 39 40  0  0  0  0  0  0  0  0  2 V2000
  150.4330  140.7266  157.4528 C   0  0  0  0  0  0  0  0  0  0  0  0
  151.5137  141.6583  158.0114 C   0  0  2  0  0  0  0  0  0  0  0  0
  152.0347  141.1827  159.3806 C   0  0  0  0  0  0  0  0  0  0  0  0
  152.9731  142.1539  159.9356 N   0  0  0  0  0  0  0  0  0  0  0  0
  153.7158  141.7056  161.0491 C   0  0  0  0  0  0  0  0  0  0  0  0
  154.5080  140.5382  160.9490 C   0  0  0  0  0  0  0  0  0  0  0  0
  155.2309  140.0989  162.0748 C   0  0  0  0  0  0  0  0  0  0  0  0
  155.1563  140.8407  163.2756 C   0  0  0  0  0  0  0  0  0  0  0  0
  155.8672  140.4080  164.5295 C   0  0  0  0  0  0  0  0  0  0  0  0
  156.6315  139.4393  164.4565 O   0  0  0  0  0  0  0  0  0  0  0  0
  155.5109  141.1525  165.6145 N   0  5  0  0  0  0  0  0  0  0  0  0
  156.4640  141.7366  166.5614 C   0  0  0  0  0  0  0  0  0  0  0  0
  155.7972  142.8156  167.4388 C   0  0  0  0  0  0  0  0  0  0  0  0
  155.1838  143.6973  166.6493 F   0  0  0  0  0  0  0  0  0  0  0  0
  154.8871  142.2707  168.2476 F   0  0  0  0  0  0  0  0  0  0  0  0
  156.7008  143.4677  168.1720 F   0  0  0  0  0  0  0  0  0  0  0  0
  154.3375  141.9904  163.2779 C   0  0  0  0  0  0  0  0  0  0  0  0
  153.6434  142.4170  162.2007 N   0  0  0  0  0  0  0  0  0  0  0  0
  152.4385  143.5133  159.9735 C   0  0  0  0  0  0  0  0  0  0  0  0
  151.9092  143.9222  158.5864 C   0  0  2  0  0  0  0  0  0  0  0  0
  151.2326  145.2967  158.6110 C   0  0  0  0  0  0  0  0  0  0  0  0
  150.9526  142.9608  158.1493 O   0  0  0  0  0  0  0  0  0  0  0  0
  150.8178  139.7152  157.3182 H   0  0  0  0  0  0  0  0  0  0  0  0
  150.0779  141.0789  156.4841 H   0  0  0  0  0  0  0  0  0  0  0  0
  149.5745  140.6720  158.1230 H   0  0  0  0  0  0  0  0  0  0  0  0
  152.3393  141.6978  157.2983 H   0  0  0  0  0  0  0  0  0  0  0  0
  151.2044  141.0626  160.0778 H   0  0  0  0  0  0  0  0  0  0  0  0
  152.4942  140.2021  159.2643 H   0  0  0  0  0  0  0  0  0  0  0  0
  154.5760  139.9815  160.0266 H   0  0  0  0  0  0  0  0  0  0  0  0
  155.8273  139.2008  162.0064 H   0  0  0  0  0  0  0  0  0  0  0  0
  156.9186  140.9822  167.2055 H   0  0  0  0  0  0  0  0  0  0  0  0
  157.2994  142.1910  166.0275 H   0  0  0  0  0  0  0  0  0  0  0  0
  154.2316  142.5932  164.1683 H   0  0  0  0  0  0  0  0  0  0  0  0
  151.6370  143.5641  160.7120 H   0  0  0  0  0  0  0  0  0  0  0  0
  153.2158  144.2121  160.2858 H   0  0  0  0  0  0  0  0  0  0  0  0
  152.7347  143.9552  157.8729 H   0  0  0  0  0  0  0  0  0  0  0  0
  151.9299  146.0716  158.9304 H   0  0  0  0  0  0  0  0  0  0  0  0
  150.3838  145.3069  159.2951 H   0  0  0  0  0  0  0  0  0  0  0  0
  150.8655  145.5679  157.6208 H   0  0  0  0  0  0  0  0  0  0  0  0
  1  2  1  0  0  0  0
  1 23  1  0  0  0  0
  1 24  1  0  0  0  0
  1 25  1  0  0  0  0
  2 22  1  0  0  0  0
  2  3  1  0  0  0  0
  2 26  1  0  0  0  0
  3  4  1  0  0  0  0
  3 27  1  0  0  0  0
  3 28  1  0  0  0  0
  4  5  1  0  0  0  0
  4 19  1  0  0  0  0
  5 18  1  0  0  0  0
  5  6  2  0  0  0  0
  6  7  1  0  0  0  0
  6 29  1  0  0  0  0
  7  8  2  0  0  0  0
  7 30  1  0  0  0  0
  8  9  1  0  0  0  0
  8 17  1  0  0  0  0
  9 10  2  0  0  0  0
  9 11  1  0  0  0  0
 11 12  1  0  0  0  0
 12 13  1  0  0  0  0
 12 31  1  0  0  0  0
 12 32  1  0  0  0  0
 13 14  1  0  0  0  0
 13 15  1  0  0  0  0
 13 16  1  0  0  0  0
 17 18  2  0  0  0  0
 17 33  1  0  0  0  0
 19 20  1  0  0  0  0
 19 34  1  0  0  0  0
 19 35  1  0  0  0  0
 20 21  1  0  0  0  0
 20 22  1  0  0  0  0
 20 36  1  0  0  0  0
 21 37  1  0  0  0  0
 21 38  1  0  0  0  0
 21 39  1  0  0  0  0
M  CHG  1  11  -1
M  END
> <s_m_source_file>
AV-unprocessed.smi

> <i_m_source_file_index>
1565

> <i_lp_mmshare_version>
43012

> <i_f3d_flags>
0

> <s_epik_input>
W0NIM11bQ0BASF0xW0NIMl1OKFtDSDJdW0NASF0oTzEpW0NIM10pYzJbY0hdW2NIXWMoW2NIXW4yKUMoPU8pW05IXVtDSDJdQyhGKShGKUY=

> <s_epik_cmdline>
J2VwaWtfcHl0aG9uJywgJy1waCcsICc3LjAnLCAnLXRuJywgJzgnLCAnLW1hJywgJzIwMCcsICctbWV0YWxfYmluZGluZycsICctaW1hZScsICc8aW5maWxlLm1hZT4nLCAnLW9tYWUnLCAnPG91dGZpbGUubWFlPic=

> <r_lp_tautomer_probability>
1

> <r_epik_Ionization_Penalty>
6.78525

> <r_epik_Ionization_Penalty_Charging>
6.78469

> <r_epik_Ionization_Penalty_Neutral>
0.000559052

> <r_epik_State_Penalty>
6.78469

> <r_epik_Charging_Adjusted_Penalty>
13.5694

> <i_epik_Tot_Q>
-1

> <i_epik_Tot_abs_Q>
1

> <r_epik_Metal_State_Penalty>
2.70441

> <b_epik_Metal_Only>
1

> <s_lp_Force_Field>
OPLS_2005

> <r_lp_Energy>
25.7162

> <b_lp_Chiralities_Consistent>
1

> <s_lp_Variant>
AV-unprocessed.smi:1565-5

> <Gold.Version>
5.8.1

> <Gold.Id.Protein>
6NUR|6NUR_protein|mol2

> <Gold.PLP.Fitness>
39.0598

> <Gold.PLP.PLP>
-40.3969

> <Gold.PLP.part.hbond>
-0.3802

> <Gold.PLP.part.metal>
0.0000

> <Gold.PLP.part.buried>
-1.0837

> <Gold.PLP.part.nonpolar>
-37.0389

> <Gold.PLP.part.repulsive>
0.1430

> <Gold.PLP.ligand.clash>
0.1573

> <Gold.PLP.ligand.torsion>
0.7752

> <Gold.PLP.Chemscore.Hbond>
0.0000

> <Gold.PLP.Chemscore.CHOScore>
0.0000

> <Gold.PLP.Chemscore.Metal>
0.0000

> <Gold.PLP.Chemscore.Internal.Correction>
0.3705

> <Gold.Rescore>
     Score         DG    S(hbond)    S(metal)    S(lipo)     H(rot)  DE(clash)    DE(int)     intcor
     12.97     -13.75       0.00        0.00      98.92       1.29       0.08       0.69       ----

> <Gold.Chemscore.Fitness>
12.9700

> <Gold.Chemscore.DG>
-13.7457

> <Gold.Chemscore.ZeroCoef>
-5.4800

> <Gold.Chemscore.Hbond>
0.0000

> <Gold.Chemscore.Metal>
0.0000

> <Gold.Chemscore.Lipo>
98.9188

> <Gold.Chemscore.Internal_Hbond>
0.0000

> <Gold.Chemscore.DEClash>
0.0814

> <Gold.Chemscore.DEInternal>
0.6944

> <Gold.Chemscore.Rot>
1.2921

> <Gold.Chemscore.Internal.Correction>
   9.000000E+99

> <Gold.Chemscore.Hbond.Weighted>
-0.0000

> <Gold.Chemscore.Metal.Weighted>
-0.0000

> <Gold.Chemscore.Lipo.Weighted>
-11.5735

> <Gold.Chemscore.Internal_Hbond.Weighted>
0.0000

> <Gold.Chemscore.DEClash.Weighted>
0.0814

> <Gold.Chemscore.DEInternal.Weighted>
0.6944

> <Gold.Chemscore.Rot.Weighted>
3.3078

> <Gold.Chemscore.Internal.Correction.Weighted>
   9.000000E+99

> <Gold.Protein.RotatedTorsions>
[ 6907 6896 6895 6894 ] final   68.93 input  -60.11 | X-H torsion
[ 7974 7965 7964 7962 ] final  -23.69 input  175.53 | X-H torsion
[ 8008 7997 7996 7995 ] final -134.84 input   59.86 | X-H torsion
[ 10167 10162 10161 10158 ] final   87.05 input  -65.29 | X-H torsion
[ 10718 10713 10712 10709 ] final  142.97 input   66.30 | X-H torsion
[ 10763 10752 10751 10750 ] final   -0.64 input  -60.55 | X-H torsion
[ 11005 11000 10999 10996 ] final  151.16 input  -57.11 | X-H torsion

> <Gold.Protein.ActiveResidues>
 VAL166  LYS551  ARG553  GLY616  TRP617  ASP618  TYR619  PRO620  LYS621  CYS622 
 ASP623  PHE694  ASN695  SER759  ASP760  ASP761  ALA762  ILE779  LEU786  VAL792 
 PHE793  MET794  SER795  GLU796  ALA797  LYS798  CYS799  TRP800  GLU811  SER814 

> <Gold.Protein.RotatedAtoms>
  152.4653  134.5090  159.9747 H   0  0  0  0  0  0  0  0  0  0  0  0  # atno 6907 bound_to 6896
  151.5129  133.3475  159.2896 H   0  0  0  0  0  0  0  0  0  0  0  0  # atno 6908 bound_to 6896
  150.8635  134.8021  159.7162 H   0  0  0  0  0  0  0  0  0  0  0  0  # atno 6909 bound_to 6896
  146.1601  140.4650  142.8575 H   0  0  0  0  0  0  0  0  0  0  0  0  # atno 7974 bound_to 7965
  155.3687  140.0487  157.3046 H   0  0  0  0  0  0  0  0  0  0  0  0  # atno 8008 bound_to 7997
  154.5141  140.2202  155.9063 H   0  0  0  0  0  0  0  0  0  0  0  0  # atno 8009 bound_to 7997
  156.1616  140.3115  155.8823 H   0  0  0  0  0  0  0  0  0  0  0  0  # atno 8010 bound_to 7997
  139.8813  144.6438  150.8840 H   0  0  0  0  0  0  0  0  0  0  0  0  # atno 10167 bound_to 10162
  157.3744  131.0983  151.0798 H   0  0  0  0  0  0  0  0  0  0  0  0  # atno 10718 bound_to 10713
  153.3345  135.6977  153.6919 H   0  0  0  0  0  0  0  0  0  0  0  0  # atno 10763 bound_to 10752
  153.5709  135.3516  155.2838 H   0  0  0  0  0  0  0  0  0  0  0  0  # atno 10764 bound_to 10752
  154.8624  135.4272  154.2542 H   0  0  0  0  0  0  0  0  0  0  0  0  # atno 10765 bound_to 10752
  140.1194  134.8873  157.2051 H   0  0  0  0  0  0  0  0  0  0  0  0  # atno 11005 bound_to 11000
  144.8015  140.6222  143.6475 LP  0  0  0  0  0  0  0  0  0  0  0  0  # atno 17320 bound_to 7965
  145.4610  139.1513  143.3866 LP  0  0  0  0  0  0  0  0  0  0  0  0  # atno 17321 bound_to 7965
  140.7744  143.3583  151.1877 LP  0  0  0  0  0  0  0  0  0  0  0  0  # atno 17342 bound_to 10162
  139.7193  143.9249  152.2979 LP  0  0  0  0  0  0  0  0  0  0  0  0  # atno 17343 bound_to 10162
  157.1891  130.6343  149.5698 LP  0  0  0  0  0  0  0  0  0  0  0  0  # atno 17370 bound_to 10713
  155.9762  130.4728  150.6512 LP  0  0  0  0  0  0  0  0  0  0  0  0  # atno 17371 bound_to 10713
  140.2985  134.3159  155.7296 LP  0  0  0  0  0  0  0  0  0  0  0  0  # atno 17394 bound_to 11000
  141.2148  133.7577  156.9606 LP  0  0  0  0  0  0  0  0  0  0  0  0  # atno 17395 bound_to 11000

$$$$
