#       Name:                AV-unprocessed.smi:1472
#       Creating user name   scv26
#       Creation time:       Fri Mar 27 06:05:24 2020


#       File generated by GOLD software.
#

@<TRIPOS>MOLECULE
AV-unprocessed.smi:1472
    44    45     1
SMALL
NO_CHARGES


@<TRIPOS>ATOM
      1 ****        -2.9603  -4.3366  -0.7917 C.3            1 S1                 0.0000
      2 ****        -4.2414  -3.0605  -1.1294 S.o2           1 S1                 0.0000
      3 ****        -4.8380  -3.3449  -2.4434 O.2            1 S1                 0.0000
      4 ****        -5.1059  -2.9553   0.0560 O.2            1 S1                 0.0000
      5 ****        -3.3397  -1.5778  -1.2620 N.pl3          1 S1                 0.0000
      6 ****        -2.8062  -0.9301  -0.0478 C.3            1 S1                 0.0000
      7 ****        -1.3016  -1.2035   0.1292 C.3            1 S1                 0.0000
      8 ****        -0.5014  -0.8093  -1.1262 C.3            1 S1                 0.0000
      9 ****         1.0113  -1.0846  -0.9845 C.3            1 S1                 0.0000
     10 ****         1.6153  -0.3560   0.1274 N.am           1 S1                 0.0000
     11 ****         1.9308   0.9470   0.1121 C.2            1 S1                 0.0000
     12 ****         1.7581   1.6745  -0.8654 O.2            1 S1                 0.0000
     13 ****         2.4663   1.3344   1.2830 N.am           1 S1                 0.0000
     14 ****         2.8811   2.6350   1.6807 C.ar           1 S1                 0.0000
     15 ****         3.7879   2.7312   2.7598 C.ar           1 S1                 0.0000
     16 ****         4.2118   4.0012   3.2020 C.ar           1 S1                 0.0000
     17 ****         3.7430   5.1144   2.5987 N.pl3          1 S1                 1.0000
     18 ****         2.8654   5.0740   1.5733 C.ar           1 S1                 0.0000
     19 ****         2.4052   3.8328   1.0882 C.ar           1 S1                 0.0000
     20 ****        -1.0885  -1.5513  -2.3375 C.3            1 S1                 0.0000
     21 ****        -2.5932  -1.2738  -2.4988 C.3            1 S1                 0.0000
     22 ****        -3.4429  -5.3094  -0.7023 H              1 S1                 0.0000
     23 ****        -2.4491  -4.1106   0.1423 H              1 S1                 0.0000
     24 ****        -2.2443  -4.3707  -1.6106 H              1 S1                 0.0000
     25 ****        -2.9740   0.1444  -0.1300 H              1 S1                 0.0000
     26 ****        -3.3584  -1.2601   0.8317 H              1 S1                 0.0000
     27 ****        -0.9435  -0.6475   0.9960 H              1 S1                 0.0000
     28 ****        -1.1363  -2.2560   0.3559 H              1 S1                 0.0000
     29 ****        -0.6391   0.2599  -1.2948 H              1 S1                 0.0000
     30 ****         1.1821  -2.1492  -0.8221 H              1 S1                 0.0000
     31 ****         1.5307  -0.8301  -1.9101 H              1 S1                 0.0000
     32 ****         1.7986  -0.8833   0.9685 H              1 S1                 0.0000
     33 ****         2.6316   0.6017   1.9577 H              1 S1                 0.0000
     34 ****         4.1621   1.8412   3.2451 H              1 S1                 0.0000
     35 ****         4.9047   4.1584   4.0156 H              1 S1                 0.0000
     36 ****         2.5534   6.0297   1.1779 H              1 S1                 0.0000
     37 ****         1.6877   3.8259   0.2819 H              1 S1                 0.0000
     38 ****        -0.5686  -1.2455  -3.2461 H              1 S1                 0.0000
     39 ****        -0.9148  -2.6220  -2.2366 H              1 S1                 0.0000
     40 ****        -2.9968  -1.8420  -3.3364 H              1 S1                 0.0000
     41 ****        -2.7454  -0.2214  -2.7412 H              1 S1                 0.0000
     42 ****         4.0609   6.0239   2.9349 H              1 S1                 0.0000
     43 ****         1.3637   1.2995  -1.7043 LP             1 S1                 0.0000
     44 ****         2.0122   2.6407  -0.8208 LP             1 S1                 0.0000
@<TRIPOS>BOND
    1    1    2 1     
    2    1   22 1     
    3    1   23 1     
    4    1   24 1     
    5    2    3 2     
    6    2    4 2     
    7    2    5 1     
    8    5   21 1     
    9    5    6 1     
   10    6    7 1     
   11    6   25 1     
   12    6   26 1     
   13    7    8 1     
   14    7   27 1     
   15    7   28 1     
   16    8    9 1     
   17    8   20 1     
   18    8   29 1     
   19    9   10 1     
   20    9   30 1     
   21    9   31 1     
   22   10   11 am    
   23   10   32 1     
   24   11   12 2     
   25   11   13 am    
   26   13   14 1     
   27   13   33 1     
   28   14   19 ar    
   29   14   15 ar    
   30   15   16 ar    
   31   15   34 1     
   32   16   17 ar    
   33   16   35 1     
   34   17   18 ar    
   35   17   42 1     
   36   18   19 ar    
   37   18   36 1     
   38   19   37 1     
   39   20   21 1     
   40   20   38 1     
   41   20   39 1     
   42   21   40 1     
   43   21   41 1     
   44   12   43 1     
   45   12   44 1     
@<TRIPOS>SUBSTRUCTURE
      1 S1             1
@<TRIPOS>SET
LONE_PAIRS      STATIC     ATOMS    <user>   **** ""
4 3 4 43 44
DONOR_HYDROGENS      STATIC     ATOMS    <user>   **** ""
3 32 33 42
ATOM$BLUE        STATIC     ATOMS    COLORGROUP SYSTEM
4 3 4 43 44
ATOM$RED        STATIC     ATOMS    COLORGROUP SYSTEM
3 32 33 42
