AV-unprocessed.smi:3251|AV-procd|sdf|12435|dock7
  -GOLD-   2272018323D 1   1.00000     0.00000
 Structure written by MMmdl.
 41 42  0  0  0  0  0  0  0  0  2 V2000
  143.8938  134.4867  150.3986 C   0  0  0  0  0  0  0  0  0  0  0  0
  144.4390  135.7373  151.0260 C   0  0  0  0  0  0  0  0  0  0  0  0
  143.9569  136.4196  152.1791 C   0  0  0  0  0  0  0  0  0  0  0  0
  144.6614  137.5017  152.4681 N   0  0  0  0  0  0  0  0  0  0  0  0
  145.6159  137.5472  151.5145 N   0  0  0  0  0  0  0  0  0  0  0  0
  146.5751  138.6369  151.5035 C   0  0  0  0  0  0  0  0  0  0  0  0
  147.0382  138.9984  152.9228 C   0  0  0  0  0  0  0  0  0  0  0  0
  148.4835  138.7354  153.0994 N   0  3  0  0  0  0  0  0  0  0  0  0
  149.0060  138.9639  154.4652 C   0  0  2  0  0  0  0  0  0  0  0  0
  147.9291  138.5769  155.4914 C   0  0  0  0  0  0  0  0  0  0  0  0
  149.4201  140.4362  154.6660 C   0  0  0  0  0  0  0  0  0  0  0  0
  149.1494  141.2549  153.7855 O   0  0  0  0  0  0  0  0  0  0  0  0
  150.0569  140.7958  155.8014 N   0  0  0  0  0  0  0  0  0  0  0  0
  150.5137  142.1407  156.1522 C   0  0  0  0  0  0  0  0  0  0  0  0
  151.3906  141.9698  157.3926 C   0  0  0  0  0  0  0  0  0  0  0  0
  150.8713  140.6960  158.0432 C   0  0  0  0  0  0  0  0  0  0  0  0
  150.3835  139.8497  156.8674 C   0  0  0  0  0  0  0  0  0  0  0  0
  145.5057  136.4942  150.6314 C   0  0  0  0  0  0  0  0  0  0  0  0
  143.2655  133.9264  151.0914 H   0  0  0  0  0  0  0  0  0  0  0  0
  144.6908  133.8168  150.0754 H   0  0  0  0  0  0  0  0  0  0  0  0
  143.2859  134.7105  149.5219 H   0  0  0  0  0  0  0  0  0  0  0  0
  143.1187  136.1623  152.8100 H   0  0  0  0  0  0  0  0  0  0  0  0
  147.4229  138.3649  150.8725 H   0  0  0  0  0  0  0  0  0  0  0  0
  146.1017  139.5012  151.0362 H   0  0  0  0  0  0  0  0  0  0  0  0
  146.8479  140.0533  153.1222 H   0  0  0  0  0  0  0  0  0  0  0  0
  146.4557  138.4293  153.6486 H   0  0  0  0  0  0  0  0  0  0  0  0
  148.6669  137.7717  152.8551 H   0  0  0  0  0  0  0  0  0  0  0  0
  149.8631  138.3033  154.5971 H   0  0  0  0  0  0  0  0  0  0  0  0
  148.2794  138.7133  156.5148 H   0  0  0  0  0  0  0  0  0  0  0  0
  147.6454  137.5296  155.3831 H   0  0  0  0  0  0  0  0  0  0  0  0
  147.0262  139.1772  155.3698 H   0  0  0  0  0  0  0  0  0  0  0  0
  151.0708  142.6197  155.3468 H   0  0  0  0  0  0  0  0  0  0  0  0
  149.6469  142.7612  156.3846 H   0  0  0  0  0  0  0  0  0  0  0  0
  152.4287  141.8260  157.0893 H   0  0  0  0  0  0  0  0  0  0  0  0
  151.3542  142.8318  158.0597 H   0  0  0  0  0  0  0  0  0  0  0  0
  151.6267  140.1889  158.6446 H   0  0  0  0  0  0  0  0  0  0  0  0
  150.0306  140.9356  158.6957 H   0  0  0  0  0  0  0  0  0  0  0  0
  149.5259  139.2373  157.1508 H   0  0  0  0  0  0  0  0  0  0  0  0
  151.1757  139.1839  156.5211 H   0  0  0  0  0  0  0  0  0  0  0  0
  146.1851  136.3740  149.8002 H   0  0  0  0  0  0  0  0  0  0  0  0
  148.9869  139.3295  152.4567 H   0  0  0  0  0  0  0  0  0  0  0  0
  1  2  1  0  0  0  0
  1 19  1  0  0  0  0
  1 20  1  0  0  0  0
  1 21  1  0  0  0  0
  2 18  2  0  0  0  0
  2  3  1  0  0  0  0
  3  4  2  0  0  0  0
  3 22  1  0  0  0  0
  4  5  1  0  0  0  0
  5  6  1  0  0  0  0
  5 18  1  0  0  0  0
  6  7  1  0  0  0  0
  6 23  1  0  0  0  0
  6 24  1  0  0  0  0
  7  8  1  0  0  0  0
  7 25  1  0  0  0  0
  7 26  1  0  0  0  0
  8  9  1  0  0  0  0
  8 27  1  0  0  0  0
  8 41  1  0  0  0  0
  9 10  1  0  0  0  0
  9 11  1  0  0  0  0
  9 28  1  0  0  0  0
 10 29  1  0  0  0  0
 10 30  1  0  0  0  0
 10 31  1  0  0  0  0
 11 12  2  0  0  0  0
 11 13  1  0  0  0  0
 13 17  1  0  0  0  0
 13 14  1  0  0  0  0
 14 15  1  0  0  0  0
 14 32  1  0  0  0  0
 14 33  1  0  0  0  0
 15 16  1  0  0  0  0
 15 34  1  0  0  0  0
 15 35  1  0  0  0  0
 16 17  1  0  0  0  0
 16 36  1  0  0  0  0
 16 37  1  0  0  0  0
 17 38  1  0  0  0  0
 17 39  1  0  0  0  0
 18 40  1  0  0  0  0
M  CHG  1   8   1
M  END
> <s_m_source_file>
AV-unprocessed.smi

> <i_m_source_file_index>
3251

> <i_lp_mmshare_version>
43012

> <i_f3d_flags>
0

> <s_epik_input>
W0NIM11jMVtjSF1ubihbY0hdMSlbQ0gyXVtDSDJdW05IXVtDQEhdKFtDSDNdKUMoPU8pTjJbQ0gyXVtDSDJdW0NIMl1bQ0gyXTI=

> <s_epik_cmdline>
J2VwaWtfcHl0aG9uJywgJy1waCcsICc3LjAnLCAnLXRuJywgJzgnLCAnLW1hJywgJzIwMCcsICctbWV0YWxfYmluZGluZycsICctaW1hZScsICc8aW5maWxlLm1hZT4nLCAnLW9tYWUnLCAnPG91dGZpbGUubWFlPic=

> <r_lp_tautomer_probability>
1

> <r_epik_Ionization_Penalty>
0.203173

> <r_epik_Ionization_Penalty_Charging>
0.203168

> <r_epik_Ionization_Penalty_Neutral>
5.06494e-06

> <r_epik_State_Penalty>
0.193072

> <r_epik_Charging_Adjusted_Penalty>
0.39624

> <i_epik_Tot_Q>
1

> <i_epik_Tot_abs_Q>
1

> <r_epik_Metal_State_Penalty>
0.193587

> <b_epik_Metal_Only>
0

> <s_lp_Force_Field>
OPLS_2005

> <r_lp_Energy>
29.5605

> <b_lp_Chiralities_Consistent>
1

> <s_lp_Variant>
AV-unprocessed.smi:3251-1

> <Gold.Version>
5.8.1

> <Gold.Id.Protein>
6NUR|6NUR_protein|mol2

> <Gold.PLP.Fitness>
44.5568

> <Gold.PLP.PLP>
-32.4210

> <Gold.PLP.part.hbond>
-3.6773

> <Gold.PLP.part.metal>
0.0000

> <Gold.PLP.part.buried>
0.6247

> <Gold.PLP.part.nonpolar>
-32.3759

> <Gold.PLP.part.repulsive>
1.4872

> <Gold.PLP.ligand.clash>
0.0000

> <Gold.PLP.ligand.torsion>
1.0538

> <Gold.PLP.Chemscore.Hbond>
3.8390

> <Gold.PLP.Chemscore.CHOScore>
0.8989

> <Gold.PLP.Chemscore.Metal>
0.0000

> <Gold.Chemscore.Hbonds>
donor molecule, donor type, donor heavy atom, donor atom, acceptor molecule, acceptor atom, score
      L1  H     8    27       P1  7948  2.00
      L1  H     8    41       P1  7957  1.00
      P1  H  8011  8017       L1    12  0.86
      L1  C    18    40       P1  7921  0.72

> <Gold.PLP.Chemscore.Internal.Correction>
0.0296

> <Gold.Rescore>
     Score         DG    S(hbond)    S(metal)    S(lipo)     H(rot)  DE(clash)    DE(int)     intcor
     15.34     -18.65       2.72        0.00      73.47       1.76       1.74       1.57       ----

> <Gold.Chemscore.Fitness>
15.3427

> <Gold.Chemscore.DG>
-18.6521

> <Gold.Chemscore.ZeroCoef>
-5.4800

> <Gold.Chemscore.Hbond>
2.7189

> <Gold.Chemscore.Metal>
0.0000

> <Gold.Chemscore.Lipo>
73.4707

> <Gold.Chemscore.Internal_Hbond>
0.0000

> <Gold.Chemscore.DEClash>
1.7416

> <Gold.Chemscore.DEInternal>
1.5678

> <Gold.Chemscore.Rot>
1.7599

> <Gold.Chemscore.Internal.Correction>
   9.000000E+99

> <Gold.Chemscore.Hbonds>
donor molecule, donor type, donor heavy atom, donor atom, acceptor molecule, acceptor atom, score
      L1  H     8    27       P1  7948  1.00
      L1  H     8    41       P1  7957  0.98
      P1  H  8011  8017       L1    12  0.83

> <Gold.Chemscore.Hbond.Weighted>
-9.0813

> <Gold.Chemscore.Metal.Weighted>
-0.0000

> <Gold.Chemscore.Lipo.Weighted>
-8.5961

> <Gold.Chemscore.Internal_Hbond.Weighted>
0.0000

> <Gold.Chemscore.DEClash.Weighted>
1.7416

> <Gold.Chemscore.DEInternal.Weighted>
1.5678

> <Gold.Chemscore.Rot.Weighted>
4.5053

> <Gold.Chemscore.Internal.Correction.Weighted>
   9.000000E+99

> <Gold.Protein.RotatedTorsions>
[ 6907 6896 6895 6894 ] final -134.07 input  -60.11 | X-H torsion
[ 7974 7965 7964 7962 ] final   98.38 input  175.53 | X-H torsion
[ 8008 7997 7996 7995 ] final -174.62 input   59.86 | X-H torsion
[ 10167 10162 10161 10158 ] final   78.32 input  -65.29 | X-H torsion
[ 10718 10713 10712 10709 ] final  -99.28 input   66.30 | X-H torsion
[ 10763 10752 10751 10750 ] final -106.86 input  -60.55 | X-H torsion
[ 11005 11000 10999 10996 ] final   94.70 input  -57.11 | X-H torsion

> <Gold.Protein.ActiveResidues>
 VAL166  LYS551  ARG553  GLY616  TRP617  ASP618  TYR619  PRO620  LYS621  CYS622 
 ASP623  PHE694  ASN695  SER759  ASP760  ASP761  ALA762  ILE779  LEU786  VAL792 
 PHE793  MET794  SER795  GLU796  ALA797  LYS798  CYS799  TRP800  GLU811  SER814 

> <Gold.Protein.RotatedAtoms>
  150.9814  133.6241  159.2721 H   0  0  0  0  0  0  0  0  0  0  0  0  # atno 6907 bound_to 6896
  151.3494  135.0880  159.9408 H   0  0  0  0  0  0  0  0  0  0  0  0  # atno 6908 bound_to 6896
  152.5217  133.9410  159.7681 H   0  0  0  0  0  0  0  0  0  0  0  0  # atno 6909 bound_to 6896
  145.4129  139.2331  143.3238 H   0  0  0  0  0  0  0  0  0  0  0  0  # atno 7974 bound_to 7965
  155.9724  140.1165  157.0801 H   0  0  0  0  0  0  0  0  0  0  0  0  # atno 8008 bound_to 7997
  154.4160  140.1160  156.5391 H   0  0  0  0  0  0  0  0  0  0  0  0  # atno 8009 bound_to 7997
  155.6580  140.3473  155.4774 H   0  0  0  0  0  0  0  0  0  0  0  0  # atno 8010 bound_to 7997
  139.9721  144.5886  150.7975 H   0  0  0  0  0  0  0  0  0  0  0  0  # atno 10167 bound_to 10162
  156.0130  130.5275  150.6647 H   0  0  0  0  0  0  0  0  0  0  0  0  # atno 10718 bound_to 10713
  154.8039  135.4696  154.0344 H   0  0  0  0  0  0  0  0  0  0  0  0  # atno 10763 bound_to 10752
  153.1828  135.6843  153.8462 H   0  0  0  0  0  0  0  0  0  0  0  0  # atno 10764 bound_to 10752
  153.8007  135.3230  155.3367 H   0  0  0  0  0  0  0  0  0  0  0  0  # atno 10765 bound_to 10752
  139.8796  134.8859  156.3903 H   0  0  0  0  0  0  0  0  0  0  0  0  # atno 11005 bound_to 11000
  146.2696  140.4843  142.8820 LP  0  0  0  0  0  0  0  0  0  0  0  0  # atno 17320 bound_to 7965
  144.8297  140.6686  143.6299 LP  0  0  0  0  0  0  0  0  0  0  0  0  # atno 17321 bound_to 7965
  140.7518  143.2979  151.3156 LP  0  0  0  0  0  0  0  0  0  0  0  0  # atno 17342 bound_to 10162
  139.6473  144.0428  152.2600 LP  0  0  0  0  0  0  0  0  0  0  0  0  # atno 17343 bound_to 10162
  157.4382  131.0858  151.0970 LP  0  0  0  0  0  0  0  0  0  0  0  0  # atno 17370 bound_to 10713
  157.1522  130.6189  149.5585 LP  0  0  0  0  0  0  0  0  0  0  0  0  # atno 17371 bound_to 10713
  140.9337  133.7561  156.0058 LP  0  0  0  0  0  0  0  0  0  0  0  0  # atno 17394 bound_to 11000
  140.8300  134.3189  157.5352 LP  0  0  0  0  0  0  0  0  0  0  0  0  # atno 17395 bound_to 11000

$$$$
