#       Name:                AV-unprocessed.smi:840
#       Creating user name   scv26
#       Creation time:       Fri Mar 27 01:37:32 2020


#       File generated by GOLD software.
#

@<TRIPOS>MOLECULE
AV-unprocessed.smi:840
    42    43     1
SMALL
NO_CHARGES


@<TRIPOS>ATOM
      1 ****        -1.1996  -2.0278  -2.6822 C.3            1 S1                 0.0000
      2 ****        -0.6133  -1.4422  -1.3869 C.3            1 S1                 0.0000
      3 ****         0.8326  -1.6576  -1.4042 N.am           1 S1                 0.0000
      4 ****         1.6311  -1.6177  -0.3268 C.2            1 S1                 0.0000
      5 ****         1.2193  -1.4059   0.8146 O.2            1 S1                 0.0000
      6 ****         2.9150  -1.8324  -0.6633 N.am           1 S1                 0.0000
      7 ****         4.0482  -1.8871   0.1901 C.2            1 S1                 0.0000
      8 ****         3.9989  -1.7475   1.5201 N.2            1 S1                 0.0000
      9 ****         5.2632  -1.8516   2.1056 C.2            1 S1                 0.0000
     10 ****         6.2711  -2.0719   1.2001 C.2            1 S1                 0.0000
     11 ****         5.6687  -2.1588  -0.4338 S.3            1 S1                 0.0000
     12 ****        -0.9287   0.0612  -1.3485 C.2            1 S1                 0.0000
     13 ****        -0.3430   0.8438  -2.0986 O.2            1 S1                 0.0000
     14 ****        -1.8647   0.4464  -0.4684 N.am           1 S1                 0.0000
     15 ****        -2.3046   1.8224  -0.2558 C.3            1 S1                 0.0000
     16 ****        -1.3219   2.5961   0.6462 C.3            1 S1                 0.0000
     17 ****        -2.0270   2.7581   1.9928 C.3            1 S1                 0.0000
     18 ****        -3.5062   2.8376   1.6295 C.3            1 S1                 0.0000
     19 ****        -3.6652   1.8554   0.4672 C.3            1 S1                 0.0000
     20 ****        -2.2802  -1.8862  -2.7271 H              1 S1                 0.0000
     21 ****        -1.0117  -3.1001  -2.7430 H              1 S1                 0.0000
     22 ****        -0.7662  -1.5671  -3.5715 H              1 S1                 0.0000
     23 ****        -1.0559  -1.9467  -0.5254 H              1 S1                 0.0000
     24 ****         1.2542  -1.8309  -2.3047 H              1 S1                 0.0000
     25 ****         3.1040  -1.9776  -1.6441 H              1 S1                 0.0000
     26 ****         5.3543  -1.7559   3.1775 H              1 S1                 0.0000
     27 ****         7.3269  -2.1883   1.3949 H              1 S1                 0.0000
     28 ****        -2.2902  -0.2633   0.1102 H              1 S1                 0.0000
     29 ****        -2.3925   2.3296  -1.2185 H              1 S1                 0.0000
     30 ****        -0.3497   2.1120   0.7501 H              1 S1                 0.0000
     31 ****        -1.1419   3.5818   0.2151 H              1 S1                 0.0000
     32 ****        -1.8469   1.8776   2.6111 H              1 S1                 0.0000
     33 ****        -1.6813   3.6317   2.5463 H              1 S1                 0.0000
     34 ****        -4.1587   2.6021   2.4707 H              1 S1                 0.0000
     35 ****        -3.7459   3.8472   1.2933 H              1 S1                 0.0000
     36 ****        -4.4781   2.1444  -0.1999 H              1 S1                 0.0000
     37 ****        -3.9135   0.8706   0.8673 H              1 S1                 0.0000
     38 ****         0.2440  -1.2527   0.9739 LP             1 S1                 0.0000
     39 ****         1.8602  -1.3873   1.5820 LP             1 S1                 0.0000
     40 ****         3.1563  -1.5875   2.0344 LP             1 S1                 0.0000
     41 ****         0.3443   0.5022  -2.7396 LP             1 S1                 0.0000
     42 ****        -0.5550   1.8205  -2.0664 LP             1 S1                 0.0000
@<TRIPOS>BOND
    1    1    2 1     
    2    1   20 1     
    3    1   21 1     
    4    1   22 1     
    5    2    3 1     
    6    2   12 1     
    7    2   23 1     
    8    3    4 am    
    9    3   24 1     
   10    4    5 2     
   11    4    6 am    
   12    6    7 1     
   13    6   25 1     
   14    7   11 1     
   15    7    8 2     
   16    8    9 1     
   17    9   10 2     
   18    9   26 1     
   19   10   11 1     
   20   10   27 1     
   21   12   13 2     
   22   12   14 am    
   23   14   15 1     
   24   14   28 1     
   25   15   19 1     
   26   15   16 1     
   27   15   29 1     
   28   16   17 1     
   29   16   30 1     
   30   16   31 1     
   31   17   18 1     
   32   17   32 1     
   33   17   33 1     
   34   18   19 1     
   35   18   34 1     
   36   18   35 1     
   37   19   36 1     
   38   19   37 1     
   39    5   38 1     
   40    5   39 1     
   41    8   40 1     
   42   13   41 1     
   43   13   42 1     
@<TRIPOS>SUBSTRUCTURE
      1 S1             1
@<TRIPOS>SET
LONE_PAIRS      STATIC     ATOMS    <user>   **** ""
5 38 39 40 41 42
DONOR_HYDROGENS      STATIC     ATOMS    <user>   **** ""
3 24 25 28
ATOM$BLUE        STATIC     ATOMS    COLORGROUP SYSTEM
5 38 39 40 41 42
ATOM$RED        STATIC     ATOMS    COLORGROUP SYSTEM
3 24 25 28
