AV-unprocessed.smi:109|AV-procd|sdf|1054|dock7
  -GOLD-   2262018113D 1   1.00000     0.00000
 Structure written by MMmdl.
 58 61  0  0  0  0  0  0  0  0  1 V2000
  148.9928  129.6258  159.5454 O   0  0  0  0  0  0  0  0  0  0  0  0
  148.7993  130.9363  160.0315 C   0  0  0  0  0  0  0  0  0  0  0  0
  148.1408  131.8034  158.9470 C   0  0  0  0  0  0  0  0  0  0  0  0
  148.1913  133.3176  159.2471 C   0  0  1  0  0  0  0  0  0  0  0  0
  147.4895  134.0834  158.2154 N   0  0  0  0  0  0  0  0  0  0  0  0
  147.8489  134.0451  156.9130 C   0  0  0  0  0  0  0  0  0  0  0  0
  149.1532  134.0529  156.5332 N   0  0  0  0  0  0  0  0  0  0  0  0
  149.4731  134.0150  155.2367 C   0  0  0  0  0  0  0  0  0  0  0  0
  148.6611  133.9679  154.1786 N   0  0  0  0  0  0  0  0  0  0  0  0
  147.3491  133.9604  154.5534 C   0  0  0  0  0  0  0  0  0  0  0  0
  146.8660  133.9962  155.8911 C   0  0  0  0  0  0  0  0  0  0  0  0
  145.4773  133.9765  155.8908 N   0  0  0  0  0  0  0  0  0  0  0  0
  145.1626  133.9361  154.6239 C   0  0  0  0  0  0  0  0  0  0  0  0
  146.2274  133.9212  153.7505 N   0  0  0  0  0  0  0  0  0  0  0  0
  146.1812  133.8829  152.2584 C   0  0  1  0  0  0  0  0  0  0  0  0
  145.5381  132.7097  151.8767 O   0  0  0  0  0  0  0  0  0  0  0  0
  144.8213  132.9531  150.6754 C   0  0  1  0  0  0  0  0  0  0  0  0
  143.7605  131.8649  150.4319 C   0  0  0  0  0  0  0  0  0  0  0  0
  143.0739  132.1179  149.2247 O   0  0  0  0  0  0  0  0  0  0  0  0
  144.2802  134.3766  150.8796 C   0  0  1  0  0  0  0  0  0  0  0  0
  143.0601  134.3671  151.5972 O   0  0  0  0  0  0  0  0  0  0  0  0
  145.3744  135.0659  151.6935 C   0  0  2  0  0  0  0  0  0  0  0  0
  146.1701  135.8578  150.8343 O   0  0  0  0  0  0  0  0  0  0  0  0
  147.6410  133.6618  160.6542 C   0  0  0  0  0  0  0  0  0  0  0  0
  146.1816  133.2044  160.8903 C   0  0  0  0  0  0  0  0  0  0  0  0
  145.7027  133.5459  162.3111 C   0  0  0  0  0  0  0  0  0  0  0  0
  145.8615  135.0442  162.6105 C   0  0  0  0  0  0  0  0  0  0  0  0
  147.3123  135.4992  162.3936 C   0  0  0  0  0  0  0  0  0  0  0  0
  147.7922  135.1665  160.9719 C   0  0  0  0  0  0  0  0  0  0  0  0
  147.2246  133.8677  151.9391 H   0  0  0  0  0  0  0  0  0  0  0  0
  145.5332  132.9760  149.8474 H   0  0  0  0  0  0  0  0  0  0  0  0
  144.0926  134.8698  149.9246 H   0  0  0  0  0  0  0  0  0  0  0  0
  144.9709  135.6928  152.4910 H   0  0  0  0  0  0  0  0  0  0  0  0
  148.2665  129.4048  158.9825 H   0  0  0  0  0  0  0  0  0  0  0  0
  148.1746  130.8954  160.9242 H   0  0  0  0  0  0  0  0  0  0  0  0
  149.7661  131.3453  160.3252 H   0  0  0  0  0  0  0  0  0  0  0  0
  148.6077  131.5950  157.9838 H   0  0  0  0  0  0  0  0  0  0  0  0
  147.0984  131.4961  158.8526 H   0  0  0  0  0  0  0  0  0  0  0  0
  149.2438  133.5985  159.2724 H   0  0  0  0  0  0  0  0  0  0  0  0
  146.7322  134.6616  158.5503 H   0  0  0  0  0  0  0  0  0  0  0  0
  150.5302  134.0251  155.0157 H   0  0  0  0  0  0  0  0  0  0  0  0
  144.1355  133.9153  154.2895 H   0  0  0  0  0  0  0  0  0  0  0  0
  144.2080  130.8705  150.4109 H   0  0  0  0  0  0  0  0  0  0  0  0
  143.0222  131.8740  151.2341 H   0  0  0  0  0  0  0  0  0  0  0  0
  142.4292  132.7909  149.3814 H   0  0  0  0  0  0  0  0  0  0  0  0
  142.3743  134.0732  151.0155 H   0  0  0  0  0  0  0  0  0  0  0  0
  147.0537  135.8695  151.1696 H   0  0  0  0  0  0  0  0  0  0  0  0
  148.2642  133.1305  161.3754 H   0  0  0  0  0  0  0  0  0  0  0  0
  145.5163  133.6784  160.1678 H   0  0  0  0  0  0  0  0  0  0  0  0
  146.0894  132.1294  160.7358 H   0  0  0  0  0  0  0  0  0  0  0  0
  144.6594  133.2525  162.4317 H   0  0  0  0  0  0  0  0  0  0  0  0
  146.2722  132.9656  163.0381 H   0  0  0  0  0  0  0  0  0  0  0  0
  145.1972  135.6196  161.9641 H   0  0  0  0  0  0  0  0  0  0  0  0
  145.5547  135.2539  163.6354 H   0  0  0  0  0  0  0  0  0  0  0  0
  147.3959  136.5715  162.5722 H   0  0  0  0  0  0  0  0  0  0  0  0
  147.9616  135.0125  163.1225 H   0  0  0  0  0  0  0  0  0  0  0  0
  148.8343  135.4682  160.8615 H   0  0  0  0  0  0  0  0  0  0  0  0
  147.2239  135.7603  160.2547 H   0  0  0  0  0  0  0  0  0  0  0  0
  1  2  1  0  0  0  0
  1 34  1  0  0  0  0
  2  3  1  0  0  0  0
  2 35  1  0  0  0  0
  2 36  1  0  0  0  0
  3  4  1  0  0  0  0
  3 37  1  0  0  0  0
  3 38  1  0  0  0  0
  4  5  1  0  0  0  0
  4 24  1  0  0  0  0
  4 39  1  0  0  0  0
  5  6  1  0  0  0  0
  5 40  1  0  0  0  0
  6 11  1  0  0  0  0
  6  7  2  0  0  0  0
  7  8  1  0  0  0  0
  8  9  2  0  0  0  0
  8 41  1  0  0  0  0
  9 10  1  0  0  0  0
 10 14  1  0  0  0  0
 10 11  2  0  0  0  0
 11 12  1  0  0  0  0
 12 13  2  0  0  0  0
 13 14  1  0  0  0  0
 13 42  1  0  0  0  0
 14 15  1  0  0  0  0
 15 30  1  0  0  0  0
 15 22  1  0  0  0  0
 15 16  1  0  0  0  0
 16 17  1  0  0  0  0
 17 31  1  0  0  0  0
 17 18  1  0  0  0  0
 17 20  1  0  0  0  0
 18 19  1  0  0  0  0
 18 43  1  0  0  0  0
 18 44  1  0  0  0  0
 19 45  1  0  0  0  0
 20 32  1  0  0  0  0
 20 21  1  0  0  0  0
 20 22  1  0  0  0  0
 21 46  1  0  0  0  0
 22 33  1  0  0  0  0
 22 23  1  0  0  0  0
 23 47  1  0  0  0  0
 24 29  1  0  0  0  0
 24 25  1  0  0  0  0
 24 48  1  0  0  0  0
 25 26  1  0  0  0  0
 25 49  1  0  0  0  0
 25 50  1  0  0  0  0
 26 27  1  0  0  0  0
 26 51  1  0  0  0  0
 26 52  1  0  0  0  0
 27 28  1  0  0  0  0
 27 53  1  0  0  0  0
 27 54  1  0  0  0  0
 28 29  1  0  0  0  0
 28 55  1  0  0  0  0
 28 56  1  0  0  0  0
 29 57  1  0  0  0  0
 29 58  1  0  0  0  0
M  END
> <s_m_source_file>
AV-unprocessed.smi

> <i_m_source_file_index>
109

> <i_lp_mmshare_version>
43012

> <i_f3d_flags>
0

> <s_epik_input>
W0NIMl0xW0NIMl1bQ0gyXVtDSDJdW0NIMl1bQ0hdMVtDQEhdKFtDSDJdW0NIMl1bT0hdKVtOSF1jKG5bY0hdbjIpYyhjMjMpbltjSF1uM1tDQEBIXTRPW0NASF0oW0NIMl1bT0hdKVtDQEBIXShbT0hdKVtDQEhdNFtPSF0=

> <s_epik_cmdline>
J2VwaWtfcHl0aG9uJywgJy1waCcsICc3LjAnLCAnLXRuJywgJzgnLCAnLW1hJywgJzIwMCcsICctbWV0YWxfYmluZGluZycsICctaW1hZScsICc8aW5maWxlLm1hZT4nLCAnLW9tYWUnLCAnPG91dGZpbGUubWFlPic=

> <r_lp_tautomer_probability>
1

> <r_epik_Ionization_Penalty>
0.000793976

> <r_epik_Ionization_Penalty_Charging>
0

> <r_epik_Ionization_Penalty_Neutral>
0.000793976

> <r_epik_State_Penalty>
-0

> <r_epik_Charging_Adjusted_Penalty>
0

> <i_epik_Tot_Q>
0

> <i_epik_Tot_abs_Q>
0

> <r_epik_Metal_State_Penalty>
-0

> <b_epik_Metal_Only>
0

> <s_epik_Chemistry_Notes>
This compound contains an acetal/aminal-like group ( X-CH(R)-Y where X, Y are N, S, or O) that may be acid/base labile, releasing an aldehyde.

> <s_lp_Force_Field>
OPLS_2005

> <r_lp_Energy>
50.1139

> <b_lp_Chiralities_Consistent>
1

> <s_lp_Variant>
AV-unprocessed.smi:109-24

> <Gold.Version>
5.8.1

> <Gold.Id.Protein>
6NUR|6NUR_protein|mol2

> <Gold.PLP.Fitness>
48.0581

> <Gold.PLP.PLP>
-37.6961

> <Gold.PLP.part.hbond>
-4.7729

> <Gold.PLP.part.metal>
0.0000

> <Gold.PLP.part.buried>
-5.9910

> <Gold.PLP.part.nonpolar>
-28.4971

> <Gold.PLP.part.repulsive>
0.3950

> <Gold.PLP.ligand.clash>
0.0000

> <Gold.PLP.ligand.torsion>
0.4310

> <Gold.PLP.Chemscore.Hbond>
3.2262

> <Gold.PLP.Chemscore.CHOScore>
0.4063

> <Gold.PLP.Chemscore.Metal>
0.0000

> <Gold.Chemscore.Hbonds>
donor molecule, donor type, donor heavy atom, donor atom, acceptor molecule, acceptor atom, score
      L1  H    19    45       P1 10186  0.67
      L1  H    21    46       P1 10186  1.00
      L1  H    23    47       P1  7948  1.00
      P1  H 10785 10796       L1    19  0.50
      L1  C    13    42       P1 10957  0.54

> <Gold.PLP.Chemscore.Internal.Correction>
0.3263

> <Gold.Rescore>
     Score         DG    S(hbond)    S(metal)    S(lipo)     H(rot)  DE(clash)    DE(int)     intcor
      7.30      -7.87       2.04        0.00      81.79       5.47       0.12       0.45       ----

> <Gold.Chemscore.Fitness>
7.3004

> <Gold.Chemscore.DG>
-7.8666

> <Gold.Chemscore.ZeroCoef>
-5.4800

> <Gold.Chemscore.Hbond>
2.0390

> <Gold.Chemscore.Metal>
0.0000

> <Gold.Chemscore.Lipo>
81.7921

> <Gold.Chemscore.Internal_Hbond>
0.0000

> <Gold.Chemscore.DEClash>
0.1169

> <Gold.Chemscore.DEInternal>
0.4493

> <Gold.Chemscore.Rot>
5.4662

> <Gold.Chemscore.Internal.Correction>
   9.000000E+99

> <Gold.Chemscore.Hbonds>
donor molecule, donor type, donor heavy atom, donor atom, acceptor molecule, acceptor atom, score
      L1  H    19    45       P1 10186  0.67
      L1  H    21    46       P1 10186  0.27
      L1  H    23    47       P1  7948  0.94
      P1  H 10785 10796       L1    19  0.02

> <Gold.Chemscore.Hbond.Weighted>
-6.8104

> <Gold.Chemscore.Metal.Weighted>
-0.0000

> <Gold.Chemscore.Lipo.Weighted>
-9.5697

> <Gold.Chemscore.Internal_Hbond.Weighted>
0.0000

> <Gold.Chemscore.DEClash.Weighted>
0.1169

> <Gold.Chemscore.DEInternal.Weighted>
0.4493

> <Gold.Chemscore.Rot.Weighted>
13.9935

> <Gold.Chemscore.Internal.Correction.Weighted>
   9.000000E+99

> <Gold.Protein.RotatedTorsions>
[ 6907 6896 6895 6894 ] final  -90.19 input  -60.11 | X-H torsion
[ 7974 7965 7964 7962 ] final  -69.58 input  175.53 | X-H torsion
[ 8008 7997 7996 7995 ] final -151.03 input   59.86 | X-H torsion
[ 10167 10162 10161 10158 ] final   21.77 input  -65.29 | X-H torsion
[ 10718 10713 10712 10709 ] final -106.60 input   66.30 | X-H torsion
[ 10763 10752 10751 10750 ] final  -38.07 input  -60.55 | X-H torsion
[ 11005 11000 10999 10996 ] final   50.40 input  -57.11 | X-H torsion

> <Gold.Protein.ActiveResidues>
 VAL166  LYS551  ARG553  GLY616  TRP617  ASP618  TYR619  PRO620  LYS621  CYS622 
 ASP623  PHE694  ASN695  SER759  ASP760  ASP761  ALA762  ILE779  LEU786  VAL792 
 PHE793  MET794  SER795  GLU796  ALA797  LYS798  CYS799  TRP800  GLU811  SER814 

> <Gold.Protein.RotatedAtoms>
  150.6879  134.2471  159.4495 H   0  0  0  0  0  0  0  0  0  0  0  0  # atno 6907 bound_to 6896
  152.0411  134.9708  160.0583 H   0  0  0  0  0  0  0  0  0  0  0  0  # atno 6908 bound_to 6896
  152.1210  133.4318  159.4712 H   0  0  0  0  0  0  0  0  0  0  0  0  # atno 6909 bound_to 6896
  145.7019  140.9113  143.0726 H   0  0  0  0  0  0  0  0  0  0  0  0  # atno 7974 bound_to 7965
  155.6330  140.0693  157.2643 H   0  0  0  0  0  0  0  0  0  0  0  0  # atno 8008 bound_to 7997
  154.4201  140.1764  156.1541 H   0  0  0  0  0  0  0  0  0  0  0  0  # atno 8009 bound_to 7997
  155.9917  140.3344  155.6763 H   0  0  0  0  0  0  0  0  0  0  0  0  # atno 8010 bound_to 7997
  140.5400  143.9693  150.6514 H   0  0  0  0  0  0  0  0  0  0  0  0  # atno 10167 bound_to 10162
  156.0398  130.5621  150.7704 H   0  0  0  0  0  0  0  0  0  0  0  0  # atno 10718 bound_to 10713
  153.9067  135.6796  153.4753 H   0  0  0  0  0  0  0  0  0  0  0  0  # atno 10763 bound_to 10752
  153.1100  135.4787  154.9016 H   0  0  0  0  0  0  0  0  0  0  0  0  # atno 10764 bound_to 10752
  154.7548  135.3194  154.8446 H   0  0  0  0  0  0  0  0  0  0  0  0  # atno 10765 bound_to 10752
  140.1021  134.5067  155.8753 H   0  0  0  0  0  0  0  0  0  0  0  0  # atno 11005 bound_to 11000
  144.6966  139.8959  143.7456 LP  0  0  0  0  0  0  0  0  0  0  0  0  # atno 17320 bound_to 7965
  146.0790  139.3777  143.0476 LP  0  0  0  0  0  0  0  0  0  0  0  0  # atno 17321 bound_to 7965
  140.3091  143.3210  152.0897 LP  0  0  0  0  0  0  0  0  0  0  0  0  # atno 17342 bound_to 10162
  139.4985  144.6648  151.6382 LP  0  0  0  0  0  0  0  0  0  0  0  0  # atno 17343 bound_to 10162
  157.5199  131.0931  151.0091 LP  0  0  0  0  0  0  0  0  0  0  0  0  # atno 17370 bound_to 10713
  157.0425  130.5754  149.5358 LP  0  0  0  0  0  0  0  0  0  0  0  0  # atno 17371 bound_to 10713
  141.2108  133.6699  156.6538 LP  0  0  0  0  0  0  0  0  0  0  0  0  # atno 17394 bound_to 11000
  140.3206  134.8011  157.4249 LP  0  0  0  0  0  0  0  0  0  0  0  0  # atno 17395 bound_to 11000

$$$$
