AV-unprocessed.smi:975|AV-procd|sdf|4301|dock4
  -GOLD-   22720 2203D 1   1.00000     0.00000
 Structure written by MMmdl.
 44 45  0  0  0  0  0  0  0  0  1 V2000
  145.3473  142.9545  154.6179 C   0  0  0  0  0  0  0  0  0  0  0  0
  146.5284  142.0932  155.0153 C   0  0  0  0  0  0  0  0  0  0  0  0
  146.5382  141.3871  156.2796 C   0  0  0  0  0  0  0  0  0  0  0  0
  147.6036  140.6371  156.6009 C   0  0  0  0  0  0  0  0  0  0  0  0
  148.7119  140.5139  155.7435 N   0  0  0  0  0  0  0  0  0  0  0  0
  149.8169  139.6499  156.1975 C   0  0  0  0  0  0  0  0  0  0  0  0
  151.0521  140.4021  156.7234 C   0  0  0  0  0  0  0  0  0  0  0  0
  152.1593  140.1270  156.2627 O   0  0  0  0  0  0  0  0  0  0  0  0
  150.8681  141.3412  157.6678 N   0  0  0  0  0  0  0  0  0  0  0  0
  151.9076  142.1609  158.2842 C   0  0  0  0  0  0  0  0  0  0  0  0
  152.0703  141.7072  159.7531 C   0  0  0  0  0  0  0  0  0  0  0  0
  153.0276  142.5408  160.6241 C   0  0  0  0  0  0  0  0  0  0  0  0
  152.3586  143.6582  161.4565 C   0  0  0  0  0  0  0  0  0  0  0  0
  152.2298  145.0222  160.7536 C   0  0  0  0  0  0  0  0  0  0  0  0
  150.9152  145.2807  159.9866 C   0  0  0  0  0  0  0  0  0  0  0  0
  150.4675  144.2055  158.9796 C   0  0  0  0  0  0  0  0  0  0  0  0
  151.5928  143.6594  158.0788 C   0  0  0  0  0  0  0  0  0  0  0  0
  148.7619  141.1467  154.5326 C   0  0  0  0  0  0  0  0  0  0  0  0
  149.7211  141.0281  153.7703 O   0  0  0  0  0  0  0  0  0  0  0  0
  147.5945  141.9691  154.1944 C   0  0  0  0  0  0  0  0  0  0  0  0
  144.5680  142.9322  155.3804 H   0  0  0  0  0  0  0  0  0  0  0  0
  144.9171  142.5994  153.6812 H   0  0  0  0  0  0  0  0  0  0  0  0
  145.6616  143.9897  154.4823 H   0  0  0  0  0  0  0  0  0  0  0  0
  145.6998  141.4585  156.9575 H   0  0  0  0  0  0  0  0  0  0  0  0
  147.6726  140.0803  157.5245 H   0  0  0  0  0  0  0  0  0  0  0  0
  149.4719  138.9668  156.9757 H   0  0  0  0  0  0  0  0  0  0  0  0
  150.1402  139.0019  155.3814 H   0  0  0  0  0  0  0  0  0  0  0  0
  149.9235  141.5031  157.9857 H   0  0  0  0  0  0  0  0  0  0  0  0
  152.8522  141.9545  157.7771 H   0  0  0  0  0  0  0  0  0  0  0  0
  151.1032  141.6231  160.2499 H   0  0  0  0  0  0  0  0  0  0  0  0
  152.4521  140.6854  159.7282 H   0  0  0  0  0  0  0  0  0  0  0  0
  153.4808  141.8511  161.3375 H   0  0  0  0  0  0  0  0  0  0  0  0
  153.8606  142.9261  160.0349 H   0  0  0  0  0  0  0  0  0  0  0  0
  151.3987  143.3341  161.8602 H   0  0  0  0  0  0  0  0  0  0  0  0
  152.9936  143.8171  162.3291 H   0  0  0  0  0  0  0  0  0  0  0  0
  152.3038  145.7981  161.5165 H   0  0  0  0  0  0  0  0  0  0  0  0
  153.0936  145.1918  160.1111 H   0  0  0  0  0  0  0  0  0  0  0  0
  150.1087  145.4329  160.7048 H   0  0  0  0  0  0  0  0  0  0  0  0
  151.0181  146.2296  159.4589 H   0  0  0  0  0  0  0  0  0  0  0  0
  149.9653  143.3982  159.5105 H   0  0  0  0  0  0  0  0  0  0  0  0
  149.6897  144.6358  158.3476 H   0  0  0  0  0  0  0  0  0  0  0  0
  152.5059  144.2394  158.2005 H   0  0  0  0  0  0  0  0  0  0  0  0
  151.3190  143.8255  157.0360 H   0  0  0  0  0  0  0  0  0  0  0  0
  147.5934  142.4932  153.2495 H   0  0  0  0  0  0  0  0  0  0  0  0
  1  2  1  0  0  0  0
  1 21  1  0  0  0  0
  1 22  1  0  0  0  0
  1 23  1  0  0  0  0
  2 20  2  0  0  0  0
  2  3  1  0  0  0  0
  3  4  2  0  0  0  0
  3 24  1  0  0  0  0
  4  5  1  0  0  0  0
  4 25  1  0  0  0  0
  5  6  1  0  0  0  0
  5 18  1  0  0  0  0
  6  7  1  0  0  0  0
  6 26  1  0  0  0  0
  6 27  1  0  0  0  0
  7  8  2  0  0  0  0
  7  9  1  0  0  0  0
  9 10  1  0  0  0  0
  9 28  1  0  0  0  0
 10 17  1  0  0  0  0
 10 11  1  0  0  0  0
 10 29  1  0  0  0  0
 11 12  1  0  0  0  0
 11 30  1  0  0  0  0
 11 31  1  0  0  0  0
 12 13  1  0  0  0  0
 12 32  1  0  0  0  0
 12 33  1  0  0  0  0
 13 14  1  0  0  0  0
 13 34  1  0  0  0  0
 13 35  1  0  0  0  0
 14 15  1  0  0  0  0
 14 36  1  0  0  0  0
 14 37  1  0  0  0  0
 15 16  1  0  0  0  0
 15 38  1  0  0  0  0
 15 39  1  0  0  0  0
 16 17  1  0  0  0  0
 16 40  1  0  0  0  0
 16 41  1  0  0  0  0
 17 42  1  0  0  0  0
 17 43  1  0  0  0  0
 18 19  2  0  0  0  0
 18 20  1  0  0  0  0
 20 44  1  0  0  0  0
M  END
> <s_m_source_file>
AV-unprocessed.smi

> <i_m_source_file_index>
975

> <i_lp_mmshare_version>
43012

> <i_f3d_flags>
0

> <s_epik_input>
W0NIM11jMVtjSF1bY0hdbihjKD1PKVtjSF0xKVtDSDJdQyg9TylbTkhdW0NIXTJbQ0gyXVtDSDJdW0NIMl1bQ0gyXVtDSDJdW0NIMl1bQ0gyXTI=

> <s_epik_cmdline>
J2VwaWtfcHl0aG9uJywgJy1waCcsICc3LjAnLCAnLXRuJywgJzgnLCAnLW1hJywgJzIwMCcsICctbWV0YWxfYmluZGluZycsICctaW1hZScsICc8aW5maWxlLm1hZT4nLCAnLW9tYWUnLCAnPG91dGZpbGUubWFlPic=

> <r_lp_tautomer_probability>
1

> <r_epik_Ionization_Penalty>
5.54847e-07

> <r_epik_Ionization_Penalty_Charging>
5.34632e-07

> <r_epik_Ionization_Penalty_Neutral>
2.02148e-08

> <r_epik_State_Penalty>
-0

> <r_epik_Charging_Adjusted_Penalty>
5.34632e-07

> <i_epik_Tot_Q>
0

> <i_epik_Tot_abs_Q>
0

> <r_epik_Metal_State_Penalty>
-0

> <b_epik_Metal_Only>
0

> <s_lp_Force_Field>
OPLS_2005

> <r_lp_Energy>
31.8723

> <b_lp_Chiralities_Consistent>
1

> <s_lp_Variant>
AV-unprocessed.smi:975-1

> <Gold.Version>
5.8.1

> <Gold.Id.Protein>
6NUR|6NUR_protein|mol2

> <Gold.PLP.Fitness>
45.9357

> <Gold.PLP.PLP>
-40.1566

> <Gold.PLP.part.hbond>
-2.4952

> <Gold.PLP.part.metal>
0.0000

> <Gold.PLP.part.buried>
-6.3855

> <Gold.PLP.part.nonpolar>
-34.9443

> <Gold.PLP.part.repulsive>
2.8114

> <Gold.PLP.ligand.clash>
0.0000

> <Gold.PLP.ligand.torsion>
0.3342

> <Gold.PLP.Chemscore.Hbond>
2.1403

> <Gold.PLP.Chemscore.CHOScore>
0.0000

> <Gold.PLP.Chemscore.Metal>
0.0000

> <Gold.Chemscore.Hbonds>
donor molecule, donor type, donor heavy atom, donor atom, acceptor molecule, acceptor atom, score
      P1  H  7989  7998       L1    19  0.35
      P1  H  7997  8009       L1     8  0.65
      P1  H  8011  8017       L1    19  0.93

> <Gold.PLP.Chemscore.Internal.Correction>
0.0268

> <Gold.Rescore>
     Score         DG    S(hbond)    S(metal)    S(lipo)     H(rot)  DE(clash)    DE(int)     intcor
     19.89     -21.26       2.08        0.00     104.65       1.34       1.01       0.36       ----

> <Gold.Chemscore.Fitness>
19.8931

> <Gold.Chemscore.DG>
-21.2592

> <Gold.Chemscore.ZeroCoef>
-5.4800

> <Gold.Chemscore.Hbond>
2.0820

> <Gold.Chemscore.Metal>
0.0000

> <Gold.Chemscore.Lipo>
104.6454

> <Gold.Chemscore.Internal_Hbond>
0.0000

> <Gold.Chemscore.DEClash>
1.0064

> <Gold.Chemscore.DEInternal>
0.3598

> <Gold.Chemscore.Rot>
1.3352

> <Gold.Chemscore.Internal.Correction>
   9.000000E+99

> <Gold.Chemscore.Hbonds>
donor molecule, donor type, donor heavy atom, donor atom, acceptor molecule, acceptor atom, score
      P1  H  7989  7998       L1    19  0.36
      P1  H  7997  8009       L1     8  0.64
      P1  H  8011  8017       L1    19  0.79

> <Gold.Chemscore.Hbond.Weighted>
-6.9538

> <Gold.Chemscore.Metal.Weighted>
-0.0000

> <Gold.Chemscore.Lipo.Weighted>
-12.2435

> <Gold.Chemscore.Internal_Hbond.Weighted>
0.0000

> <Gold.Chemscore.DEClash.Weighted>
1.0064

> <Gold.Chemscore.DEInternal.Weighted>
0.3598

> <Gold.Chemscore.Rot.Weighted>
3.4181

> <Gold.Chemscore.Internal.Correction.Weighted>
   9.000000E+99

> <Gold.Protein.RotatedTorsions>
[ 6907 6896 6895 6894 ] final  -26.84 input  -60.11 | X-H torsion
[ 7974 7965 7964 7962 ] final  -84.29 input  175.53 | X-H torsion
[ 8008 7997 7996 7995 ] final -161.61 input   59.86 | X-H torsion
[ 10167 10162 10161 10158 ] final -120.29 input  -65.29 | X-H torsion
[ 10718 10713 10712 10709 ] final  -10.79 input   66.30 | X-H torsion
[ 10763 10752 10751 10750 ] final  -48.41 input  -60.55 | X-H torsion
[ 11005 11000 10999 10996 ] final    7.29 input  -57.11 | X-H torsion

> <Gold.Protein.ActiveResidues>
 VAL166  LYS551  ARG553  GLY616  TRP617  ASP618  TYR619  PRO620  LYS621  CYS622 
 ASP623  PHE694  ASN695  SER759  ASP760  ASP761  ALA762  ILE779  LEU786  VAL792 
 PHE793  MET794  SER795  GLU796  ALA797  LYS798  CYS799  TRP800  GLU811  SER814 

> <Gold.Protein.RotatedAtoms>
  151.1553  135.0247  159.8685 H   0  0  0  0  0  0  0  0  0  0  0  0  # atno 6907 bound_to 6896
  152.5452  134.1342  159.8462 H   0  0  0  0  0  0  0  0  0  0  0  0  # atno 6908 bound_to 6896
  151.1431  133.4912  159.2629 H   0  0  0  0  0  0  0  0  0  0  0  0  # atno 6909 bound_to 6896
  145.5086  140.9542  143.1720 H   0  0  0  0  0  0  0  0  0  0  0  0  # atno 7974 bound_to 7965
  155.7947  140.0883  157.1990 H   0  0  0  0  0  0  0  0  0  0  0  0  # atno 8008 bound_to 7997
  154.3984  140.1483  156.3262 H   0  0  0  0  0  0  0  0  0  0  0  0  # atno 8009 bound_to 7997
  155.8524  140.3434  155.5704 H   0  0  0  0  0  0  0  0  0  0  0  0  # atno 8010 bound_to 7997
  140.0374  143.5187  152.2147 H   0  0  0  0  0  0  0  0  0  0  0  0  # atno 10167 bound_to 10162
  156.6685  130.5002  149.6008 H   0  0  0  0  0  0  0  0  0  0  0  0  # atno 10718 bound_to 10713
  154.0773  135.6596  153.4833 H   0  0  0  0  0  0  0  0  0  0  0  0  # atno 10763 bound_to 10752
  153.0368  135.5171  154.7508 H   0  0  0  0  0  0  0  0  0  0  0  0  # atno 10764 bound_to 10752
  154.6592  135.3012  154.9856 H   0  0  0  0  0  0  0  0  0  0  0  0  # atno 10765 bound_to 10752
  140.5499  134.0293  155.7933 H   0  0  0  0  0  0  0  0  0  0  0  0  # atno 11005 bound_to 11000
  144.7740  139.6671  143.7183 LP  0  0  0  0  0  0  0  0  0  0  0  0  # atno 17320 bound_to 7965
  146.2181  139.5586  142.9637 LP  0  0  0  0  0  0  0  0  0  0  0  0  # atno 17321 bound_to 7965
  139.6036  144.7590  151.3114 LP  0  0  0  0  0  0  0  0  0  0  0  0  # atno 17342 bound_to 10162
  140.7275  143.6960  150.7883 LP  0  0  0  0  0  0  0  0  0  0  0  0  # atno 17343 bound_to 10162
  156.1957  130.6588  151.1111 LP  0  0  0  0  0  0  0  0  0  0  0  0  # atno 17370 bound_to 10713
  157.7085  131.0745  150.6582 LP  0  0  0  0  0  0  0  0  0  0  0  0  # atno 17371 bound_to 10713
  141.1178  133.9512  157.2789 LP  0  0  0  0  0  0  0  0  0  0  0  0  # atno 17394 bound_to 11000
  139.9460  135.0184  156.8854 LP  0  0  0  0  0  0  0  0  0  0  0  0  # atno 17395 bound_to 11000

$$$$
