AV-unprocessed.smi:221|AV-procd|sdf|1693|dock9
  -GOLD-   2262020143D 1   1.00000     0.00000
 Structure written by MMmdl.
 50 53  0  0  0  0  0  0  0  0  1 V2000
  145.2402  136.3817  149.8814 N   0  0  0  0  0  0  0  0  0  0  0  0
  145.1528  135.6018  150.9612 C   0  0  0  0  0  0  0  0  0  0  0  0
  145.7626  134.5373  151.0499 O   0  0  0  0  0  0  0  0  0  0  0  0
  144.2337  136.0872  152.0935 C   0  0  1  0  0  0  0  0  0  0  0  0
  143.0831  135.0977  152.3416 C   0  0  0  0  0  0  0  0  0  0  0  0
  142.7367  135.3024  153.8131 C   0  0  2  0  0  0  0  0  0  0  0  0
  141.9429  136.3672  153.9389 F   0  0  0  0  0  0  0  0  0  0  0  0
  144.0919  135.5985  154.4551 C   0  0  0  0  0  0  0  0  0  0  0  0
  144.9182  136.1524  153.3889 N   0  0  0  0  0  0  0  0  0  0  0  0
  145.8358  137.1112  153.6860 C   0  0  0  0  0  0  0  0  0  0  0  0
  146.1906  138.0156  152.7344 N   0  0  0  0  0  0  0  0  0  0  0  0
  147.0903  138.9659  153.0021 C   0  0  0  0  0  0  0  0  0  0  0  0
  147.7542  139.1897  154.1367 N   0  0  0  0  0  0  0  0  0  0  0  0
  147.4122  138.2818  155.0947 C   0  0  0  0  0  0  0  0  0  0  0  0
  146.4708  137.2215  154.9573 C   0  0  0  0  0  0  0  0  0  0  0  0
  146.4011  136.5004  156.1446 N   0  0  0  0  0  0  0  0  0  0  0  0
  147.2507  137.0974  156.9347 C   0  0  0  0  0  0  0  0  0  0  0  0
  147.9057  138.1736  156.3829 N   0  0  0  0  0  0  0  0  0  0  0  0
  148.9039  139.0047  157.0321 C   0  0  0  0  0  0  0  0  0  0  0  0
  149.3078  140.2602  156.2134 C   0  0  1  0  0  0  0  0  0  0  0  0
  149.1204  141.5736  157.0164 C   0  0  0  0  0  0  0  0  0  0  0  0
  149.7621  142.6670  156.3923 O   0  0  0  0  0  0  0  0  0  0  0  0
  150.7644  140.1165  155.6988 C   0  0  2  0  0  0  0  0  0  0  0  0
  151.0776  138.8051  154.9955 C   0  0  0  0  0  0  0  0  0  0  0  0
  152.6005  138.7577  155.0499 C   0  0  0  0  0  0  0  0  0  0  0  0
  152.9639  139.4246  156.2524 O   0  0  0  0  0  0  0  0  0  0  0  0
  151.8313  140.0902  156.8004 C   0  0  0  0  0  0  0  0  0  0  0  0
  143.8181  137.0681  151.8538 H   0  0  0  0  0  0  0  0  0  0  0  0
  142.2224  134.4524  154.2620 H   0  0  0  0  0  0  0  0  0  0  0  0
  145.8361  136.1079  149.1138 H   0  0  0  0  0  0  0  0  0  0  0  0
  144.7162  137.2435  149.8380 H   0  0  0  0  0  0  0  0  0  0  0  0
  142.2311  135.2685  151.6824 H   0  0  0  0  0  0  0  0  0  0  0  0
  143.4146  134.0682  152.1938 H   0  0  0  0  0  0  0  0  0  0  0  0
  143.9874  136.2703  155.3088 H   0  0  0  0  0  0  0  0  0  0  0  0
  144.5561  134.6756  154.8045 H   0  0  0  0  0  0  0  0  0  0  0  0
  147.3106  139.6431  152.1902 H   0  0  0  0  0  0  0  0  0  0  0  0
  147.4308  136.7624  157.9458 H   0  0  0  0  0  0  0  0  0  0  0  0
  148.5235  139.3023  158.0100 H   0  0  0  0  0  0  0  0  0  0  0  0
  149.7720  138.3735  157.2222 H   0  0  0  0  0  0  0  0  0  0  0  0
  148.6620  140.3116  155.3351 H   0  0  0  0  0  0  0  0  0  0  0  0
  148.0620  141.7974  157.1532 H   0  0  0  0  0  0  0  0  0  0  0  0
  149.5538  141.4999  158.0121 H   0  0  0  0  0  0  0  0  0  0  0  0
  149.3029  143.4592  156.6266 H   0  0  0  0  0  0  0  0  0  0  0  0
  150.9911  140.9373  155.0160 H   0  0  0  0  0  0  0  0  0  0  0  0
  150.6576  137.9647  155.5501 H   0  0  0  0  0  0  0  0  0  0  0  0
  150.7074  138.7585  153.9715 H   0  0  0  0  0  0  0  0  0  0  0  0
  152.9870  137.7387  155.0252 H   0  0  0  0  0  0  0  0  0  0  0  0
  153.0282  139.3033  154.2080 H   0  0  0  0  0  0  0  0  0  0  0  0
  152.1000  141.0883  157.1468 H   0  0  0  0  0  0  0  0  0  0  0  0
  151.4847  139.5167  157.6611 H   0  0  0  0  0  0  0  0  0  0  0  0
  1  2  1  0  0  0  0
  1 30  1  0  0  0  0
  1 31  1  0  0  0  0
  2  3  2  0  0  0  0
  2  4  1  0  0  0  0
  4 28  1  0  0  0  0
  4  9  1  0  0  0  0
  4  5  1  0  0  0  0
  5  6  1  0  0  0  0
  5 32  1  0  0  0  0
  5 33  1  0  0  0  0
  6 29  1  0  0  0  0
  6  7  1  0  0  0  0
  6  8  1  0  0  0  0
  8  9  1  0  0  0  0
  8 34  1  0  0  0  0
  8 35  1  0  0  0  0
  9 10  1  0  0  0  0
 10 15  1  0  0  0  0
 10 11  2  0  0  0  0
 11 12  1  0  0  0  0
 12 13  2  0  0  0  0
 12 36  1  0  0  0  0
 13 14  1  0  0  0  0
 14 18  1  0  0  0  0
 14 15  2  0  0  0  0
 15 16  1  0  0  0  0
 16 17  2  0  0  0  0
 17 18  1  0  0  0  0
 17 37  1  0  0  0  0
 18 19  1  0  0  0  0
 19 20  1  0  0  0  0
 19 38  1  0  0  0  0
 19 39  1  0  0  0  0
 20 21  1  0  0  0  0
 20 23  1  0  0  0  0
 20 40  1  0  0  0  0
 21 22  1  0  0  0  0
 21 41  1  0  0  0  0
 21 42  1  0  0  0  0
 22 43  1  0  0  0  0
 23 27  1  0  0  0  0
 23 24  1  0  0  0  0
 23 44  1  0  0  0  0
 24 25  1  0  0  0  0
 24 45  1  0  0  0  0
 24 46  1  0  0  0  0
 25 26  1  0  0  0  0
 25 47  1  0  0  0  0
 25 48  1  0  0  0  0
 26 27  1  0  0  0  0
 27 49  1  0  0  0  0
 27 50  1  0  0  0  0
M  END
> <s_m_source_file>
AV-unprocessed.smi

> <i_m_source_file_index>
221

> <i_lp_mmshare_version>
43012

> <i_f3d_flags>
0

> <s_epik_input>
W05IMl1DKD1PKVtDQEBIXTFbQ0gyXVtDQEBIXShGKVtDSDJdTjFjKG5bY0hdbjIpYyhjMjMpbltjSF1uM1tDSDJdW0NASF0oW0NIMl1bT0hdKVtDQEBIXTRbQ0gyXVtDSDJdT1tDSDJdNA==

> <s_epik_cmdline>
J2VwaWtfcHl0aG9uJywgJy1waCcsICc3LjAnLCAnLXRuJywgJzgnLCAnLW1hJywgJzIwMCcsICctbWV0YWxfYmluZGluZycsICctaW1hZScsICc8aW5maWxlLm1hZT4nLCAnLW9tYWUnLCAnPG91dGZpbGUubWFlPic=

> <r_lp_tautomer_probability>
1

> <r_epik_Ionization_Penalty>
0.000818822

> <r_epik_Ionization_Penalty_Charging>
0

> <r_epik_Ionization_Penalty_Neutral>
0.000818822

> <r_epik_State_Penalty>
0.000440551

> <r_epik_Charging_Adjusted_Penalty>
0.000440551

> <i_epik_Tot_Q>
0

> <i_epik_Tot_abs_Q>
0

> <r_epik_Metal_State_Penalty>
-0

> <b_epik_Metal_Only>
0

> <s_lp_Force_Field>
OPLS_2005

> <r_lp_Energy>
48.2465

> <b_lp_Chiralities_Consistent>
1

> <s_lp_Variant>
AV-unprocessed.smi:221-8

> <Gold.Version>
5.8.1

> <Gold.Id.Protein>
6NUR|6NUR_protein|mol2

> <Gold.PLP.Fitness>
48.3411

> <Gold.PLP.PLP>
-35.6434

> <Gold.PLP.part.hbond>
-3.7018

> <Gold.PLP.part.metal>
0.0000

> <Gold.PLP.part.buried>
-8.0521

> <Gold.PLP.part.nonpolar>
-25.4691

> <Gold.PLP.part.repulsive>
0.7593

> <Gold.PLP.ligand.clash>
0.0000

> <Gold.PLP.ligand.torsion>
1.1468

> <Gold.PLP.Chemscore.Hbond>
4.0000

> <Gold.PLP.Chemscore.CHOScore>
0.8896

> <Gold.PLP.Chemscore.Metal>
0.0000

> <Gold.Chemscore.Hbonds>
donor molecule, donor type, donor heavy atom, donor atom, acceptor molecule, acceptor atom, score
      L1  H     1    30       P1  7921  0.94
      L1  H     1    31       P1 10171  1.00
      L1  H    22    43       P1  8028  0.59
      P1  H  7997  8009       L1    26  1.00
      L1  C    12    36       P1  7957  0.93

> <Gold.PLP.Chemscore.Internal.Correction>
0.3225

> <Gold.Rescore>
     Score         DG    S(hbond)    S(metal)    S(lipo)     H(rot)  DE(clash)    DE(int)     intcor
     12.33     -16.15       3.82        0.00      54.46       3.31       0.01       3.82       ----

> <Gold.Chemscore.Fitness>
12.3296

> <Gold.Chemscore.DG>
-16.1528

> <Gold.Chemscore.ZeroCoef>
-5.4800

> <Gold.Chemscore.Hbond>
3.8241

> <Gold.Chemscore.Metal>
0.0000

> <Gold.Chemscore.Lipo>
54.4552

> <Gold.Chemscore.Internal_Hbond>
0.0000

> <Gold.Chemscore.DEClash>
0.0073

> <Gold.Chemscore.DEInternal>
3.8159

> <Gold.Chemscore.Rot>
3.3089

> <Gold.Chemscore.Internal.Correction>
   9.000000E+99

> <Gold.Chemscore.Hbonds>
donor molecule, donor type, donor heavy atom, donor atom, acceptor molecule, acceptor atom, score
      L1  H     1    30       P1  7921  0.91
      L1  H     1    31       P1 10171  0.97
      L1  H    22    43       P1  8028  0.57
      P1  H  7997  8009       L1    26  0.89

> <Gold.Chemscore.Hbond.Weighted>
-12.7724

> <Gold.Chemscore.Metal.Weighted>
-0.0000

> <Gold.Chemscore.Lipo.Weighted>
-6.3713

> <Gold.Chemscore.Internal_Hbond.Weighted>
0.0000

> <Gold.Chemscore.DEClash.Weighted>
0.0073

> <Gold.Chemscore.DEInternal.Weighted>
3.8159

> <Gold.Chemscore.Rot.Weighted>
8.4709

> <Gold.Chemscore.Internal.Correction.Weighted>
   9.000000E+99

> <Gold.Protein.RotatedTorsions>
[ 6907 6896 6895 6894 ] final  152.36 input  -60.11 | X-H torsion
[ 7974 7965 7964 7962 ] final  107.44 input  175.53 | X-H torsion
[ 8008 7997 7996 7995 ] final -171.03 input   59.86 | X-H torsion
[ 10167 10162 10161 10158 ] final -146.18 input  -65.29 | X-H torsion
[ 10718 10713 10712 10709 ] final -121.48 input   66.30 | X-H torsion
[ 10763 10752 10751 10750 ] final  103.62 input  -60.55 | X-H torsion
[ 11005 11000 10999 10996 ] final  112.15 input  -57.11 | X-H torsion

> <Gold.Protein.ActiveResidues>
 VAL166  LYS551  ARG553  GLY616  TRP617  ASP618  TYR619  PRO620  LYS621  CYS622 
 ASP623  PHE694  ASN695  SER759  ASP760  ASP761  ALA762  ILE779  LEU786  VAL792 
 PHE793  MET794  SER795  GLU796  ALA797  LYS798  CYS799  TRP800  GLU811  SER814 

> <Gold.Protein.RotatedAtoms>
  152.0879  133.4185  159.4530 H   0  0  0  0  0  0  0  0  0  0  0  0  # atno 6907 bound_to 6896
  150.6862  134.2906  159.4674 H   0  0  0  0  0  0  0  0  0  0  0  0  # atno 6908 bound_to 6896
  152.0755  134.9505  160.0624 H   0  0  0  0  0  0  0  0  0  0  0  0  # atno 6909 bound_to 6896
  145.2936  139.2592  143.3851 H   0  0  0  0  0  0  0  0  0  0  0  0  # atno 7974 bound_to 7965
  155.9262  140.1083  157.1168 H   0  0  0  0  0  0  0  0  0  0  0  0  # atno 8008 bound_to 7997
  154.4063  140.1246  156.4809 H   0  0  0  0  0  0  0  0  0  0  0  0  # atno 8009 bound_to 7997
  155.7135  140.3470  155.4987 H   0  0  0  0  0  0  0  0  0  0  0  0  # atno 8010 bound_to 7997
  139.7737  143.8201  152.2628 H   0  0  0  0  0  0  0  0  0  0  0  0  # atno 10167 bound_to 10162
  156.1341  130.6417  150.9668 H   0  0  0  0  0  0  0  0  0  0  0  0  # atno 10718 bound_to 10713
  153.3551  135.3970  155.1676 H   0  0  0  0  0  0  0  0  0  0  0  0  # atno 10763 bound_to 10752
  154.8669  135.3666  154.5172 H   0  0  0  0  0  0  0  0  0  0  0  0  # atno 10764 bound_to 10752
  153.5626  135.7080  153.5600 H   0  0  0  0  0  0  0  0  0  0  0  0  # atno 10765 bound_to 10752
  139.8920  134.9523  156.6542 H   0  0  0  0  0  0  0  0  0  0  0  0  # atno 11005 bound_to 11000
  146.3176  140.3433  142.8650 LP  0  0  0  0  0  0  0  0  0  0  0  0  # atno 17320 bound_to 7965
  144.9152  140.7804  143.5782 LP  0  0  0  0  0  0  0  0  0  0  0  0  # atno 17321 bound_to 7965
  139.8243  144.7282  150.9532 LP  0  0  0  0  0  0  0  0  0  0  0  0  # atno 17342 bound_to 10162
  140.7815  143.4130  151.0963 LP  0  0  0  0  0  0  0  0  0  0  0  0  # atno 17343 bound_to 10162
  157.6515  131.0896  150.8039 LP  0  0  0  0  0  0  0  0  0  0  0  0  # atno 17370 bound_to 10713
  156.8121  130.4956  149.5354 LP  0  0  0  0  0  0  0  0  0  0  0  0  # atno 17371 bound_to 10713
  140.7497  133.8908  155.8338 LP  0  0  0  0  0  0  0  0  0  0  0  0  # atno 17394 bound_to 11000
  141.0010  134.1150  157.4317 LP  0  0  0  0  0  0  0  0  0  0  0  0  # atno 17395 bound_to 11000

$$$$
