AV-unprocessed.smi:322|AV-procd|sdf|2338|dock8
  -GOLD-   2262022253D 1   1.00000     0.00000
 Structure written by MMmdl.
 44 46  0  0  0  0  0  0  0  0  2 V2000
  149.2916  142.1389  154.3069 O   0  0  0  0  0  0  0  0  0  0  0  0
  149.3081  141.2608  155.4128 C   0  0  0  0  0  0  0  0  0  0  0  0
  150.0989  141.7836  156.5696 C   0  0  0  0  0  0  0  0  0  0  0  0
  150.1159  143.0699  157.0231 N   0  3  0  0  0  0  0  0  0  0  0  0
  150.9642  143.1733  158.1256 C   0  0  0  0  0  0  0  0  0  0  0  0
  151.3008  144.2675  158.9164 C   0  0  0  0  0  0  0  0  0  0  0  0
  152.2054  144.0307  159.9722 C   0  0  0  0  0  0  0  0  0  0  0  0
  152.7384  142.7468  160.2081 C   0  0  0  0  0  0  0  0  0  0  0  0
  152.3888  141.6449  159.3997 C   0  0  0  0  0  0  0  0  0  0  0  0
  151.4926  141.8870  158.3584 C   0  0  0  0  0  0  0  0  0  0  0  0
  150.9310  141.0629  157.3750 N   0  0  0  0  0  0  0  0  0  0  0  0
  151.2758  139.6327  157.3403 C   0  0  0  0  0  0  0  0  0  0  0  0
  151.8674  139.1902  155.9859 C   0  0  1  0  0  0  0  0  0  0  0  0
  152.5999  140.2266  155.3643 O   0  0  0  0  0  0  0  0  0  0  0  0
  152.7495  137.9360  156.0865 C   0  0  0  0  0  0  0  0  0  0  0  0
  152.1003  136.8345  155.4651 O   0  0  0  0  0  0  0  0  0  0  0  0
  151.4110  135.9870  156.3728 C   0  0  0  0  0  0  0  0  0  0  0  0
  150.9917  134.6663  155.7506 C   0  0  0  0  0  0  0  0  0  0  0  0
  151.4327  133.4487  156.3111 C   0  0  0  0  0  0  0  0  0  0  0  0
  151.0496  132.2231  155.7327 C   0  0  0  0  0  0  0  0  0  0  0  0
  150.2296  132.2106  154.5873 C   0  0  0  0  0  0  0  0  0  0  0  0
  149.7579  130.7098  153.8791 Cl  0  0  0  0  0  0  0  0  0  0  0  0
  149.7960  133.4245  154.0195 C   0  0  0  0  0  0  0  0  0  0  0  0
  150.1785  134.6503  154.5982 C   0  0  0  0  0  0  0  0  0  0  0  0
  149.3201  143.0277  154.6278 H   0  0  0  0  0  0  0  0  0  0  0  0
  148.2834  141.0782  155.7364 H   0  0  0  0  0  0  0  0  0  0  0  0
  149.7234  140.3045  155.0945 H   0  0  0  0  0  0  0  0  0  0  0  0
  150.8942  145.2521  158.7367 H   0  0  0  0  0  0  0  0  0  0  0  0
  152.4970  144.8503  160.6131 H   0  0  0  0  0  0  0  0  0  0  0  0
  153.4303  142.6033  161.0254 H   0  0  0  0  0  0  0  0  0  0  0  0
  152.8076  140.6671  159.5876 H   0  0  0  0  0  0  0  0  0  0  0  0
  151.9531  139.4115  158.1652 H   0  0  0  0  0  0  0  0  0  0  0  0
  150.3625  139.0725  157.5446 H   0  0  0  0  0  0  0  0  0  0  0  0
  151.0444  138.9605  155.3083 H   0  0  0  0  0  0  0  0  0  0  0  0
  152.2520  141.0552  155.6557 H   0  0  0  0  0  0  0  0  0  0  0  0
  153.6957  138.1352  155.5819 H   0  0  0  0  0  0  0  0  0  0  0  0
  152.9854  137.7079  157.1272 H   0  0  0  0  0  0  0  0  0  0  0  0
  152.0107  135.8229  157.2696 H   0  0  0  0  0  0  0  0  0  0  0  0
  150.5075  136.5048  156.6948 H   0  0  0  0  0  0  0  0  0  0  0  0
  152.0627  133.4521  157.1887 H   0  0  0  0  0  0  0  0  0  0  0  0
  151.3858  131.2938  156.1685 H   0  0  0  0  0  0  0  0  0  0  0  0
  149.1700  133.4172  153.1395 H   0  0  0  0  0  0  0  0  0  0  0  0
  149.8424  135.5767  154.1558 H   0  0  0  0  0  0  0  0  0  0  0  0
  149.5819  143.8192  156.6017 H   0  0  0  0  0  0  0  0  0  0  0  0
  1  2  1  0  0  0  0
  1 25  1  0  0  0  0
  2  3  1  0  0  0  0
  2 26  1  0  0  0  0
  2 27  1  0  0  0  0
  3 11  1  0  0  0  0
  3  4  2  0  0  0  0
  4  5  1  0  0  0  0
  4 44  1  0  0  0  0
  5 10  2  0  0  0  0
  5  6  1  0  0  0  0
  6  7  2  0  0  0  0
  6 28  1  0  0  0  0
  7  8  1  0  0  0  0
  7 29  1  0  0  0  0
  8  9  2  0  0  0  0
  8 30  1  0  0  0  0
  9 10  1  0  0  0  0
  9 31  1  0  0  0  0
 10 11  1  0  0  0  0
 11 12  1  0  0  0  0
 12 13  1  0  0  0  0
 12 32  1  0  0  0  0
 12 33  1  0  0  0  0
 13 14  1  0  0  0  0
 13 15  1  0  0  0  0
 13 34  1  0  0  0  0
 14 35  1  0  0  0  0
 15 16  1  0  0  0  0
 15 36  1  0  0  0  0
 15 37  1  0  0  0  0
 16 17  1  0  0  0  0
 17 18  1  0  0  0  0
 17 38  1  0  0  0  0
 17 39  1  0  0  0  0
 18 24  1  0  0  0  0
 18 19  2  0  0  0  0
 19 20  1  0  0  0  0
 19 40  1  0  0  0  0
 20 21  2  0  0  0  0
 20 41  1  0  0  0  0
 21 22  1  0  0  0  0
 21 23  1  0  0  0  0
 23 24  2  0  0  0  0
 23 42  1  0  0  0  0
 24 43  1  0  0  0  0
M  CHG  1   4   1
M  END
> <s_m_source_file>
AV-unprocessed.smi

> <i_m_source_file_index>
322

> <i_lp_mmshare_version>
43012

> <i_f3d_flags>
0

> <s_epik_input>
W2NIXTFbY0hdW2NIXVtjSF1jKGMxMiluKGMobjIpW0NIMl1bT0hdKVtDSDJdW0NASF0oW09IXSlbQ0gyXU9bQ0gyXWMzW2NIXVtjSF1jKENsKVtjSF1bY0hdMw==

> <s_epik_cmdline>
J2VwaWtfcHl0aG9uJywgJy1waCcsICc3LjAnLCAnLXRuJywgJzgnLCAnLW1hJywgJzIwMCcsICctbWV0YWxfYmluZGluZycsICctaW1hZScsICc8aW5maWxlLm1hZT4nLCAnLW9tYWUnLCAnPG91dGZpbGUubWFlPic=

> <r_epik_Ionization_Penalty>
1.34314

> <r_epik_Ionization_Penalty_Charging>
1.34228

> <r_epik_Ionization_Penalty_Neutral>
0.000856898

> <r_epik_State_Penalty>
1.41963

> <r_epik_Charging_Adjusted_Penalty>
2.76191

> <i_epik_Tot_Q>
1

> <i_epik_Tot_abs_Q>
1

> <r_epik_Metal_State_Penalty>
5.45585

> <b_epik_Metal_Only>
0

> <s_lp_Force_Field>
OPLS_2005

> <r_lp_Energy>
18.1593

> <b_lp_Chiralities_Consistent>
1

> <s_lp_Variant>
AV-unprocessed.smi:322-4

> <Gold.Version>
5.8.1

> <Gold.Id.Protein>
6NUR|6NUR_protein|mol2

> <Gold.PLP.Fitness>
63.9074

> <Gold.PLP.PLP>
-51.3129

> <Gold.PLP.part.hbond>
-6.1329

> <Gold.PLP.part.metal>
0.0000

> <Gold.PLP.part.buried>
-3.9277

> <Gold.PLP.part.nonpolar>
-41.5989

> <Gold.PLP.part.repulsive>
0.0710

> <Gold.PLP.ligand.clash>
0.0000

> <Gold.PLP.ligand.torsion>
1.6061

> <Gold.PLP.Chemscore.Hbond>
5.2141

> <Gold.PLP.Chemscore.CHOScore>
0.0000

> <Gold.PLP.Chemscore.Metal>
0.0000

> <Gold.Chemscore.Hbonds>
donor molecule, donor type, donor heavy atom, donor atom, acceptor molecule, acceptor atom, score
      L1  H     1    25       P1  8028  1.00
      L1  H     4    44       P1  8028  1.69
      P1  H  7989  7998       L1    14  0.02
      P1  H  7997  8008       L1    14  1.00
      P1  H  8011  8017       L1     1  0.28
      P1  H 10752 10764       L1    16  0.84

> <Gold.PLP.Chemscore.Internal.Correction>
0.1642

> <Gold.Rescore>
     Score         DG    S(hbond)    S(metal)    S(lipo)     H(rot)  DE(clash)    DE(int)     intcor
     19.11     -20.74       2.71        0.00     123.99       3.24       0.02       1.61       ----

> <Gold.Chemscore.Fitness>
19.1074

> <Gold.Chemscore.DG>
-20.7394

> <Gold.Chemscore.ZeroCoef>
-5.4800

> <Gold.Chemscore.Hbond>
2.7073

> <Gold.Chemscore.Metal>
0.0000

> <Gold.Chemscore.Lipo>
123.9934

> <Gold.Chemscore.Internal_Hbond>
0.0000

> <Gold.Chemscore.DEClash>
0.0217

> <Gold.Chemscore.DEInternal>
1.6102

> <Gold.Chemscore.Rot>
3.2383

> <Gold.Chemscore.Internal.Correction>
   9.000000E+99

> <Gold.Chemscore.Hbonds>
donor molecule, donor type, donor heavy atom, donor atom, acceptor molecule, acceptor atom, score
      L1  H     1    25       P1  8028  0.95
      L1  H     4    44       P1  8028  0.82
      P1  H  7997  8008       L1    14  0.35
      P1  H  8011  8017       L1     1  0.07
      P1  H 10752 10764       L1    16  0.19

> <Gold.Chemscore.Hbond.Weighted>
-9.0422

> <Gold.Chemscore.Metal.Weighted>
-0.0000

> <Gold.Chemscore.Lipo.Weighted>
-14.5072

> <Gold.Chemscore.Internal_Hbond.Weighted>
0.0000

> <Gold.Chemscore.DEClash.Weighted>
0.0217

> <Gold.Chemscore.DEInternal.Weighted>
1.6102

> <Gold.Chemscore.Rot.Weighted>
8.2901

> <Gold.Chemscore.Internal.Correction.Weighted>
   9.000000E+99

> <Gold.Protein.RotatedTorsions>
[ 6907 6896 6895 6894 ] final  167.91 input  -60.11 | X-H torsion
[ 7974 7965 7964 7962 ] final -112.42 input  175.53 | X-H torsion
[ 8008 7997 7996 7995 ] final  -23.55 input   59.86 | X-H torsion
[ 10167 10162 10161 10158 ] final -104.85 input  -65.29 | X-H torsion
[ 10718 10713 10712 10709 ] final  149.86 input   66.30 | X-H torsion
[ 10763 10752 10751 10750 ] final  -63.24 input  -60.55 | X-H torsion
[ 11005 11000 10999 10996 ] final -103.11 input  -57.11 | X-H torsion

> <Gold.Protein.ActiveResidues>
 VAL166  LYS551  ARG553  GLY616  TRP617  ASP618  TYR619  PRO620  LYS621  CYS622 
 ASP623  PHE694  ASN695  SER759  ASP760  ASP761  ALA762  ILE779  LEU786  VAL792 
 PHE793  MET794  SER795  GLU796  ALA797  LYS798  CYS799  TRP800  GLU811  SER814 

> <Gold.Protein.RotatedAtoms>
  151.8559  133.3448  159.3687 H   0  0  0  0  0  0  0  0  0  0  0  0  # atno 6907 bound_to 6896
  150.7193  134.5254  159.5683 H   0  0  0  0  0  0  0  0  0  0  0  0  # atno 6908 bound_to 6896
  152.2757  134.7885  160.0457 H   0  0  0  0  0  0  0  0  0  0  0  0  # atno 6909 bound_to 6896
  145.1442  140.8794  143.3684 H   0  0  0  0  0  0  0  0  0  0  0  0  # atno 7974 bound_to 7965
  154.4579  140.1977  156.0327 H   0  0  0  0  0  0  0  0  0  0  0  0  # atno 8008 bound_to 7997
  156.0782  140.3275  155.7633 H   0  0  0  0  0  0  0  0  0  0  0  0  # atno 8009 bound_to 7997
  155.5154  140.0565  157.2907 H   0  0  0  0  0  0  0  0  0  0  0  0  # atno 8010 bound_to 7997
  140.2049  143.3790  152.1099 H   0  0  0  0  0  0  0  0  0  0  0  0  # atno 10167 bound_to 10162
  157.2908  131.0853  151.1463 H   0  0  0  0  0  0  0  0  0  0  0  0  # atno 10718 bound_to 10713
  154.3120  135.6213  153.5469 H   0  0  0  0  0  0  0  0  0  0  0  0  # atno 10763 bound_to 10752
  152.9828  135.5703  154.5167 H   0  0  0  0  0  0  0  0  0  0  0  0  # atno 10764 bound_to 10752
  154.4818  135.2863  155.1541 H   0  0  0  0  0  0  0  0  0  0  0  0  # atno 10765 bound_to 10752
  141.1160  133.8613  157.1445 H   0  0  0  0  0  0  0  0  0  0  0  0  # atno 11005 bound_to 11000
  145.0500  139.3189  143.5933 LP  0  0  0  0  0  0  0  0  0  0  0  0  # atno 17320 bound_to 7965
  146.3502  139.9905  142.8686 LP  0  0  0  0  0  0  0  0  0  0  0  0  # atno 17321 bound_to 7965
  139.5202  144.7030  151.5437 LP  0  0  0  0  0  0  0  0  0  0  0  0  # atno 17342 bound_to 10162
  140.6364  143.8975  150.6651 LP  0  0  0  0  0  0  0  0  0  0  0  0  # atno 17343 bound_to 10162
  157.2860  130.6773  149.6090 LP  0  0  0  0  0  0  0  0  0  0  0  0  # atno 17370 bound_to 10713
  155.9667  130.4435  150.5424 LP  0  0  0  0  0  0  0  0  0  0  0  0  # atno 17371 bound_to 10713
  140.0083  134.9999  157.0340 LP  0  0  0  0  0  0  0  0  0  0  0  0  # atno 17394 bound_to 11000
  140.4644  134.1451  155.7195 LP  0  0  0  0  0  0  0  0  0  0  0  0  # atno 17395 bound_to 11000

$$$$
