AV-unprocessed.smi:1879|AV-procd|sdf|7632|dock8
  -GOLD-   22720 9353D 1   1.00000     0.00000
 Structure written by MMmdl.
 46 48  0  0  0  0  0  0  0  0  1 V2000
  146.3271  134.1228  154.6715 O   0  0  0  0  0  0  0  0  0  0  0  0
  146.8450  134.8317  153.8083 C   0  0  0  0  0  0  0  0  0  0  0  0
  147.6300  135.8952  154.0486 N   0  0  0  0  0  0  0  0  0  0  0  0
  148.0387  136.4149  155.3093 C   0  0  0  0  0  0  0  0  0  0  0  0
  148.1812  135.5750  156.4409 C   0  0  0  0  0  0  0  0  0  0  0  0
  148.5163  136.1408  157.6828 C   0  0  0  0  0  0  0  0  0  0  0  0
  148.6819  137.5337  157.7548 C   0  0  0  0  0  0  0  0  0  0  0  0
  148.5364  138.3483  156.6911 N   0  0  0  0  0  0  0  0  0  0  0  0
  148.2280  137.8166  155.4822 C   0  0  0  0  0  0  0  0  0  0  0  0
  148.1041  138.7211  154.4019 N   0  0  0  0  0  0  0  0  0  0  0  0
  146.8232  138.8958  153.7252 C   0  0  0  0  0  0  0  0  0  0  0  0
  146.9761  140.1791  152.9141 C   0  0  0  0  0  0  0  0  0  0  0  0
  147.8553  141.0340  153.8213 C   0  0  0  0  0  0  0  0  0  0  0  0
  148.7753  140.0142  154.5010 C   0  0  0  0  0  0  0  0  0  0  0  0
  146.7078  134.6185  152.4921 N   0  0  0  0  0  0  0  0  0  0  0  0
  145.9311  133.5392  151.8896 C   0  0  2  0  0  0  0  0  0  0  0  0
  146.4047  133.2682  150.4475 C   0  0  0  0  0  0  0  0  0  0  0  0
  145.5576  132.1761  149.7709 C   0  0  0  0  0  0  0  0  0  0  0  0
  144.0506  132.4926  149.8141 C   0  0  2  0  0  0  0  0  0  0  0  0
  143.7577  133.5752  148.9532 O   0  0  0  0  0  0  0  0  0  0  0  0
  143.5790  132.8131  151.2452 C   0  0  0  0  0  0  0  0  0  0  0  0
  144.4356  133.9039  151.9114 C   0  0  0  0  0  0  0  0  0  0  0  0
  148.0682  136.3184  153.2436 H   0  0  0  0  0  0  0  0  0  0  0  0
  148.0153  134.5101  156.3813 H   0  0  0  0  0  0  0  0  0  0  0  0
  148.6298  135.5227  158.5611 H   0  0  0  0  0  0  0  0  0  0  0  0
  148.9313  138.0081  158.6924 H   0  0  0  0  0  0  0  0  0  0  0  0
  146.5882  138.0408  153.0910 H   0  0  0  0  0  0  0  0  0  0  0  0
  146.0167  139.0194  154.4491 H   0  0  0  0  0  0  0  0  0  0  0  0
  147.4967  139.9702  151.9783 H   0  0  0  0  0  0  0  0  0  0  0  0
  146.0212  140.6485  152.6762 H   0  0  0  0  0  0  0  0  0  0  0  0
  148.4041  141.8052  153.2803 H   0  0  0  0  0  0  0  0  0  0  0  0
  147.2362  141.5265  154.5721 H   0  0  0  0  0  0  0  0  0  0  0  0
  148.9839  140.2925  155.5349 H   0  0  0  0  0  0  0  0  0  0  0  0
  149.7242  139.9586  153.9674 H   0  0  0  0  0  0  0  0  0  0  0  0
  147.1748  135.2496  151.8574 H   0  0  0  0  0  0  0  0  0  0  0  0
  146.0655  132.6315  152.4814 H   0  0  0  0  0  0  0  0  0  0  0  0
  146.3505  134.1868  149.8615 H   0  0  0  0  0  0  0  0  0  0  0  0
  147.4525  132.9656  150.4458 H   0  0  0  0  0  0  0  0  0  0  0  0
  145.8851  132.0323  148.7406 H   0  0  0  0  0  0  0  0  0  0  0  0
  145.7354  131.2280  150.2801 H   0  0  0  0  0  0  0  0  0  0  0  0
  143.4954  131.6316  149.4403 H   0  0  0  0  0  0  0  0  0  0  0  0
  144.5626  133.8679  148.5541 H   0  0  0  0  0  0  0  0  0  0  0  0
  142.5299  133.1107  151.2410 H   0  0  0  0  0  0  0  0  0  0  0  0
  143.6338  131.9056  151.8478 H   0  0  0  0  0  0  0  0  0  0  0  0
  144.1027  134.0508  152.9397 H   0  0  0  0  0  0  0  0  0  0  0  0
  144.2783  134.8541  151.3989 H   0  0  0  0  0  0  0  0  0  0  0  0
  1  2  2  0  0  0  0
  2  3  1  0  0  0  0
  2 15  1  0  0  0  0
  3  4  1  0  0  0  0
  3 23  1  0  0  0  0
  4  9  1  0  0  0  0
  4  5  2  0  0  0  0
  5  6  1  0  0  0  0
  5 24  1  0  0  0  0
  6  7  2  0  0  0  0
  6 25  1  0  0  0  0
  7  8  1  0  0  0  0
  7 26  1  0  0  0  0
  8  9  2  0  0  0  0
  9 10  1  0  0  0  0
 10 14  1  0  0  0  0
 10 11  1  0  0  0  0
 11 12  1  0  0  0  0
 11 27  1  0  0  0  0
 11 28  1  0  0  0  0
 12 13  1  0  0  0  0
 12 29  1  0  0  0  0
 12 30  1  0  0  0  0
 13 14  1  0  0  0  0
 13 31  1  0  0  0  0
 13 32  1  0  0  0  0
 14 33  1  0  0  0  0
 14 34  1  0  0  0  0
 15 16  1  0  0  0  0
 15 35  1  0  0  0  0
 16 22  1  0  0  0  0
 16 17  1  0  0  0  0
 16 36  1  0  0  0  0
 17 18  1  0  0  0  0
 17 37  1  0  0  0  0
 17 38  1  0  0  0  0
 18 19  1  0  0  0  0
 18 39  1  0  0  0  0
 18 40  1  0  0  0  0
 19 20  1  0  0  0  0
 19 21  1  0  0  0  0
 19 41  1  0  0  0  0
 20 42  1  0  0  0  0
 21 22  1  0  0  0  0
 21 43  1  0  0  0  0
 21 44  1  0  0  0  0
 22 45  1  0  0  0  0
 22 46  1  0  0  0  0
M  END
> <s_m_source_file>
AV-unprocessed.smi

> <i_m_source_file_index>
1879

> <i_lp_mmshare_version>
43012

> <i_f3d_flags>
0

> <s_epik_input>
W0NIMl0xW0NIMl1bQ0BIXShbT0hdKVtDSDJdW0NIMl1bQ0BIXTFbTkhdQyg9TylbTkhdYzJbY0hdW2NIXVtjSF1uYzJOM1tDSDJdW0NIMl1bQ0gyXVtDSDJdMw==

> <s_epik_cmdline>
J2VwaWtfcHl0aG9uJywgJy1waCcsICc3LjAnLCAnLXRuJywgJzgnLCAnLW1hJywgJzIwMCcsICctbWV0YWxfYmluZGluZycsICctaW1hZScsICc8aW5maWxlLm1hZT4nLCAnLW9tYWUnLCAnPG91dGZpbGUubWFlPic=

> <r_lp_tautomer_probability>
1

> <r_epik_Ionization_Penalty>
0.104121

> <r_epik_Ionization_Penalty_Charging>
0

> <r_epik_Ionization_Penalty_Neutral>
0.104121

> <r_epik_State_Penalty>
0.0934704

> <r_epik_Charging_Adjusted_Penalty>
0.0934704

> <i_epik_Tot_Q>
0

> <i_epik_Tot_abs_Q>
0

> <r_epik_Metal_State_Penalty>
0.0794466

> <b_epik_Metal_Only>
0

> <s_lp_Force_Field>
OPLS_2005

> <r_lp_Energy>
39.1778

> <b_lp_Chiralities_Consistent>
1

> <s_lp_Variant>
AV-unprocessed.smi:1879-2

> <Gold.Version>
5.8.1

> <Gold.Id.Protein>
6NUR|6NUR_protein|mol2

> <Gold.PLP.Fitness>
39.4477

> <Gold.PLP.PLP>
-32.3595

> <Gold.PLP.part.hbond>
-3.8948

> <Gold.PLP.part.metal>
0.0000

> <Gold.PLP.part.buried>
-3.9359

> <Gold.PLP.part.nonpolar>
-24.3759

> <Gold.PLP.part.repulsive>
0.2005

> <Gold.PLP.ligand.clash>
0.0000

> <Gold.PLP.ligand.torsion>
0.8246

> <Gold.PLP.Chemscore.Hbond>
2.8000

> <Gold.PLP.Chemscore.CHOScore>
0.0000

> <Gold.PLP.Chemscore.Metal>
0.0000

> <Gold.Chemscore.Hbonds>
donor molecule, donor type, donor heavy atom, donor atom, acceptor molecule, acceptor atom, score
      L1  H     3    23       P1  7948  1.00
      L1  H    15    35       P1  7948  0.72
      L1  H    20    42       P1  7921  0.98

> <Gold.PLP.Chemscore.Internal.Correction>
0.3373

> <Gold.Rescore>
     Score         DG    S(hbond)    S(metal)    S(lipo)     H(rot)  DE(clash)    DE(int)     intcor
     17.91     -19.92       2.80        0.00      79.99       1.67       0.02       1.98       ----

> <Gold.Chemscore.Fitness>
17.9142

> <Gold.Chemscore.DG>
-19.9164

> <Gold.Chemscore.ZeroCoef>
-5.4800

> <Gold.Chemscore.Hbond>
2.8019

> <Gold.Chemscore.Metal>
0.0000

> <Gold.Chemscore.Lipo>
79.9931

> <Gold.Chemscore.Internal_Hbond>
0.0000

> <Gold.Chemscore.DEClash>
0.0210

> <Gold.Chemscore.DEInternal>
1.9812

> <Gold.Chemscore.Rot>
1.6723

> <Gold.Chemscore.Internal.Correction>
   9.000000E+99

> <Gold.Chemscore.Hbonds>
donor molecule, donor type, donor heavy atom, donor atom, acceptor molecule, acceptor atom, score
      L1  H     3    23       P1  7948  0.95
      L1  H    15    35       P1  7948  0.69
      L1  H    20    42       P1  7921  0.91

> <Gold.Chemscore.Hbond.Weighted>
-9.3584

> <Gold.Chemscore.Metal.Weighted>
-0.0000

> <Gold.Chemscore.Lipo.Weighted>
-9.3592

> <Gold.Chemscore.Internal_Hbond.Weighted>
0.0000

> <Gold.Chemscore.DEClash.Weighted>
0.0210

> <Gold.Chemscore.DEInternal.Weighted>
1.9812

> <Gold.Chemscore.Rot.Weighted>
4.2812

> <Gold.Chemscore.Internal.Correction.Weighted>
   9.000000E+99

> <Gold.Protein.RotatedTorsions>
[ 6907 6896 6895 6894 ] final  129.31 input  -60.11 | X-H torsion
[ 7974 7965 7964 7962 ] final  142.05 input  175.53 | X-H torsion
[ 8008 7997 7996 7995 ] final -167.11 input   59.86 | X-H torsion
[ 10167 10162 10161 10158 ] final  116.16 input  -65.29 | X-H torsion
[ 10718 10713 10712 10709 ] final   24.76 input   66.30 | X-H torsion
[ 10763 10752 10751 10750 ] final  135.32 input  -60.55 | X-H torsion
[ 11005 11000 10999 10996 ] final   28.67 input  -57.11 | X-H torsion

> <Gold.Protein.ActiveResidues>
 VAL166  LYS551  ARG553  GLY616  TRP617  ASP618  TYR619  PRO620  LYS621  CYS622 
 ASP623  PHE694  ASN695  SER759  ASP760  ASP761  ALA762  ILE779  LEU786  VAL792 
 PHE793  MET794  SER795  GLU796  ALA797  LYS798  CYS799  TRP800  GLU811  SER814 

> <Gold.Protein.RotatedAtoms>
  152.3636  133.6328  159.6033 H   0  0  0  0  0  0  0  0  0  0  0  0  # atno 6907 bound_to 6896
  150.7618  133.9384  159.3457 H   0  0  0  0  0  0  0  0  0  0  0  0  # atno 6908 bound_to 6896
  151.7219  135.0893  160.0336 H   0  0  0  0  0  0  0  0  0  0  0  0  # atno 6909 bound_to 6896
  144.9042  139.5381  143.5739 H   0  0  0  0  0  0  0  0  0  0  0  0  # atno 7974 bound_to 7965
  155.8731  140.0996  157.1536 H   0  0  0  0  0  0  0  0  0  0  0  0  # atno 8008 bound_to 7997
  154.3998  140.1343  156.4166 H   0  0  0  0  0  0  0  0  0  0  0  0  # atno 8009 bound_to 7997
  155.7728  140.3460  155.5258 H   0  0  0  0  0  0  0  0  0  0  0  0  # atno 8010 bound_to 7997
  139.6266  144.7109  151.2520 H   0  0  0  0  0  0  0  0  0  0  0  0  # atno 10167 bound_to 10162
  157.1842  130.6816  149.6124 H   0  0  0  0  0  0  0  0  0  0  0  0  # atno 10718 bound_to 10713
  153.8382  135.3095  155.3424 H   0  0  0  0  0  0  0  0  0  0  0  0  # atno 10763 bound_to 10752
  154.7944  135.4764  154.0130 H   0  0  0  0  0  0  0  0  0  0  0  0  # atno 10764 bound_to 10752
  153.1592  135.6858  153.8859 H   0  0  0  0  0  0  0  0  0  0  0  0  # atno 10765 bound_to 10752
  140.3131  134.2627  155.7730 H   0  0  0  0  0  0  0  0  0  0  0  0  # atno 11005 bound_to 11000
  146.3125  139.7796  142.9009 LP  0  0  0  0  0  0  0  0  0  0  0  0  # atno 17320 bound_to 7965
  145.3564  141.0317  143.3309 LP  0  0  0  0  0  0  0  0  0  0  0  0  # atno 17321 bound_to 7965
  140.7414  143.6556  150.8209 LP  0  0  0  0  0  0  0  0  0  0  0  0  # atno 17342 bound_to 10162
  140.0175  143.5577  152.2814 LP  0  0  0  0  0  0  0  0  0  0  0  0  # atno 17343 bound_to 10162
  155.9720  130.4636  150.6189 LP  0  0  0  0  0  0  0  0  0  0  0  0  # atno 17370 bound_to 10713
  157.3923  131.0797  151.1382 LP  0  0  0  0  0  0  0  0  0  0  0  0  # atno 17371 bound_to 10713
  141.2103  133.7722  156.9937 LP  0  0  0  0  0  0  0  0  0  0  0  0  # atno 17394 bound_to 11000
  140.1007  134.9537  157.1918 LP  0  0  0  0  0  0  0  0  0  0  0  0  # atno 17395 bound_to 11000

$$$$
