AV-unprocessed.smi:3302|AV-procd|sdf|12656|dock4
  -GOLD-   2272018593D 1   1.00000     0.00000
 Structure written by MMmdl.
 35 36  0  0  0  0  0  0  0  0  1 V2000
  151.2825  140.5409  155.5139 O   0  0  0  0  0  0  0  0  0  0  0  0
  150.6175  141.4790  155.9527 C   0  0  0  0  0  0  0  0  0  0  0  0
  151.2845  142.5042  156.8715 C   0  0  0  0  0  0  0  0  0  0  0  0
  151.9426  141.8305  157.9376 O   0  0  0  0  0  0  0  0  0  0  0  0
  152.5987  142.6878  158.8617 C   0  0  0  0  0  0  0  0  0  0  0  0
  153.1102  141.8865  160.0772 C   0  0  0  0  0  0  0  0  0  0  0  0
  153.6962  142.8150  161.1530 C   0  0  0  0  0  0  0  0  0  0  0  0
  152.6751  143.8777  161.5889 C   0  0  0  0  0  0  0  0  0  0  0  0
  152.1593  144.6792  160.3833 C   0  0  0  0  0  0  0  0  0  0  0  0
  151.5771  143.7498  159.3058 C   0  0  0  0  0  0  0  0  0  0  0  0
  149.3266  141.6976  155.6428 N   0  0  0  0  0  0  0  0  0  0  0  0
  148.4908  140.8912  154.8292 C   0  0  0  0  0  0  0  0  0  0  0  0
  148.8896  139.5633  154.5726 C   0  0  0  0  0  0  0  0  0  0  0  0
  148.0797  138.7617  153.7435 C   0  0  0  0  0  0  0  0  0  0  0  0
  146.9425  139.2036  153.1657 N   0  0  0  0  0  0  0  0  0  0  0  0
  146.5766  140.4833  153.3926 C   0  0  0  0  0  0  0  0  0  0  0  0
  147.3134  141.3701  154.2034 C   0  0  0  0  0  0  0  0  0  0  0  0
  146.9028  142.6539  154.3401 F   0  0  0  0  0  0  0  0  0  0  0  0
  151.9890  143.0981  156.2889 H   0  0  0  0  0  0  0  0  0  0  0  0
  150.5218  143.1788  157.2626 H   0  0  0  0  0  0  0  0  0  0  0  0
  153.4328  143.1961  158.3738 H   0  0  0  0  0  0  0  0  0  0  0  0
  152.2899  141.3081  160.5043 H   0  0  0  0  0  0  0  0  0  0  0  0
  153.8695  141.1664  159.7736 H   0  0  0  0  0  0  0  0  0  0  0  0
  154.0146  142.2295  162.0159 H   0  0  0  0  0  0  0  0  0  0  0  0
  154.5902  143.3046  160.7646 H   0  0  0  0  0  0  0  0  0  0  0  0
  151.8368  143.3940  162.0920 H   0  0  0  0  0  0  0  0  0  0  0  0
  153.1266  144.5510  162.3182 H   0  0  0  0  0  0  0  0  0  0  0  0
  151.4006  145.3916  160.7083 H   0  0  0  0  0  0  0  0  0  0  0  0
  152.9743  145.2667  159.9586 H   0  0  0  0  0  0  0  0  0  0  0  0
  151.2560  144.3380  158.4456 H   0  0  0  0  0  0  0  0  0  0  0  0
  150.6840  143.2589  159.6949 H   0  0  0  0  0  0  0  0  0  0  0  0
  148.9344  142.5749  155.9525 H   0  0  0  0  0  0  0  0  0  0  0  0
  149.7928  139.1604  155.0075 H   0  0  0  0  0  0  0  0  0  0  0  0
  148.3551  137.7384  153.5360 H   0  0  0  0  0  0  0  0  0  0  0  0
  145.6748  140.8163  152.9004 H   0  0  0  0  0  0  0  0  0  0  0  0
  1  2  2  0  0  0  0
  2  3  1  0  0  0  0
  2 11  1  0  0  0  0
  3  4  1  0  0  0  0
  3 19  1  0  0  0  0
  3 20  1  0  0  0  0
  4  5  1  0  0  0  0
  5 10  1  0  0  0  0
  5  6  1  0  0  0  0
  5 21  1  0  0  0  0
  6  7  1  0  0  0  0
  6 22  1  0  0  0  0
  6 23  1  0  0  0  0
  7  8  1  0  0  0  0
  7 24  1  0  0  0  0
  7 25  1  0  0  0  0
  8  9  1  0  0  0  0
  8 26  1  0  0  0  0
  8 27  1  0  0  0  0
  9 10  1  0  0  0  0
  9 28  1  0  0  0  0
  9 29  1  0  0  0  0
 10 30  1  0  0  0  0
 10 31  1  0  0  0  0
 11 12  1  0  0  0  0
 11 32  1  0  0  0  0
 12 17  1  0  0  0  0
 12 13  2  0  0  0  0
 13 14  1  0  0  0  0
 13 33  1  0  0  0  0
 14 15  2  0  0  0  0
 14 34  1  0  0  0  0
 15 16  1  0  0  0  0
 16 17  2  0  0  0  0
 16 35  1  0  0  0  0
 17 18  1  0  0  0  0
M  END
> <s_m_source_file>
AV-unprocessed.smi

> <i_m_source_file_index>
3302

> <i_lp_mmshare_version>
43012

> <i_f3d_flags>
0

> <s_epik_input>
RmMxW2NIXW5bY0hdW2NIXWMxW05IXUMoPU8pW0NIMl1PW0NIXTJbQ0gyXVtDSDJdW0NIMl1bQ0gyXVtDSDJdMg==

> <s_epik_cmdline>
J2VwaWtfcHl0aG9uJywgJy1waCcsICc3LjAnLCAnLXRuJywgJzgnLCAnLW1hJywgJzIwMCcsICctbWV0YWxfYmluZGluZycsICctaW1hZScsICc8aW5maWxlLm1hZT4nLCAnLW9tYWUnLCAnPG91dGZpbGUubWFlPic=

> <r_lp_tautomer_probability>
1

> <r_epik_Ionization_Penalty>
0.000106646

> <r_epik_Ionization_Penalty_Charging>
0

> <r_epik_Ionization_Penalty_Neutral>
0.000106646

> <r_epik_State_Penalty>
-0

> <r_epik_Charging_Adjusted_Penalty>
0

> <i_epik_Tot_Q>
0

> <i_epik_Tot_abs_Q>
0

> <r_epik_Metal_State_Penalty>
-0

> <b_epik_Metal_Only>
0

> <s_lp_Force_Field>
OPLS_2005

> <r_lp_Energy>
19.2883

> <b_lp_Chiralities_Consistent>
1

> <s_lp_Variant>
AV-unprocessed.smi:3302-1

> <Gold.Version>
5.8.1

> <Gold.Id.Protein>
6NUR|6NUR_protein|mol2

> <Gold.PLP.Fitness>
50.0610

> <Gold.PLP.PLP>
-39.8149

> <Gold.PLP.part.hbond>
-2.0000

> <Gold.PLP.part.metal>
0.0000

> <Gold.PLP.part.buried>
-1.6049

> <Gold.PLP.part.nonpolar>
-36.3103

> <Gold.PLP.part.repulsive>
0.7582

> <Gold.PLP.ligand.clash>
0.0000

> <Gold.PLP.ligand.torsion>
0.1978

> <Gold.PLP.Chemscore.Hbond>
1.6679

> <Gold.PLP.Chemscore.CHOScore>
1.8160

> <Gold.PLP.Chemscore.Metal>
0.0000

> <Gold.Chemscore.Hbonds>
donor molecule, donor type, donor heavy atom, donor atom, acceptor molecule, acceptor atom, score
      L1  H    11    32       P1  8028  0.62
      P1  H  7989  7998       L1     1  0.79
      L1  C    14    34       P1  7948  1.00
      L1  C    16    35       P1 10175  1.00

> <Gold.PLP.Chemscore.Internal.Correction>
0.1899

> <Gold.Rescore>
     Score         DG    S(hbond)    S(metal)    S(lipo)     H(rot)  DE(clash)    DE(int)     intcor
     15.25     -16.89       0.81        0.00     105.49       1.42       0.08       1.57       ----

> <Gold.Chemscore.Fitness>
15.2460

> <Gold.Chemscore.DG>
-16.8940

> <Gold.Chemscore.ZeroCoef>
-5.4800

> <Gold.Chemscore.Hbond>
0.8139

> <Gold.Chemscore.Metal>
0.0000

> <Gold.Chemscore.Lipo>
105.4913

> <Gold.Chemscore.Internal_Hbond>
0.0000

> <Gold.Chemscore.DEClash>
0.0781

> <Gold.Chemscore.DEInternal>
1.5698

> <Gold.Chemscore.Rot>
1.4245

> <Gold.Chemscore.Internal.Correction>
   9.000000E+99

> <Gold.Chemscore.Hbonds>
donor molecule, donor type, donor heavy atom, donor atom, acceptor molecule, acceptor atom, score
      L1  H    11    32       P1  8028  0.60
      P1  H  7989  7998       L1     1  0.49

> <Gold.Chemscore.Hbond.Weighted>
-2.7183

> <Gold.Chemscore.Metal.Weighted>
-0.0000

> <Gold.Chemscore.Lipo.Weighted>
-12.3425

> <Gold.Chemscore.Internal_Hbond.Weighted>
0.0000

> <Gold.Chemscore.DEClash.Weighted>
0.0781

> <Gold.Chemscore.DEInternal.Weighted>
1.5698

> <Gold.Chemscore.Rot.Weighted>
3.6468

> <Gold.Chemscore.Internal.Correction.Weighted>
   9.000000E+99

> <Gold.Protein.RotatedTorsions>
[ 6907 6896 6895 6894 ] final  154.69 input  -60.11 | X-H torsion
[ 7974 7965 7964 7962 ] final -103.52 input  175.53 | X-H torsion
[ 8008 7997 7996 7995 ] final   59.94 input   59.86 | X-H torsion
[ 10167 10162 10161 10158 ] final    9.68 input  -65.29 | X-H torsion
[ 10718 10713 10712 10709 ] final  159.56 input   66.30 | X-H torsion
[ 10763 10752 10751 10750 ] final  178.82 input  -60.55 | X-H torsion
[ 11005 11000 10999 10996 ] final -173.10 input  -57.11 | X-H torsion

> <Gold.Protein.ActiveResidues>
 VAL166  LYS551  ARG553  GLY616  TRP617  ASP618  TYR619  PRO620  LYS621  CYS622 
 ASP623  PHE694  ASN695  SER759  ASP760  ASP761  ALA762  ILE779  LEU786  VAL792 
 PHE793  MET794  SER795  GLU796  ALA797  LYS798  CYS799  TRP800  GLU811  SER814 

> <Gold.Protein.RotatedAtoms>
  152.0549  133.4036  159.4392 H   0  0  0  0  0  0  0  0  0  0  0  0  # atno 6907 bound_to 6896
  150.6868  134.3266  159.4818 H   0  0  0  0  0  0  0  0  0  0  0  0  # atno 6908 bound_to 6896
  152.1080  134.9294  160.0618 H   0  0  0  0  0  0  0  0  0  0  0  0  # atno 6909 bound_to 6896
  145.2548  140.9250  143.3074 H   0  0  0  0  0  0  0  0  0  0  0  0  # atno 7974 bound_to 7965
  155.5744  140.3490  155.4523 H   0  0  0  0  0  0  0  0  0  0  0  0  # atno 8008 bound_to 7997
  156.0420  140.1298  157.0170 H   0  0  0  0  0  0  0  0  0  0  0  0  # atno 8009 bound_to 7997
  154.4396  140.1022  156.6237 H   0  0  0  0  0  0  0  0  0  0  0  0  # atno 8010 bound_to 7997
  140.6240  143.8141  150.7210 H   0  0  0  0  0  0  0  0  0  0  0  0  # atno 10167 bound_to 10162
  157.1625  131.0590  151.2225 H   0  0  0  0  0  0  0  0  0  0  0  0  # atno 10718 bound_to 10713
  154.5127  135.2789  155.1329 H   0  0  0  0  0  0  0  0  0  0  0  0  # atno 10763 bound_to 10752
  154.2918  135.6265  153.5392 H   0  0  0  0  0  0  0  0  0  0  0  0  # atno 10764 bound_to 10752
  152.9921  135.5676  154.5596 H   0  0  0  0  0  0  0  0  0  0  0  0  # atno 10765 bound_to 10752
  140.4895  134.5998  157.4949 H   0  0  0  0  0  0  0  0  0  0  0  0  # atno 11005 bound_to 11000
  144.9470  139.4124  143.6421 LP  0  0  0  0  0  0  0  0  0  0  0  0  # atno 17320 bound_to 7965
  146.3292  139.8459  142.8882 LP  0  0  0  0  0  0  0  0  0  0  0  0  # atno 17321 bound_to 7965
  140.1738  143.4172  152.1982 LP  0  0  0  0  0  0  0  0  0  0  0  0  # atno 17342 bound_to 10162
  139.5464  144.7301  151.4571 LP  0  0  0  0  0  0  0  0  0  0  0  0  # atno 17343 bound_to 10162
  157.4119  130.7390  149.6845 LP  0  0  0  0  0  0  0  0  0  0  0  0  # atno 17370 bound_to 10713
  155.9751  130.4093  150.3871 LP  0  0  0  0  0  0  0  0  0  0  0  0  # atno 17371 bound_to 10713
  139.9778  134.7187  155.9917 LP  0  0  0  0  0  0  0  0  0  0  0  0  # atno 17394 bound_to 11000
  141.1491  133.6551  156.3958 LP  0  0  0  0  0  0  0  0  0  0  0  0  # atno 17395 bound_to 11000

$$$$
