AV-unprocessed.smi:583|AV-procd|sdf|2998|dock7
  -GOLD-   2262023503D 1   1.00000     0.00000
 Structure written by MMmdl.
 35 36  0  0  0  0  0  0  0  0  1 V2000
  148.2405  139.8888  155.0914 O   0  0  0  0  0  0  0  0  0  0  0  0
  148.4939  140.9738  155.6168 C   0  0  0  0  0  0  0  0  0  0  0  0
  149.9087  141.5682  155.5595 C   0  0  0  0  0  0  0  0  0  0  0  0
  150.6756  141.3782  156.8025 N   0  0  0  0  0  0  0  0  0  0  0  0
  150.6830  142.4458  157.7218 C   0  0  0  0  0  0  0  0  0  0  0  0
  151.3322  142.3935  158.9009 C   0  0  0  0  0  0  0  0  0  0  0  0
  151.3661  143.5820  159.8493 C   0  0  0  0  0  0  0  0  0  0  0  0
  150.1410  143.8926  160.2736 F   0  0  0  0  0  0  0  0  0  0  0  0
  152.1264  143.3262  160.9150 F   0  0  0  0  0  0  0  0  0  0  0  0
  151.8714  144.6450  159.2250 F   0  0  0  0  0  0  0  0  0  0  0  0
  152.0689  141.1761  159.1782 C   0  0  0  0  0  0  0  0  0  0  0  0
  152.0774  140.1480  158.3074 C   0  0  0  0  0  0  0  0  0  0  0  0
  151.3471  140.2113  157.0394 C   0  0  0  0  0  0  0  0  0  0  0  0
  151.3398  139.2751  156.2396 O   0  0  0  0  0  0  0  0  0  0  0  0
  147.5806  141.6979  156.2809 N   0  0  0  0  0  0  0  0  0  0  0  0
  146.1807  141.3244  156.4576 C   0  0  1  0  0  0  0  0  0  0  0  0
  145.7259  141.4406  157.9273 C   0  0  0  0  0  0  0  0  0  0  0  0
  144.1934  141.4035  157.9730 C   0  0  0  0  0  0  0  0  0  0  0  0
  143.6176  142.1434  156.3978 S   0  0  0  0  0  0  0  0  0  0  0  0
  142.7832  141.1622  155.6880 O   0  0  0  0  0  0  0  0  0  0  0  0
  143.1362  143.5116  156.6416 O   0  0  0  0  0  0  0  0  0  0  0  0
  145.2696  142.2219  155.6091 C   0  0  0  0  0  0  0  0  0  0  0  0
  150.4485  141.1330  154.7164 H   0  0  0  0  0  0  0  0  0  0  0  0
  149.8211  142.6294  155.3226 H   0  0  0  0  0  0  0  0  0  0  0  0
  150.1216  143.3138  157.4078 H   0  0  0  0  0  0  0  0  0  0  0  0
  152.6197  141.0841  160.1028 H   0  0  0  0  0  0  0  0  0  0  0  0
  152.6344  139.2546  158.5485 H   0  0  0  0  0  0  0  0  0  0  0  0
  147.8750  142.5741  156.6874 H   0  0  0  0  0  0  0  0  0  0  0  0
  146.0348  140.2929  156.1307 H   0  0  0  0  0  0  0  0  0  0  0  0
  146.1608  140.6598  158.5521 H   0  0  0  0  0  0  0  0  0  0  0  0
  146.0632  142.3959  158.3320 H   0  0  0  0  0  0  0  0  0  0  0  0
  143.8325  140.3753  158.0118 H   0  0  0  0  0  0  0  0  0  0  0  0
  143.7800  141.9498  158.8210 H   0  0  0  0  0  0  0  0  0  0  0  0
  145.5991  143.2611  155.6363 H   0  0  0  0  0  0  0  0  0  0  0  0
  145.2052  141.9037  154.5684 H   0  0  0  0  0  0  0  0  0  0  0  0
  1  2  2  0  0  0  0
  2  3  1  0  0  0  0
  2 15  1  0  0  0  0
  3  4  1  0  0  0  0
  3 23  1  0  0  0  0
  3 24  1  0  0  0  0
  4 13  1  0  0  0  0
  4  5  1  0  0  0  0
  5  6  2  0  0  0  0
  5 25  1  0  0  0  0
  6  7  1  0  0  0  0
  6 11  1  0  0  0  0
  7  8  1  0  0  0  0
  7  9  1  0  0  0  0
  7 10  1  0  0  0  0
 11 12  2  0  0  0  0
 11 26  1  0  0  0  0
 12 13  1  0  0  0  0
 12 27  1  0  0  0  0
 13 14  2  0  0  0  0
 15 16  1  0  0  0  0
 15 28  1  0  0  0  0
 16 22  1  0  0  0  0
 16 17  1  0  0  0  0
 16 29  1  0  0  0  0
 17 18  1  0  0  0  0
 17 30  1  0  0  0  0
 17 31  1  0  0  0  0
 18 19  1  0  0  0  0
 18 32  1  0  0  0  0
 18 33  1  0  0  0  0
 19 20  2  0  0  0  0
 19 21  2  0  0  0  0
 19 22  1  0  0  0  0
 22 34  1  0  0  0  0
 22 35  1  0  0  0  0
M  END
> <s_m_source_file>
AV-unprocessed.smi

> <i_m_source_file_index>
583

> <i_lp_mmshare_version>
43012

> <i_f3d_flags>
0

> <s_epik_input>
Tz1TMSg9TylbQ0gyXVtDSDJdW0NASF0oW0NIMl0xKVtOSF1DKD1PKVtDSDJdbjJbY0hdYyhDKEYpKEYpRilbY0hdW2NIXWMyPU8=

> <s_epik_cmdline>
J2VwaWtfcHl0aG9uJywgJy1waCcsICc3LjAnLCAnLXRuJywgJzgnLCAnLW1hJywgJzIwMCcsICctbWV0YWxfYmluZGluZycsICctaW1hZScsICc8aW5maWxlLm1hZT4nLCAnLW9tYWUnLCAnPG91dGZpbGUubWFlPic=

> <r_lp_tautomer_probability>
1

> <r_epik_Ionization_Penalty>
1.22016e-07

> <r_epik_Ionization_Penalty_Charging>
1.48237e-08

> <r_epik_Ionization_Penalty_Neutral>
1.07193e-07

> <r_epik_State_Penalty>
-0

> <r_epik_Charging_Adjusted_Penalty>
1.48237e-08

> <i_epik_Tot_Q>
0

> <i_epik_Tot_abs_Q>
0

> <r_epik_Metal_State_Penalty>
-0

> <b_epik_Metal_Only>
0

> <s_lp_Force_Field>
OPLS_2005

> <r_lp_Energy>
16.0517

> <b_lp_Chiralities_Consistent>
1

> <s_lp_Variant>
AV-unprocessed.smi:583-2

> <Gold.Version>
5.8.1

> <Gold.Id.Protein>
6NUR|6NUR_protein|mol2

> <Gold.PLP.Fitness>
45.5509

> <Gold.PLP.PLP>
-40.9490

> <Gold.PLP.part.hbond>
-1.0000

> <Gold.PLP.part.metal>
0.0000

> <Gold.PLP.part.buried>
-5.6259

> <Gold.PLP.part.nonpolar>
-34.9019

> <Gold.PLP.part.repulsive>
0.3228

> <Gold.PLP.ligand.clash>
0.0000

> <Gold.PLP.ligand.torsion>
0.7210

> <Gold.PLP.Chemscore.Hbond>
1.0000

> <Gold.PLP.Chemscore.CHOScore>
1.0000

> <Gold.PLP.Chemscore.Metal>
0.0000

> <Gold.Chemscore.Hbonds>
donor molecule, donor type, donor heavy atom, donor atom, acceptor molecule, acceptor atom, score
      L1  C     5    25       P1  8028  0.95

> <Gold.PLP.Chemscore.Internal.Correction>
0.0439

> <Gold.Rescore>
     Score         DG    S(hbond)    S(metal)    S(lipo)     H(rot)  DE(clash)    DE(int)     intcor
     10.41     -11.43       0.93        0.00      62.19       1.73       0.38       0.64       ----

> <Gold.Chemscore.Fitness>
10.4104

> <Gold.Chemscore.DG>
-11.4286

> <Gold.Chemscore.ZeroCoef>
-5.4800

> <Gold.Chemscore.Hbond>
0.9296

> <Gold.Chemscore.Metal>
0.0000

> <Gold.Chemscore.Lipo>
62.1886

> <Gold.Chemscore.Internal_Hbond>
0.0000

> <Gold.Chemscore.DEClash>
0.3828

> <Gold.Chemscore.DEInternal>
0.6354

> <Gold.Chemscore.Rot>
1.7314

> <Gold.Chemscore.Internal.Correction>
   9.000000E+99

> <Gold.Chemscore.Hbond.Weighted>
-3.1049

> <Gold.Chemscore.Metal.Weighted>
-0.0000

> <Gold.Chemscore.Lipo.Weighted>
-7.2761

> <Gold.Chemscore.Internal_Hbond.Weighted>
0.0000

> <Gold.Chemscore.DEClash.Weighted>
0.3828

> <Gold.Chemscore.DEInternal.Weighted>
0.6354

> <Gold.Chemscore.Rot.Weighted>
4.4324

> <Gold.Chemscore.Internal.Correction.Weighted>
   9.000000E+99

> <Gold.Protein.RotatedTorsions>
[ 6907 6896 6895 6894 ] final   66.35 input  -60.11 | X-H torsion
[ 7974 7965 7964 7962 ] final    1.25 input  175.53 | X-H torsion
[ 8008 7997 7996 7995 ] final  132.40 input   59.86 | X-H torsion
[ 10167 10162 10161 10158 ] final -115.03 input  -65.29 | X-H torsion
[ 10718 10713 10712 10709 ] final -120.41 input   66.30 | X-H torsion
[ 10763 10752 10751 10750 ] final -167.18 input  -60.55 | X-H torsion
[ 11005 11000 10999 10996 ] final -101.53 input  -57.11 | X-H torsion

> <Gold.Protein.ActiveResidues>
 VAL166  LYS551  ARG553  GLY616  TRP617  ASP618  TYR619  PRO620  LYS621  CYS622 
 ASP623  PHE694  ASN695  SER759  ASP760  ASP761  ALA762  ILE779  LEU786  VAL792 
 PHE793  MET794  SER795  GLU796  ALA797  LYS798  CYS799  TRP800  GLU811  SER814 

> <Gold.Protein.RotatedAtoms>
  152.4475  134.5464  159.9853 H   0  0  0  0  0  0  0  0  0  0  0  0  # atno 6907 bound_to 6896
  151.5546  133.3406  159.2967 H   0  0  0  0  0  0  0  0  0  0  0  0  # atno 6908 bound_to 6896
  150.8394  134.7713  159.6983 H   0  0  0  0  0  0  0  0  0  0  0  0  # atno 6909 bound_to 6896
  146.2439  140.1015  142.8347 H   0  0  0  0  0  0  0  0  0  0  0  0  # atno 7974 bound_to 7965
  156.2982  140.2547  156.3084 H   0  0  0  0  0  0  0  0  0  0  0  0  # atno 8008 bound_to 7997
  154.9350  140.0397  157.2086 H   0  0  0  0  0  0  0  0  0  0  0  0  # atno 8009 bound_to 7997
  154.8181  140.2855  155.5810 H   0  0  0  0  0  0  0  0  0  0  0  0  # atno 8010 bound_to 7997
  140.0946  143.4669  152.1849 H   0  0  0  0  0  0  0  0  0  0  0  0  # atno 10167 bound_to 10162
  156.1256  130.6356  150.9537 H   0  0  0  0  0  0  0  0  0  0  0  0  # atno 10718 bound_to 10713
  154.6758  135.2946  154.9681 H   0  0  0  0  0  0  0  0  0  0  0  0  # atno 10763 bound_to 10752
  154.0692  135.6620  153.4826 H   0  0  0  0  0  0  0  0  0  0  0  0  # atno 10764 bound_to 10752
  153.0515  135.5171  154.7776 H   0  0  0  0  0  0  0  0  0  0  0  0  # atno 10765 bound_to 10752
  141.1227  133.8485  157.1243 H   0  0  0  0  0  0  0  0  0  0  0  0  # atno 11005 bound_to 11000
  145.0564  140.9056  143.4965 LP  0  0  0  0  0  0  0  0  0  0  0  0  # atno 17320 bound_to 7965
  145.1122  139.2749  143.5631 LP  0  0  0  0  0  0  0  0  0  0  0  0  # atno 17321 bound_to 7965
  139.5705  144.7460  151.3903 LP  0  0  0  0  0  0  0  0  0  0  0  0  # atno 17342 bound_to 10162
  140.7011  143.7630  150.7404 LP  0  0  0  0  0  0  0  0  0  0  0  0  # atno 17343 bound_to 10162
  157.6438  131.0907  150.8197 LP  0  0  0  0  0  0  0  0  0  0  0  0  # atno 17370 bound_to 10713
  156.8288  130.5008  149.5334 LP  0  0  0  0  0  0  0  0  0  0  0  0  # atno 17371 bound_to 10713
  140.0198  134.9951  157.0568 LP  0  0  0  0  0  0  0  0  0  0  0  0  # atno 17394 bound_to 11000
  140.4459  134.1632  155.7177 LP  0  0  0  0  0  0  0  0  0  0  0  0  # atno 17395 bound_to 11000

$$$$
