AV-unprocessed.smi:221|AV-procd|sdf|1694|dock10
  -GOLD-   2262020143D 1   1.00000     0.00000
 Structure written by MMmdl.
 50 53  0  0  0  0  0  0  0  0  1 V2000
  147.1616  136.7195  162.7219 N   0  0  0  0  0  0  0  0  0  0  0  0
  147.4500  136.3651  161.4675 C   0  0  0  0  0  0  0  0  0  0  0  0
  148.0909  137.0951  160.7131 O   0  0  0  0  0  0  0  0  0  0  0  0
  146.9601  134.9840  161.0087 C   0  0  2  0  0  0  0  0  0  0  0  0
  146.5150  134.1123  162.1905 C   0  0  0  0  0  0  0  0  0  0  0  0
  146.6522  132.6952  161.6453 C   0  0  1  0  0  0  0  0  0  0  0  0
  145.5729  132.3881  160.9242 F   0  0  0  0  0  0  0  0  0  0  0  0
  147.8728  132.7872  160.7264 C   0  0  0  0  0  0  0  0  0  0  0  0
  148.0222  134.1976  160.3778 N   0  0  0  0  0  0  0  0  0  0  0  0
  148.2519  134.4568  159.0716 C   0  0  0  0  0  0  0  0  0  0  0  0
  149.1793  133.6944  158.4427 N   0  0  0  0  0  0  0  0  0  0  0  0
  149.4553  133.9085  157.1524 C   0  0  0  0  0  0  0  0  0  0  0  0
  148.9295  134.8145  156.3244 N   0  0  0  0  0  0  0  0  0  0  0  0
  147.9960  135.5815  156.9578 C   0  0  0  0  0  0  0  0  0  0  0  0
  147.5960  135.4705  158.3184 C   0  0  0  0  0  0  0  0  0  0  0  0
  146.6202  136.4174  158.6060 N   0  0  0  0  0  0  0  0  0  0  0  0
  146.4553  137.0551  157.4794 C   0  0  0  0  0  0  0  0  0  0  0  0
  147.2475  136.6226  156.4396 N   0  0  0  0  0  0  0  0  0  0  0  0
  147.2788  137.1509  155.0881 C   0  0  0  0  0  0  0  0  0  0  0  0
  147.7963  138.6083  155.0048 C   0  0  2  0  0  0  0  0  0  0  0  0
  147.5382  139.2650  153.6237 C   0  0  0  0  0  0  0  0  0  0  0  0
  148.0478  138.4758  152.5684 O   0  0  0  0  0  0  0  0  0  0  0  0
  149.2819  138.6668  155.4435 C   0  0  1  0  0  0  0  0  0  0  0  0
  150.2794  137.9694  154.5251 C   0  0  0  0  0  0  0  0  0  0  0  0
  151.5623  138.7400  154.8020 C   0  0  0  0  0  0  0  0  0  0  0  0
  151.1064  140.0785  154.9055 O   0  0  0  0  0  0  0  0  0  0  0  0
  149.8690  140.0801  155.6096 C   0  0  0  0  0  0  0  0  0  0  0  0
  146.1231  135.1056  160.3184 H   0  0  0  0  0  0  0  0  0  0  0  0
  146.7536  131.9382  162.4234 H   0  0  0  0  0  0  0  0  0  0  0  0
  147.4595  137.6200  163.0680 H   0  0  0  0  0  0  0  0  0  0  0  0
  146.6447  136.0898  163.3182 H   0  0  0  0  0  0  0  0  0  0  0  0
  147.1854  134.2396  163.0428 H   0  0  0  0  0  0  0  0  0  0  0  0
  145.5019  134.3378  162.5253 H   0  0  0  0  0  0  0  0  0  0  0  0
  148.7702  132.4881  161.2689 H   0  0  0  0  0  0  0  0  0  0  0  0
  147.7819  132.1242  159.8640 H   0  0  0  0  0  0  0  0  0  0  0  0
  150.2058  133.2619  156.7225 H   0  0  0  0  0  0  0  0  0  0  0  0
  145.7531  137.8698  157.3779 H   0  0  0  0  0  0  0  0  0  0  0  0
  147.9091  136.4913  154.4905 H   0  0  0  0  0  0  0  0  0  0  0  0
  146.2748  137.0816  154.6680 H   0  0  0  0  0  0  0  0  0  0  0  0
  147.2495  139.1897  155.7492 H   0  0  0  0  0  0  0  0  0  0  0  0
  146.4726  139.3929  153.4381 H   0  0  0  0  0  0  0  0  0  0  0  0
  147.9844  140.2586  153.5748 H   0  0  0  0  0  0  0  0  0  0  0  0
  148.6927  138.9821  152.0984 H   0  0  0  0  0  0  0  0  0  0  0  0
  149.3603  138.1909  156.4224 H   0  0  0  0  0  0  0  0  0  0  0  0
  150.3746  136.9031  154.7318 H   0  0  0  0  0  0  0  0  0  0  0  0
  150.0103  138.0873  153.4760 H   0  0  0  0  0  0  0  0  0  0  0  0
  152.0106  138.4294  155.7471 H   0  0  0  0  0  0  0  0  0  0  0  0
  152.3040  138.6262  154.0111 H   0  0  0  0  0  0  0  0  0  0  0  0
  149.2232  140.8680  155.2223 H   0  0  0  0  0  0  0  0  0  0  0  0
  150.0497  140.2965  156.6634 H   0  0  0  0  0  0  0  0  0  0  0  0
  1  2  1  0  0  0  0
  1 30  1  0  0  0  0
  1 31  1  0  0  0  0
  2  3  2  0  0  0  0
  2  4  1  0  0  0  0
  4 28  1  0  0  0  0
  4  9  1  0  0  0  0
  4  5  1  0  0  0  0
  5  6  1  0  0  0  0
  5 32  1  0  0  0  0
  5 33  1  0  0  0  0
  6 29  1  0  0  0  0
  6  7  1  0  0  0  0
  6  8  1  0  0  0  0
  8  9  1  0  0  0  0
  8 34  1  0  0  0  0
  8 35  1  0  0  0  0
  9 10  1  0  0  0  0
 10 15  1  0  0  0  0
 10 11  2  0  0  0  0
 11 12  1  0  0  0  0
 12 13  2  0  0  0  0
 12 36  1  0  0  0  0
 13 14  1  0  0  0  0
 14 18  1  0  0  0  0
 14 15  2  0  0  0  0
 15 16  1  0  0  0  0
 16 17  2  0  0  0  0
 17 18  1  0  0  0  0
 17 37  1  0  0  0  0
 18 19  1  0  0  0  0
 19 20  1  0  0  0  0
 19 38  1  0  0  0  0
 19 39  1  0  0  0  0
 20 21  1  0  0  0  0
 20 23  1  0  0  0  0
 20 40  1  0  0  0  0
 21 22  1  0  0  0  0
 21 41  1  0  0  0  0
 21 42  1  0  0  0  0
 22 43  1  0  0  0  0
 23 27  1  0  0  0  0
 23 24  1  0  0  0  0
 23 44  1  0  0  0  0
 24 25  1  0  0  0  0
 24 45  1  0  0  0  0
 24 46  1  0  0  0  0
 25 26  1  0  0  0  0
 25 47  1  0  0  0  0
 25 48  1  0  0  0  0
 26 27  1  0  0  0  0
 27 49  1  0  0  0  0
 27 50  1  0  0  0  0
M  END
> <s_m_source_file>
AV-unprocessed.smi

> <i_m_source_file_index>
221

> <i_lp_mmshare_version>
43012

> <i_f3d_flags>
0

> <s_epik_input>
W05IMl1DKD1PKVtDQEBIXTFbQ0gyXVtDQEBIXShGKVtDSDJdTjFjKG5bY0hdbjIpYyhjMjMpbltjSF1uM1tDSDJdW0NASF0oW0NIMl1bT0hdKVtDQEBIXTRbQ0gyXVtDSDJdT1tDSDJdNA==

> <s_epik_cmdline>
J2VwaWtfcHl0aG9uJywgJy1waCcsICc3LjAnLCAnLXRuJywgJzgnLCAnLW1hJywgJzIwMCcsICctbWV0YWxfYmluZGluZycsICctaW1hZScsICc8aW5maWxlLm1hZT4nLCAnLW9tYWUnLCAnPG91dGZpbGUubWFlPic=

> <r_lp_tautomer_probability>
1

> <r_epik_Ionization_Penalty>
0.000818822

> <r_epik_Ionization_Penalty_Charging>
0

> <r_epik_Ionization_Penalty_Neutral>
0.000818822

> <r_epik_State_Penalty>
0.000440551

> <r_epik_Charging_Adjusted_Penalty>
0.000440551

> <i_epik_Tot_Q>
0

> <i_epik_Tot_abs_Q>
0

> <r_epik_Metal_State_Penalty>
-0

> <b_epik_Metal_Only>
0

> <s_lp_Force_Field>
OPLS_2005

> <r_lp_Energy>
51.8706

> <b_lp_Chiralities_Consistent>
1

> <s_lp_Variant>
AV-unprocessed.smi:221-9

> <Gold.Version>
5.8.1

> <Gold.Id.Protein>
6NUR|6NUR_protein|mol2

> <Gold.PLP.Fitness>
44.5022

> <Gold.PLP.PLP>
-32.2891

> <Gold.PLP.part.hbond>
-6.0000

> <Gold.PLP.part.metal>
0.0000

> <Gold.PLP.part.buried>
-6.4303

> <Gold.PLP.part.nonpolar>
-20.8880

> <Gold.PLP.part.repulsive>
0.2880

> <Gold.PLP.ligand.clash>
0.4278

> <Gold.PLP.ligand.torsion>
0.6210

> <Gold.PLP.Chemscore.Hbond>
4.5457

> <Gold.PLP.Chemscore.CHOScore>
0.0000

> <Gold.PLP.Chemscore.Metal>
0.0000

> <Gold.Chemscore.Hbonds>
donor molecule, donor type, donor heavy atom, donor atom, acceptor molecule, acceptor atom, score
      L1  H    22    43       P1  7957  1.00
      P1  H  6896  6909       L1    11  1.00
      P1  H  6931  6943       L1     3  0.88
      P1  H  6934  6947       L1     3  0.54
      P1  H  7989  7998       L1    26  1.00

> <Gold.PLP.Chemscore.Internal.Correction>
0.2458

> <Gold.Rescore>
     Score         DG    S(hbond)    S(metal)    S(lipo)     H(rot)  DE(clash)    DE(int)     intcor
     11.06     -15.55       3.99        0.00      53.62       3.72       0.01       4.48       ----

> <Gold.Chemscore.Fitness>
11.0561

> <Gold.Chemscore.DG>
-15.5453

> <Gold.Chemscore.ZeroCoef>
-5.4800

> <Gold.Chemscore.Hbond>
3.9866

> <Gold.Chemscore.Metal>
0.0000

> <Gold.Chemscore.Lipo>
53.6240

> <Gold.Chemscore.Internal_Hbond>
0.0000

> <Gold.Chemscore.DEClash>
0.0089

> <Gold.Chemscore.DEInternal>
4.4804

> <Gold.Chemscore.Rot>
3.7202

> <Gold.Chemscore.Internal.Correction>
   9.000000E+99

> <Gold.Chemscore.Hbonds>
donor molecule, donor type, donor heavy atom, donor atom, acceptor molecule, acceptor atom, score
      L1  H    22    43       P1  7957  0.97
      P1  H  6896  6909       L1    11  0.41
      P1  H  6931  6943       L1     3  0.39
      P1  H  6934  6947       L1     3  0.27
      P1  H  7989  7998       L1    26  0.55

> <Gold.Chemscore.Hbond.Weighted>
-13.3151

> <Gold.Chemscore.Metal.Weighted>
-0.0000

> <Gold.Chemscore.Lipo.Weighted>
-6.2740

> <Gold.Chemscore.Internal_Hbond.Weighted>
0.0000

> <Gold.Chemscore.DEClash.Weighted>
0.0089

> <Gold.Chemscore.DEInternal.Weighted>
4.4804

> <Gold.Chemscore.Rot.Weighted>
9.5237

> <Gold.Chemscore.Internal.Correction.Weighted>
   9.000000E+99

> <Gold.Protein.RotatedTorsions>
[ 6907 6896 6895 6894 ] final   -2.50 input  -60.11 | X-H torsion
[ 7974 7965 7964 7962 ] final  147.50 input  175.53 | X-H torsion
[ 8008 7997 7996 7995 ] final  167.99 input   59.86 | X-H torsion
[ 10167 10162 10161 10158 ] final   40.40 input  -65.29 | X-H torsion
[ 10718 10713 10712 10709 ] final   -4.42 input   66.30 | X-H torsion
[ 10763 10752 10751 10750 ] final  178.00 input  -60.55 | X-H torsion
[ 11005 11000 10999 10996 ] final   78.57 input  -57.11 | X-H torsion

> <Gold.Protein.ActiveResidues>
 VAL166  LYS551  ARG553  GLY616  TRP617  ASP618  TYR619  PRO620  LYS621  CYS622 
 ASP623  PHE694  ASN695  SER759  ASP760  ASP761  ALA762  ILE779  LEU786  VAL792 
 PHE793  MET794  SER795  GLU796  ALA797  LYS798  CYS799  TRP800  GLU811  SER814 

> <Gold.Protein.RotatedAtoms>
  151.5289  135.1068  159.9897 H   0  0  0  0  0  0  0  0  0  0  0  0  # atno 6907 bound_to 6896
  152.4587  133.7773  159.6842 H   0  0  0  0  0  0  0  0  0  0  0  0  # atno 6908 bound_to 6896
  150.8541  133.7677  159.3040 H   0  0  0  0  0  0  0  0  0  0  0  0  # atno 6909 bound_to 6896
  144.8587  139.6037  143.5941 H   0  0  0  0  0  0  0  0  0  0  0  0  # atno 7974 bound_to 7965
  156.1586  140.1602  156.8651 H   0  0  0  0  0  0  0  0  0  0  0  0  # atno 8008 bound_to 7997
  154.5138  140.0794  156.8078 H   0  0  0  0  0  0  0  0  0  0  0  0  # atno 8009 bound_to 7997
  155.3754  140.3402  155.4247 H   0  0  0  0  0  0  0  0  0  0  0  0  # atno 8010 bound_to 7997
  140.3746  144.2060  150.6132 H   0  0  0  0  0  0  0  0  0  0  0  0  # atno 10167 bound_to 10162
  156.7615  130.5271  149.5784 H   0  0  0  0  0  0  0  0  0  0  0  0  # atno 10718 bound_to 10713
  154.5018  135.2784  155.1414 H   0  0  0  0  0  0  0  0  0  0  0  0  # atno 10763 bound_to 10752
  154.3044  135.6241  153.5442 H   0  0  0  0  0  0  0  0  0  0  0  0  # atno 10764 bound_to 10752
  152.9904  135.5704  154.5463 H   0  0  0  0  0  0  0  0  0  0  0  0  # atno 10765 bound_to 10752
  139.9207  134.7774  156.1667 H   0  0  0  0  0  0  0  0  0  0  0  0  # atno 11005 bound_to 11000
  146.2843  139.6961  142.9207 LP  0  0  0  0  0  0  0  0  0  0  0  0  # atno 17320 bound_to 7965
  145.4356  141.0418  143.2886 LP  0  0  0  0  0  0  0  0  0  0  0  0  # atno 17321 bound_to 7965
  140.4999  143.2321  151.8694 LP  0  0  0  0  0  0  0  0  0  0  0  0  # atno 17342 bound_to 10162
  139.4800  144.5071  151.8983 LP  0  0  0  0  0  0  0  0  0  0  0  0  # atno 17343 bound_to 10162
  156.1336  130.6195  151.0368 LP  0  0  0  0  0  0  0  0  0  0  0  0  # atno 17370 bound_to 10713
  157.6732  131.0856  150.7560 LP  0  0  0  0  0  0  0  0  0  0  0  0  # atno 17371 bound_to 10713
  141.0725  133.6790  156.2170 LP  0  0  0  0  0  0  0  0  0  0  0  0  # atno 17394 bound_to 11000
  140.6483  134.5094  157.5575 LP  0  0  0  0  0  0  0  0  0  0  0  0  # atno 17395 bound_to 11000

$$$$
