AV-unprocessed.smi:1971|AV-procd|sdf|7971|dock5
  -GOLD-   2272010143D 1   1.00000     0.00000
 Structure written by MMmdl.
 43 44  0  0  0  0  0  0  0  0  3 V2000
  144.3842  132.1625  151.0234 C   0  0  0  0  0  0  0  0  0  0  0  0
  145.5510  132.1158  152.0207 C   0  0  0  0  0  0  0  0  0  0  0  0
  146.6489  132.9994  151.6209 N   0  0  0  0  0  0  0  0  0  0  0  0
  146.2676  134.3996  151.4027 C   0  0  0  0  0  0  0  0  0  0  0  0
  145.9055  135.1193  152.7189 C   0  0  0  0  0  0  0  0  0  0  0  0
  147.0415  135.0515  153.6707 N   0  3  0  0  0  0  0  0  0  0  0  0
  146.8514  135.8799  154.8957 C   0  0  1  0  0  0  0  0  0  0  0  0
  145.5003  135.6242  155.5988 C   0  0  0  0  0  0  0  0  0  0  0  0
  148.0602  135.7224  155.8466 C   0  0  0  0  0  0  0  0  0  0  0  0
  147.8634  136.4089  157.1191 N   0  0  0  0  0  0  0  0  0  0  0  0
  148.2489  135.9558  158.3202 C   0  0  0  0  0  0  0  0  0  0  0  0
  148.8044  134.8587  158.4134 O   0  0  0  0  0  0  0  0  0  0  0  0
  147.9727  136.8050  159.3347 N   0  5  0  0  0  0  0  0  0  0  0  0
  147.4700  136.3338  160.4875 C   0  0  0  0  0  0  0  0  0  0  0  0
  147.1110  137.1276  161.5030 N   0  0  0  0  0  0  0  0  0  0  0  0
  146.6075  136.4295  162.6021 C   0  0  0  0  0  0  0  0  0  0  0  0
  146.5747  135.0729  162.4158 C   0  0  0  0  0  0  0  0  0  0  0  0
  147.1794  134.6292  160.8452 S   0  0  0  0  0  0  0  0  0  0  0  0
  147.4401  133.6387  153.9005 C   0  0  0  0  0  0  0  0  0  0  0  0
  147.7745  132.9546  152.5583 C   0  0  0  0  0  0  0  0  0  0  0  0
  143.6391  131.4075  151.2743 H   0  0  0  0  0  0  0  0  0  0  0  0
  144.7245  131.9630  150.0068 H   0  0  0  0  0  0  0  0  0  0  0  0
  143.8770  133.1269  151.0291 H   0  0  0  0  0  0  0  0  0  0  0  0
  145.1967  132.3412  153.0259 H   0  0  0  0  0  0  0  0  0  0  0  0
  145.9264  131.0920  152.0487 H   0  0  0  0  0  0  0  0  0  0  0  0
  147.1072  134.9131  150.9320 H   0  0  0  0  0  0  0  0  0  0  0  0
  145.4440  134.4676  150.6931 H   0  0  0  0  0  0  0  0  0  0  0  0
  145.6790  136.1624  152.4961 H   0  0  0  0  0  0  0  0  0  0  0  0
  145.0053  134.6954  153.1635 H   0  0  0  0  0  0  0  0  0  0  0  0
  146.8479  136.9199  154.5672 H   0  0  0  0  0  0  0  0  0  0  0  0
  145.3271  136.3534  156.3906 H   0  0  0  0  0  0  0  0  0  0  0  0
  145.4630  134.6364  156.0584 H   0  0  0  0  0  0  0  0  0  0  0  0
  144.6626  135.7056  154.9065 H   0  0  0  0  0  0  0  0  0  0  0  0
  148.2361  134.6712  156.0730 H   0  0  0  0  0  0  0  0  0  0  0  0
  148.9707  136.0909  155.3712 H   0  0  0  0  0  0  0  0  0  0  0  0
  147.4091  137.3101  157.0891 H   0  0  0  0  0  0  0  0  0  0  0  0
  146.2933  136.9802  163.4761 H   0  0  0  0  0  0  0  0  0  0  0  0
  146.2330  134.3121  163.1012 H   0  0  0  0  0  0  0  0  0  0  0  0
  148.3180  133.5994  154.5445 H   0  0  0  0  0  0  0  0  0  0  0  0
  146.6502  133.0927  154.4165 H   0  0  0  0  0  0  0  0  0  0  0  0
  148.0746  131.9193  152.7242 H   0  0  0  0  0  0  0  0  0  0  0  0
  148.6306  133.4508  152.0993 H   0  0  0  0  0  0  0  0  0  0  0  0
  147.8146  135.4812  153.1830 H   0  0  0  0  0  0  0  0  0  0  0  0
  1  2  1  0  0  0  0
  1 21  1  0  0  0  0
  1 22  1  0  0  0  0
  1 23  1  0  0  0  0
  2  3  1  0  0  0  0
  2 24  1  0  0  0  0
  2 25  1  0  0  0  0
  3 20  1  0  0  0  0
  3  4  1  0  0  0  0
  4  5  1  0  0  0  0
  4 26  1  0  0  0  0
  4 27  1  0  0  0  0
  5  6  1  0  0  0  0
  5 28  1  0  0  0  0
  5 29  1  0  0  0  0
  6  7  1  0  0  0  0
  6 19  1  0  0  0  0
  6 43  1  0  0  0  0
  7  8  1  0  0  0  0
  7  9  1  0  0  0  0
  7 30  1  0  0  0  0
  8 31  1  0  0  0  0
  8 32  1  0  0  0  0
  8 33  1  0  0  0  0
  9 10  1  0  0  0  0
  9 34  1  0  0  0  0
  9 35  1  0  0  0  0
 10 11  1  0  0  0  0
 10 36  1  0  0  0  0
 11 12  2  0  0  0  0
 11 13  1  0  0  0  0
 13 14  1  0  0  0  0
 14 18  1  0  0  0  0
 14 15  2  0  0  0  0
 15 16  1  0  0  0  0
 16 17  2  0  0  0  0
 16 37  1  0  0  0  0
 17 18  1  0  0  0  0
 17 38  1  0  0  0  0
 19 20  1  0  0  0  0
 19 39  1  0  0  0  0
 19 40  1  0  0  0  0
 20 41  1  0  0  0  0
 20 42  1  0  0  0  0
M  CHG  1   6   1
M  CHG  1  13  -1
M  END
> <s_m_source_file>
AV-unprocessed.smi

> <i_m_source_file_index>
1971

> <i_lp_mmshare_version>
43012

> <i_f3d_flags>
0

> <s_epik_input>
W0NIM11bQ0gyXU4xW0NIMl1bQ0gyXU4oW0NIMl1bQ0gyXTEpW0NASF0oW0NIM10pW0NIMl1bTkhdQyg9TylbTkhdYzJuW2NIXVtjSF1zMg==

> <s_epik_cmdline>
J2VwaWtfcHl0aG9uJywgJy1waCcsICc3LjAnLCAnLXRuJywgJzgnLCAnLW1hJywgJzIwMCcsICctbWV0YWxfYmluZGluZycsICctaW1hZScsICc8aW5maWxlLm1hZT4nLCAnLW9tYWUnLCAnPG91dGZpbGUubWFlPic=

> <r_epik_Ionization_Penalty>
6.3441

> <r_epik_Ionization_Penalty_Charging>
5.51153

> <r_epik_Ionization_Penalty_Neutral>
0.832567

> <r_epik_State_Penalty>
6.33945

> <r_epik_Charging_Adjusted_Penalty>
11.851

> <i_epik_Tot_Q>
0

> <i_epik_Tot_abs_Q>
2

> <r_epik_Metal_State_Penalty>
2.34542

> <b_epik_Metal_Only>
1

> <s_lp_Force_Field>
OPLS_2005

> <r_lp_Energy>
10.682

> <b_lp_Chiralities_Consistent>
1

> <s_lp_Variant>
AV-unprocessed.smi:1971-10

> <Gold.Version>
5.8.1

> <Gold.Id.Protein>
6NUR|6NUR_protein|mol2

> <Gold.PLP.Fitness>
44.2167

> <Gold.PLP.PLP>
-31.0335

> <Gold.PLP.part.hbond>
-4.0000

> <Gold.PLP.part.metal>
0.0000

> <Gold.PLP.part.buried>
-4.5538

> <Gold.PLP.part.nonpolar>
-22.5753

> <Gold.PLP.part.repulsive>
0.1615

> <Gold.PLP.ligand.clash>
0.0000

> <Gold.PLP.ligand.torsion>
0.6970

> <Gold.PLP.Chemscore.Hbond>
4.7840

> <Gold.PLP.Chemscore.CHOScore>
0.0000

> <Gold.PLP.Chemscore.Metal>
0.0000

> <Gold.Chemscore.Hbonds>
donor molecule, donor type, donor heavy atom, donor atom, acceptor molecule, acceptor atom, score
      L1  H     6    43       P1  7948  2.00
      P1  H  6896  6909       L1    12  0.59
      P1  H  6931  6943       L1    15  0.38
      P1  H  6934  6947       L1    15  1.00

> <Gold.PLP.Chemscore.Internal.Correction>
0.2252

> <Gold.Rescore>
     Score         DG    S(hbond)    S(metal)    S(lipo)     H(rot)  DE(clash)    DE(int)     intcor
     16.88     -18.87       3.28        0.00      59.03       1.75       0.01       1.97       ----

> <Gold.Chemscore.Fitness>
16.8831

> <Gold.Chemscore.DG>
-18.8665

> <Gold.Chemscore.ZeroCoef>
-5.4800

> <Gold.Chemscore.Hbond>
3.2820

> <Gold.Chemscore.Metal>
0.0000

> <Gold.Chemscore.Lipo>
59.0261

> <Gold.Chemscore.Internal_Hbond>
0.0000

> <Gold.Chemscore.DEClash>
0.0089

> <Gold.Chemscore.DEInternal>
1.9745

> <Gold.Chemscore.Rot>
1.7505

> <Gold.Chemscore.Internal.Correction>
   9.000000E+99

> <Gold.Chemscore.Hbonds>
donor molecule, donor type, donor heavy atom, donor atom, acceptor molecule, acceptor atom, score
      L1  H     6    43       P1  7948  1.00
      P1  H  6896  6909       L1    12  0.58
      P1  H  6931  6943       L1    15  0.11
      P1  H  6934  6947       L1    15  0.69

> <Gold.Chemscore.Hbond.Weighted>
-10.9618

> <Gold.Chemscore.Metal.Weighted>
-0.0000

> <Gold.Chemscore.Lipo.Weighted>
-6.9060

> <Gold.Chemscore.Internal_Hbond.Weighted>
0.0000

> <Gold.Chemscore.DEClash.Weighted>
0.0089

> <Gold.Chemscore.DEInternal.Weighted>
1.9745

> <Gold.Chemscore.Rot.Weighted>
4.4813

> <Gold.Chemscore.Internal.Correction.Weighted>
   9.000000E+99

> <Gold.Protein.RotatedTorsions>
[ 6907 6896 6895 6894 ] final   20.95 input  -60.11 | X-H torsion
[ 7974 7965 7964 7962 ] final   -3.75 input  175.53 | X-H torsion
[ 8008 7997 7996 7995 ] final -151.67 input   59.86 | X-H torsion
[ 10167 10162 10161 10158 ] final -103.86 input  -65.29 | X-H torsion
[ 10718 10713 10712 10709 ] final -118.39 input   66.30 | X-H torsion
[ 10763 10752 10751 10750 ] final  172.33 input  -60.55 | X-H torsion
[ 11005 11000 10999 10996 ] final  -92.87 input  -57.11 | X-H torsion

> <Gold.Protein.ActiveResidues>
 VAL166  LYS551  ARG553  GLY616  TRP617  ASP618  TYR619  PRO620  LYS621  CYS622 
 ASP623  PHE694  ASN695  SER759  ASP760  ASP761  ALA762  ILE779  LEU786  VAL792 
 PHE793  MET794  SER795  GLU796  ALA797  LYS798  CYS799  TRP800  GLU811  SER814 

> <Gold.Protein.RotatedAtoms>
  151.9042  135.0366  160.0508 H   0  0  0  0  0  0  0  0  0  0  0  0  # atno 6907 bound_to 6896
  152.2333  133.5071  159.5236 H   0  0  0  0  0  0  0  0  0  0  0  0  # atno 6908 bound_to 6896
  150.7032  134.1104  159.4040 H   0  0  0  0  0  0  0  0  0  0  0  0  # atno 6909 bound_to 6896
  146.2384  140.1768  142.8332 H   0  0  0  0  0  0  0  0  0  0  0  0  # atno 7974 bound_to 7965
  155.6431  140.0704  157.2612 H   0  0  0  0  0  0  0  0  0  0  0  0  # atno 8008 bound_to 7997
  154.4179  140.1747  156.1643 H   0  0  0  0  0  0  0  0  0  0  0  0  # atno 8009 bound_to 7997
  155.9839  140.3351  155.6692 H   0  0  0  0  0  0  0  0  0  0  0  0  # atno 8010 bound_to 7997
  140.2155  143.3715  152.1014 H   0  0  0  0  0  0  0  0  0  0  0  0  # atno 10167 bound_to 10162
  156.1103  130.6243  150.9285 H   0  0  0  0  0  0  0  0  0  0  0  0  # atno 10718 bound_to 10713
  154.4245  135.2758  155.1953 H   0  0  0  0  0  0  0  0  0  0  0  0  # atno 10763 bound_to 10752
  154.3885  135.6071  153.5833 H   0  0  0  0  0  0  0  0  0  0  0  0  # atno 10764 bound_to 10752
  152.9834  135.5897  154.4546 H   0  0  0  0  0  0  0  0  0  0  0  0  # atno 10765 bound_to 10752
  141.1511  133.7850  157.0080 H   0  0  0  0  0  0  0  0  0  0  0  0  # atno 11005 bound_to 11000
  144.9966  140.8595  143.5307 LP  0  0  0  0  0  0  0  0  0  0  0  0  # atno 17320 bound_to 7965
  145.1782  139.2366  143.5306 LP  0  0  0  0  0  0  0  0  0  0  0  0  # atno 17321 bound_to 7965
  139.5164  144.6976  151.5585 LP  0  0  0  0  0  0  0  0  0  0  0  0  # atno 17342 bound_to 10162
  140.6293  143.9107  150.6591 LP  0  0  0  0  0  0  0  0  0  0  0  0  # atno 17343 bound_to 10162
  157.6284  131.0923  150.8490 LP  0  0  0  0  0  0  0  0  0  0  0  0  # atno 17370 bound_to 10713
  156.8602  130.5110  149.5304 LP  0  0  0  0  0  0  0  0  0  0  0  0  # atno 17371 bound_to 10713
  140.0896  134.9600  157.1755 LP  0  0  0  0  0  0  0  0  0  0  0  0  # atno 17394 bound_to 11000
  140.3464  134.2647  155.7204 LP  0  0  0  0  0  0  0  0  0  0  0  0  # atno 17395 bound_to 11000

$$$$
