#       Name:                AV-unprocessed.smi:942
#       Creating user name   scv26
#       Creation time:       Fri Mar 27 02:13:19 2020


#       File generated by GOLD software.
#

@<TRIPOS>MOLECULE
AV-unprocessed.smi:942
    45    47     1
SMALL
NO_CHARGES


@<TRIPOS>ATOM
      1 ****        -0.1475   1.3624   1.7111 O.2            1 S1                 0.0000
      2 ****        -0.5596   0.4832   0.9542 C.2            1 S1                 0.0000
      3 ****         0.2535  -0.3253   0.2575 N.am           1 S1                 0.0000
      4 ****         1.7131  -0.2896   0.3046 C.3            1 S1                 0.0000
      5 ****         2.2562  -1.1016   1.4988 C.3            1 S1                 0.0000
      6 ****         2.9705  -2.3169   0.9034 C.3            1 S1                 0.0000
      7 ****         3.4569  -1.8381  -0.4604 C.3            1 S1                 0.0000
      8 ****         2.3181  -0.9398  -0.9586 C.3            1 S1                 0.0000
      9 ****         2.7437   0.0420  -1.9675 N.pl3          1 S1                 0.0000
     10 ****         3.7551   0.9659  -1.8708 C.2            1 S1                 0.0000
     11 ****         3.7634   1.6646  -3.0502 C.2            1 S1                 0.0000
     12 ****         2.7529   1.1465  -3.8142 N.pl3          1 S1                 1.0000
     13 ****         2.1315   0.1646  -3.1530 C.2            1 S1                 0.0000
     14 ****        -2.0671   0.2614   0.7716 C.3            1 S1                 0.0000
     15 ****        -2.7529   1.5336   0.2281 C.3            1 S1                 0.0000
     16 ****        -4.2682   1.3288   0.0654 C.3            1 S1                 0.0000
     17 ****        -4.9146   0.8826   1.3863 C.3            1 S1                 0.0000
     18 ****        -4.2373  -0.3828   1.9352 C.3            1 S1                 0.0000
     19 ****        -2.7226  -0.1759   2.0992 C.3            1 S1                 0.0000
     20 ****        -0.1698  -1.0246  -0.3351 H              1 S1                 0.0000
     21 ****         2.0520   0.7441   0.3984 H              1 S1                 0.0000
     22 ****         2.9763  -0.4929   2.0470 H              1 S1                 0.0000
     23 ****         1.4838  -1.3970   2.2108 H              1 S1                 0.0000
     24 ****         3.7816  -2.6784   1.5363 H              1 S1                 0.0000
     25 ****         2.2596  -3.1340   0.7735 H              1 S1                 0.0000
     26 ****         4.3785  -1.2698  -0.3305 H              1 S1                 0.0000
     27 ****         3.6686  -2.6626  -1.1418 H              1 S1                 0.0000
     28 ****         1.5740  -1.5917  -1.4218 H              1 S1                 0.0000
     29 ****         4.3782   1.0564  -0.9927 H              1 S1                 0.0000
     30 ****         4.3938   2.4725  -3.3923 H              1 S1                 0.0000
     31 ****         1.2985  -0.4147  -3.5095 H              1 S1                 0.0000
     32 ****        -2.2113  -0.5385   0.0426 H              1 S1                 0.0000
     33 ****        -2.5767   2.3740   0.9017 H              1 S1                 0.0000
     34 ****        -2.3188   1.8130  -0.7328 H              1 S1                 0.0000
     35 ****        -4.7330   2.2519  -0.2819 H              1 S1                 0.0000
     36 ****        -4.4560   0.5796  -0.7046 H              1 S1                 0.0000
     37 ****        -4.8375   1.6856   2.1205 H              1 S1                 0.0000
     38 ****        -5.9792   0.7004   1.2372 H              1 S1                 0.0000
     39 ****        -4.6809  -0.6565   2.8928 H              1 S1                 0.0000
     40 ****        -4.4214  -1.2186   1.2589 H              1 S1                 0.0000
     41 ****        -2.2667  -1.1001   2.4567 H              1 S1                 0.0000
     42 ****        -2.5454   0.5738   2.8723 H              1 S1                 0.0000
     43 ****         2.5067   1.4617  -4.7443 H              1 S1                 0.0000
     44 ****         0.8359   1.5000   1.8290 LP             1 S1                 0.0000
     45 ****        -0.7962   1.9389   2.2079 LP             1 S1                 0.0000
@<TRIPOS>BOND
    1    1    2 2     
    2    2    3 am    
    3    2   14 1     
    4    3    4 1     
    5    3   20 1     
    6    4    8 1     
    7    4    5 1     
    8    4   21 1     
    9    5    6 1     
   10    5   22 1     
   11    5   23 1     
   12    6    7 1     
   13    6   24 1     
   14    6   25 1     
   15    7    8 1     
   16    7   26 1     
   17    7   27 1     
   18    8    9 1     
   19    8   28 1     
   20    9   13 1     
   21    9   10 1     
   22   10   11 2     
   23   10   29 1     
   24   11   12 1     
   25   11   30 1     
   26   12   13 2     
   27   12   43 1     
   28   13   31 1     
   29   14   19 1     
   30   14   15 1     
   31   14   32 1     
   32   15   16 1     
   33   15   33 1     
   34   15   34 1     
   35   16   17 1     
   36   16   35 1     
   37   16   36 1     
   38   17   18 1     
   39   17   37 1     
   40   17   38 1     
   41   18   19 1     
   42   18   39 1     
   43   18   40 1     
   44   19   41 1     
   45   19   42 1     
   46    1   44 1     
   47    1   45 1     
@<TRIPOS>SUBSTRUCTURE
      1 S1             1
@<TRIPOS>SET
LONE_PAIRS      STATIC     ATOMS    <user>   **** ""
2 44 45
DONOR_HYDROGENS      STATIC     ATOMS    <user>   **** ""
2 20 43
ATOM$BLUE        STATIC     ATOMS    COLORGROUP SYSTEM
2 44 45
ATOM$RED        STATIC     ATOMS    COLORGROUP SYSTEM
2 20 43
