AV-unprocessed.smi:1422|AV-procd|sdf|5792|dock5
  -GOLD-   22720 5443D 1   1.00000     0.00000
 Structure written by MMmdl.
 31 32  0  0  0  0  0  0  0  0  1 V2000
  146.7659  139.0972  152.5979 C   0  0  0  0  0  0  0  0  0  0  0  0
  147.7399  139.7353  153.5279 C   0  0  0  0  0  0  0  0  0  0  0  0
  148.0080  141.0374  153.8440 C   0  0  0  0  0  0  0  0  0  0  0  0
  149.0558  140.9260  154.7962 C   0  0  0  0  0  0  0  0  0  0  0  0
  149.6319  142.0820  155.3817 N   0  0  0  0  0  0  0  0  0  0  0  0
  150.7065  142.1443  156.1864 C   0  0  0  0  0  0  0  0  0  0  0  0
  151.3719  141.1767  156.5568 O   0  0  0  0  0  0  0  0  0  0  0  0
  150.9704  143.4085  156.5479 N   0  0  0  0  0  0  0  0  0  0  0  0
  152.0618  143.8303  157.4207 C   0  0  0  0  0  0  0  0  0  0  0  0
  151.5665  144.1427  158.8451 C   0  0  2  0  0  0  0  0  0  0  0  0
  151.7908  145.5790  159.2707 C   0  0  0  0  0  0  0  0  0  0  0  0
  151.6462  145.4834  160.7865 C   0  0  0  0  0  0  0  0  0  0  0  0
  152.1099  144.1832  161.1392 O   0  0  0  0  0  0  0  0  0  0  0  0
  152.2901  143.3941  159.9668 C   0  0  0  0  0  0  0  0  0  0  0  0
  149.3953  139.6696  155.0407 N   0  0  0  0  0  0  0  0  0  0  0  0
  148.5541  138.9000  154.2285 O   0  0  0  0  0  0  0  0  0  0  0  0
  146.0082  139.8122  152.2769 H   0  0  0  0  0  0  0  0  0  0  0  0
  146.2586  138.2617  153.0804 H   0  0  0  0  0  0  0  0  0  0  0  0
  147.2722  138.7189  151.7097 H   0  0  0  0  0  0  0  0  0  0  0  0
  147.5306  141.9240  153.4541 H   0  0  0  0  0  0  0  0  0  0  0  0
  149.1783  142.9561  155.1615 H   0  0  0  0  0  0  0  0  0  0  0  0
  150.3684  144.1376  156.1940 H   0  0  0  0  0  0  0  0  0  0  0  0
  152.8565  143.0824  157.4430 H   0  0  0  0  0  0  0  0  0  0  0  0
  152.5026  144.7275  156.9856 H   0  0  0  0  0  0  0  0  0  0  0  0
  150.4985  143.9280  158.9125 H   0  0  0  0  0  0  0  0  0  0  0  0
  152.8008  145.9007  159.0115 H   0  0  0  0  0  0  0  0  0  0  0  0
  151.0841  146.2765  158.8201 H   0  0  0  0  0  0  0  0  0  0  0  0
  152.2031  146.2614  161.3088 H   0  0  0  0  0  0  0  0  0  0  0  0
  150.5975  145.5659  161.0743 H   0  0  0  0  0  0  0  0  0  0  0  0
  151.9099  142.3820  160.1073 H   0  0  0  0  0  0  0  0  0  0  0  0
  153.3591  143.3277  159.7606 H   0  0  0  0  0  0  0  0  0  0  0  0
  1  2  1  0  0  0  0
  1 17  1  0  0  0  0
  1 18  1  0  0  0  0
  1 19  1  0  0  0  0
  2 16  1  0  0  0  0
  2  3  2  0  0  0  0
  3  4  1  0  0  0  0
  3 20  1  0  0  0  0
  4  5  1  0  0  0  0
  4 15  2  0  0  0  0
  5  6  1  0  0  0  0
  5 21  1  0  0  0  0
  6  7  2  0  0  0  0
  6  8  1  0  0  0  0
  8  9  1  0  0  0  0
  8 22  1  0  0  0  0
  9 10  1  0  0  0  0
  9 23  1  0  0  0  0
  9 24  1  0  0  0  0
 10 14  1  0  0  0  0
 10 11  1  0  0  0  0
 10 25  1  0  0  0  0
 11 12  1  0  0  0  0
 11 26  1  0  0  0  0
 11 27  1  0  0  0  0
 12 13  1  0  0  0  0
 12 28  1  0  0  0  0
 12 29  1  0  0  0  0
 13 14  1  0  0  0  0
 14 30  1  0  0  0  0
 14 31  1  0  0  0  0
 15 16  1  0  0  0  0
M  END
> <s_m_source_file>
AV-unprocessed.smi

> <i_m_source_file_index>
1422

> <i_lp_mmshare_version>
43012

> <i_f3d_flags>
0

> <s_epik_input>
W0NIM11jMVtjSF1jKG5vMSlbTkhdQyg9TylbTkhdW0NIMl1bQ0BASF0yW0NIMl1bQ0gyXU9bQ0gyXTI=

> <s_epik_cmdline>
J2VwaWtfcHl0aG9uJywgJy1waCcsICc3LjAnLCAnLXRuJywgJzgnLCAnLW1hJywgJzIwMCcsICctbWV0YWxfYmluZGluZycsICctaW1hZScsICc8aW5maWxlLm1hZT4nLCAnLW9tYWUnLCAnPG91dGZpbGUubWFlPic=

> <r_lp_tautomer_probability>
1

> <r_epik_Ionization_Penalty>
2.27275e-05

> <r_epik_Ionization_Penalty_Charging>
0

> <r_epik_Ionization_Penalty_Neutral>
2.27275e-05

> <r_epik_State_Penalty>
-0

> <r_epik_Charging_Adjusted_Penalty>
0

> <i_epik_Tot_Q>
0

> <i_epik_Tot_abs_Q>
0

> <r_epik_Metal_State_Penalty>
-0

> <b_epik_Metal_Only>
0

> <s_lp_Force_Field>
OPLS_2005

> <r_lp_Energy>
16.1313

> <b_lp_Chiralities_Consistent>
1

> <s_lp_Variant>
AV-unprocessed.smi:1422-1

> <Gold.Version>
5.8.1

> <Gold.Id.Protein>
6NUR|6NUR_protein|mol2

> <Gold.PLP.Fitness>
36.7214

> <Gold.PLP.PLP>
-32.4592

> <Gold.PLP.part.hbond>
-2.0000

> <Gold.PLP.part.metal>
0.0000

> <Gold.PLP.part.buried>
-2.1147

> <Gold.PLP.part.nonpolar>
-29.7367

> <Gold.PLP.part.repulsive>
0.6536

> <Gold.PLP.ligand.clash>
0.0000

> <Gold.PLP.ligand.torsion>
0.8717

> <Gold.PLP.Chemscore.Hbond>
2.0000

> <Gold.PLP.Chemscore.CHOScore>
0.0000

> <Gold.PLP.Chemscore.Metal>
0.0000

> <Gold.Chemscore.Hbonds>
donor molecule, donor type, donor heavy atom, donor atom, acceptor molecule, acceptor atom, score
      L1  H     5    21       P1  8028  0.96
      L1  H     8    22       P1  8028  1.00

> <Gold.PLP.Chemscore.Internal.Correction>
0.0055

> <Gold.Rescore>
     Score         DG    S(hbond)    S(metal)    S(lipo)     H(rot)  DE(clash)    DE(int)     intcor
     14.64     -18.30       1.89        0.00      83.83       1.30       1.69       1.97       ----

> <Gold.Chemscore.Fitness>
14.6431

> <Gold.Chemscore.DG>
-18.2971

> <Gold.Chemscore.ZeroCoef>
-5.4800

> <Gold.Chemscore.Hbond>
1.8948

> <Gold.Chemscore.Metal>
0.0000

> <Gold.Chemscore.Lipo>
83.8270

> <Gold.Chemscore.Internal_Hbond>
0.0000

> <Gold.Chemscore.DEClash>
1.6865

> <Gold.Chemscore.DEInternal>
1.9675

> <Gold.Chemscore.Rot>
1.2965

> <Gold.Chemscore.Internal.Correction>
   9.000000E+99

> <Gold.Chemscore.Hbonds>
donor molecule, donor type, donor heavy atom, donor atom, acceptor molecule, acceptor atom, score
      L1  H     5    21       P1  8028  0.92
      L1  H     8    22       P1  8028  0.97

> <Gold.Chemscore.Hbond.Weighted>
-6.3285

> <Gold.Chemscore.Metal.Weighted>
-0.0000

> <Gold.Chemscore.Lipo.Weighted>
-9.8078

> <Gold.Chemscore.Internal_Hbond.Weighted>
0.0000

> <Gold.Chemscore.DEClash.Weighted>
1.6865

> <Gold.Chemscore.DEInternal.Weighted>
1.9675

> <Gold.Chemscore.Rot.Weighted>
3.3192

> <Gold.Chemscore.Internal.Correction.Weighted>
   9.000000E+99

> <Gold.Protein.RotatedTorsions>
[ 6907 6896 6895 6894 ] final -110.55 input  -60.11 | X-H torsion
[ 7974 7965 7964 7962 ] final -112.28 input  175.53 | X-H torsion
[ 8008 7997 7996 7995 ] final  -81.34 input   59.86 | X-H torsion
[ 10167 10162 10161 10158 ] final   71.66 input  -65.29 | X-H torsion
[ 10718 10713 10712 10709 ] final   14.35 input   66.30 | X-H torsion
[ 10763 10752 10751 10750 ] final  144.75 input  -60.55 | X-H torsion
[ 11005 11000 10999 10996 ] final   37.23 input  -57.11 | X-H torsion

> <Gold.Protein.ActiveResidues>
 VAL166  LYS551  ARG553  GLY616  TRP617  ASP618  TYR619  PRO620  LYS621  CYS622 
 ASP623  PHE694  ASN695  SER759  ASP760  ASP761  ALA762  ILE779  LEU786  VAL792 
 PHE793  MET794  SER795  GLU796  ALA797  LYS798  CYS799  TRP800  GLU811  SER814 

> <Gold.Protein.RotatedAtoms>
  150.7632  133.9366  159.3442 H   0  0  0  0  0  0  0  0  0  0  0  0  # atno 6907 bound_to 6896
  151.7269  135.0881  160.0303 H   0  0  0  0  0  0  0  0  0  0  0  0  # atno 6908 bound_to 6896
  152.3614  133.6264  159.6054 H   0  0  0  0  0  0  0  0  0  0  0  0  # atno 6909 bound_to 6896
  145.1459  140.8803  143.3674 H   0  0  0  0  0  0  0  0  0  0  0  0  # atno 7974 bound_to 7965
  154.5973  140.0649  156.9321 H   0  0  0  0  0  0  0  0  0  0  0  0  # atno 8008 bound_to 7997
  155.2192  140.3329  155.4299 H   0  0  0  0  0  0  0  0  0  0  0  0  # atno 8009 bound_to 7997
  156.2295  140.1834  156.7261 H   0  0  0  0  0  0  0  0  0  0  0  0  # atno 8010 bound_to 7997
  140.0436  144.5369  150.7415 H   0  0  0  0  0  0  0  0  0  0  0  0  # atno 10167 bound_to 10162
  157.0379  130.6219  149.5746 H   0  0  0  0  0  0  0  0  0  0  0  0  # atno 10718 bound_to 10713
  153.9941  135.2929  155.3409 H   0  0  0  0  0  0  0  0  0  0  0  0  # atno 10763 bound_to 10752
  154.7197  135.5114  153.8796 H   0  0  0  0  0  0  0  0  0  0  0  0  # atno 10764 bound_to 10752
  153.0796  135.6674  154.0190 H   0  0  0  0  0  0  0  0  0  0  0  0  # atno 10765 bound_to 10752
  140.2247  134.3599  155.7989 H   0  0  0  0  0  0  0  0  0  0  0  0  # atno 11005 bound_to 11000
  145.0482  139.3203  143.5942 LP  0  0  0  0  0  0  0  0  0  0  0  0  # atno 17320 bound_to 7965
  146.3500  139.9880  142.8688 LP  0  0  0  0  0  0  0  0  0  0  0  0  # atno 17321 bound_to 7965
  140.7249  143.2625  151.4155 LP  0  0  0  0  0  0  0  0  0  0  0  0  # atno 17342 bound_to 10162
  139.5998  144.1321  152.2185 LP  0  0  0  0  0  0  0  0  0  0  0  0  # atno 17343 bound_to 10162
  156.0048  130.5133  150.7790 LP  0  0  0  0  0  0  0  0  0  0  0  0  # atno 17370 bound_to 10713
  157.5127  131.0926  151.0178 LP  0  0  0  0  0  0  0  0  0  0  0  0  # atno 17371 bound_to 10713
  141.2221  133.7212  156.8633 LP  0  0  0  0  0  0  0  0  0  0  0  0  # atno 17394 bound_to 11000
  140.1813  134.9031  157.2952 LP  0  0  0  0  0  0  0  0  0  0  0  0  # atno 17395 bound_to 11000

$$$$
