AV-unprocessed.smi:1244|AV-procd|sdf|5229|dock6
  -GOLD-   22720 4333D 1   1.00000     0.00000
 Structure written by MMmdl.
 55 57  0  0  0  0  0  0  0  0  2 V2000
  147.5107  141.4994  154.0458 C   0  0  0  0  0  0  0  0  0  0  0  0
  149.0200  141.2994  154.2167 C   0  0  2  0  0  0  0  0  0  0  0  0
  149.4303  139.8197  154.0933 C   0  0  0  0  0  0  0  0  0  0  0  0
  150.8561  139.6299  154.3306 N   0  0  0  0  0  0  0  0  0  0  0  0
  151.2344  138.2237  154.1863 C   0  0  0  0  0  0  0  0  0  0  0  0
  150.4953  137.2449  155.1213 C   0  0  0  0  0  0  0  0  0  0  0  0
  149.3839  136.5844  154.4446 N   0  0  0  0  0  0  0  0  0  0  0  0
  148.1599  136.4134  154.9619 C   0  0  0  0  0  0  0  0  0  0  0  0
  147.8535  136.7274  156.1120 O   0  0  0  0  0  0  0  0  0  0  0  0
  147.3190  135.8908  154.0547 N   0  0  0  0  0  0  0  0  0  0  0  0
  145.9222  135.6628  154.1980 C   0  0  0  0  0  0  0  0  0  0  0  0
  145.1534  136.3359  155.1810 C   0  0  0  0  0  0  0  0  0  0  0  0
  143.7742  136.0731  155.2902 C   0  0  0  0  0  0  0  0  0  0  0  0
  143.1874  135.1360  154.4211 C   0  0  0  0  0  0  0  0  0  0  0  0
  143.9504  134.5018  153.5065 N   0  3  0  0  0  0  0  0  0  0  0  0
  145.2808  134.7151  153.3551 C   0  0  0  0  0  0  0  0  0  0  0  0
  145.9845  133.9789  152.3786 N   0  0  0  0  0  0  0  0  0  0  0  0
  146.0123  132.5387  152.6204 C   0  0  0  0  0  0  0  0  0  0  0  0
  145.9300  131.8672  151.2477 C   0  0  0  0  0  0  0  0  0  0  0  0
  145.1954  132.8994  150.4010 C   0  0  0  0  0  0  0  0  0  0  0  0
  145.7217  134.2196  150.9608 C   0  0  0  0  0  0  0  0  0  0  0  0
  151.1954  140.1724  155.6429 C   0  0  0  0  0  0  0  0  0  0  0  0
  150.7870  141.6522  155.7742 C   0  0  2  0  0  0  0  0  0  0  0  0
  151.0606  142.2069  157.1761 C   0  0  0  0  0  0  0  0  0  0  0  0
  149.3932  141.7790  155.5059 O   0  0  0  0  0  0  0  0  0  0  0  0
  147.1782  141.1584  153.0651 H   0  0  0  0  0  0  0  0  0  0  0  0
  147.2444  142.5524  154.1394 H   0  0  0  0  0  0  0  0  0  0  0  0
  146.9516  140.9459  154.8007 H   0  0  0  0  0  0  0  0  0  0  0  0
  149.5396  141.8867  153.4574 H   0  0  0  0  0  0  0  0  0  0  0  0
  148.8554  139.2211  154.8021 H   0  0  0  0  0  0  0  0  0  0  0  0
  149.1716  139.4570  153.0976 H   0  0  0  0  0  0  0  0  0  0  0  0
  151.0962  137.9083  153.1512 H   0  0  0  0  0  0  0  0  0  0  0  0
  152.3029  138.1258  154.3828 H   0  0  0  0  0  0  0  0  0  0  0  0
  151.1767  136.4791  155.4914 H   0  0  0  0  0  0  0  0  0  0  0  0
  150.1324  137.7743  156.0036 H   0  0  0  0  0  0  0  0  0  0  0  0
  149.5444  136.2954  153.4910 H   0  0  0  0  0  0  0  0  0  0  0  0
  147.6884  135.7752  153.1226 H   0  0  0  0  0  0  0  0  0  0  0  0
  145.6049  137.0433  155.8603 H   0  0  0  0  0  0  0  0  0  0  0  0
  143.1770  136.5811  156.0332 H   0  0  0  0  0  0  0  0  0  0  0  0
  142.1403  134.8700  154.4343 H   0  0  0  0  0  0  0  0  0  0  0  0
  146.9195  132.2452  153.1488 H   0  0  0  0  0  0  0  0  0  0  0  0
  145.1577  132.2437  153.2320 H   0  0  0  0  0  0  0  0  0  0  0  0
  146.9341  131.7130  150.8498 H   0  0  0  0  0  0  0  0  0  0  0  0
  145.4260  130.9009  151.2767 H   0  0  0  0  0  0  0  0  0  0  0  0
  145.3808  132.7869  149.3323 H   0  0  0  0  0  0  0  0  0  0  0  0
  144.1204  132.8234  150.5709 H   0  0  0  0  0  0  0  0  0  0  0  0
  145.0407  135.0460  150.7571 H   0  0  0  0  0  0  0  0  0  0  0  0
  146.6715  134.4707  150.4871 H   0  0  0  0  0  0  0  0  0  0  0  0
  150.7038  139.5873  156.4219 H   0  0  0  0  0  0  0  0  0  0  0  0
  152.2675  140.0887  155.8186 H   0  0  0  0  0  0  0  0  0  0  0  0
  151.3413  142.2485  155.0472 H   0  0  0  0  0  0  0  0  0  0  0  0
  152.1204  142.1437  157.4235 H   0  0  0  0  0  0  0  0  0  0  0  0
  150.5052  141.6538  157.9342 H   0  0  0  0  0  0  0  0  0  0  0  0
  150.7652  143.2541  157.2447 H   0  0  0  0  0  0  0  0  0  0  0  0
  143.4995  133.8196  152.8965 H   0  0  0  0  0  0  0  0  0  0  0  0
  1  2  1  0  0  0  0
  1 26  1  0  0  0  0
  1 27  1  0  0  0  0
  1 28  1  0  0  0  0
  2 25  1  0  0  0  0
  2  3  1  0  0  0  0
  2 29  1  0  0  0  0
  3  4  1  0  0  0  0
  3 30  1  0  0  0  0
  3 31  1  0  0  0  0
  4  5  1  0  0  0  0
  4 22  1  0  0  0  0
  5  6  1  0  0  0  0
  5 32  1  0  0  0  0
  5 33  1  0  0  0  0
  6  7  1  0  0  0  0
  6 34  1  0  0  0  0
  6 35  1  0  0  0  0
  7  8  1  0  0  0  0
  7 36  1  0  0  0  0
  8  9  2  0  0  0  0
  8 10  1  0  0  0  0
 10 11  1  0  0  0  0
 10 37  1  0  0  0  0
 11 16  1  0  0  0  0
 11 12  2  0  0  0  0
 12 13  1  0  0  0  0
 12 38  1  0  0  0  0
 13 14  2  0  0  0  0
 13 39  1  0  0  0  0
 14 15  1  0  0  0  0
 14 40  1  0  0  0  0
 15 16  2  0  0  0  0
 15 55  1  0  0  0  0
 16 17  1  0  0  0  0
 17 21  1  0  0  0  0
 17 18  1  0  0  0  0
 18 19  1  0  0  0  0
 18 41  1  0  0  0  0
 18 42  1  0  0  0  0
 19 20  1  0  0  0  0
 19 43  1  0  0  0  0
 19 44  1  0  0  0  0
 20 21  1  0  0  0  0
 20 45  1  0  0  0  0
 20 46  1  0  0  0  0
 21 47  1  0  0  0  0
 21 48  1  0  0  0  0
 22 23  1  0  0  0  0
 22 49  1  0  0  0  0
 22 50  1  0  0  0  0
 23 24  1  0  0  0  0
 23 25  1  0  0  0  0
 23 51  1  0  0  0  0
 24 52  1  0  0  0  0
 24 53  1  0  0  0  0
 24 54  1  0  0  0  0
M  CHG  1  15   1
M  END
> <s_m_source_file>
AV-unprocessed.smi

> <i_m_source_file_index>
1244

> <i_lp_mmshare_version>
43012

> <i_f3d_flags>
0

> <s_epik_input>
W0NIM11bQ0BASF0xW0NIMl1OKFtDSDJdW0NASF0oTzEpW0NIM10pW0NIMl1bQ0gyXVtOSF1DKD1PKVtOSF1jMltjSF1bY0hdW2NIXW5jMk4zW0NIMl1bQ0gyXVtDSDJdW0NIMl0z

> <s_epik_cmdline>
J2VwaWtfcHl0aG9uJywgJy1waCcsICc3LjAnLCAnLXRuJywgJzgnLCAnLW1hJywgJzIwMCcsICctbWV0YWxfYmluZGluZycsICctaW1hZScsICc8aW5maWxlLm1hZT4nLCAnLW9tYWUnLCAnPG91dGZpbGUubWFlPic=

> <r_epik_Ionization_Penalty>
1.38385

> <r_epik_Ionization_Penalty_Charging>
1.11784

> <r_epik_Ionization_Penalty_Neutral>
0.26601

> <r_epik_State_Penalty>
1.46794

> <r_epik_Charging_Adjusted_Penalty>
2.58578

> <i_epik_Tot_Q>
1

> <i_epik_Tot_abs_Q>
1

> <r_epik_Metal_State_Penalty>
1.54908

> <b_epik_Metal_Only>
0

> <s_lp_Force_Field>
OPLS_2005

> <r_lp_Energy>
57.7362

> <b_lp_Chiralities_Consistent>
1

> <s_lp_Variant>
AV-unprocessed.smi:1244-9

> <Gold.Version>
5.8.1

> <Gold.Id.Protein>
6NUR|6NUR_protein|mol2

> <Gold.PLP.Fitness>
45.2669

> <Gold.PLP.PLP>
-37.2007

> <Gold.PLP.part.hbond>
-3.0000

> <Gold.PLP.part.metal>
0.0000

> <Gold.PLP.part.buried>
-5.5732

> <Gold.PLP.part.nonpolar>
-28.3517

> <Gold.PLP.part.repulsive>
0.6776

> <Gold.PLP.ligand.clash>
0.0000

> <Gold.PLP.ligand.torsion>
0.5392

> <Gold.PLP.Chemscore.Hbond>
2.9920

> <Gold.PLP.Chemscore.CHOScore>
0.0000

> <Gold.PLP.Chemscore.Metal>
0.0000

> <Gold.Chemscore.Hbonds>
donor molecule, donor type, donor heavy atom, donor atom, acceptor molecule, acceptor atom, score
      L1  H     7    36       P1  7948  0.99
      L1  H    10    37       P1  7948  0.99
      P1  H  7989  7998       L1     4  0.70

> <Gold.PLP.Chemscore.Internal.Correction>
0.1686

> <Gold.Rescore>
     Score         DG    S(hbond)    S(metal)    S(lipo)     H(rot)  DE(clash)    DE(int)     intcor
     16.32     -18.20       1.96        0.00      87.24       1.58       0.09       1.79       ----

> <Gold.Chemscore.Fitness>
16.3206

> <Gold.Chemscore.DG>
-18.2029

> <Gold.Chemscore.ZeroCoef>
-5.4800

> <Gold.Chemscore.Hbond>
1.9640

> <Gold.Chemscore.Metal>
0.0000

> <Gold.Chemscore.Lipo>
87.2413

> <Gold.Chemscore.Internal_Hbond>
0.0000

> <Gold.Chemscore.DEClash>
0.0901

> <Gold.Chemscore.DEInternal>
1.7923

> <Gold.Chemscore.Rot>
1.5797

> <Gold.Chemscore.Internal.Correction>
   9.000000E+99

> <Gold.Chemscore.Hbonds>
donor molecule, donor type, donor heavy atom, donor atom, acceptor molecule, acceptor atom, score
      L1  H     7    36       P1  7948  0.52
      L1  H    10    37       P1  7948  0.93
      P1  H  7989  7998       L1     4  0.04

> <Gold.Chemscore.Hbond.Weighted>
-6.5596

> <Gold.Chemscore.Metal.Weighted>
-0.0000

> <Gold.Chemscore.Lipo.Weighted>
-10.2072

> <Gold.Chemscore.Internal_Hbond.Weighted>
0.0000

> <Gold.Chemscore.DEClash.Weighted>
0.0901

> <Gold.Chemscore.DEInternal.Weighted>
1.7923

> <Gold.Chemscore.Rot.Weighted>
4.0439

> <Gold.Chemscore.Internal.Correction.Weighted>
   9.000000E+99

> <Gold.Protein.RotatedTorsions>
[ 6907 6896 6895 6894 ] final   -7.08 input  -60.11 | X-H torsion
[ 7974 7965 7964 7962 ] final -172.62 input  175.53 | X-H torsion
[ 8008 7997 7996 7995 ] final -100.19 input   59.86 | X-H torsion
[ 10167 10162 10161 10158 ] final  149.94 input  -65.29 | X-H torsion
[ 10718 10713 10712 10709 ] final -107.23 input   66.30 | X-H torsion
[ 10763 10752 10751 10750 ] final -117.99 input  -60.55 | X-H torsion
[ 11005 11000 10999 10996 ] final -160.72 input  -57.11 | X-H torsion

> <Gold.Protein.ActiveResidues>
 VAL166  LYS551  ARG553  GLY616  TRP617  ASP618  TYR619  PRO620  LYS621  CYS622 
 ASP623  PHE694  ASN695  SER759  ASP760  ASP761  ALA762  ILE779  LEU786  VAL792 
 PHE793  MET794  SER795  GLU796  ALA797  LYS798  CYS799  TRP800  GLU811  SER814 

> <Gold.Protein.RotatedAtoms>
  151.4553  135.1033  159.9709 H   0  0  0  0  0  0  0  0  0  0  0  0  # atno 6907 bound_to 6896
  152.4873  133.8402  159.7159 H   0  0  0  0  0  0  0  0  0  0  0  0  # atno 6908 bound_to 6896
  150.8994  133.7079  159.2910 H   0  0  0  0  0  0  0  0  0  0  0  0  # atno 6909 bound_to 6896
  144.7144  140.1744  143.6364 H   0  0  0  0  0  0  0  0  0  0  0  0  # atno 7974 bound_to 7965
  154.8252  140.0442  157.1439 H   0  0  0  0  0  0  0  0  0  0  0  0  # atno 8008 bound_to 7997
  154.9214  140.3027  155.5194 H   0  0  0  0  0  0  0  0  0  0  0  0  # atno 8009 bound_to 7997
  156.2983  140.2340  156.4264 H   0  0  0  0  0  0  0  0  0  0  0  0  # atno 8010 bound_to 7997
  139.4855  144.5562  151.7313 H   0  0  0  0  0  0  0  0  0  0  0  0  # atno 10167 bound_to 10162
  156.0427  130.5652  150.7792 H   0  0  0  0  0  0  0  0  0  0  0  0  # atno 10718 bound_to 10713
  154.8573  135.4290  154.2068 H   0  0  0  0  0  0  0  0  0  0  0  0  # atno 10763 bound_to 10752
  153.3102  135.6975  153.7128 H   0  0  0  0  0  0  0  0  0  0  0  0  # atno 10764 bound_to 10752
  153.6223  135.3499  155.2989 H   0  0  0  0  0  0  0  0  0  0  0  0  # atno 10765 bound_to 10752
  140.6283  134.4678  157.5228 H   0  0  0  0  0  0  0  0  0  0  0  0  # atno 11005 bound_to 11000
  145.8914  139.2378  143.1547 LP  0  0  0  0  0  0  0  0  0  0  0  0  # atno 17320 bound_to 7965
  145.9900  140.8611  143.0071 LP  0  0  0  0  0  0  0  0  0  0  0  0  # atno 17321 bound_to 7965
  140.5124  144.1005  150.5999 LP  0  0  0  0  0  0  0  0  0  0  0  0  # atno 17342 bound_to 10162
  140.3935  143.2740  152.0032 LP  0  0  0  0  0  0  0  0  0  0  0  0  # atno 17343 bound_to 10162
  157.5264  131.0934  151.0012 LP  0  0  0  0  0  0  0  0  0  0  0  0  # atno 17370 bound_to 10713
  157.0330  130.5718  149.5345 LP  0  0  0  0  0  0  0  0  0  0  0  0  # atno 17371 bound_to 10713
  139.9126  134.8313  156.1476 LP  0  0  0  0  0  0  0  0  0  0  0  0  # atno 17394 bound_to 11000
  141.0693  133.6804  156.2109 LP  0  0  0  0  0  0  0  0  0  0  0  0  # atno 17395 bound_to 11000

$$$$
