AV-unprocessed.smi:3237|AV-procd|sdf|12374|dock3
  -GOLD-   2272018233D 1   1.00000     0.00000
 Structure written by MMmdl.
 36 38  0  0  0  0  0  0  0  0  3 V2000
  146.4826  133.9347  162.6764 C   0  0  0  0  0  0  0  0  0  0  0  0
  147.0302  135.0100  161.8022 C   0  0  0  0  0  0  0  0  0  0  0  0
  147.5302  135.0105  160.5306 C   0  0  0  0  0  0  0  0  0  0  0  0
  147.8724  136.3729  160.3201 C   0  0  0  0  0  0  0  0  0  0  0  0
  148.4374  136.7948  159.0874 N   0  0  0  0  0  0  0  0  0  0  0  0
  149.0390  136.0547  158.1382 C   0  0  0  0  0  0  0  0  0  0  0  0
  149.1489  134.8310  158.2771 O   0  0  0  0  0  0  0  0  0  0  0  0
  149.4696  136.8119  157.0913 N   0  5  0  0  0  0  0  0  0  0  0  0
  149.5989  136.3410  155.7112 C   0  0  1  0  0  0  0  0  0  0  0  0
  150.6179  135.2069  155.5933 C   0  0  0  0  0  0  0  0  0  0  0  0
  150.1482  134.3992  154.3748 C   0  0  0  0  0  0  0  0  0  0  0  0
  148.7511  134.8122  154.1028 N   0  3  1  0  0  0  0  0  0  0  0  0
  147.8318  133.6935  153.8029 C   0  0  0  0  0  0  0  0  0  0  0  0
  148.5313  132.4678  153.2659 C   0  0  0  0  0  0  0  0  0  0  0  0
  147.7422  133.3607  152.3328 C   0  0  0  0  0  0  0  0  0  0  0  0
  148.3161  135.6717  155.2214 C   0  0  0  0  0  0  0  0  0  0  0  0
  147.6043  137.1349  161.3702 N   0  0  0  0  0  0  0  0  0  0  0  0
  147.0639  136.2655  162.3251 O   0  0  0  0  0  0  0  0  0  0  0  0
  146.4204  132.9888  162.1380 H   0  0  0  0  0  0  0  0  0  0  0  0
  145.4820  134.1913  163.0246 H   0  0  0  0  0  0  0  0  0  0  0  0
  147.1179  133.7858  163.5495 H   0  0  0  0  0  0  0  0  0  0  0  0
  147.6334  134.1704  159.8601 H   0  0  0  0  0  0  0  0  0  0  0  0
  148.3835  137.7850  158.9008 H   0  0  0  0  0  0  0  0  0  0  0  0
  149.8697  137.1258  155.0028 H   0  0  0  0  0  0  0  0  0  0  0  0
  151.6391  135.5737  155.4841 H   0  0  0  0  0  0  0  0  0  0  0  0
  150.5883  134.5695  156.4791 H   0  0  0  0  0  0  0  0  0  0  0  0
  150.7564  134.6125  153.4944 H   0  0  0  0  0  0  0  0  0  0  0  0
  150.2248  133.3288  154.5728 H   0  0  0  0  0  0  0  0  0  0  0  0
  146.9600  133.5952  154.4475 H   0  0  0  0  0  0  0  0  0  0  0  0
  149.6167  132.4884  153.1837 H   0  0  0  0  0  0  0  0  0  0  0  0
  148.1021  131.4981  153.5100 H   0  0  0  0  0  0  0  0  0  0  0  0
  146.7943  132.9772  151.9606 H   0  0  0  0  0  0  0  0  0  0  0  0
  148.3026  133.9760  151.6310 H   0  0  0  0  0  0  0  0  0  0  0  0
  147.8815  135.0520  156.0087 H   0  0  0  0  0  0  0  0  0  0  0  0
  147.5625  136.3924  154.9028 H   0  0  0  0  0  0  0  0  0  0  0  0
  148.7878  135.4092  153.2891 H   0  0  0  0  0  0  0  0  0  0  0  0
  1  2  1  0  0  0  0
  1 19  1  0  0  0  0
  1 20  1  0  0  0  0
  1 21  1  0  0  0  0
  2 18  1  0  0  0  0
  2  3  2  0  0  0  0
  3  4  1  0  0  0  0
  3 22  1  0  0  0  0
  4  5  1  0  0  0  0
  4 17  2  0  0  0  0
  5  6  1  0  0  0  0
  5 23  1  0  0  0  0
  6  7  2  0  0  0  0
  6  8  1  0  0  0  0
  8  9  1  0  0  0  0
  9 16  1  0  0  0  0
  9 10  1  0  0  0  0
  9 24  1  0  0  0  0
 10 11  1  0  0  0  0
 10 25  1  0  0  0  0
 10 26  1  0  0  0  0
 11 12  1  0  0  0  0
 11 27  1  0  0  0  0
 11 28  1  0  0  0  0
 12 13  1  0  0  0  0
 12 16  1  0  0  0  0
 12 36  1  0  0  0  0
 13 15  1  0  0  0  0
 13 14  1  0  0  0  0
 13 29  1  0  0  0  0
 14 15  1  0  0  0  0
 14 30  1  0  0  0  0
 14 31  1  0  0  0  0
 15 32  1  0  0  0  0
 15 33  1  0  0  0  0
 16 34  1  0  0  0  0
 16 35  1  0  0  0  0
 17 18  1  0  0  0  0
M  CHG  1   8  -1
M  CHG  1  12   1
M  END
> <s_m_source_file>
AV-unprocessed.smi

> <i_m_source_file_index>
3237

> <i_lp_mmshare_version>
43012

> <i_f3d_flags>
0

> <s_epik_input>
W0NIM11jMVtjSF1jKG5vMSlbTkhdQyg9TylbTkhdW0NAQEhdMltDSDJdW0NIMl1OKFtDSDJdMilbQ0hdM1tDSDJdW0NIMl0z

> <s_epik_cmdline>
J2VwaWtfcHl0aG9uJywgJy1waCcsICc3LjAnLCAnLXRuJywgJzgnLCAnLW1hJywgJzIwMCcsICctbWV0YWxfYmluZGluZycsICctaW1hZScsICc8aW5maWxlLm1hZT4nLCAnLW9tYWUnLCAnPG91dGZpbGUubWFlPic=

> <r_epik_Ionization_Penalty>
6.76456

> <r_epik_Ionization_Penalty_Charging>
6.76456

> <r_epik_Ionization_Penalty_Neutral>
5.76722e-06

> <r_epik_State_Penalty>
6.78919

> <r_epik_Charging_Adjusted_Penalty>
13.5538

> <i_epik_Tot_Q>
0

> <i_epik_Tot_abs_Q>
2

> <r_epik_Metal_State_Penalty>
2.728

> <b_epik_Metal_Only>
1

> <s_lp_Force_Field>
OPLS_2005

> <r_lp_Energy>
31.1689

> <b_lp_Chiralities_Consistent>
1

> <s_lp_Variant>
AV-unprocessed.smi:3237-12

> <Gold.Version>
5.8.1

> <Gold.Id.Protein>
6NUR|6NUR_protein|mol2

> <Gold.PLP.Fitness>
41.2021

> <Gold.PLP.PLP>
-27.8507

> <Gold.PLP.part.hbond>
-4.0000

> <Gold.PLP.part.metal>
0.0000

> <Gold.PLP.part.buried>
-2.2711

> <Gold.PLP.part.nonpolar>
-20.6519

> <Gold.PLP.part.repulsive>
0.1682

> <Gold.PLP.ligand.clash>
0.0000

> <Gold.PLP.ligand.torsion>
1.1617

> <Gold.PLP.Chemscore.Hbond>
4.7920

> <Gold.PLP.Chemscore.CHOScore>
0.0000

> <Gold.PLP.Chemscore.Metal>
0.0000

> <Gold.Chemscore.Hbonds>
donor molecule, donor type, donor heavy atom, donor atom, acceptor molecule, acceptor atom, score
      L1  H    12    36       P1  7948  2.00
      P1  H  6896  6907       L1     7  1.00
      P1  H  6931  6943       L1    17  0.98
      P1  H  6934  6947       L1    17  0.86

> <Gold.PLP.Chemscore.Internal.Correction>
1.2987

> <Gold.Rescore>
     Score         DG    S(hbond)    S(metal)    S(lipo)     H(rot)  DE(clash)    DE(int)     intcor
     17.71     -20.40       3.47        0.00      55.67       1.25       0.01       2.69       ----

> <Gold.Chemscore.Fitness>
17.7095

> <Gold.Chemscore.DG>
-20.4031

> <Gold.Chemscore.ZeroCoef>
-5.4800

> <Gold.Chemscore.Hbond>
3.4732

> <Gold.Chemscore.Metal>
0.0000

> <Gold.Chemscore.Lipo>
55.6695

> <Gold.Chemscore.Internal_Hbond>
0.0000

> <Gold.Chemscore.DEClash>
0.0063

> <Gold.Chemscore.DEInternal>
2.6873

> <Gold.Chemscore.Rot>
1.2464

> <Gold.Chemscore.Internal.Correction>
   9.000000E+99

> <Gold.Chemscore.Hbonds>
donor molecule, donor type, donor heavy atom, donor atom, acceptor molecule, acceptor atom, score
      L1  H    12    36       P1  7948  0.82
      P1  H  6896  6907       L1     7  0.64
      P1  H  6931  6943       L1    17  0.81
      P1  H  6934  6947       L1    17  0.75

> <Gold.Chemscore.Hbond.Weighted>
-11.6006

> <Gold.Chemscore.Metal.Weighted>
-0.0000

> <Gold.Chemscore.Lipo.Weighted>
-6.5133

> <Gold.Chemscore.Internal_Hbond.Weighted>
0.0000

> <Gold.Chemscore.DEClash.Weighted>
0.0063

> <Gold.Chemscore.DEInternal.Weighted>
2.6873

> <Gold.Chemscore.Rot.Weighted>
3.1909

> <Gold.Chemscore.Internal.Correction.Weighted>
   9.000000E+99

> <Gold.Protein.RotatedTorsions>
[ 6907 6896 6895 6894 ] final  -75.91 input  -60.11 | X-H torsion
[ 7974 7965 7964 7962 ] final -105.72 input  175.53 | X-H torsion
[ 8008 7997 7996 7995 ] final  167.12 input   59.86 | X-H torsion
[ 10167 10162 10161 10158 ] final   76.84 input  -65.29 | X-H torsion
[ 10718 10713 10712 10709 ] final  161.94 input   66.30 | X-H torsion
[ 10763 10752 10751 10750 ] final -105.10 input  -60.55 | X-H torsion
[ 11005 11000 10999 10996 ] final  154.65 input  -57.11 | X-H torsion

> <Gold.Protein.ActiveResidues>
 VAL166  LYS551  ARG553  GLY616  TRP617  ASP618  TYR619  PRO620  LYS621  CYS622 
 ASP623  PHE694  ASN695  SER759  ASP760  ASP761  ALA762  ILE779  LEU786  VAL792 
 PHE793  MET794  SER795  GLU796  ALA797  LYS798  CYS799  TRP800  GLU811  SER814 

> <Gold.Protein.RotatedAtoms>
  150.7044  134.4651  159.5398 H   0  0  0  0  0  0  0  0  0  0  0  0  # atno 6907 bound_to 6896
  152.2318  134.8312  160.0481 H   0  0  0  0  0  0  0  0  0  0  0  0  # atno 6908 bound_to 6896
  151.9125  133.3529  159.3905 H   0  0  0  0  0  0  0  0  0  0  0  0  # atno 6909 bound_to 6896
  145.2269  140.9156  143.3227 H   0  0  0  0  0  0  0  0  0  0  0  0  # atno 7974 bound_to 7965
  156.1661  140.1625  156.8529 H   0  0  0  0  0  0  0  0  0  0  0  0  # atno 8008 bound_to 7997
  154.5209  140.0778  156.8204 H   0  0  0  0  0  0  0  0  0  0  0  0  # atno 8009 bound_to 7997
  155.3609  140.3395  155.4243 H   0  0  0  0  0  0  0  0  0  0  0  0  # atno 8010 bound_to 7997
  139.9879  144.5778  150.7843 H   0  0  0  0  0  0  0  0  0  0  0  0  # atno 10167 bound_to 10162
  157.1296  131.0513  151.2378 H   0  0  0  0  0  0  0  0  0  0  0  0  # atno 10718 bound_to 10713
  154.7924  135.4761  154.0082 H   0  0  0  0  0  0  0  0  0  0  0  0  # atno 10763 bound_to 10752
  153.1651  135.6815  153.8694 H   0  0  0  0  0  0  0  0  0  0  0  0  # atno 10764 bound_to 10752
  153.8295  135.3193  155.3395 H   0  0  0  0  0  0  0  0  0  0  0  0  # atno 10765 bound_to 10752
  140.1509  134.8675  157.2453 H   0  0  0  0  0  0  0  0  0  0  0  0  # atno 11005 bound_to 11000
  144.9713  139.3877  143.6307 LP  0  0  0  0  0  0  0  0  0  0  0  0  # atno 17320 bound_to 7965
  146.3362  139.8812  142.8824 LP  0  0  0  0  0  0  0  0  0  0  0  0  # atno 17321 bound_to 7965
  140.7465  143.2892  151.3377 LP  0  0  0  0  0  0  0  0  0  0  0  0  # atno 17342 bound_to 10162
  139.6361  144.0627  152.2517 LP  0  0  0  0  0  0  0  0  0  0  0  0  # atno 17343 bound_to 10162
  157.4404  130.7541  149.7065 LP  0  0  0  0  0  0  0  0  0  0  0  0  # atno 17370 bound_to 10713
  155.9811  130.4023  150.3492 LP  0  0  0  0  0  0  0  0  0  0  0  0  # atno 17371 bound_to 10713
  140.2606  134.3576  155.7408 LP  0  0  0  0  0  0  0  0  0  0  0  0  # atno 17394 bound_to 11000
  141.2199  133.7367  156.9074 LP  0  0  0  0  0  0  0  0  0  0  0  0  # atno 17395 bound_to 11000

$$$$
