AV-unprocessed.smi:3119|AV-procd|sdf|11891|dock5
  -GOLD-   2272017283D 1   1.00000     0.00000
 Structure written by MMmdl.
 32 33  0  0  0  0  0  0  0  0  2 V2000
  152.8285  139.5608  155.5819 O   0  0  0  0  0  0  0  0  0  0  0  0
  151.6521  139.3198  155.3081 C   0  0  0  0  0  0  0  0  0  0  0  0
  150.6646  140.2083  155.4871 N   0  0  0  0  0  0  0  0  0  0  0  0
  150.8549  141.5452  156.0330 C   0  0  0  0  0  0  0  0  0  0  0  0
  150.3794  141.6119  157.4904 C   0  0  0  0  0  0  0  0  0  0  0  0
  151.0497  142.7342  158.2591 C   0  0  0  0  0  0  0  0  0  0  0  0
  152.0016  142.4861  159.2719 C   0  0  0  0  0  0  0  0  0  0  0  0
  152.5957  143.5764  159.9414 C   0  0  0  0  0  0  0  0  0  0  0  0
  152.2271  144.8899  159.5840 C   0  0  0  0  0  0  0  0  0  0  0  0
  151.2722  145.0804  158.5644 C   0  0  0  0  0  0  0  0  0  0  0  0
  150.7258  144.0100  157.9462 N   0  3  0  0  0  0  0  0  0  0  0  0
  151.2405  137.9593  154.7292 C   0  0  0  0  0  0  0  0  0  0  0  0
  149.7195  137.7452  154.6432 C   0  0  0  0  0  0  0  0  0  0  0  0
  149.9283  136.3291  155.1875 C   0  0  0  0  0  0  0  0  0  0  0  0
  151.2872  136.7864  155.7256 C   0  0  0  0  0  0  0  0  0  0  0  0
  149.7250  139.9381  155.2338 H   0  0  0  0  0  0  0  0  0  0  0  0
  151.9110  141.8150  155.9761 H   0  0  0  0  0  0  0  0  0  0  0  0
  150.3047  142.2623  155.4216 H   0  0  0  0  0  0  0  0  0  0  0  0
  149.2982  141.7539  157.5266 H   0  0  0  0  0  0  0  0  0  0  0  0
  150.5829  140.6651  157.9930 H   0  0  0  0  0  0  0  0  0  0  0  0
  152.2768  141.4742  159.5320 H   0  0  0  0  0  0  0  0  0  0  0  0
  153.3263  143.4068  160.7189 H   0  0  0  0  0  0  0  0  0  0  0  0
  152.6709  145.7385  160.0841 H   0  0  0  0  0  0  0  0  0  0  0  0
  150.9325  146.0485  158.2261 H   0  0  0  0  0  0  0  0  0  0  0  0
  151.7413  137.7155  153.7900 H   0  0  0  0  0  0  0  0  0  0  0  0
  149.1402  138.3755  155.3204 H   0  0  0  0  0  0  0  0  0  0  0  0
  149.3171  137.7760  153.6302 H   0  0  0  0  0  0  0  0  0  0  0  0
  149.2137  136.0257  155.9530 H   0  0  0  0  0  0  0  0  0  0  0  0
  150.0173  135.5826  154.3968 H   0  0  0  0  0  0  0  0  0  0  0  0
  152.0947  136.0763  155.5466 H   0  0  0  0  0  0  0  0  0  0  0  0
  151.2442  137.0804  156.7758 H   0  0  0  0  0  0  0  0  0  0  0  0
  150.0385  144.1713  157.2095 H   0  0  0  0  0  0  0  0  0  0  0  0
  1  2  2  0  0  0  0
  2  3  1  0  0  0  0
  2 12  1  0  0  0  0
  3  4  1  0  0  0  0
  3 16  1  0  0  0  0
  4  5  1  0  0  0  0
  4 17  1  0  0  0  0
  4 18  1  0  0  0  0
  5  6  1  0  0  0  0
  5 19  1  0  0  0  0
  5 20  1  0  0  0  0
  6 11  1  0  0  0  0
  6  7  2  0  0  0  0
  7  8  1  0  0  0  0
  7 21  1  0  0  0  0
  8  9  2  0  0  0  0
  8 22  1  0  0  0  0
  9 10  1  0  0  0  0
  9 23  1  0  0  0  0
 10 11  2  0  0  0  0
 10 24  1  0  0  0  0
 11 32  1  0  0  0  0
 12 15  1  0  0  0  0
 12 13  1  0  0  0  0
 12 25  1  0  0  0  0
 13 14  1  0  0  0  0
 13 26  1  0  0  0  0
 13 27  1  0  0  0  0
 14 15  1  0  0  0  0
 14 28  1  0  0  0  0
 14 29  1  0  0  0  0
 15 30  1  0  0  0  0
 15 31  1  0  0  0  0
M  CHG  1  11   1
M  END
> <s_m_source_file>
AV-unprocessed.smi

> <i_m_source_file_index>
3119

> <i_lp_mmshare_version>
43012

> <i_f3d_flags>
0

> <s_epik_input>
W0NIMl0xW0NIMl1bQ0gyXVtDSF0xQyg9TylbTkhdW0NIMl1bQ0gyXWMyW2NIXVtjSF1bY0hdW2NIXW4y

> <s_epik_cmdline>
J2VwaWtfcHl0aG9uJywgJy1waCcsICc3LjAnLCAnLXRuJywgJzgnLCAnLW1hJywgJzIwMCcsICctbWV0YWxfYmluZGluZycsICctaW1hZScsICc8aW5maWxlLm1hZT4nLCAnLW9tYWUnLCAnPG91dGZpbGUubWFlPic=

> <r_epik_Ionization_Penalty>
1.82741

> <r_epik_Ionization_Penalty_Charging>
1.82741

> <r_epik_Ionization_Penalty_Neutral>
1.62845e-08

> <r_epik_State_Penalty>
1.94311

> <r_epik_Charging_Adjusted_Penalty>
3.77052

> <i_epik_Tot_Q>
1

> <i_epik_Tot_abs_Q>
1

> <r_epik_Metal_State_Penalty>
1.96982

> <b_epik_Metal_Only>
0

> <s_lp_Force_Field>
OPLS_2005

> <r_lp_Energy>
15.9357

> <b_lp_Chiralities_Consistent>
1

> <s_lp_Variant>
AV-unprocessed.smi:3119-2

> <Gold.Version>
5.8.1

> <Gold.Id.Protein>
6NUR|6NUR_protein|mol2

> <Gold.PLP.Fitness>
42.6261

> <Gold.PLP.PLP>
-34.2675

> <Gold.PLP.part.hbond>
-2.0000

> <Gold.PLP.part.metal>
0.0000

> <Gold.PLP.part.buried>
-4.9845

> <Gold.PLP.part.nonpolar>
-27.6845

> <Gold.PLP.part.repulsive>
0.1495

> <Gold.PLP.ligand.clash>
0.0000

> <Gold.PLP.ligand.torsion>
0.5254

> <Gold.PLP.Chemscore.Hbond>
3.0000

> <Gold.PLP.Chemscore.CHOScore>
0.0000

> <Gold.PLP.Chemscore.Metal>
0.0000

> <Gold.Chemscore.Hbonds>
donor molecule, donor type, donor heavy atom, donor atom, acceptor molecule, acceptor atom, score
      L1  H    11    32       P1  8028  2.00
      P1  H  7997  8008       L1     1  1.00

> <Gold.PLP.Chemscore.Internal.Correction>
0.4093

> <Gold.Rescore>
     Score         DG    S(hbond)    S(metal)    S(lipo)     H(rot)  DE(clash)    DE(int)     intcor
     18.35     -18.88       1.95        0.00      92.35       1.53       0.01       0.52       ----

> <Gold.Chemscore.Fitness>
18.3495

> <Gold.Chemscore.DG>
-18.8781

> <Gold.Chemscore.ZeroCoef>
-5.4800

> <Gold.Chemscore.Hbond>
1.9473

> <Gold.Chemscore.Metal>
0.0000

> <Gold.Chemscore.Lipo>
92.3529

> <Gold.Chemscore.Internal_Hbond>
0.0000

> <Gold.Chemscore.DEClash>
0.0123

> <Gold.Chemscore.DEInternal>
0.5163

> <Gold.Chemscore.Rot>
1.5278

> <Gold.Chemscore.Internal.Correction>
   9.000000E+99

> <Gold.Chemscore.Hbonds>
donor molecule, donor type, donor heavy atom, donor atom, acceptor molecule, acceptor atom, score
      L1  H    11    32       P1  8028  0.72
      P1  H  7997  8008       L1     1  0.99

> <Gold.Chemscore.Hbond.Weighted>
-6.5039

> <Gold.Chemscore.Metal.Weighted>
-0.0000

> <Gold.Chemscore.Lipo.Weighted>
-10.8053

> <Gold.Chemscore.Internal_Hbond.Weighted>
0.0000

> <Gold.Chemscore.DEClash.Weighted>
0.0123

> <Gold.Chemscore.DEInternal.Weighted>
0.5163

> <Gold.Chemscore.Rot.Weighted>
3.9111

> <Gold.Chemscore.Internal.Correction.Weighted>
   9.000000E+99

> <Gold.Protein.RotatedTorsions>
[ 6907 6896 6895 6894 ] final  138.38 input  -60.11 | X-H torsion
[ 7974 7965 7964 7962 ] final   22.73 input  175.53 | X-H torsion
[ 8008 7997 7996 7995 ] final  -43.49 input   59.86 | X-H torsion
[ 10167 10162 10161 10158 ] final -157.60 input  -65.29 | X-H torsion
[ 10718 10713 10712 10709 ] final  -52.59 input   66.30 | X-H torsion
[ 10763 10752 10751 10750 ] final  -99.94 input  -60.55 | X-H torsion
[ 11005 11000 10999 10996 ] final    5.20 input  -57.11 | X-H torsion

> <Gold.Protein.ActiveResidues>
 VAL166  LYS551  ARG553  GLY616  TRP617  ASP618  TYR619  PRO620  LYS621  CYS622 
 ASP623  PHE694  ASN695  SER759  ASP760  ASP761  ALA762  ILE779  LEU786  VAL792 
 PHE793  MET794  SER795  GLU796  ALA797  LYS798  CYS799  TRP800  GLU811  SER814 

> <Gold.Protein.RotatedAtoms>
  152.2673  133.5350  159.5417 H   0  0  0  0  0  0  0  0  0  0  0  0  # atno 6907 bound_to 6896
  150.7146  134.0747  159.3886 H   0  0  0  0  0  0  0  0  0  0  0  0  # atno 6908 bound_to 6896
  151.8663  135.0506  160.0525 H   0  0  0  0  0  0  0  0  0  0  0  0  # atno 6909 bound_to 6896
  146.2016  139.7844  142.8757 H   0  0  0  0  0  0  0  0  0  0  0  0  # atno 7974 bound_to 7965
  154.3997  140.1446  156.3528 H   0  0  0  0  0  0  0  0  0  0  0  0  # atno 8008 bound_to 7997
  155.8253  140.3468  155.5518 H   0  0  0  0  0  0  0  0  0  0  0  0  # atno 8009 bound_to 7997
  155.8245  140.0903  157.1820 H   0  0  0  0  0  0  0  0  0  0  0  0  # atno 8010 bound_to 7997
  139.6757  143.9667  152.2309 H   0  0  0  0  0  0  0  0  0  0  0  0  # atno 10167 bound_to 10162
  156.1608  130.4150  149.9796 H   0  0  0  0  0  0  0  0  0  0  0  0  # atno 10718 bound_to 10713
  154.7539  135.4953  153.9339 H   0  0  0  0  0  0  0  0  0  0  0  0  # atno 10763 bound_to 10752
  153.1174  135.6724  153.9402 H   0  0  0  0  0  0  0  0  0  0  0  0  # atno 10764 bound_to 10752
  153.9144  135.3095  155.3427 H   0  0  0  0  0  0  0  0  0  0  0  0  # atno 10765 bound_to 10752
  140.5734  134.0081  155.8018 H   0  0  0  0  0  0  0  0  0  0  0  0  # atno 11005 bound_to 11000
  145.3464  141.0298  143.3363 LP  0  0  0  0  0  0  0  0  0  0  0  0  # atno 17320 bound_to 7965
  144.8696  139.5057  143.6774 LP  0  0  0  0  0  0  0  0  0  0  0  0  # atno 17321 bound_to 7965
  139.9443  144.6661  150.8234 LP  0  0  0  0  0  0  0  0  0  0  0  0  # atno 17342 bound_to 10162
  140.7634  143.3223  151.2593 LP  0  0  0  0  0  0  0  0  0  0  0  0  # atno 17343 bound_to 10162
  156.7625  130.9156  151.3642 LP  0  0  0  0  0  0  0  0  0  0  0  0  # atno 17370 bound_to 10713
  157.6731  130.9069  150.0087 LP  0  0  0  0  0  0  0  0  0  0  0  0  # atno 17371 bound_to 10713
  141.1042  133.9720  157.3026 LP  0  0  0  0  0  0  0  0  0  0  0  0  # atno 17394 bound_to 11000
  139.9351  135.0197  156.8529 LP  0  0  0  0  0  0  0  0  0  0  0  0  # atno 17395 bound_to 11000

$$$$
