AV-unprocessed.smi:72|AV-procd|sdf|735|dock1
  -GOLD-   2262017 63D 1   1.00000     0.00000
 Structure written by MMmdl.
 28 29  0  0  0  0  0  0  0  0  2 V2000
  152.5661  140.0902  159.4790 N   0  0  0  0  0  0  0  0  0  0  0  0
  151.9751  140.2025  158.3708 C   0  0  0  0  0  0  0  0  0  0  0  0
  150.6263  140.7240  158.3205 N   0  0  0  0  0  0  0  0  0  0  0  0
  150.0646  140.8357  157.1559 C   0  0  0  0  0  0  0  0  0  0  0  0
  150.7589  140.4660  155.9303 N   0  0  0  0  0  0  0  0  0  0  0  0
  150.0842  140.5943  154.5791 C   0  0  2  0  0  0  0  0  0  0  0  0
  149.0403  141.5128  154.6756 O   0  0  0  0  0  0  0  0  0  0  0  0
  148.0329  141.1509  153.7440 C   0  0  2  0  0  0  0  0  0  0  0  0
  146.6975  141.8038  154.1336 C   0  0  0  0  0  0  0  0  0  0  0  0
  146.8226  143.2100  154.1298 O   0  0  0  0  0  0  0  0  0  0  0  0
  148.0196  139.6223  153.8487 C   0  0  1  0  0  0  0  0  0  0  0  0
  147.5326  139.0484  152.6523 O   0  0  0  0  0  0  0  0  0  0  0  0
  149.4884  139.2663  154.0574 C   0  0  2  0  0  0  0  0  0  0  0  0
  149.6094  138.1734  154.9503 O   0  0  0  0  0  0  0  0  0  0  0  0
  152.0703  139.9282  156.0111 C   0  0  0  0  0  0  0  0  0  0  0  0
  152.6195  139.5760  154.9671 O   0  0  0  0  0  0  0  0  0  0  0  0
  152.6539  139.8126  157.2368 N   0  5  0  0  0  0  0  0  0  0  0  0
  150.8253  141.0176  153.8993 H   0  0  0  0  0  0  0  0  0  0  0  0
  148.3467  141.4537  152.7424 H   0  0  0  0  0  0  0  0  0  0  0  0
  147.4160  139.3078  154.7020 H   0  0  0  0  0  0  0  0  0  0  0  0
  149.9870  139.0269  153.1169 H   0  0  0  0  0  0  0  0  0  0  0  0
  151.9988  140.3975  160.2555 H   0  0  0  0  0  0  0  0  0  0  0  0
  149.0465  141.2033  157.0221 H   0  0  0  0  0  0  0  0  0  0  0  0
  145.9279  141.5443  153.4060 H   0  0  0  0  0  0  0  0  0  0  0  0
  146.3537  141.4536  155.1074 H   0  0  0  0  0  0  0  0  0  0  0  0
  147.5953  143.4440  154.6210 H   0  0  0  0  0  0  0  0  0  0  0  0
  148.2145  139.1017  152.0001 H   0  0  0  0  0  0  0  0  0  0  0  0
  150.2428  138.4011  155.6144 H   0  0  0  0  0  0  0  0  0  0  0  0
  1  2  2  0  0  0  0
  1 22  1  0  0  0  0
  2 17  1  0  0  0  0
  2  3  1  0  0  0  0
  3  4  2  0  0  0  0
  4  5  1  0  0  0  0
  4 23  1  0  0  0  0
  5  6  1  0  0  0  0
  5 15  1  0  0  0  0
  6 18  1  0  0  0  0
  6 13  1  0  0  0  0
  6  7  1  0  0  0  0
  7  8  1  0  0  0  0
  8 19  1  0  0  0  0
  8  9  1  0  0  0  0
  8 11  1  0  0  0  0
  9 10  1  0  0  0  0
  9 24  1  0  0  0  0
  9 25  1  0  0  0  0
 10 26  1  0  0  0  0
 11 20  1  0  0  0  0
 11 12  1  0  0  0  0
 11 13  1  0  0  0  0
 12 27  1  0  0  0  0
 13 21  1  0  0  0  0
 13 14  1  0  0  0  0
 14 28  1  0  0  0  0
 15 16  2  0  0  0  0
 15 17  1  0  0  0  0
M  CHG  1  17  -1
M  END
> <s_m_source_file>
AV-unprocessed.smi

> <i_m_source_file_index>
72

> <i_lp_mmshare_version>
43012

> <i_f3d_flags>
0

> <s_epik_input>
W05IMl1jMW5bY0hdbihjKD1PKW4xKVtDQEBIXTJPW0NASF0oW0NIMl1bT0hdKVtDQEBIXShbT0hdKVtDQEhdMltPSF0=

> <s_epik_cmdline>
J2VwaWtfcHl0aG9uJywgJy1waCcsICc3LjAnLCAnLXRuJywgJzgnLCAnLW1hJywgJzIwMCcsICctbWV0YWxfYmluZGluZycsICctaW1hZScsICc8aW5maWxlLm1hZT4nLCAnLW9tYWUnLCAnPG91dGZpbGUubWFlPic=

> <r_lp_tautomer_probability>
7.17554e-07

> <r_epik_Ionization_Penalty>
12.8705

> <r_epik_Ionization_Penalty_Charging>
5.64144

> <r_epik_Ionization_Penalty_Neutral>
7.22905

> <r_epik_State_Penalty>
3.30104

> <r_epik_Charging_Adjusted_Penalty>
8.94249

> <i_epik_Tot_Q>
-1

> <i_epik_Tot_abs_Q>
1

> <r_epik_Metal_State_Penalty>
0.529074

> <b_epik_Metal_Only>
1

> <s_epik_Chemistry_Notes>
This compound contains an acetal/aminal-like group ( X-CH(R)-Y where X, Y are N, S, or O) that may be acid/base labile, releasing an aldehyde.

> <s_lp_Force_Field>
OPLS_2005

> <r_lp_Energy>
36.8699

> <b_lp_Chiralities_Consistent>
1

> <s_lp_Variant>
AV-unprocessed.smi:72-73

> <Gold.Version>
5.8.1

> <Gold.Id.Protein>
6NUR|6NUR_protein|mol2

> <Gold.PLP.Fitness>
39.3577

> <Gold.PLP.PLP>
-26.8896

> <Gold.PLP.part.hbond>
-5.9183

> <Gold.PLP.part.metal>
0.0000

> <Gold.PLP.part.buried>
1.0966

> <Gold.PLP.part.nonpolar>
-21.4633

> <Gold.PLP.part.repulsive>
0.1748

> <Gold.PLP.ligand.clash>
0.0000

> <Gold.PLP.ligand.torsion>
0.5854

> <Gold.PLP.Chemscore.Hbond>
4.4365

> <Gold.PLP.Chemscore.CHOScore>
0.0000

> <Gold.PLP.Chemscore.Metal>
0.0000

> <Gold.Chemscore.Hbonds>
donor molecule, donor type, donor heavy atom, donor atom, acceptor molecule, acceptor atom, score
      L1  H    10    26       P1  8028  0.98
      L1  H    12    27       P1  7957  1.00
      P1  H  7989  7998       L1    16  0.41
      P1  H  7997  8008       L1    17  1.90

> <Gold.PLP.Chemscore.Internal.Correction>
0.3295

> <Gold.Rescore>
     Score         DG    S(hbond)    S(metal)    S(lipo)     H(rot)  DE(clash)    DE(int)     intcor
      4.38      -5.49       2.22        0.00      25.22       4.04       0.68       0.43       ----

> <Gold.Chemscore.Fitness>
4.3783

> <Gold.Chemscore.DG>
-5.4885

> <Gold.Chemscore.ZeroCoef>
-5.4800

> <Gold.Chemscore.Hbond>
2.2159

> <Gold.Chemscore.Metal>
0.0000

> <Gold.Chemscore.Lipo>
25.2186

> <Gold.Chemscore.Internal_Hbond>
0.0000

> <Gold.Chemscore.DEClash>
0.6827

> <Gold.Chemscore.DEInternal>
0.4274

> <Gold.Chemscore.Rot>
4.0403

> <Gold.Chemscore.Internal.Correction>
   9.000000E+99

> <Gold.Chemscore.Hbonds>
donor molecule, donor type, donor heavy atom, donor atom, acceptor molecule, acceptor atom, score
      L1  H    10    26       P1  8028  0.31
      L1  H    12    27       P1  7957  0.96
      P1  H  7989  7998       L1    16  0.14
      P1  H  7997  8008       L1    17  0.22

> <Gold.Chemscore.Hbond.Weighted>
-7.4010

> <Gold.Chemscore.Metal.Weighted>
-0.0000

> <Gold.Chemscore.Lipo.Weighted>
-2.9506

> <Gold.Chemscore.Internal_Hbond.Weighted>
0.0000

> <Gold.Chemscore.DEClash.Weighted>
0.6827

> <Gold.Chemscore.DEInternal.Weighted>
0.4274

> <Gold.Chemscore.Rot.Weighted>
10.3431

> <Gold.Chemscore.Internal.Correction.Weighted>
   9.000000E+99

> <Gold.Protein.RotatedTorsions>
[ 6907 6896 6895 6894 ] final -140.52 input  -60.11 | X-H torsion
[ 7974 7965 7964 7962 ] final  -63.78 input  175.53 | X-H torsion
[ 8008 7997 7996 7995 ] final  -67.30 input   59.86 | X-H torsion
[ 10167 10162 10161 10158 ] final  118.68 input  -65.29 | X-H torsion
[ 10718 10713 10712 10709 ] final  107.01 input   66.30 | X-H torsion
[ 10763 10752 10751 10750 ] final -131.76 input  -60.55 | X-H torsion
[ 11005 11000 10999 10996 ] final   99.48 input  -57.11 | X-H torsion

> <Gold.Protein.ActiveResidues>
 VAL166  LYS551  ARG553  GLY616  TRP617  ASP618  TYR619  PRO620  LYS621  CYS622 
 ASP623  PHE694  ASN695  SER759  ASP760  ASP761  ALA762  ILE779  LEU786  VAL792 
 PHE793  MET794  SER795  GLU796  ALA797  LYS798  CYS799  TRP800  GLU811  SER814 

> <Gold.Protein.RotatedAtoms>
  151.0617  133.5538  159.2633 H   0  0  0  0  0  0  0  0  0  0  0  0  # atno 6907 bound_to 6896
  151.2511  135.0621  159.9072 H   0  0  0  0  0  0  0  0  0  0  0  0  # atno 6908 bound_to 6896
  152.5398  134.0378  159.8107 H   0  0  0  0  0  0  0  0  0  0  0  0  # atno 6909 bound_to 6896
  145.7748  140.8794  143.0361 H   0  0  0  0  0  0  0  0  0  0  0  0  # atno 7974 bound_to 7965
  154.4791  140.0895  156.7334 H   0  0  0  0  0  0  0  0  0  0  0  0  # atno 8008 bound_to 7997
  155.4518  140.3457  155.4283 H   0  0  0  0  0  0  0  0  0  0  0  0  # atno 8009 bound_to 7997
  156.1163  140.1461  156.9256 H   0  0  0  0  0  0  0  0  0  0  0  0  # atno 8010 bound_to 7997
  139.6096  144.7078  151.2875 H   0  0  0  0  0  0  0  0  0  0  0  0  # atno 10167 bound_to 10162
  157.6645  131.0863  150.6093 H   0  0  0  0  0  0  0  0  0  0  0  0  # atno 10718 bound_to 10713
  154.8748  135.3819  154.4299 H   0  0  0  0  0  0  0  0  0  0  0  0  # atno 10763 bound_to 10752
  153.4994  135.7030  153.5845 H   0  0  0  0  0  0  0  0  0  0  0  0  # atno 10764 bound_to 10752
  153.4184  135.3907  155.2062 H   0  0  0  0  0  0  0  0  0  0  0  0  # atno 10765 bound_to 10752
  139.8771  134.9097  156.4612 H   0  0  0  0  0  0  0  0  0  0  0  0  # atno 11005 bound_to 11000
  144.6806  139.9906  143.7484 LP  0  0  0  0  0  0  0  0  0  0  0  0  # atno 17320 bound_to 7965
  146.0134  139.3189  143.0857 LP  0  0  0  0  0  0  0  0  0  0  0  0  # atno 17321 bound_to 7965
  140.7309  143.6866  150.7957 LP  0  0  0  0  0  0  0  0  0  0  0  0  # atno 17342 bound_to 10162
  140.0458  143.5300  152.2697 LP  0  0  0  0  0  0  0  0  0  0  0  0  # atno 17343 bound_to 10162
  156.6394  130.4454  149.5758 LP  0  0  0  0  0  0  0  0  0  0  0  0  # atno 17370 bound_to 10713
  156.2221  130.6743  151.1379 LP  0  0  0  0  0  0  0  0  0  0  0  0  # atno 17371 bound_to 10713
  140.8863  133.7881  155.9522 LP  0  0  0  0  0  0  0  0  0  0  0  0  # atno 17394 bound_to 11000
  140.8801  134.2621  157.5148 LP  0  0  0  0  0  0  0  0  0  0  0  0  # atno 17395 bound_to 11000

$$$$
