AV-unprocessed.smi:2061|AV-procd|sdf|8370|dock3
  -GOLD-   2272011 43D 1   1.00000     0.00000
 Structure written by MMmdl.
 46 47  0  0  0  0  0  0  0  0  2 V2000
  147.2171  135.6616  163.1979 C   0  0  0  0  0  0  0  0  0  0  0  0
  147.5942  135.8023  161.7632 C   0  0  0  0  0  0  0  0  0  0  0  0
  147.7153  134.9042  160.7402 C   0  0  0  0  0  0  0  0  0  0  0  0
  148.1061  135.7188  159.6446 C   0  0  0  0  0  0  0  0  0  0  0  0
  148.3374  135.1556  158.3636 N   0  0  0  0  0  0  0  0  0  0  0  0
  147.9305  135.6339  157.1755 C   0  0  0  0  0  0  0  0  0  0  0  0
  147.2937  136.6744  157.0081 O   0  0  0  0  0  0  0  0  0  0  0  0
  148.2998  134.8280  156.1696 N   0  0  0  0  0  0  0  0  0  0  0  0
  147.9908  135.0650  154.7626 C   0  0  0  0  0  0  0  0  0  0  0  0
  147.9934  133.7659  153.9135 C   0  0  2  0  0  0  0  0  0  0  0  0
  149.4478  133.3202  153.6268 C   0  0  0  0  0  0  0  0  0  0  0  0
  147.1650  133.9585  152.6787 N   0  3  1  0  0  0  0  0  0  0  0  0
  146.8651  132.7291  151.8961 C   0  0  0  0  0  0  0  0  0  0  0  0
  146.0879  133.0686  150.6102 C   0  0  1  0  0  0  0  0  0  0  0  0
  145.6816  131.8091  149.8365 C   0  0  0  0  0  0  0  0  0  0  0  0
  144.8998  133.7813  150.9362 O   0  0  0  0  0  0  0  0  0  0  0  0
  145.1129  134.9851  151.6694 C   0  0  2  0  0  0  0  0  0  0  0  0
  145.7441  136.0955  150.8107 C   0  0  0  0  0  0  0  0  0  0  0  0
  145.8964  134.6831  152.9601 C   0  0  0  0  0  0  0  0  0  0  0  0
  148.2135  136.9982  159.9687 N   0  0  0  0  0  0  0  0  0  0  0  0
  147.8861  137.0582  161.3283 O   0  0  0  0  0  0  0  0  0  0  0  0
  147.1074  134.6118  163.4705 H   0  0  0  0  0  0  0  0  0  0  0  0
  146.2711  136.1642  163.3990 H   0  0  0  0  0  0  0  0  0  0  0  0
  147.9783  136.1003  163.8430 H   0  0  0  0  0  0  0  0  0  0  0  0
  147.5495  133.8378  160.7742 H   0  0  0  0  0  0  0  0  0  0  0  0
  148.8583  134.2912  158.3533 H   0  0  0  0  0  0  0  0  0  0  0  0
  148.8224  133.9931  156.3911 H   0  0  0  0  0  0  0  0  0  0  0  0
  147.0358  135.5866  154.7095 H   0  0  0  0  0  0  0  0  0  0  0  0
  148.7330  135.7613  154.3707 H   0  0  0  0  0  0  0  0  0  0  0  0
  147.5326  132.9636  154.4918 H   0  0  0  0  0  0  0  0  0  0  0  0
  150.0246  133.2139  154.5454 H   0  0  0  0  0  0  0  0  0  0  0  0
  149.9700  134.0406  152.9962 H   0  0  0  0  0  0  0  0  0  0  0  0
  149.4879  132.3455  153.1405 H   0  0  0  0  0  0  0  0  0  0  0  0
  147.7837  132.2266  151.5955 H   0  0  0  0  0  0  0  0  0  0  0  0
  146.2961  132.0327  152.5145 H   0  0  0  0  0  0  0  0  0  0  0  0
  146.7129  133.6766  149.9557 H   0  0  0  0  0  0  0  0  0  0  0  0
  146.5555  131.2233  149.5500 H   0  0  0  0  0  0  0  0  0  0  0  0
  145.1439  132.0686  148.9243 H   0  0  0  0  0  0  0  0  0  0  0  0
  145.0317  131.1698  150.4350 H   0  0  0  0  0  0  0  0  0  0  0  0
  144.1226  135.3378  151.9594 H   0  0  0  0  0  0  0  0  0  0  0  0
  145.7681  137.0385  151.3574 H   0  0  0  0  0  0  0  0  0  0  0  0
  145.1666  136.2581  149.9005 H   0  0  0  0  0  0  0  0  0  0  0  0
  146.7689  135.8651  150.5210 H   0  0  0  0  0  0  0  0  0  0  0  0
  145.2799  134.0696  153.6192 H   0  0  0  0  0  0  0  0  0  0  0  0
  146.0773  135.6154  153.4925 H   0  0  0  0  0  0  0  0  0  0  0  0
  147.7109  134.5459  152.0647 H   0  0  0  0  0  0  0  0  0  0  0  0
  1  2  1  0  0  0  0
  1 22  1  0  0  0  0
  1 23  1  0  0  0  0
  1 24  1  0  0  0  0
  2 21  1  0  0  0  0
  2  3  2  0  0  0  0
  3  4  1  0  0  0  0
  3 25  1  0  0  0  0
  4  5  1  0  0  0  0
  4 20  2  0  0  0  0
  5  6  1  0  0  0  0
  5 26  1  0  0  0  0
  6  7  2  0  0  0  0
  6  8  1  0  0  0  0
  8  9  1  0  0  0  0
  8 27  1  0  0  0  0
  9 10  1  0  0  0  0
  9 28  1  0  0  0  0
  9 29  1  0  0  0  0
 10 11  1  0  0  0  0
 10 12  1  0  0  0  0
 10 30  1  0  0  0  0
 11 31  1  0  0  0  0
 11 32  1  0  0  0  0
 11 33  1  0  0  0  0
 12 19  1  0  0  0  0
 12 13  1  0  0  0  0
 12 46  1  0  0  0  0
 13 14  1  0  0  0  0
 13 34  1  0  0  0  0
 13 35  1  0  0  0  0
 14 15  1  0  0  0  0
 14 16  1  0  0  0  0
 14 36  1  0  0  0  0
 15 37  1  0  0  0  0
 15 38  1  0  0  0  0
 15 39  1  0  0  0  0
 16 17  1  0  0  0  0
 17 18  1  0  0  0  0
 17 19  1  0  0  0  0
 17 40  1  0  0  0  0
 18 41  1  0  0  0  0
 18 42  1  0  0  0  0
 18 43  1  0  0  0  0
 19 44  1  0  0  0  0
 19 45  1  0  0  0  0
 20 21  1  0  0  0  0
M  CHG  1  12   1
M  END
> <s_m_source_file>
AV-unprocessed.smi

> <i_m_source_file_index>
2061

> <i_lp_mmshare_version>
43012

> <i_f3d_flags>
0

> <s_epik_input>
W0NIM11jMVtjSF1jKG5vMSlbTkhdQyg9TylbTkhdW0NIMl1bQ0BIXShbQ0gzXSlOMltDSDJdW0NAQEhdKFtDSDNdKU9bQ0BASF0oW0NIM10pW0NIMl0y

> <s_epik_cmdline>
J2VwaWtfcHl0aG9uJywgJy1waCcsICc3LjAnLCAnLXRuJywgJzgnLCAnLW1hJywgJzIwMCcsICctbWV0YWxfYmluZGluZycsICctaW1hZScsICc8aW5maWxlLm1hZT4nLCAnLW9tYWUnLCAnPG91dGZpbGUubWFlPic=

> <r_epik_Ionization_Penalty>
0.707076

> <r_epik_Ionization_Penalty_Charging>
0.707039

> <r_epik_Ionization_Penalty_Neutral>
3.6548e-05

> <r_epik_State_Penalty>
0.730276

> <r_epik_Charging_Adjusted_Penalty>
1.43732

> <i_epik_Tot_Q>
1

> <i_epik_Tot_abs_Q>
1

> <r_epik_Metal_State_Penalty>
0.743132

> <b_epik_Metal_Only>
0

> <s_lp_Force_Field>
OPLS_2005

> <r_lp_Energy>
19.8294

> <b_lp_Chiralities_Consistent>
1

> <s_lp_Variant>
AV-unprocessed.smi:2061-11

> <Gold.Version>
5.8.1

> <Gold.Id.Protein>
6NUR|6NUR_protein|mol2

> <Gold.PLP.Fitness>
41.7237

> <Gold.PLP.PLP>
-33.7289

> <Gold.PLP.part.hbond>
-4.2321

> <Gold.PLP.part.metal>
0.0000

> <Gold.PLP.part.buried>
-3.0651

> <Gold.PLP.part.nonpolar>
-26.9084

> <Gold.PLP.part.repulsive>
0.1962

> <Gold.PLP.ligand.clash>
0.0000

> <Gold.PLP.ligand.torsion>
0.8699

> <Gold.PLP.Chemscore.Hbond>
3.2296

> <Gold.PLP.Chemscore.CHOScore>
0.0000

> <Gold.PLP.Chemscore.Metal>
0.0000

> <Gold.Chemscore.Hbonds>
donor molecule, donor type, donor heavy atom, donor atom, acceptor molecule, acceptor atom, score
      L1  H    12    46       P1  7948  1.84
      P1  H  6931  6943       L1    21  1.00
      P1  H  6934  6947       L1    21  0.21

> <Gold.PLP.Chemscore.Internal.Correction>
0.0458

> <Gold.Rescore>
     Score         DG    S(hbond)    S(metal)    S(lipo)     H(rot)  DE(clash)    DE(int)     intcor
     14.24     -15.23       1.26        0.00      82.12       1.58       0.12       0.87       ----

> <Gold.Chemscore.Fitness>
14.2390

> <Gold.Chemscore.DG>
-15.2307

> <Gold.Chemscore.ZeroCoef>
-5.4800

> <Gold.Chemscore.Hbond>
1.2563

> <Gold.Chemscore.Metal>
0.0000

> <Gold.Chemscore.Lipo>
82.1217

> <Gold.Chemscore.Internal_Hbond>
0.0000

> <Gold.Chemscore.DEClash>
0.1224

> <Gold.Chemscore.DEInternal>
0.8693

> <Gold.Chemscore.Rot>
1.5834

> <Gold.Chemscore.Internal.Correction>
   9.000000E+99

> <Gold.Chemscore.Hbonds>
donor molecule, donor type, donor heavy atom, donor atom, acceptor molecule, acceptor atom, score
      L1  H    12    46       P1  7948  0.38
      P1  H  6931  6943       L1    21  0.29

> <Gold.Chemscore.Hbond.Weighted>
-4.1959

> <Gold.Chemscore.Metal.Weighted>
-0.0000

> <Gold.Chemscore.Lipo.Weighted>
-9.6082

> <Gold.Chemscore.Internal_Hbond.Weighted>
0.0000

> <Gold.Chemscore.DEClash.Weighted>
0.1224

> <Gold.Chemscore.DEInternal.Weighted>
0.8693

> <Gold.Chemscore.Rot.Weighted>
4.0535

> <Gold.Chemscore.Internal.Correction.Weighted>
   9.000000E+99

> <Gold.Protein.RotatedTorsions>
[ 6907 6896 6895 6894 ] final -167.94 input  -60.11 | X-H torsion
[ 7974 7965 7964 7962 ] final  133.80 input  175.53 | X-H torsion
[ 8008 7997 7996 7995 ] final -122.69 input   59.86 | X-H torsion
[ 10167 10162 10161 10158 ] final  -52.53 input  -65.29 | X-H torsion
[ 10718 10713 10712 10709 ] final  -57.30 input   66.30 | X-H torsion
[ 10763 10752 10751 10750 ] final -143.53 input  -60.55 | X-H torsion
[ 11005 11000 10999 10996 ] final  115.85 input  -57.11 | X-H torsion

> <Gold.Protein.ActiveResidues>
 VAL166  LYS551  ARG553  GLY616  TRP617  ASP618  TYR619  PRO620  LYS621  CYS622 
 ASP623  PHE694  ASN695  SER759  ASP760  ASP761  ALA762  ILE779  LEU786  VAL792 
 PHE793  MET794  SER795  GLU796  ALA797  LYS798  CYS799  TRP800  GLU811  SER814 

> <Gold.Protein.RotatedAtoms>
  151.4676  133.3577  159.2818 H   0  0  0  0  0  0  0  0  0  0  0  0  # atno 6907 bound_to 6896
  150.8983  134.8395  159.7353 H   0  0  0  0  0  0  0  0  0  0  0  0  # atno 6908 bound_to 6896
  152.4864  134.4594  159.9652 H   0  0  0  0  0  0  0  0  0  0  0  0  # atno 6909 bound_to 6896
  144.9828  139.4486  143.5378 H   0  0  0  0  0  0  0  0  0  0  0  0  # atno 7974 bound_to 7965
  155.1683  140.0407  157.2857 H   0  0  0  0  0  0  0  0  0  0  0  0  # atno 8008 bound_to 7997
  154.6287  140.2519  155.7432 H   0  0  0  0  0  0  0  0  0  0  0  0  # atno 8009 bound_to 7997
  156.2473  140.2879  156.0629 H   0  0  0  0  0  0  0  0  0  0  0  0  # atno 8010 bound_to 7997
  140.6533  143.2581  151.4661 H   0  0  0  0  0  0  0  0  0  0  0  0  # atno 10167 bound_to 10162
  156.1221  130.4165  150.0422 H   0  0  0  0  0  0  0  0  0  0  0  0  # atno 10718 bound_to 10713
  154.8466  135.3465  154.6201 H   0  0  0  0  0  0  0  0  0  0  0  0  # atno 10763 bound_to 10752
  153.6810  135.6980  153.5122 H   0  0  0  0  0  0  0  0  0  0  0  0  # atno 10764 bound_to 10752
  153.2668  135.4305  155.0904 H   0  0  0  0  0  0  0  0  0  0  0  0  # atno 10765 bound_to 10752
  139.9022  134.9590  156.7108 H   0  0  0  0  0  0  0  0  0  0  0  0  # atno 11005 bound_to 11000
  146.3412  139.9111  142.8780 LP  0  0  0  0  0  0  0  0  0  0  0  0  # atno 17320 bound_to 7965
  145.2396  141.0004  143.3943 LP  0  0  0  0  0  0  0  0  0  0  0  0  # atno 17321 bound_to 7965
  139.5751  144.1838  152.1891 LP  0  0  0  0  0  0  0  0  0  0  0  0  # atno 17342 bound_to 10162
  140.1146  144.5427  150.6902 LP  0  0  0  0  0  0  0  0  0  0  0  0  # atno 17343 bound_to 10162
  156.8357  130.9408  151.3635 LP  0  0  0  0  0  0  0  0  0  0  0  0  # atno 17370 bound_to 10713
  157.6404  130.8801  149.9438 LP  0  0  0  0  0  0  0  0  0  0  0  0  # atno 17371 bound_to 10713
  140.7077  133.9250  155.8064 LP  0  0  0  0  0  0  0  0  0  0  0  0  # atno 17394 bound_to 11000
  141.0324  134.0737  157.3999 LP  0  0  0  0  0  0  0  0  0  0  0  0  # atno 17395 bound_to 11000

$$$$
