AV-unprocessed.smi:2510|AV-procd|sdf|9879|dock9
  -GOLD-   2272013513D 1   1.00000     0.00000
 Structure written by MMmdl.
 48 49  0  0  0  0  0  0  0  0  1 V2000
  149.5974  137.5484  157.1757 C   0  0  0  0  0  0  0  0  0  0  0  0
  149.1386  138.2899  155.9121 C   0  0  0  0  0  0  0  0  0  0  0  0
  150.2669  138.8630  155.0261 C   0  0  0  0  0  0  0  0  0  0  0  0
  149.6331  139.9137  154.0603 C   0  0  0  0  0  0  0  0  0  0  0  0
  148.6376  140.9045  154.6884 C   0  0  0  0  0  0  0  0  0  0  0  0
  151.5187  139.3246  155.8294 C   0  0  2  0  0  0  0  0  0  0  0  0
  151.6180  140.7626  156.0458 N   0  0  0  0  0  0  0  0  0  0  0  0
  150.7383  141.4872  156.7533 C   0  0  0  0  0  0  0  0  0  0  0  0
  149.8228  140.9927  157.4105 O   0  0  0  0  0  0  0  0  0  0  0  0
  150.8965  143.0056  156.6771 C   0  0  0  0  0  0  0  0  0  0  0  0
  151.0463  143.5808  158.0502 C   0  0  0  0  0  0  0  0  0  0  0  0
  151.9260  143.2959  159.0573 C   0  0  0  0  0  0  0  0  0  0  0  0
  151.5298  144.1529  160.1253 C   0  0  0  0  0  0  0  0  0  0  0  0
  152.1301  144.2627  161.4956 C   0  0  0  0  0  0  0  0  0  0  0  0
  150.4948  144.9151  159.8047 N   0  0  0  0  0  0  0  0  0  0  0  0
  150.2112  144.5607  158.5378 N   0  0  0  0  0  0  0  0  0  0  0  0
  152.3976  138.8283  154.6762 C   0  0  1  0  0  0  0  0  0  0  0  0
  153.8116  138.3372  154.9587 C   0  0  0  0  0  0  0  0  0  0  0  0
  151.2530  137.8351  154.3947 C   0  0  1  0  0  0  0  0  0  0  0  0
  151.3527  136.6486  155.1774 O   0  0  0  0  0  0  0  0  0  0  0  0
  150.3333  135.7050  154.8956 C   0  0  0  0  0  0  0  0  0  0  0  0
  149.4504  144.9861  158.0274 H   0  0  0  0  0  0  0  0  0  0  0  0
  148.7465  137.3400  157.8245 H   0  0  0  0  0  0  0  0  0  0  0  0
  150.3128  138.1374  157.7502 H   0  0  0  0  0  0  0  0  0  0  0  0
  150.0538  136.5895  156.9343 H   0  0  0  0  0  0  0  0  0  0  0  0
  148.4944  137.6310  155.3289 H   0  0  0  0  0  0  0  0  0  0  0  0
  148.4802  139.0985  156.2312 H   0  0  0  0  0  0  0  0  0  0  0  0
  150.4142  140.4841  153.5565 H   0  0  0  0  0  0  0  0  0  0  0  0
  149.0923  139.4282  153.2488 H   0  0  0  0  0  0  0  0  0  0  0  0
  148.3839  141.6889  153.9748 H   0  0  0  0  0  0  0  0  0  0  0  0
  149.0288  141.3884  155.5807 H   0  0  0  0  0  0  0  0  0  0  0  0
  147.7042  140.4114  154.9589 H   0  0  0  0  0  0  0  0  0  0  0  0
  151.6842  138.7381  156.7369 H   0  0  0  0  0  0  0  0  0  0  0  0
  152.3452  141.2517  155.5447 H   0  0  0  0  0  0  0  0  0  0  0  0
  151.7702  143.2537  156.0731 H   0  0  0  0  0  0  0  0  0  0  0  0
  150.0305  143.4345  156.1713 H   0  0  0  0  0  0  0  0  0  0  0  0
  152.7257  142.5702  159.0385 H   0  0  0  0  0  0  0  0  0  0  0  0
  153.0539  143.6880  161.5676 H   0  0  0  0  0  0  0  0  0  0  0  0
  151.4442  143.8846  162.2539 H   0  0  0  0  0  0  0  0  0  0  0  0
  152.3648  145.2987  161.7426 H   0  0  0  0  0  0  0  0  0  0  0  0
  152.4176  139.5711  153.8756 H   0  0  0  0  0  0  0  0  0  0  0  0
  153.8289  137.6043  155.7657 H   0  0  0  0  0  0  0  0  0  0  0  0
  154.4608  139.1620  155.2527 H   0  0  0  0  0  0  0  0  0  0  0  0
  154.2511  137.8717  154.0766 H   0  0  0  0  0  0  0  0  0  0  0  0
  151.0838  137.6298  153.3380 H   0  0  0  0  0  0  0  0  0  0  0  0
  150.4901  134.8083  155.4946 H   0  0  0  0  0  0  0  0  0  0  0  0
  150.3329  135.4131  153.8454 H   0  0  0  0  0  0  0  0  0  0  0  0
  149.3508  136.1074  155.1453 H   0  0  0  0  0  0  0  0  0  0  0  0
  1  2  1  0  0  0  0
  1 23  1  0  0  0  0
  1 24  1  0  0  0  0
  1 25  1  0  0  0  0
  2  3  1  0  0  0  0
  2 26  1  0  0  0  0
  2 27  1  0  0  0  0
  3 19  1  0  0  0  0
  3  4  1  0  0  0  0
  3  6  1  0  0  0  0
  4  5  1  0  0  0  0
  4 28  1  0  0  0  0
  4 29  1  0  0  0  0
  5 30  1  0  0  0  0
  5 31  1  0  0  0  0
  5 32  1  0  0  0  0
  6  7  1  0  0  0  0
  6 17  1  0  0  0  0
  6 33  1  0  0  0  0
  7  8  1  0  0  0  0
  7 34  1  0  0  0  0
  8  9  2  0  0  0  0
  8 10  1  0  0  0  0
 10 35  1  0  0  0  0
 10 36  1  0  0  0  0
 10 11  1  0  0  0  0
 11 16  1  0  0  0  0
 11 12  2  0  0  0  0
 12 13  1  0  0  0  0
 12 37  1  0  0  0  0
 13 14  1  0  0  0  0
 13 15  2  0  0  0  0
 14 38  1  0  0  0  0
 14 39  1  0  0  0  0
 14 40  1  0  0  0  0
 15 16  1  0  0  0  0
 16 22  1  0  0  0  0
 17 18  1  0  0  0  0
 17 19  1  0  0  0  0
 17 41  1  0  0  0  0
 18 42  1  0  0  0  0
 18 43  1  0  0  0  0
 18 44  1  0  0  0  0
 19 20  1  0  0  0  0
 19 45  1  0  0  0  0
 20 21  1  0  0  0  0
 21 46  1  0  0  0  0
 21 47  1  0  0  0  0
 21 48  1  0  0  0  0
M  END
> <s_m_source_file>
AV-unprocessed.smi

> <i_m_source_file_index>
2510

> <i_lp_mmshare_version>
43012

> <i_f3d_flags>
0

> <s_epik_input>
W0NIM11PW0NAQEhdMVtDQEhdKFtDSDNdKVtDQEBIXShDMShbQ0gyXVtDSDNdKVtDSDJdW0NIM10pW05IXUMoPU8pW0NIMl1jMltjSF1jKFtDSDNdKVtuSF1uMg==

> <s_epik_cmdline>
J2VwaWtfcHl0aG9uJywgJy1waCcsICc3LjAnLCAnLXRuJywgJzgnLCAnLW1hJywgJzIwMCcsICctbWV0YWxfYmluZGluZycsICctaW1hZScsICc8aW5maWxlLm1hZT4nLCAnLW9tYWUnLCAnPG91dGZpbGUubWFlPic=

> <r_lp_tautomer_probability>
0.5

> <r_epik_Ionization_Penalty>
0.000134763

> <r_epik_Ionization_Penalty_Charging>
0

> <r_epik_Ionization_Penalty_Neutral>
0.000134763

> <r_epik_State_Penalty>
0.41068

> <r_epik_Charging_Adjusted_Penalty>
0.41068

> <i_epik_Tot_Q>
0

> <i_epik_Tot_abs_Q>
0

> <r_epik_Metal_State_Penalty>
0.410661

> <b_epik_Metal_Only>
0

> <s_lp_Force_Field>
OPLS_2005

> <r_lp_Energy>
26.7648

> <b_lp_Chiralities_Consistent>
1

> <s_lp_Variant>
AV-unprocessed.smi:2510-10

> <Gold.Version>
5.8.1

> <Gold.Id.Protein>
6NUR|6NUR_protein|mol2

> <Gold.PLP.Fitness>
39.5233

> <Gold.PLP.PLP>
-34.6961

> <Gold.PLP.part.hbond>
-2.6213

> <Gold.PLP.part.metal>
0.0000

> <Gold.PLP.part.buried>
4.5447

> <Gold.PLP.part.nonpolar>
-37.6246

> <Gold.PLP.part.repulsive>
0.6312

> <Gold.PLP.ligand.clash>
0.0000

> <Gold.PLP.ligand.torsion>
0.7071

> <Gold.PLP.Chemscore.Hbond>
1.8500

> <Gold.PLP.Chemscore.CHOScore>
0.0000

> <Gold.PLP.Chemscore.Metal>
0.0000

> <Gold.Chemscore.Hbonds>
donor molecule, donor type, donor heavy atom, donor atom, acceptor molecule, acceptor atom, score
      L1  H    16    22       P1  8029  0.90
      P1  H 10752 10763       L1    20  0.95

> <Gold.PLP.Chemscore.Internal.Correction>
0.6913

> <Gold.Rescore>
     Score         DG    S(hbond)    S(metal)    S(lipo)     H(rot)  DE(clash)    DE(int)     intcor
     10.72     -15.57       0.27        0.00     118.04       1.81       1.99       2.86       ----

> <Gold.Chemscore.Fitness>
10.7227

> <Gold.Chemscore.DG>
-15.5693

> <Gold.Chemscore.ZeroCoef>
-5.4800

> <Gold.Chemscore.Hbond>
0.2733

> <Gold.Chemscore.Metal>
0.0000

> <Gold.Chemscore.Lipo>
118.0385

> <Gold.Chemscore.Internal_Hbond>
0.0000

> <Gold.Chemscore.DEClash>
1.9860

> <Gold.Chemscore.DEInternal>
2.8606

> <Gold.Chemscore.Rot>
1.8102

> <Gold.Chemscore.Internal.Correction>
   9.000000E+99

> <Gold.Chemscore.Hbonds>
donor molecule, donor type, donor heavy atom, donor atom, acceptor molecule, acceptor atom, score
      L1  H    16    22       P1  8029  0.18
      P1  H 10752 10763       L1    20  0.16

> <Gold.Chemscore.Hbond.Weighted>
-0.9129

> <Gold.Chemscore.Metal.Weighted>
-0.0000

> <Gold.Chemscore.Lipo.Weighted>
-13.8105

> <Gold.Chemscore.Internal_Hbond.Weighted>
0.0000

> <Gold.Chemscore.DEClash.Weighted>
1.9860

> <Gold.Chemscore.DEInternal.Weighted>
2.8606

> <Gold.Chemscore.Rot.Weighted>
4.6341

> <Gold.Chemscore.Internal.Correction.Weighted>
   9.000000E+99

> <Gold.Protein.RotatedTorsions>
[ 6907 6896 6895 6894 ] final -124.46 input  -60.11 | X-H torsion
[ 7974 7965 7964 7962 ] final   37.01 input  175.53 | X-H torsion
[ 8008 7997 7996 7995 ] final  -41.78 input   59.86 | X-H torsion
[ 10167 10162 10161 10158 ] final  102.74 input  -65.29 | X-H torsion
[ 10718 10713 10712 10709 ] final   32.77 input   66.30 | X-H torsion
[ 10763 10752 10751 10750 ] final   62.57 input  -60.55 | X-H torsion
[ 11005 11000 10999 10996 ] final  170.45 input  -57.11 | X-H torsion

> <Gold.Protein.ActiveResidues>
 VAL166  LYS551  ARG553  GLY616  TRP617  ASP618  TYR619  PRO620  LYS621  CYS622 
 ASP623  PHE694  ASN695  SER759  ASP760  ASP761  ALA762  ILE779  LEU786  VAL792 
 PHE793  MET794  SER795  GLU796  ALA797  LYS798  CYS799  TRP800  GLU811  SER814 

> <Gold.Protein.RotatedAtoms>
  150.8770  133.7425  159.2943 H   0  0  0  0  0  0  0  0  0  0  0  0  # atno 6907 bound_to 6896
  151.5018  135.1060  159.9840 H   0  0  0  0  0  0  0  0  0  0  0  0  # atno 6908 bound_to 6896
  152.4734  133.8037  159.7022 H   0  0  0  0  0  0  0  0  0  0  0  0  # atno 6909 bound_to 6896
  146.1169  139.5946  142.9315 H   0  0  0  0  0  0  0  0  0  0  0  0  # atno 7974 bound_to 7965
  154.4002  140.1490  156.3247 H   0  0  0  0  0  0  0  0  0  0  0  0  # atno 8008 bound_to 7997
  155.8497  140.3458  155.5664 H   0  0  0  0  0  0  0  0  0  0  0  0  # atno 8009 bound_to 7997
  155.7997  140.0868  157.1954 H   0  0  0  0  0  0  0  0  0  0  0  0  # atno 8010 bound_to 7997
  139.7324  144.7032  151.0702 H   0  0  0  0  0  0  0  0  0  0  0  0  # atno 10167 bound_to 10162
  157.2895  130.7295  149.6602 H   0  0  0  0  0  0  0  0  0  0  0  0  # atno 10718 bound_to 10713
  152.9987  135.5460  154.6214 H   0  0  0  0  0  0  0  0  0  0  0  0  # atno 10763 bound_to 10752
  154.5512  135.2827  155.1008 H   0  0  0  0  0  0  0  0  0  0  0  0  # atno 10764 bound_to 10752
  154.2247  135.6444  153.5208 H   0  0  0  0  0  0  0  0  0  0  0  0  # atno 10765 bound_to 10752
  140.3085  134.7536  157.3972 H   0  0  0  0  0  0  0  0  0  0  0  0  # atno 11005 bound_to 11000
  145.5548  141.0410  143.2258 LP  0  0  0  0  0  0  0  0  0  0  0  0  # atno 17320 bound_to 7965
  144.7561  139.7071  143.7253 LP  0  0  0  0  0  0  0  0  0  0  0  0  # atno 17321 bound_to 7965
  140.7773  143.5027  150.9751 LP  0  0  0  0  0  0  0  0  0  0  0  0  # atno 17342 bound_to 10162
  139.8715  143.7186  152.3166 LP  0  0  0  0  0  0  0  0  0  0  0  0  # atno 17343 bound_to 10162
  155.9666  130.4313  150.4915 LP  0  0  0  0  0  0  0  0  0  0  0  0  # atno 17370 bound_to 10713
  157.2875  131.0619  151.2156 LP  0  0  0  0  0  0  0  0  0  0  0  0  # atno 17371 bound_to 10713
  140.1046  134.5427  155.8321 LP  0  0  0  0  0  0  0  0  0  0  0  0  # atno 17394 bound_to 11000
  141.2113  133.6705  156.6574 LP  0  0  0  0  0  0  0  0  0  0  0  0  # atno 17395 bound_to 11000

$$$$
