AV-unprocessed.smi:2362|AV-procd|sdf|9413|dock8
  -GOLD-   2272013 53D 1   1.00000     0.00000
 Structure written by MMmdl.
 45 46  0  0  0  0  0  0  0  0  2 V2000
  143.5990  133.1248  151.2267 C   0  0  0  0  0  0  0  0  0  0  0  0
  144.4122  134.3690  151.5173 C   0  0  0  0  0  0  0  0  0  0  0  0
  144.6980  134.7631  152.8383 C   0  0  0  0  0  0  0  0  0  0  0  0
  145.4573  135.9302  153.0489 C   0  0  0  0  0  0  0  0  0  0  0  0
  145.9132  136.6737  151.9372 C   0  0  0  0  0  0  0  0  0  0  0  0
  146.6667  137.8349  152.2572 N   0  0  0  0  0  0  0  0  0  0  0  0
  146.5837  138.5981  153.3609 C   0  0  0  0  0  0  0  0  0  0  0  0
  145.7888  138.4288  154.2856 O   0  0  0  0  0  0  0  0  0  0  0  0
  147.4962  139.5823  153.3451 N   0  0  0  0  0  0  0  0  0  0  0  0
  147.6701  140.6069  154.3763 C   0  0  2  0  0  0  0  0  0  0  0  0
  146.6954  141.7608  154.1047 C   0  0  0  0  0  0  0  0  0  0  0  0
  149.1310  141.1117  154.4344 C   0  0  0  0  0  0  0  0  0  0  0  0
  149.4876  141.7276  155.7386 N   0  3  0  0  0  0  0  0  0  0  0  0
  148.7447  141.1323  156.8791 C   0  0  0  0  0  0  0  0  0  0  0  0
  149.0209  141.9046  158.1807 C   0  0  0  0  0  0  0  0  0  0  0  0
  150.5251  141.9671  158.4769 C   0  0  0  0  0  0  0  0  0  0  0  0
  151.2738  142.5471  157.2698 C   0  0  0  0  0  0  0  0  0  0  0  0
  150.9524  141.7545  155.9922 C   0  0  0  0  0  0  0  0  0  0  0  0
  145.6309  136.2870  150.6680 N   0  0  0  0  0  0  0  0  0  0  0  0
  144.9034  135.1680  150.4669 C   0  0  0  0  0  0  0  0  0  0  0  0
  143.3348  132.5997  152.1453 H   0  0  0  0  0  0  0  0  0  0  0  0
  144.1661  132.4412  150.5945 H   0  0  0  0  0  0  0  0  0  0  0  0
  142.6778  133.3894  150.7074 H   0  0  0  0  0  0  0  0  0  0  0  0
  144.3432  134.1846  153.6787 H   0  0  0  0  0  0  0  0  0  0  0  0
  145.6850  136.2463  154.0566 H   0  0  0  0  0  0  0  0  0  0  0  0
  147.3560  138.1059  151.5714 H   0  0  0  0  0  0  0  0  0  0  0  0
  148.1071  139.6431  152.5432 H   0  0  0  0  0  0  0  0  0  0  0  0
  147.3948  140.1874  155.3448 H   0  0  0  0  0  0  0  0  0  0  0  0
  146.7638  142.5219  154.8825 H   0  0  0  0  0  0  0  0  0  0  0  0
  145.6636  141.4080  154.0824 H   0  0  0  0  0  0  0  0  0  0  0  0
  146.9039  142.2434  153.1491 H   0  0  0  0  0  0  0  0  0  0  0  0
  149.7873  140.2602  154.2477 H   0  0  0  0  0  0  0  0  0  0  0  0
  149.3263  141.8234  153.6306 H   0  0  0  0  0  0  0  0  0  0  0  0
  147.6737  141.1542  156.6746 H   0  0  0  0  0  0  0  0  0  0  0  0
  149.0265  140.0844  156.9923 H   0  0  0  0  0  0  0  0  0  0  0  0
  148.6228  142.9168  158.0962 H   0  0  0  0  0  0  0  0  0  0  0  0
  148.4964  141.4342  159.0129 H   0  0  0  0  0  0  0  0  0  0  0  0
  150.7109  142.5740  159.3636 H   0  0  0  0  0  0  0  0  0  0  0  0
  150.8996  140.9667  158.6977 H   0  0  0  0  0  0  0  0  0  0  0  0
  150.9944  143.5926  157.1312 H   0  0  0  0  0  0  0  0  0  0  0  0
  152.3481  142.5358  157.4563 H   0  0  0  0  0  0  0  0  0  0  0  0
  151.3281  140.7337  156.0789 H   0  0  0  0  0  0  0  0  0  0  0  0
  151.4738  142.2110  155.1513 H   0  0  0  0  0  0  0  0  0  0  0  0
  144.7080  134.9049  149.4375 H   0  0  0  0  0  0  0  0  0  0  0  0
  149.1870  142.6907  155.6834 H   0  0  0  0  0  0  0  0  0  0  0  0
  1  2  1  0  0  0  0
  1 21  1  0  0  0  0
  1 22  1  0  0  0  0
  1 23  1  0  0  0  0
  2 20  1  0  0  0  0
  2  3  2  0  0  0  0
  3  4  1  0  0  0  0
  3 24  1  0  0  0  0
  4  5  2  0  0  0  0
  4 25  1  0  0  0  0
  5  6  1  0  0  0  0
  5 19  1  0  0  0  0
  6  7  1  0  0  0  0
  6 26  1  0  0  0  0
  7  8  2  0  0  0  0
  7  9  1  0  0  0  0
  9 10  1  0  0  0  0
  9 27  1  0  0  0  0
 10 11  1  0  0  0  0
 10 12  1  0  0  0  0
 10 28  1  0  0  0  0
 11 29  1  0  0  0  0
 11 30  1  0  0  0  0
 11 31  1  0  0  0  0
 12 13  1  0  0  0  0
 12 32  1  0  0  0  0
 12 33  1  0  0  0  0
 13 18  1  0  0  0  0
 13 14  1  0  0  0  0
 13 45  1  0  0  0  0
 14 15  1  0  0  0  0
 14 34  1  0  0  0  0
 14 35  1  0  0  0  0
 15 16  1  0  0  0  0
 15 36  1  0  0  0  0
 15 37  1  0  0  0  0
 16 17  1  0  0  0  0
 16 38  1  0  0  0  0
 16 39  1  0  0  0  0
 17 18  1  0  0  0  0
 17 40  1  0  0  0  0
 17 41  1  0  0  0  0
 18 42  1  0  0  0  0
 18 43  1  0  0  0  0
 19 20  2  0  0  0  0
 20 44  1  0  0  0  0
M  CHG  1  13   1
M  END
> <s_m_source_file>
AV-unprocessed.smi

> <i_m_source_file_index>
2362

> <i_lp_mmshare_version>
43012

> <i_f3d_flags>
0

> <s_epik_input>
W0NIM11jMVtjSF1bY0hdYyhuW2NIXTEpW05IXUMoPU8pW05IXVtDQEhdKFtDSDNdKVtDSDJdTjJbQ0gyXVtDSDJdW0NIMl1bQ0gyXVtDSDJdMg==

> <s_epik_cmdline>
J2VwaWtfcHl0aG9uJywgJy1waCcsICc3LjAnLCAnLXRuJywgJzgnLCAnLW1hJywgJzIwMCcsICctbWV0YWxfYmluZGluZycsICctaW1hZScsICc8aW5maWxlLm1hZT4nLCAnLW9tYWUnLCAnPG91dGZpbGUubWFlPic=

> <r_epik_Ionization_Penalty>
0.00215987

> <r_epik_Ionization_Penalty_Charging>
0.00211816

> <r_epik_Ionization_Penalty_Neutral>
4.17101e-05

> <r_epik_State_Penalty>
0.00145254

> <r_epik_Charging_Adjusted_Penalty>
0.0035707

> <i_epik_Tot_Q>
1

> <i_epik_Tot_abs_Q>
1

> <r_epik_Metal_State_Penalty>
-0

> <b_epik_Metal_Only>
0

> <s_lp_Force_Field>
OPLS_2005

> <r_lp_Energy>
24.6446

> <b_lp_Chiralities_Consistent>
1

> <s_lp_Variant>
AV-unprocessed.smi:2362-1

> <Gold.Version>
5.8.1

> <Gold.Id.Protein>
6NUR|6NUR_protein|mol2

> <Gold.PLP.Fitness>
42.8394

> <Gold.PLP.PLP>
-32.6707

> <Gold.PLP.part.hbond>
-3.0000

> <Gold.PLP.part.metal>
0.0000

> <Gold.PLP.part.buried>
-5.8420

> <Gold.PLP.part.nonpolar>
-25.0831

> <Gold.PLP.part.repulsive>
0.6201

> <Gold.PLP.ligand.clash>
0.0000

> <Gold.PLP.ligand.torsion>
1.0192

> <Gold.PLP.Chemscore.Hbond>
3.0572

> <Gold.PLP.Chemscore.CHOScore>
1.0000

> <Gold.PLP.Chemscore.Metal>
0.0000

> <Gold.Chemscore.Hbonds>
donor molecule, donor type, donor heavy atom, donor atom, acceptor molecule, acceptor atom, score
      L1  H     9    27       P1  7957  0.91
      L1  H    13    45       P1  8028  1.92
      L1  C    20    44       P1  7921  1.00

> <Gold.PLP.Chemscore.Internal.Correction>
0.0354

> <Gold.Rescore>
     Score         DG    S(hbond)    S(metal)    S(lipo)     H(rot)  DE(clash)    DE(int)     intcor
     14.43     -17.84       2.23        0.00      73.41       1.44       1.04       2.37       ----

> <Gold.Chemscore.Fitness>
14.4295

> <Gold.Chemscore.DG>
-17.8421

> <Gold.Chemscore.ZeroCoef>
-5.4800

> <Gold.Chemscore.Hbond>
2.2338

> <Gold.Chemscore.Metal>
0.0000

> <Gold.Chemscore.Lipo>
73.4092

> <Gold.Chemscore.Internal_Hbond>
0.0000

> <Gold.Chemscore.DEClash>
1.0422

> <Gold.Chemscore.DEInternal>
2.3704

> <Gold.Chemscore.Rot>
1.4404

> <Gold.Chemscore.Internal.Correction>
   9.000000E+99

> <Gold.Chemscore.Hbonds>
donor molecule, donor type, donor heavy atom, donor atom, acceptor molecule, acceptor atom, score
      L1  H     9    27       P1  7957  0.87
      L1  H    13    45       P1  8028  0.90

> <Gold.Chemscore.Hbond.Weighted>
-7.4607

> <Gold.Chemscore.Metal.Weighted>
-0.0000

> <Gold.Chemscore.Lipo.Weighted>
-8.5889

> <Gold.Chemscore.Internal_Hbond.Weighted>
0.0000

> <Gold.Chemscore.DEClash.Weighted>
1.0422

> <Gold.Chemscore.DEInternal.Weighted>
2.3704

> <Gold.Chemscore.Rot.Weighted>
3.6875

> <Gold.Chemscore.Internal.Correction.Weighted>
   9.000000E+99

> <Gold.Protein.RotatedTorsions>
[ 6907 6896 6895 6894 ] final -175.48 input  -60.11 | X-H torsion
[ 7974 7965 7964 7962 ] final  -34.36 input  175.53 | X-H torsion
[ 8008 7997 7996 7995 ] final   15.77 input   59.86 | X-H torsion
[ 10167 10162 10161 10158 ] final  134.44 input  -65.29 | X-H torsion
[ 10718 10713 10712 10709 ] final   22.91 input   66.30 | X-H torsion
[ 10763 10752 10751 10750 ] final  -74.26 input  -60.55 | X-H torsion
[ 11005 11000 10999 10996 ] final  163.63 input  -57.11 | X-H torsion

> <Gold.Protein.ActiveResidues>
 VAL166  LYS551  ARG553  GLY616  TRP617  ASP618  TYR619  PRO620  LYS621  CYS622 
 ASP623  PHE694  ASN695  SER759  ASP760  ASP761  ALA762  ILE779  LEU786  VAL792 
 PHE793  MET794  SER795  GLU796  ALA797  LYS798  CYS799  TRP800  GLU811  SER814 

> <Gold.Protein.RotatedAtoms>
  151.5893  133.3368  159.3024 H   0  0  0  0  0  0  0  0  0  0  0  0  # atno 6907 bound_to 6896
  150.8269  134.7507  159.6832 H   0  0  0  0  0  0  0  0  0  0  0  0  # atno 6908 bound_to 6896
  152.4357  134.5697  159.9969 H   0  0  0  0  0  0  0  0  0  0  0  0  # atno 6909 bound_to 6896
  146.0836  140.6029  142.8897 H   0  0  0  0  0  0  0  0  0  0  0  0  # atno 7974 bound_to 7965
  154.8675  140.2953  155.5501 H   0  0  0  0  0  0  0  0  0  0  0  0  # atno 8008 bound_to 7997
  156.3021  140.2466  156.3591 H   0  0  0  0  0  0  0  0  0  0  0  0  # atno 8009 bound_to 7997
  154.8853  140.0396  157.1795 H   0  0  0  0  0  0  0  0  0  0  0  0  # atno 8010 bound_to 7997
  139.5256  144.6567  151.5139 H   0  0  0  0  0  0  0  0  0  0  0  0  # atno 10167 bound_to 10162
  157.1588  130.6707  149.6037 H   0  0  0  0  0  0  0  0  0  0  0  0  # atno 10718 bound_to 10713
  154.4706  135.5870  153.6319 H   0  0  0  0  0  0  0  0  0  0  0  0  # atno 10763 bound_to 10752
  152.9834  135.6066  154.3371 H   0  0  0  0  0  0  0  0  0  0  0  0  # atno 10764 bound_to 10752
  154.3252  135.2843  155.2478 H   0  0  0  0  0  0  0  0  0  0  0  0  # atno 10765 bound_to 10752
  140.2377  134.8075  157.3380 H   0  0  0  0  0  0  0  0  0  0  0  0  # atno 11005 bound_to 11000
  144.7310  140.4671  143.6938 LP  0  0  0  0  0  0  0  0  0  0  0  0  # atno 17320 bound_to 7965
  145.6172  139.1520  143.3043 LP  0  0  0  0  0  0  0  0  0  0  0  0  # atno 17321 bound_to 7965
  140.6396  143.8915  150.6679 LP  0  0  0  0  0  0  0  0  0  0  0  0  # atno 17342 bound_to 10162
  140.2245  143.3783  152.1616 LP  0  0  0  0  0  0  0  0  0  0  0  0  # atno 17343 bound_to 10162
  155.9757  130.4719  150.6480 LP  0  0  0  0  0  0  0  0  0  0  0  0  # atno 17370 bound_to 10713
  157.4152  131.0829  151.1183 LP  0  0  0  0  0  0  0  0  0  0  0  0  # atno 17371 bound_to 10713
  140.1685  134.4638  155.7847 LP  0  0  0  0  0  0  0  0  0  0  0  0  # atno 17394 bound_to 11000
  141.2213  133.6931  156.7667 LP  0  0  0  0  0  0  0  0  0  0  0  0  # atno 17395 bound_to 11000

$$$$
