#       Name:                AV-unprocessed.smi:1046
#       Creating user name   scv26
#       Creation time:       Fri Mar 27 02:58:02 2020


#       File generated by GOLD software.
#

@<TRIPOS>MOLECULE
AV-unprocessed.smi:1046
    59    61     1
SMALL
NO_CHARGES


@<TRIPOS>ATOM
      1 ****        -3.3546   3.8031   4.4391 C.3            1 S1                 0.0000
      2 ****        -3.1878   3.0587   3.1260 C.ar           1 S1                 0.0000
      3 ****        -4.3401   2.6610   2.4108 C.ar           1 S1                 0.0000
      4 ****        -4.2286   1.9673   1.1859 C.ar           1 S1                 0.0000
      5 ****        -5.2068   1.4900   0.3302 N.2            1 S1                 0.0000
      6 ****        -4.4742   0.9398  -0.6340 C.2            1 S1                 0.0000
      7 ****        -3.1350   1.0042  -0.5035 N.pl3          1 S1                 0.0000
      8 ****        -2.1354   0.4830  -1.4183 C.3            1 S1                 0.0000
      9 ****        -1.5041  -0.8283  -0.9136 C.3            1 S1                 0.0000
     10 ****        -2.5080  -1.8201  -0.8188 O.3            1 S1                 0.0000
     11 ****        -0.3972  -1.3244  -1.8657 C.3            1 S1                 0.0000
     12 ****         0.3629  -2.4939  -1.4058 N.3            1 S1                 0.0000
     13 ****         1.2253  -3.0506  -2.4478 C.3            1 S1                 0.0000
     14 ****         2.4501  -2.1662  -2.7621 C.3            1 S1                 0.0000
     15 ****         3.2476  -1.9251  -1.5318 N.4            1 S1                 1.0000
     16 ****         4.4750  -1.1334  -1.7987 C.3            1 S1                 0.0000
     17 ****         5.5483  -1.3182  -0.7123 C.3            1 S1                 0.0000
     18 ****         6.0104  -2.6524  -0.7113 O.3            1 S1                 0.0000
     19 ****         2.3936  -1.3599  -0.4530 C.3            1 S1                 0.0000
     20 ****         1.1745  -2.2707  -0.2061 C.3            1 S1                 0.0000
     21 ****        -2.9224   1.6806   0.6924 C.ar           1 S1                 0.0000
     22 ****        -1.7683   2.0703   1.3948 C.ar           1 S1                 0.0000
     23 ****        -1.8977   2.7619   2.6174 C.ar           1 S1                 0.0000
     24 ****        -0.6460   3.1774   3.3697 C.3            1 S1                 0.0000
     25 ****        -4.4069   3.9581   4.6780 H              1 S1                 0.0000
     26 ****        -2.8764   4.7815   4.3878 H              1 S1                 0.0000
     27 ****        -2.9056   3.2398   5.2571 H              1 S1                 0.0000
     28 ****        -5.3228   2.8863   2.7981 H              1 S1                 0.0000
     29 ****        -4.9377   0.4605  -1.4838 H              1 S1                 0.0000
     30 ****        -2.5950   0.3382  -2.3973 H              1 S1                 0.0000
     31 ****        -1.3664   1.2461  -1.5449 H              1 S1                 0.0000
     32 ****        -1.1023  -0.6504   0.0828 H              1 S1                 0.0000
     33 ****        -2.8517  -1.9859  -1.6831 H              1 S1                 0.0000
     34 ****        -0.8606  -1.5582  -2.8253 H              1 S1                 0.0000
     35 ****         0.2837  -0.4983  -2.0676 H              1 S1                 0.0000
     36 ****         1.5730  -4.0355  -2.1323 H              1 S1                 0.0000
     37 ****         0.6468  -3.2195  -3.3568 H              1 S1                 0.0000
     38 ****         3.0706  -2.6675  -3.5059 H              1 S1                 0.0000
     39 ****         2.1433  -1.2153  -3.1997 H              1 S1                 0.0000
     40 ****         4.9022  -1.4303  -2.7579 H              1 S1                 0.0000
     41 ****         4.2124  -0.0789  -1.8961 H              1 S1                 0.0000
     42 ****         6.3964  -0.6650  -0.9188 H              1 S1                 0.0000
     43 ****         5.1830  -1.0527   0.2791 H              1 S1                 0.0000
     44 ****         6.7119  -2.7291  -0.0816 H              1 S1                 0.0000
     45 ****         2.9620  -1.2792   0.4727 H              1 S1                 0.0000
     46 ****         2.0782  -0.3488  -0.7132 H              1 S1                 0.0000
     47 ****         0.5669  -1.8707   0.6040 H              1 S1                 0.0000
     48 ****         1.5318  -3.2352   0.1579 H              1 S1                 0.0000
     49 ****        -0.7925   1.8378   0.9954 H              1 S1                 0.0000
     50 ****         0.2563   2.8578   2.8477 H              1 S1                 0.0000
     51 ****        -0.6323   2.7319   4.3646 H              1 S1                 0.0000
     52 ****        -0.6058   4.2618   3.4748 H              1 S1                 0.0000
     53 ****         3.5577  -2.8336  -1.2167 H              1 S1                 0.0000
     54 ****        -6.2018   1.5445   0.4147 LP             1 S1                 0.0000
     55 ****        -3.2423  -1.4998  -0.2203 LP             1 S1                 0.0000
     56 ****        -2.1164  -2.6610  -0.4453 LP             1 S1                 0.0000
     57 ****        -0.3564  -3.1467  -1.1680 LP             1 S1                 0.0000
     58 ****         6.3473  -2.8927  -1.6217 LP             1 S1                 0.0000
     59 ****         5.2631  -3.2673  -0.4595 LP             1 S1                 0.0000
@<TRIPOS>BOND
    1    1    2 1     
    2    1   25 1     
    3    1   26 1     
    4    1   27 1     
    5    2   23 ar    
    6    2    3 ar    
    7    3    4 ar    
    8    3   28 1     
    9    4   21 ar    
   10    4    5 1     
   11    5    6 2     
   12    6    7 1     
   13    6   29 1     
   14    7    8 1     
   15    7   21 1     
   16    8    9 1     
   17    8   30 1     
   18    8   31 1     
   19    9   10 1     
   20    9   11 1     
   21    9   32 1     
   22   10   33 1     
   23   11   12 1     
   24   11   34 1     
   25   11   35 1     
   26   12   20 1     
   27   12   13 1     
   28   13   14 1     
   29   13   36 1     
   30   13   37 1     
   31   14   15 1     
   32   14   38 1     
   33   14   39 1     
   34   15   16 1     
   35   15   19 1     
   36   15   53 1     
   37   16   17 1     
   38   16   40 1     
   39   16   41 1     
   40   17   18 1     
   41   17   42 1     
   42   17   43 1     
   43   18   44 1     
   44   19   20 1     
   45   19   45 1     
   46   19   46 1     
   47   20   47 1     
   48   20   48 1     
   49   21   22 ar    
   50   22   23 ar    
   51   22   49 1     
   52   23   24 1     
   53   24   50 1     
   54   24   51 1     
   55   24   52 1     
   56    5   54 1     
   57   10   55 1     
   58   10   56 1     
   59   12   57 1     
   60   18   58 1     
   61   18   59 1     
@<TRIPOS>SUBSTRUCTURE
      1 S1             1
@<TRIPOS>SET
LONE_PAIRS      STATIC     ATOMS    <user>   **** ""
6 54 55 56 57 58 59
DONOR_HYDROGENS      STATIC     ATOMS    <user>   **** ""
3 33 53 44
ATOM$BLUE        STATIC     ATOMS    COLORGROUP SYSTEM
6 54 55 56 57 58 59
ATOM$RED        STATIC     ATOMS    COLORGROUP SYSTEM
3 33 53 44
