AV-unprocessed.smi:1914|AV-procd|sdf|7759|dock9
  -GOLD-   22720 9503D 1   1.00000     0.00000
 Structure written by MMmdl.
 44 45  0  0  0  0  0  0  0  0  2 V2000
  145.9629  131.8720  151.2647 C   0  0  0  0  0  0  0  0  0  0  0  0
  146.2300  133.3785  151.3908 C   0  0  1  0  0  0  0  0  0  0  0  0
  145.1089  134.2041  150.7377 C   0  0  0  0  0  0  0  0  0  0  0  0
  145.3846  135.7034  150.9058 C   0  0  0  0  0  0  0  0  0  0  0  0
  145.5885  136.0630  152.3859 C   0  0  0  0  0  0  0  0  0  0  0  0
  146.6813  135.2556  152.9872 N   0  3  1  0  0  0  0  0  0  0  0  0
  146.9911  135.6777  154.3767 C   0  0  0  0  0  0  0  0  0  0  0  0
  147.7325  134.5875  155.1673 C   0  0  0  0  0  0  0  0  0  0  0  0
  148.2806  135.1326  156.4014 N   0  0  0  0  0  0  0  0  0  0  0  0
  147.7132  134.9874  157.6075 C   0  0  0  0  0  0  0  0  0  0  0  0
  146.6739  134.3516  157.7880 O   0  0  0  0  0  0  0  0  0  0  0  0
  148.4474  135.6472  158.7836 C   0  0  0  0  0  0  0  0  0  0  0  0
  148.0456  135.1105  160.0948 N   0  0  0  0  0  0  0  0  0  0  0  0
  148.0404  133.7089  160.2425 C   0  0  0  0  0  0  0  0  0  0  0  0
  147.6911  133.1180  161.3961 C   0  0  0  0  0  0  0  0  0  0  0  0
  147.3126  133.9590  162.5071 C   0  0  0  0  0  0  0  0  0  0  0  0
  147.3120  135.3005  162.3759 C   0  0  0  0  0  0  0  0  0  0  0  0
  147.6921  135.9508  161.1164 C   0  0  0  0  0  0  0  0  0  0  0  0
  147.6928  137.1755  160.9868 O   0  0  0  0  0  0  0  0  0  0  0  0
  146.4136  133.7968  152.8637 C   0  0  0  0  0  0  0  0  0  0  0  0
  145.0408  131.5884  151.7731 H   0  0  0  0  0  0  0  0  0  0  0  0
  146.7755  131.2907  151.7010 H   0  0  0  0  0  0  0  0  0  0  0  0
  145.8708  131.5754  150.2193 H   0  0  0  0  0  0  0  0  0  0  0  0
  147.1600  133.5921  150.8614 H   0  0  0  0  0  0  0  0  0  0  0  0
  145.0253  133.9591  149.6784 H   0  0  0  0  0  0  0  0  0  0  0  0
  144.1486  133.9556  151.1923 H   0  0  0  0  0  0  0  0  0  0  0  0
  146.2722  135.9803  150.3352 H   0  0  0  0  0  0  0  0  0  0  0  0
  144.5581  136.2824  150.4923 H   0  0  0  0  0  0  0  0  0  0  0  0
  145.8266  137.1246  152.4635 H   0  0  0  0  0  0  0  0  0  0  0  0
  144.6649  135.9028  152.9447 H   0  0  0  0  0  0  0  0  0  0  0  0
  147.6283  136.5630  154.3501 H   0  0  0  0  0  0  0  0  0  0  0  0
  146.0732  135.9749  154.8868 H   0  0  0  0  0  0  0  0  0  0  0  0
  147.0652  133.7639  155.4221 H   0  0  0  0  0  0  0  0  0  0  0  0
  148.5410  134.1734  154.5625 H   0  0  0  0  0  0  0  0  0  0  0  0
  149.1372  135.6636  156.3363 H   0  0  0  0  0  0  0  0  0  0  0  0
  149.5194  135.5196  158.6270 H   0  0  0  0  0  0  0  0  0  0  0  0
  148.2818  136.7262  158.7590 H   0  0  0  0  0  0  0  0  0  0  0  0
  148.3304  133.1508  159.3640 H   0  0  0  0  0  0  0  0  0  0  0  0
  147.6903  132.0420  161.4902 H   0  0  0  0  0  0  0  0  0  0  0  0
  147.0275  133.5101  163.4472 H   0  0  0  0  0  0  0  0  0  0  0  0
  147.0250  135.9138  163.2176 H   0  0  0  0  0  0  0  0  0  0  0  0
  145.5239  133.5413  153.4419 H   0  0  0  0  0  0  0  0  0  0  0  0
  147.2384  133.2279  153.2914 H   0  0  0  0  0  0  0  0  0  0  0  0
  147.5066  135.4514  152.4388 H   0  0  0  0  0  0  0  0  0  0  0  0
  1  2  1  0  0  0  0
  1 21  1  0  0  0  0
  1 22  1  0  0  0  0
  1 23  1  0  0  0  0
  2 20  1  0  0  0  0
  2  3  1  0  0  0  0
  2 24  1  0  0  0  0
  3  4  1  0  0  0  0
  3 25  1  0  0  0  0
  3 26  1  0  0  0  0
  4  5  1  0  0  0  0
  4 27  1  0  0  0  0
  4 28  1  0  0  0  0
  5  6  1  0  0  0  0
  5 29  1  0  0  0  0
  5 30  1  0  0  0  0
  6  7  1  0  0  0  0
  6 20  1  0  0  0  0
  6 44  1  0  0  0  0
  7  8  1  0  0  0  0
  7 31  1  0  0  0  0
  7 32  1  0  0  0  0
  8  9  1  0  0  0  0
  8 33  1  0  0  0  0
  8 34  1  0  0  0  0
  9 10  1  0  0  0  0
  9 35  1  0  0  0  0
 10 11  2  0  0  0  0
 10 12  1  0  0  0  0
 12 13  1  0  0  0  0
 12 36  1  0  0  0  0
 12 37  1  0  0  0  0
 13 18  1  0  0  0  0
 13 14  1  0  0  0  0
 14 15  2  0  0  0  0
 14 38  1  0  0  0  0
 15 16  1  0  0  0  0
 15 39  1  0  0  0  0
 16 17  2  0  0  0  0
 16 40  1  0  0  0  0
 17 18  1  0  0  0  0
 17 41  1  0  0  0  0
 18 19  2  0  0  0  0
 20 42  1  0  0  0  0
 20 43  1  0  0  0  0
M  CHG  1   6   1
M  END
> <s_m_source_file>
AV-unprocessed.smi

> <i_m_source_file_index>
1914

> <i_lp_mmshare_version>
43012

> <i_f3d_flags>
0

> <s_epik_input>
W0NIM11bQ0BASF0xW0NIMl1bQ0gyXVtDSDJdTihbQ0gyXTEpW0NIMl1bQ0gyXVtOSF1DKD1PKVtDSDJdbjJbY0hdW2NIXVtjSF1bY0hdYzI9Tw==

> <s_epik_cmdline>
J2VwaWtfcHl0aG9uJywgJy1waCcsICc3LjAnLCAnLXRuJywgJzgnLCAnLW1hJywgJzIwMCcsICctbWV0YWxfYmluZGluZycsICctaW1hZScsICc8aW5maWxlLm1hZT4nLCAnLW9tYWUnLCAnPG91dGZpbGUubWFlPic=

> <r_lp_tautomer_probability>
1

> <r_epik_Ionization_Penalty>
0.00192477

> <r_epik_Ionization_Penalty_Charging>
0.00192469

> <r_epik_Ionization_Penalty_Neutral>
8.16761e-08

> <r_epik_State_Penalty>
0.00131115

> <r_epik_Charging_Adjusted_Penalty>
0.00323584

> <i_epik_Tot_Q>
1

> <i_epik_Tot_abs_Q>
1

> <r_epik_Metal_State_Penalty>
-0

> <b_epik_Metal_Only>
0

> <s_lp_Force_Field>
OPLS_2005

> <r_lp_Energy>
25.5857

> <b_lp_Chiralities_Consistent>
1

> <s_lp_Variant>
AV-unprocessed.smi:1914-4

> <Gold.Version>
5.8.1

> <Gold.Id.Protein>
6NUR|6NUR_protein|mol2

> <Gold.PLP.Fitness>
44.5766

> <Gold.PLP.PLP>
-34.7206

> <Gold.PLP.part.hbond>
-3.0000

> <Gold.PLP.part.metal>
0.0000

> <Gold.PLP.part.buried>
-3.9707

> <Gold.PLP.part.nonpolar>
-27.4514

> <Gold.PLP.part.repulsive>
0.0030

> <Gold.PLP.ligand.clash>
0.0000

> <Gold.PLP.ligand.torsion>
0.7790

> <Gold.PLP.Chemscore.Hbond>
3.7920

> <Gold.PLP.Chemscore.CHOScore>
0.0000

> <Gold.PLP.Chemscore.Metal>
0.0000

> <Gold.Chemscore.Hbonds>
donor molecule, donor type, donor heavy atom, donor atom, acceptor molecule, acceptor atom, score
      L1  H     6    44       P1  7948  2.00
      P1  H  6931  6943       L1    19  0.90
      P1  H  6934  6947       L1    19  0.90

> <Gold.PLP.Chemscore.Internal.Correction>
0.0380

> <Gold.Rescore>
     Score         DG    S(hbond)    S(metal)    S(lipo)     H(rot)  DE(clash)    DE(int)     intcor
     16.40     -18.43       2.74        0.00      73.03       1.86       0.02       2.01       ----

> <Gold.Chemscore.Fitness>
16.3978

> <Gold.Chemscore.DG>
-18.4298

> <Gold.Chemscore.ZeroCoef>
-5.4800

> <Gold.Chemscore.Hbond>
2.7434

> <Gold.Chemscore.Metal>
0.0000

> <Gold.Chemscore.Lipo>
73.0346

> <Gold.Chemscore.Internal_Hbond>
0.0000

> <Gold.Chemscore.DEClash>
0.0234

> <Gold.Chemscore.DEInternal>
2.0086

> <Gold.Chemscore.Rot>
1.8586

> <Gold.Chemscore.Internal.Correction>
   9.000000E+99

> <Gold.Chemscore.Hbonds>
donor molecule, donor type, donor heavy atom, donor atom, acceptor molecule, acceptor atom, score
      L1  H     6    44       P1  7948  1.00
      P1  H  6931  6943       L1    19  0.85
      P1  H  6934  6947       L1    19  0.88

> <Gold.Chemscore.Hbond.Weighted>
-9.1628

> <Gold.Chemscore.Metal.Weighted>
-0.0000

> <Gold.Chemscore.Lipo.Weighted>
-8.5450

> <Gold.Chemscore.Internal_Hbond.Weighted>
0.0000

> <Gold.Chemscore.DEClash.Weighted>
0.0234

> <Gold.Chemscore.DEInternal.Weighted>
2.0086

> <Gold.Chemscore.Rot.Weighted>
4.7581

> <Gold.Chemscore.Internal.Correction.Weighted>
   9.000000E+99

> <Gold.Protein.RotatedTorsions>
[ 6907 6896 6895 6894 ] final -173.09 input  -60.11 | X-H torsion
[ 7974 7965 7964 7962 ] final  -53.99 input  175.53 | X-H torsion
[ 8008 7997 7996 7995 ] final  117.00 input   59.86 | X-H torsion
[ 10167 10162 10161 10158 ] final   77.33 input  -65.29 | X-H torsion
[ 10718 10713 10712 10709 ] final  -95.08 input   66.30 | X-H torsion
[ 10763 10752 10751 10750 ] final   -2.78 input  -60.55 | X-H torsion
[ 11005 11000 10999 10996 ] final  148.34 input  -57.11 | X-H torsion

> <Gold.Protein.ActiveResidues>
 VAL166  LYS551  ARG553  GLY616  TRP617  ASP618  TYR619  PRO620  LYS621  CYS622 
 ASP623  PHE694  ASN695  SER759  ASP760  ASP761  ALA762  ILE779  LEU786  VAL792 
 PHE793  MET794  SER795  GLU796  ALA797  LYS798  CYS799  TRP800  GLU811  SER814 

> <Gold.Protein.RotatedAtoms>
  151.5505  133.3418  159.2951 H   0  0  0  0  0  0  0  0  0  0  0  0  # atno 6907 bound_to 6896
  150.8482  134.7800  159.6998 H   0  0  0  0  0  0  0  0  0  0  0  0  # atno 6908 bound_to 6896
  152.4534  134.5352  159.9874 H   0  0  0  0  0  0  0  0  0  0  0  0  # atno 6909 bound_to 6896
  145.8907  140.8073  142.9793 H   0  0  0  0  0  0  0  0  0  0  0  0  # atno 7974 bound_to 7965
  156.2470  140.2905  156.0611 H   0  0  0  0  0  0  0  0  0  0  0  0  # atno 8008 bound_to 7997
  155.1775  140.0403  157.2893 H   0  0  0  0  0  0  0  0  0  0  0  0  # atno 8009 bound_to 7997
  154.6283  140.2493  155.7472 H   0  0  0  0  0  0  0  0  0  0  0  0  # atno 8010 bound_to 7997
  139.9827  144.5814  150.7886 H   0  0  0  0  0  0  0  0  0  0  0  0  # atno 10167 bound_to 10162
  156.0037  130.5094  150.6023 H   0  0  0  0  0  0  0  0  0  0  0  0  # atno 10718 bound_to 10713
  153.3626  135.6991  153.6700 H   0  0  0  0  0  0  0  0  0  0  0  0  # atno 10763 bound_to 10752
  153.5382  135.3578  155.2707 H   0  0  0  0  0  0  0  0  0  0  0  0  # atno 10764 bound_to 10752
  154.8670  135.4197  154.2887 H   0  0  0  0  0  0  0  0  0  0  0  0  # atno 10765 bound_to 10752
  140.0951  134.9017  157.1711 H   0  0  0  0  0  0  0  0  0  0  0  0  # atno 11005 bound_to 11000
  144.6730  140.1525  143.7429 LP  0  0  0  0  0  0  0  0  0  0  0  0  # atno 17320 bound_to 7965
  145.8912  139.2377  143.1548 LP  0  0  0  0  0  0  0  0  0  0  0  0  # atno 17321 bound_to 7965
  140.7483  143.2920  151.3305 LP  0  0  0  0  0  0  0  0  0  0  0  0  # atno 17342 bound_to 10162
  139.6397  144.0562  152.2545 LP  0  0  0  0  0  0  0  0  0  0  0  0  # atno 17343 bound_to 10162
  157.3869  131.0789  151.1428 LP  0  0  0  0  0  0  0  0  0  0  0  0  # atno 17370 bound_to 10713
  157.2132  130.6447  149.5782 LP  0  0  0  0  0  0  0  0  0  0  0  0  # atno 17371 bound_to 10713
  140.3298  134.2823  155.7230 LP  0  0  0  0  0  0  0  0  0  0  0  0  # atno 17394 bound_to 11000
  141.2089  133.7763  157.0027 LP  0  0  0  0  0  0  0  0  0  0  0  0  # atno 17395 bound_to 11000

$$$$
