AV-unprocessed.smi:99|AV-procd|sdf|896|dock5
  -GOLD-   2262017393D 1   1.00000     0.00000
 Structure written by MMmdl.
 52 55  0  0  0  0  0  0  0  0  2 V2000
  144.2399  136.7964  152.8770 O   0  0  0  0  0  0  0  0  0  0  0  0
  145.1417  135.9816  153.0810 C   0  0  0  0  0  0  0  0  0  0  0  0
  146.0352  136.0898  154.0829 O   0  0  0  0  0  0  0  0  0  0  0  0
  145.8383  137.0246  155.1316 C   0  0  0  0  0  0  0  0  0  0  0  0
  147.1892  137.3128  155.7987 C   0  0  1  0  0  0  0  0  0  0  0  0
  147.8211  138.4167  155.1591 O   0  0  0  0  0  0  0  0  0  0  0  0
  148.7188  139.0337  156.0413 C   0  0  2  0  0  0  0  0  0  0  0  0
  150.1386  138.8120  155.5551 N   0  0  0  0  0  0  0  0  0  0  0  0
  150.4184  137.9623  154.4969 C   0  0  0  0  0  0  0  0  0  0  0  0
  151.6831  137.7662  154.0707 C   0  0  0  0  0  0  0  0  0  0  0  0
  152.7809  138.4614  154.7368 C   0  0  0  0  0  0  0  0  0  0  0  0
  153.9297  138.2796  154.3386 O   0  0  0  0  0  0  0  0  0  0  0  0
  152.4797  139.2867  155.7806 N   0  5  0  0  0  0  0  0  0  0  0  0
  151.2015  139.4839  156.2168 C   0  0  0  0  0  0  0  0  0  0  0  0
  150.9176  140.2117  157.1686 O   0  0  0  0  0  0  0  0  0  0  0  0
  148.4607  138.4448  157.4500 C   0  0  2  0  0  0  0  0  0  0  0  0
  149.4386  137.4900  157.8366 O   0  0  0  0  0  0  0  0  0  0  0  0
  147.1002  137.7960  157.2454 C   0  0  2  0  0  0  0  0  0  0  0  0
  146.8439  136.7713  158.2028 O   0  0  0  0  0  0  0  0  0  0  0  0
  146.6954  137.0552  159.5150 C   0  0  0  0  0  0  0  0  0  0  0  0
  146.2441  138.1199  159.9416 O   0  0  0  0  0  0  0  0  0  0  0  0
  147.0943  135.9223  160.3977 C   0  0  0  0  0  0  0  0  0  0  0  0
  147.1092  136.1088  161.7997 C   0  0  0  0  0  0  0  0  0  0  0  0
  147.4560  135.0494  162.6602 C   0  0  0  0  0  0  0  0  0  0  0  0
  147.7955  133.7917  162.1290 C   0  0  0  0  0  0  0  0  0  0  0  0
  147.7882  133.5946  160.7360 C   0  0  0  0  0  0  0  0  0  0  0  0
  147.4395  134.6524  159.8737 C   0  0  0  0  0  0  0  0  0  0  0  0
  145.3455  134.7528  152.2604 C   0  0  0  0  0  0  0  0  0  0  0  0
  144.4058  134.4259  151.2553 C   0  0  0  0  0  0  0  0  0  0  0  0
  144.5602  133.2590  150.4817 C   0  0  0  0  0  0  0  0  0  0  0  0
  145.6560  132.4050  150.7036 C   0  0  0  0  0  0  0  0  0  0  0  0
  146.6002  132.7214  151.6975 C   0  0  0  0  0  0  0  0  0  0  0  0
  146.4487  133.8888  152.4703 C   0  0  0  0  0  0  0  0  0  0  0  0
  145.4202  137.9400  154.7120 H   0  0  0  0  0  0  0  0  0  0  0  0
  145.1313  136.6486  155.8729 H   0  0  0  0  0  0  0  0  0  0  0  0
  147.8459  136.4443  155.7233 H   0  0  0  0  0  0  0  0  0  0  0  0
  148.5486  140.1101  155.9825 H   0  0  0  0  0  0  0  0  0  0  0  0
  149.6217  137.4356  153.9947 H   0  0  0  0  0  0  0  0  0  0  0  0
  151.8835  137.0989  153.2453 H   0  0  0  0  0  0  0  0  0  0  0  0
  148.4286  139.2444  158.1903 H   0  0  0  0  0  0  0  0  0  0  0  0
  149.9777  137.8759  158.5108 H   0  0  0  0  0  0  0  0  0  0  0  0
  146.3498  138.5862  157.3016 H   0  0  0  0  0  0  0  0  0  0  0  0
  146.8445  137.0635  162.2308 H   0  0  0  0  0  0  0  0  0  0  0  0
  147.4583  135.2021  163.7293 H   0  0  0  0  0  0  0  0  0  0  0  0
  148.0609  132.9789  162.7888 H   0  0  0  0  0  0  0  0  0  0  0  0
  148.0497  132.6301  160.3267 H   0  0  0  0  0  0  0  0  0  0  0  0
  147.4415  134.4673  158.8095 H   0  0  0  0  0  0  0  0  0  0  0  0
  143.5525  135.0627  151.0713 H   0  0  0  0  0  0  0  0  0  0  0  0
  143.8345  133.0179  149.7189 H   0  0  0  0  0  0  0  0  0  0  0  0
  145.7720  131.5084  150.1130 H   0  0  0  0  0  0  0  0  0  0  0  0
  147.4401  132.0656  151.8725 H   0  0  0  0  0  0  0  0  0  0  0  0
  147.1879  134.0970  153.2299 H   0  0  0  0  0  0  0  0  0  0  0  0
  1  2  2  0  0  0  0
  2  3  1  0  0  0  0
  2 28  1  0  0  0  0
  3  4  1  0  0  0  0
  4  5  1  0  0  0  0
  4 34  1  0  0  0  0
  4 35  1  0  0  0  0
  5 18  1  0  0  0  0
  5  6  1  0  0  0  0
  5 36  1  0  0  0  0
  6  7  1  0  0  0  0
  7  8  1  0  0  0  0
  7 16  1  0  0  0  0
  7 37  1  0  0  0  0
  8 14  1  0  0  0  0
  8  9  1  0  0  0  0
  9 10  2  0  0  0  0
  9 38  1  0  0  0  0
 10 11  1  0  0  0  0
 10 39  1  0  0  0  0
 11 12  2  0  0  0  0
 11 13  1  0  0  0  0
 13 14  1  0  0  0  0
 14 15  2  0  0  0  0
 16 17  1  0  0  0  0
 16 18  1  0  0  0  0
 16 40  1  0  0  0  0
 17 41  1  0  0  0  0
 18 19  1  0  0  0  0
 18 42  1  0  0  0  0
 19 20  1  0  0  0  0
 20 21  2  0  0  0  0
 20 22  1  0  0  0  0
 22 27  1  0  0  0  0
 22 23  2  0  0  0  0
 23 24  1  0  0  0  0
 23 43  1  0  0  0  0
 24 25  2  0  0  0  0
 24 44  1  0  0  0  0
 25 26  1  0  0  0  0
 25 45  1  0  0  0  0
 26 27  2  0  0  0  0
 26 46  1  0  0  0  0
 27 47  1  0  0  0  0
 28 33  1  0  0  0  0
 28 29  2  0  0  0  0
 29 30  1  0  0  0  0
 29 48  1  0  0  0  0
 30 31  2  0  0  0  0
 30 49  1  0  0  0  0
 31 32  1  0  0  0  0
 31 50  1  0  0  0  0
 32 33  2  0  0  0  0
 32 51  1  0  0  0  0
 33 52  1  0  0  0  0
M  CHG  1  13  -1
M  END
> <s_m_source_file>
AV-unprocessed.smi

> <i_m_source_file_index>
99

> <i_lp_mmshare_version>
43012

> <i_f3d_flags>
0

> <s_epik_input>
W2NIXTFbY0hdW2NIXVtjSF1bY0hdYzFDKD1PKU9bQ0gyXVtDQEBIXTJPW0NAQEhdKG4zW2NIXVtjSF1jKD1PKVtuSF1jMz1PKVtDQEBIXShbT0hdKVtDQEhdMk9DKD1PKWM0W2NIXVtjSF1bY0hdW2NIXVtjSF00

> <s_epik_cmdline>
J2VwaWtfcHl0aG9uJywgJy1waCcsICc3LjAnLCAnLXRuJywgJzgnLCAnLW1hJywgJzIwMCcsICctbWV0YWxfYmluZGluZycsICctaW1hZScsICc8aW5maWxlLm1hZT4nLCAnLW9tYWUnLCAnPG91dGZpbGUubWFlPic=

> <r_lp_tautomer_probability>
1

> <r_epik_Ionization_Penalty>
2.89159

> <r_epik_Ionization_Penalty_Charging>
2.1077e-08

> <r_epik_Ionization_Penalty_Neutral>
2.89159

> <r_epik_State_Penalty>
2.88671

> <r_epik_Charging_Adjusted_Penalty>
2.88671

> <i_epik_Tot_Q>
-1

> <i_epik_Tot_abs_Q>
1

> <r_epik_Metal_State_Penalty>
0.0727308

> <b_epik_Metal_Only>
1

> <s_epik_Chemistry_Notes>
This compound has an ester and may undergo hydrolysis at high or low pH. This compound contains an acetal/aminal-like group ( X-CH(R)-Y where X, Y are N, S, or O) that may be acid/base labile, releasing an aldehyde.

> <s_lp_Force_Field>
OPLS_2005

> <r_lp_Energy>
52.3549

> <b_lp_Chiralities_Consistent>
1

> <s_lp_Variant>
AV-unprocessed.smi:99-32

> <Gold.Version>
5.8.1

> <Gold.Id.Protein>
6NUR|6NUR_protein|mol2

> <Gold.PLP.Fitness>
54.7571

> <Gold.PLP.PLP>
-45.3942

> <Gold.PLP.part.hbond>
-3.2430

> <Gold.PLP.part.metal>
0.0000

> <Gold.PLP.part.buried>
-7.0337

> <Gold.PLP.part.nonpolar>
-35.4515

> <Gold.PLP.part.repulsive>
0.3366

> <Gold.PLP.ligand.clash>
0.0000

> <Gold.PLP.ligand.torsion>
1.1185

> <Gold.PLP.Chemscore.Hbond>
2.8640

> <Gold.PLP.Chemscore.CHOScore>
0.8640

> <Gold.PLP.Chemscore.Metal>
0.0000

> <Gold.Chemscore.Hbonds>
donor molecule, donor type, donor heavy atom, donor atom, acceptor molecule, acceptor atom, score
      P1  H  6934  6947       L1    21  0.86
      P1  H  7997  8009       L1    13  1.59
      L1  C     9    38       P1  7948  1.00

> <Gold.PLP.Chemscore.Internal.Correction>
0.4159

> <Gold.Rescore>
     Score         DG    S(hbond)    S(metal)    S(lipo)     H(rot)  DE(clash)    DE(int)     intcor
     12.35     -13.71       1.75        0.00      88.85       3.13       0.13       1.23       ----

> <Gold.Chemscore.Fitness>
12.3472

> <Gold.Chemscore.DG>
-13.7088

> <Gold.Chemscore.ZeroCoef>
-5.4800

> <Gold.Chemscore.Hbond>
1.7537

> <Gold.Chemscore.Metal>
0.0000

> <Gold.Chemscore.Lipo>
88.8537

> <Gold.Chemscore.Internal_Hbond>
0.0000

> <Gold.Chemscore.DEClash>
0.1288

> <Gold.Chemscore.DEInternal>
1.2328

> <Gold.Chemscore.Rot>
3.1346

> <Gold.Chemscore.Internal.Correction>
   9.000000E+99

> <Gold.Chemscore.Hbonds>
donor molecule, donor type, donor heavy atom, donor atom, acceptor molecule, acceptor atom, score
      P1  H  6934  6947       L1    21  0.82
      P1  H  7997  8009       L1    13  0.35

> <Gold.Chemscore.Hbond.Weighted>
-5.8575

> <Gold.Chemscore.Metal.Weighted>
-0.0000

> <Gold.Chemscore.Lipo.Weighted>
-10.3959

> <Gold.Chemscore.Internal_Hbond.Weighted>
0.0000

> <Gold.Chemscore.DEClash.Weighted>
0.1288

> <Gold.Chemscore.DEInternal.Weighted>
1.2328

> <Gold.Chemscore.Rot.Weighted>
8.0246

> <Gold.Chemscore.Internal.Correction.Weighted>
   9.000000E+99

> <Gold.Protein.RotatedTorsions>
[ 6907 6896 6895 6894 ] final   91.48 input  -60.11 | X-H torsion
[ 7974 7965 7964 7962 ] final   46.64 input  175.53 | X-H torsion
[ 8008 7997 7996 7995 ] final -163.85 input   59.86 | X-H torsion
[ 10167 10162 10161 10158 ] final  -59.10 input  -65.29 | X-H torsion
[ 10718 10713 10712 10709 ] final  -15.12 input   66.30 | X-H torsion
[ 10763 10752 10751 10750 ] final  -99.75 input  -60.55 | X-H torsion
[ 11005 11000 10999 10996 ] final  -90.18 input  -57.11 | X-H torsion

> <Gold.Protein.ActiveResidues>
 VAL166  LYS551  ARG553  GLY616  TRP617  ASP618  TYR619  PRO620  LYS621  CYS622 
 ASP623  PHE694  ASN695  SER759  ASP760  ASP761  ALA762  ILE779  LEU786  VAL792 
 PHE793  MET794  SER795  GLU796  ALA797  LYS798  CYS799  TRP800  GLU811  SER814 

> <Gold.Protein.RotatedAtoms>
  152.5450  134.1651  159.8573 H   0  0  0  0  0  0  0  0  0  0  0  0  # atno 6907 bound_to 6896
  151.1666  133.4804  159.2601 H   0  0  0  0  0  0  0  0  0  0  0  0  # atno 6908 bound_to 6896
  151.1318  135.0145  159.8641 H   0  0  0  0  0  0  0  0  0  0  0  0  # atno 6909 bound_to 6896
  146.0371  139.4834  142.9801 H   0  0  0  0  0  0  0  0  0  0  0  0  # atno 7974 bound_to 7965
  155.8272  140.0928  157.1814 H   0  0  0  0  0  0  0  0  0  0  0  0  # atno 8008 bound_to 7997
  154.3979  140.1426  156.3631 H   0  0  0  0  0  0  0  0  0  0  0  0  # atno 8009 bound_to 7997
  155.8204  140.3446  155.5513 H   0  0  0  0  0  0  0  0  0  0  0  0  # atno 8010 bound_to 7997
  140.6156  143.2401  151.5605 H   0  0  0  0  0  0  0  0  0  0  0  0  # atno 10167 bound_to 10162
  156.6062  130.4837  149.6219 H   0  0  0  0  0  0  0  0  0  0  0  0  # atno 10718 bound_to 10713
  154.7523  135.4960  153.9312 H   0  0  0  0  0  0  0  0  0  0  0  0  # atno 10763 bound_to 10752
  153.1157  135.6720  153.9429 H   0  0  0  0  0  0  0  0  0  0  0  0  # atno 10764 bound_to 10752
  153.9176  135.3092  155.3427 H   0  0  0  0  0  0  0  0  0  0  0  0  # atno 10765 bound_to 10752
  141.1571  133.7676  156.9700 H   0  0  0  0  0  0  0  0  0  0  0  0  # atno 11005 bound_to 11000
  145.6945  141.0154  143.1537 LP  0  0  0  0  0  0  0  0  0  0  0  0  # atno 17320 bound_to 7965
  144.7057  139.8572  143.7431 LP  0  0  0  0  0  0  0  0  0  0  0  0  # atno 17321 bound_to 7965
  139.5396  144.2685  152.1323 LP  0  0  0  0  0  0  0  0  0  0  0  0  # atno 17342 bound_to 10162
  140.1893  144.4767  150.6487 LP  0  0  0  0  0  0  0  0  0  0  0  0  # atno 17343 bound_to 10162
  156.2427  130.6861  151.1571 LP  0  0  0  0  0  0  0  0  0  0  0  0  # atno 17370 bound_to 10713
  157.7266  131.0645  150.5901 LP  0  0  0  0  0  0  0  0  0  0  0  0  # atno 17371 bound_to 10713
  140.1135  134.9462  157.2101 LP  0  0  0  0  0  0  0  0  0  0  0  0  # atno 17394 bound_to 11000
  140.3163  134.2967  155.7256 LP  0  0  0  0  0  0  0  0  0  0  0  0  # atno 17395 bound_to 11000

$$$$
