#       Name:                AV-unprocessed.smi:3181
#       Creating user name   scv26
#       Creation time:       Fri Mar 27 17:58:36 2020


#       File generated by GOLD software.
#

@<TRIPOS>MOLECULE
AV-unprocessed.smi:3181
    44    45     1
SMALL
NO_CHARGES


@<TRIPOS>ATOM
      1 ****        -2.0152  -1.2175  -2.3144 C.3            1 S1                 0.0000
      2 ****        -1.5890  -0.4353  -1.0615 C.3            1 S1                 0.0000
      3 ****        -2.1102  -1.0777   0.2422 C.3            1 S1                 0.0000
      4 ****        -3.5573  -1.1771   0.2854 N.pl3          1 S1                 0.0000
      5 ****        -4.3568  -2.2452   0.2969 C.2            1 S1                 0.0000
      6 ****        -5.6469  -1.9463   0.3542 N.2            1 S1                 0.0000
      7 ****        -5.5651  -0.5827   0.3866 C.2            1 S1                 0.0000
      8 ****        -4.3345  -0.0710   0.3512 N.2            1 S1                 0.0000
      9 ****        -0.1123  -0.3346  -1.0208 N.4            1 S1                 1.0000
     10 ****         0.4486   1.0342  -0.9157 C.3            1 S1                 0.0000
     11 ****         0.1631   1.6908   0.4492 C.3            1 S1                 0.0000
     12 ****         0.9549   1.0227   1.5833 C.3            1 S1                 0.0000
     13 ****         2.4720   1.0244   1.3079 C.3            1 S1                 0.0000
     14 ****         3.2163   0.3658   2.4830 C.3            1 S1                 0.0000
     15 ****         2.7806   0.3551  -0.0575 C.3            1 S1                 0.0000
     16 ****         4.2779   0.3825  -0.4129 C.3            1 S1                 0.0000
     17 ****         1.9635   1.0172  -1.1900 C.3            1 S1                 0.0000
     18 ****        -3.1003  -1.2498  -2.4171 H              1 S1                 0.0000
     19 ****        -1.6529  -2.2454  -2.2828 H              1 S1                 0.0000
     20 ****        -1.6198  -0.7529  -3.2182 H              1 S1                 0.0000
     21 ****        -2.0116   0.5667  -1.1494 H              1 S1                 0.0000
     22 ****        -1.6940  -2.0791   0.3613 H              1 S1                 0.0000
     23 ****        -1.7884  -0.5039   1.1117 H              1 S1                 0.0000
     24 ****        -3.9896  -3.2607   0.2612 H              1 S1                 0.0000
     25 ****        -6.4379   0.0515   0.4397 H              1 S1                 0.0000
     26 ****         0.2354  -0.8921  -0.2538 H              1 S1                 0.0000
     27 ****        -0.0197   1.6335  -1.6980 H              1 S1                 0.0000
     28 ****         0.4426   2.7440   0.3994 H              1 S1                 0.0000
     29 ****        -0.9028   1.6813   0.6757 H              1 S1                 0.0000
     30 ****         0.7467   1.5435   2.5187 H              1 S1                 0.0000
     31 ****         0.6064  -0.0015   1.7223 H              1 S1                 0.0000
     32 ****         2.7977   2.0647   1.2571 H              1 S1                 0.0000
     33 ****         2.9923  -0.6990   2.5494 H              1 S1                 0.0000
     34 ****         2.9316   0.8234   3.4310 H              1 S1                 0.0000
     35 ****         4.2965   0.4774   2.3928 H              1 S1                 0.0000
     36 ****         2.4829  -0.6927   0.0035 H              1 S1                 0.0000
     37 ****         4.6666   1.4013  -0.4162 H              1 S1                 0.0000
     38 ****         4.4529  -0.0413  -1.4020 H              1 S1                 0.0000
     39 ****         4.8725  -0.2015   0.2891 H              1 S1                 0.0000
     40 ****         2.1595   0.5143  -2.1382 H              1 S1                 0.0000
     41 ****         2.3078   2.0444  -1.3205 H              1 S1                 0.0000
     42 ****         0.2353  -0.7316  -1.8820 H              1 S1                 0.0000
     43 ****        -6.4477  -2.5450   0.3693 LP             1 S1                 0.0000
     44 ****        -4.0556   0.8892   0.3688 LP             1 S1                 0.0000
@<TRIPOS>BOND
    1    1    2 1     
    2    1   18 1     
    3    1   19 1     
    4    1   20 1     
    5    2    3 1     
    6    2    9 1     
    7    2   21 1     
    8    3    4 1     
    9    3   22 1     
   10    3   23 1     
   11    4    8 1     
   12    4    5 1     
   13    5    6 2     
   14    5   24 1     
   15    6    7 1     
   16    7    8 2     
   17    7   25 1     
   18    9   10 1     
   19    9   26 1     
   20    9   42 1     
   21   10   17 1     
   22   10   11 1     
   23   10   27 1     
   24   11   12 1     
   25   11   28 1     
   26   11   29 1     
   27   12   13 1     
   28   12   30 1     
   29   12   31 1     
   30   13   14 1     
   31   13   15 1     
   32   13   32 1     
   33   14   33 1     
   34   14   34 1     
   35   14   35 1     
   36   15   16 1     
   37   15   17 1     
   38   15   36 1     
   39   16   37 1     
   40   16   38 1     
   41   16   39 1     
   42   17   40 1     
   43   17   41 1     
   44    6   43 1     
   45    8   44 1     
@<TRIPOS>SUBSTRUCTURE
      1 S1             1
@<TRIPOS>SET
LONE_PAIRS      STATIC     ATOMS    <user>   **** ""
2 43 44
DONOR_HYDROGENS      STATIC     ATOMS    <user>   **** ""
2 26 42
ATOM$BLUE        STATIC     ATOMS    COLORGROUP SYSTEM
2 43 44
ATOM$RED        STATIC     ATOMS    COLORGROUP SYSTEM
2 26 42
