AV-unprocessed.smi:34|AV-procd|sdf|242|dock6
  -GOLD-   2262015593D 1   1.00000     0.00000
 Structure written by MMmdl.
 54 58  0  0  0  0  0  0  0  0  2 V2000
  153.9050  139.7625  161.1238 O   0  0  0  0  0  0  0  0  0  0  0  0
  153.5109  140.3115  160.0927 C   0  0  0  0  0  0  0  0  0  0  0  0
  153.5524  139.8298  158.8245 N   0  5  0  0  0  0  0  0  0  0  0  0
  152.6316  138.9419  158.4194 C   0  0  0  0  0  0  0  0  0  0  0  0
  152.3262  137.8678  159.1917 N   0  0  0  0  0  0  0  0  0  0  0  0
  151.4018  136.9867  158.7906 C   0  0  0  0  0  0  0  0  0  0  0  0
  150.6754  136.9826  157.6683 N   0  0  0  0  0  0  0  0  0  0  0  0
  150.9849  138.0508  156.8777 C   0  0  0  0  0  0  0  0  0  0  0  0
  151.9433  139.0604  157.1809 C   0  0  0  0  0  0  0  0  0  0  0  0
  152.0029  140.0013  156.1639 N   0  0  0  0  0  0  0  0  0  0  0  0
  151.0928  139.5342  155.3116 C   0  0  0  0  0  0  0  0  0  0  0  0
  150.4568  138.3905  155.6444 N   0  0  0  0  0  0  0  0  0  0  0  0
  149.3814  137.6491  154.9095 C   0  0  1  0  0  0  0  0  0  0  0  0
  148.6065  136.9539  155.8408 O   0  0  0  0  0  0  0  0  0  0  0  0
  147.4921  137.7571  156.2045 C   0  0  2  0  0  0  0  0  0  0  0  0
  146.4086  136.8925  156.8576 C   0  0  0  0  0  0  0  0  0  0  0  0
  146.9967  136.0592  157.8427 O   0  0  0  0  0  0  0  0  0  0  0  0
  147.3221  136.5668  159.0475 C   0  0  0  0  0  0  0  0  0  0  0  0
  147.6239  137.7478  159.2305 O   0  0  0  0  0  0  0  0  0  0  0  0
  147.2760  135.5507  160.1380 C   0  0  0  0  0  0  0  0  0  0  0  0
  147.1594  134.1809  159.8042 C   0  0  0  0  0  0  0  0  0  0  0  0
  147.1164  133.1979  160.8118 C   0  0  0  0  0  0  0  0  0  0  0  0
  147.1876  133.5725  162.1661 C   0  0  0  0  0  0  0  0  0  0  0  0
  147.3012  134.9319  162.5114 C   0  0  0  0  0  0  0  0  0  0  0  0
  147.3453  135.9167  161.5051 C   0  0  0  0  0  0  0  0  0  0  0  0
  147.0956  138.3665  154.8627 C   0  0  1  0  0  0  0  0  0  0  0  0
  146.3846  139.4845  155.0145 F   0  0  0  0  0  0  0  0  0  0  0  0
  148.4390  138.6421  154.1991 C   0  0  2  0  0  0  0  0  0  0  0  0
  148.3599  138.4076  152.8081 O   0  0  0  0  0  0  0  0  0  0  0  0
  152.9657  141.7114  160.1811 C   0  0  0  0  0  0  0  0  0  0  0  0
  152.6411  142.2575  161.4438 C   0  0  0  0  0  0  0  0  0  0  0  0
  152.1030  143.5551  161.5463 C   0  0  0  0  0  0  0  0  0  0  0  0
  151.8746  144.3171  160.3853 C   0  0  0  0  0  0  0  0  0  0  0  0
  152.1815  143.7791  159.1215 C   0  0  0  0  0  0  0  0  0  0  0  0
  152.7204  142.4818  159.0181 C   0  0  0  0  0  0  0  0  0  0  0  0
  151.2165  136.1665  159.4680 H   0  0  0  0  0  0  0  0  0  0  0  0
  150.8784  140.0607  154.3934 H   0  0  0  0  0  0  0  0  0  0  0  0
  149.9224  136.9711  154.2476 H   0  0  0  0  0  0  0  0  0  0  0  0
  147.8225  138.5364  156.8934 H   0  0  0  0  0  0  0  0  0  0  0  0
  145.6384  137.5227  157.3045 H   0  0  0  0  0  0  0  0  0  0  0  0
  145.9264  136.2704  156.1023 H   0  0  0  0  0  0  0  0  0  0  0  0
  147.1033  133.8687  158.7711 H   0  0  0  0  0  0  0  0  0  0  0  0
  147.0293  132.1550  160.5444 H   0  0  0  0  0  0  0  0  0  0  0  0
  147.1548  132.8186  162.9387 H   0  0  0  0  0  0  0  0  0  0  0  0
  147.3553  135.2206  163.5508 H   0  0  0  0  0  0  0  0  0  0  0  0
  147.4318  136.9509  161.8049 H   0  0  0  0  0  0  0  0  0  0  0  0
  146.4996  137.6595  154.2834 H   0  0  0  0  0  0  0  0  0  0  0  0
  148.7602  139.6684  154.3852 H   0  0  0  0  0  0  0  0  0  0  0  0
  148.5168  137.4896  152.6486 H   0  0  0  0  0  0  0  0  0  0  0  0
  152.8084  141.6844  162.3445 H   0  0  0  0  0  0  0  0  0  0  0  0
  151.8637  143.9641  162.5166 H   0  0  0  0  0  0  0  0  0  0  0  0
  151.4604  145.3114  160.4638 H   0  0  0  0  0  0  0  0  0  0  0  0
  151.9999  144.3597  158.2290 H   0  0  0  0  0  0  0  0  0  0  0  0
  152.9383  142.0829  158.0377 H   0  0  0  0  0  0  0  0  0  0  0  0
  1  2  2  0  0  0  0
  2  3  1  0  0  0  0
  2 30  1  0  0  0  0
  3  4  1  0  0  0  0
  4  9  1  0  0  0  0
  4  5  2  0  0  0  0
  5  6  1  0  0  0  0
  6  7  2  0  0  0  0
  6 36  1  0  0  0  0
  7  8  1  0  0  0  0
  8 12  1  0  0  0  0
  8  9  2  0  0  0  0
  9 10  1  0  0  0  0
 10 11  2  0  0  0  0
 11 12  1  0  0  0  0
 11 37  1  0  0  0  0
 12 13  1  0  0  0  0
 13 28  1  0  0  0  0
 13 14  1  0  0  0  0
 13 38  1  0  0  0  0
 14 15  1  0  0  0  0
 15 16  1  0  0  0  0
 15 26  1  0  0  0  0
 15 39  1  0  0  0  0
 16 17  1  0  0  0  0
 16 40  1  0  0  0  0
 16 41  1  0  0  0  0
 17 18  1  0  0  0  0
 18 19  2  0  0  0  0
 18 20  1  0  0  0  0
 20 25  1  0  0  0  0
 20 21  2  0  0  0  0
 21 22  1  0  0  0  0
 21 42  1  0  0  0  0
 22 23  2  0  0  0  0
 22 43  1  0  0  0  0
 23 24  1  0  0  0  0
 23 44  1  0  0  0  0
 24 25  2  0  0  0  0
 24 45  1  0  0  0  0
 25 46  1  0  0  0  0
 26 27  1  0  0  0  0
 26 28  1  0  0  0  0
 26 47  1  0  0  0  0
 28 29  1  0  0  0  0
 28 48  1  0  0  0  0
 29 49  1  0  0  0  0
 30 35  1  0  0  0  0
 30 31  2  0  0  0  0
 31 32  1  0  0  0  0
 31 50  1  0  0  0  0
 32 33  2  0  0  0  0
 32 51  1  0  0  0  0
 33 34  1  0  0  0  0
 33 52  1  0  0  0  0
 34 35  2  0  0  0  0
 34 53  1  0  0  0  0
 35 54  1  0  0  0  0
M  CHG  1   3  -1
M  END
> <s_m_source_file>
AV-unprocessed.smi

> <i_m_source_file_index>
34

> <i_lp_mmshare_version>
43012

> <i_f3d_flags>
0

> <s_epik_input>
W2NIXTFbY0hdW2NIXVtjSF1bY0hdYzFDKD1PKVtOSF1jKG5bY0hdbjIpYyhjMjMpbltjSF1uM1tDQEBIXTRPW0NASF0oW0NAQEhdKEYpW0NASF00W09IXSlbQ0gyXU9DKD1PKWM1W2NIXVtjSF1bY0hdW2NIXVtjSF01

> <s_epik_cmdline>
J2VwaWtfcHl0aG9uJywgJy1waCcsICc3LjAnLCAnLXRuJywgJzgnLCAnLW1hJywgJzIwMCcsICctbWV0YWxfYmluZGluZycsICctaW1hZScsICc8aW5maWxlLm1hZT4nLCAnLW9tYWUnLCAnPG91dGZpbGUubWFlPic=

> <r_lp_tautomer_probability>
1

> <r_epik_Ionization_Penalty>
4.33227

> <r_epik_Ionization_Penalty_Charging>
3.41027

> <r_epik_Ionization_Penalty_Neutral>
0.922001

> <r_epik_State_Penalty>
3.41358

> <r_epik_Charging_Adjusted_Penalty>
6.82385

> <i_epik_Tot_Q>
-1

> <i_epik_Tot_abs_Q>
1

> <r_epik_Metal_State_Penalty>
0.496292

> <b_epik_Metal_Only>
1

> <s_epik_Chemistry_Notes>
This compound has an ester and may undergo hydrolysis at high or low pH. This compound contains an acetal/aminal-like group ( X-CH(R)-Y where X, Y are N, S, or O) that may be acid/base labile, releasing an aldehyde.

> <s_lp_Force_Field>
OPLS_2005

> <r_lp_Energy>
39.213

> <b_lp_Chiralities_Consistent>
1

> <s_lp_Variant>
AV-unprocessed.smi:34-28

> <Gold.Version>
5.8.1

> <Gold.Id.Protein>
6NUR|6NUR_protein|mol2

> <Gold.PLP.Fitness>
66.1125

> <Gold.PLP.PLP>
-60.5967

> <Gold.PLP.part.hbond>
-4.3492

> <Gold.PLP.part.metal>
0.0000

> <Gold.PLP.part.buried>
-6.6692

> <Gold.PLP.part.nonpolar>
-50.1393

> <Gold.PLP.part.repulsive>
0.0372

> <Gold.PLP.ligand.clash>
0.0000

> <Gold.PLP.ligand.torsion>
2.4945

> <Gold.PLP.Chemscore.Hbond>
3.3040

> <Gold.PLP.Chemscore.CHOScore>
0.0000

> <Gold.PLP.Chemscore.Metal>
0.0000

> <Gold.Chemscore.Hbonds>
donor molecule, donor type, donor heavy atom, donor atom, acceptor molecule, acceptor atom, score
      L1  H    29    49       P1  7948  0.99
      P1  H  6934  6947       L1    19  0.39
      P1  H  7997  8009       L1     3  1.89

> <Gold.PLP.Chemscore.Internal.Correction>
0.5928

> <Gold.Rescore>
     Score         DG    S(hbond)    S(metal)    S(lipo)     H(rot)  DE(clash)    DE(int)     intcor
     16.44     -20.92       2.52        0.00     119.02       2.69       0.06       4.41       ----

> <Gold.Chemscore.Fitness>
16.4424

> <Gold.Chemscore.DG>
-20.9199

> <Gold.Chemscore.ZeroCoef>
-5.4800

> <Gold.Chemscore.Hbond>
2.5184

> <Gold.Chemscore.Metal>
0.0000

> <Gold.Chemscore.Lipo>
119.0241

> <Gold.Chemscore.Internal_Hbond>
0.0000

> <Gold.Chemscore.DEClash>
0.0643

> <Gold.Chemscore.DEInternal>
4.4133

> <Gold.Chemscore.Rot>
2.6944

> <Gold.Chemscore.Internal.Correction>
   9.000000E+99

> <Gold.Chemscore.Hbonds>
donor molecule, donor type, donor heavy atom, donor atom, acceptor molecule, acceptor atom, score
      L1  H    29    49       P1  7948  0.91
      P1  H  6934  6947       L1    19  0.38
      P1  H  7997  8009       L1     3  0.44

> <Gold.Chemscore.Hbond.Weighted>
-8.4116

> <Gold.Chemscore.Metal.Weighted>
-0.0000

> <Gold.Chemscore.Lipo.Weighted>
-13.9258

> <Gold.Chemscore.Internal_Hbond.Weighted>
0.0000

> <Gold.Chemscore.DEClash.Weighted>
0.0643

> <Gold.Chemscore.DEInternal.Weighted>
4.4133

> <Gold.Chemscore.Rot.Weighted>
6.8975

> <Gold.Chemscore.Internal.Correction.Weighted>
   9.000000E+99

> <Gold.Protein.RotatedTorsions>
[ 6907 6896 6895 6894 ] final  -14.89 input  -60.11 | X-H torsion
[ 7974 7965 7964 7962 ] final  164.87 input  175.53 | X-H torsion
[ 8008 7997 7996 7995 ] final  135.78 input   59.86 | X-H torsion
[ 10167 10162 10161 10158 ] final -110.20 input  -65.29 | X-H torsion
[ 10718 10713 10712 10709 ] final   66.64 input   66.30 | X-H torsion
[ 10763 10752 10751 10750 ] final   43.87 input  -60.55 | X-H torsion
[ 11005 11000 10999 10996 ] final  -48.40 input  -57.11 | X-H torsion

> <Gold.Protein.ActiveResidues>
 VAL166  LYS551  ARG553  GLY616  TRP617  ASP618  TYR619  PRO620  LYS621  CYS622 
 ASP623  PHE694  ASN695  SER759  ASP760  ASP761  ALA762  ILE779  LEU786  VAL792 
 PHE793  MET794  SER795  GLU796  ALA797  LYS798  CYS799  TRP800  GLU811  SER814 

> <Gold.Protein.RotatedAtoms>
  151.3325  135.0845  159.9343 H   0  0  0  0  0  0  0  0  0  0  0  0  # atno 6907 bound_to 6896
  152.5231  133.9529  159.7690 H   0  0  0  0  0  0  0  0  0  0  0  0  # atno 6908 bound_to 6896
  150.9870  133.6135  159.2744 H   0  0  0  0  0  0  0  0  0  0  0  0  # atno 6909 bound_to 6896
  144.7526  139.8389  143.6361 H   0  0  0  0  0  0  0  0  0  0  0  0  # atno 7974 bound_to 7965
  156.3003  140.2462  156.3637 H   0  0  0  0  0  0  0  0  0  0  0  0  # atno 8008 bound_to 7997
  154.8853  140.0411  157.1826 H   0  0  0  0  0  0  0  0  0  0  0  0  # atno 8009 bound_to 7997
  154.8653  140.2927  155.5518 H   0  0  0  0  0  0  0  0  0  0  0  0  # atno 8010 bound_to 7997
  140.1470  143.4231  152.1522 H   0  0  0  0  0  0  0  0  0  0  0  0  # atno 10167 bound_to 10162
  157.6182  130.9278  150.0136 H   0  0  0  0  0  0  0  0  0  0  0  0  # atno 10718 bound_to 10713
  152.9852  135.6088  154.3181 H   0  0  0  0  0  0  0  0  0  0  0  0  # atno 10763 bound_to 10752
  154.2893  135.2775  155.2664 H   0  0  0  0  0  0  0  0  0  0  0  0  # atno 10764 bound_to 10752
  154.4967  135.5878  153.6556 H   0  0  0  0  0  0  0  0  0  0  0  0  # atno 10765 bound_to 10752
  141.0698  133.6682  156.3436 H   0  0  0  0  0  0  0  0  0  0  0  0  # atno 11005 bound_to 11000
  146.1497  139.4576  143.0057 LP  0  0  0  0  0  0  0  0  0  0  0  0  # atno 17320 bound_to 7965
  145.6890  141.0170  143.1566 LP  0  0  0  0  0  0  0  0  0  0  0  0  # atno 17321 bound_to 7965
  139.5444  144.7285  151.4630 LP  0  0  0  0  0  0  0  0  0  0  0  0  # atno 17342 bound_to 10162
  140.6726  143.8261  150.7018 LP  0  0  0  0  0  0  0  0  0  0  0  0  # atno 17343 bound_to 10162
  156.1313  130.3643  149.9727 LP  0  0  0  0  0  0  0  0  0  0  0  0  # atno 17370 bound_to 10713
  156.7787  130.9213  151.3645 LP  0  0  0  0  0  0  0  0  0  0  0  0  # atno 17371 bound_to 10713
  140.5697  134.5853  157.5454 LP  0  0  0  0  0  0  0  0  0  0  0  0  # atno 17394 bound_to 11000
  139.9512  134.7613  156.0444 LP  0  0  0  0  0  0  0  0  0  0  0  0  # atno 17395 bound_to 11000

$$$$
