#       Name:                AV-unprocessed.smi:1406
#       Creating user name   scv26
#       Creation time:       Fri Mar 27 05:35:17 2020


#       File generated by GOLD software.
#

@<TRIPOS>MOLECULE
AV-unprocessed.smi:1406
    45    47     1
SMALL
NO_CHARGES


@<TRIPOS>ATOM
      1 ****        -3.5894  -2.7361  -1.3904 C.3            1 S1                 0.0000
      2 ****        -2.8244  -1.7817  -0.4512 C.3            1 S1                 0.0000
      3 ****        -1.3322  -1.6780  -0.8022 C.2            1 S1                 0.0000
      4 ****        -0.7386  -2.6272  -1.3151 O.2            1 S1                 0.0000
      5 ****        -0.7310  -0.5139  -0.5109 N.am           1 S1                 0.0000
      6 ****         0.6858  -0.2378  -0.7225 C.3            1 S1                 0.0000
      7 ****         1.0852  -0.0746  -2.2020 C.3            1 S1                 0.0000
      8 ****         2.1520   1.0380  -2.2164 C.3            1 S1                 0.0000
      9 ****         2.3674   1.3915  -0.7999 N.4            1 S1                 1.0000
     10 ****         2.8784   2.7493  -0.5123 C.3            1 S1                 0.0000
     11 ****         3.1134   2.8922   1.0053 C.3            1 S1                 0.0000
     12 ****         1.8566   2.5187   1.8188 C.3            1 S1                 0.0000
     13 ****         1.3170   1.1345   1.4084 C.3            1 S1                 0.0000
     14 ****         1.1001   1.1004  -0.1130 C.3            1 S1                 0.0000
     15 ****        -2.9828  -2.1438   0.9517 N.pl3          1 S1                 0.0000
     16 ****        -3.2079  -1.3710   2.0166 C.2            1 S1                 0.0000
     17 ****        -3.2465  -2.0325   3.1645 N.2            1 S1                 0.0000
     18 ****        -3.0131  -3.2980   2.7062 C.2            1 S1                 0.0000
     19 ****        -2.8364  -3.4190   1.3909 N.2            1 S1                 0.0000
     20 ****        -3.5092  -2.4129  -2.4288 H              1 S1                 0.0000
     21 ****        -4.6499  -2.7609  -1.1379 H              1 S1                 0.0000
     22 ****        -3.2141  -3.7586  -1.3335 H              1 S1                 0.0000
     23 ****        -3.2618  -0.7895  -0.5763 H              1 S1                 0.0000
     24 ****        -1.2866   0.2173  -0.0909 H              1 S1                 0.0000
     25 ****         1.2840  -1.0338  -0.2739 H              1 S1                 0.0000
     26 ****         1.4673  -1.0106  -2.6113 H              1 S1                 0.0000
     27 ****         0.2326   0.2258  -2.8128 H              1 S1                 0.0000
     28 ****         3.0852   0.7130  -2.6775 H              1 S1                 0.0000
     29 ****         1.7829   1.9029  -2.7698 H              1 S1                 0.0000
     30 ****         3.8100   2.9127  -1.0552 H              1 S1                 0.0000
     31 ****         2.1650   3.4974  -0.8613 H              1 S1                 0.0000
     32 ****         3.9388   2.2442   1.3031 H              1 S1                 0.0000
     33 ****         3.4227   3.9109   1.2412 H              1 S1                 0.0000
     34 ****         2.0822   2.5332   2.8854 H              1 S1                 0.0000
     35 ****         1.0841   3.2716   1.6563 H              1 S1                 0.0000
     36 ****         2.0228   0.3578   1.7061 H              1 S1                 0.0000
     37 ****         0.3823   0.9262   1.9300 H              1 S1                 0.0000
     38 ****         0.3701   1.8637  -0.3932 H              1 S1                 0.0000
     39 ****        -3.3407  -0.3011   1.9518 H              1 S1                 0.0000
     40 ****        -2.9649  -4.1546   3.3623 H              1 S1                 0.0000
     41 ****         3.0436   0.7331  -0.4402 H              1 S1                 0.0000
     42 ****        -1.2279  -3.4777  -1.5077 LP             1 S1                 0.0000
     43 ****         0.2328  -2.5474  -1.5390 LP             1 S1                 0.0000
     44 ****        -3.4014  -1.7014   4.0953 LP             1 S1                 0.0000
     45 ****        -2.6439  -4.2442   0.8599 LP             1 S1                 0.0000
@<TRIPOS>BOND
    1    1    2 1     
    2    1   20 1     
    3    1   21 1     
    4    1   22 1     
    5    2    3 1     
    6    2   15 1     
    7    2   23 1     
    8    3    4 2     
    9    3    5 am    
   10    5    6 1     
   11    5   24 1     
   12    6   14 1     
   13    6    7 1     
   14    6   25 1     
   15    7    8 1     
   16    7   26 1     
   17    7   27 1     
   18    8    9 1     
   19    8   28 1     
   20    8   29 1     
   21    9   14 1     
   22    9   10 1     
   23    9   41 1     
   24   10   11 1     
   25   10   30 1     
   26   10   31 1     
   27   11   12 1     
   28   11   32 1     
   29   11   33 1     
   30   12   13 1     
   31   12   34 1     
   32   12   35 1     
   33   13   14 1     
   34   13   36 1     
   35   13   37 1     
   36   14   38 1     
   37   15   19 1     
   38   15   16 1     
   39   16   17 2     
   40   16   39 1     
   41   17   18 1     
   42   18   19 2     
   43   18   40 1     
   44    4   42 1     
   45    4   43 1     
   46   17   44 1     
   47   19   45 1     
@<TRIPOS>SUBSTRUCTURE
      1 S1             1
@<TRIPOS>SET
LONE_PAIRS      STATIC     ATOMS    <user>   **** ""
4 42 43 44 45
DONOR_HYDROGENS      STATIC     ATOMS    <user>   **** ""
2 24 41
ATOM$BLUE        STATIC     ATOMS    COLORGROUP SYSTEM
4 42 43 44 45
ATOM$RED        STATIC     ATOMS    COLORGROUP SYSTEM
2 24 41
