AV-unprocessed.smi:3026|AV-procd|sdf|11513|dock1
  -GOLD-   2272016453D 1   1.00000     0.00000
 Structure written by MMmdl.
 33 34  0  0  0  0  0  0  0  0  1 V2000
  151.5335  145.5822  159.7836 C   0  0  0  0  0  0  0  0  0  0  0  0
  152.0194  144.2904  160.4049 C   0  0  0  0  0  0  0  0  0  0  0  0
  152.3968  144.2200  161.7616 C   0  0  0  0  0  0  0  0  0  0  0  0
  152.8350  142.9614  162.2197 C   0  0  0  0  0  0  0  0  0  0  0  0
  152.8879  141.8858  161.4043 N   0  0  0  0  0  0  0  0  0  0  0  0
  152.4973  142.0612  160.1372 C   0  0  0  0  0  0  0  0  0  0  0  0
  152.5850  140.9468  159.3118 N   0  0  0  0  0  0  0  0  0  0  0  0
  153.8426  140.2243  159.4818 C   0  0  0  0  0  0  0  0  0  0  0  0
  153.7827  138.8468  158.8123 C   0  0  0  0  0  0  0  0  0  0  0  0
  153.4732  139.0236  157.4390 O   0  0  0  0  0  0  0  0  0  0  0  0
  152.1930  139.6167  157.2669 C   0  0  0  0  0  0  0  0  0  0  0  0
  152.1356  141.0242  157.9119 C   0  0  1  0  0  0  0  0  0  0  0  0
  150.7057  141.6203  157.7852 C   0  0  0  0  0  0  0  0  0  0  0  0
  150.2006  141.8060  156.3434 C   0  0  0  0  0  0  0  0  0  0  0  0
  148.9023  142.3608  156.3393 O   0  0  0  0  0  0  0  0  0  0  0  0
  152.0772  143.2117  159.5944 N   0  0  0  0  0  0  0  0  0  0  0  0
  151.2621  146.3080  160.5506 H   0  0  0  0  0  0  0  0  0  0  0  0
  150.6564  145.4028  159.1610 H   0  0  0  0  0  0  0  0  0  0  0  0
  152.3155  146.0170  159.1607 H   0  0  0  0  0  0  0  0  0  0  0  0
  152.3554  145.0790  162.4151 H   0  0  0  0  0  0  0  0  0  0  0  0
  153.1459  142.8177  163.2439 H   0  0  0  0  0  0  0  0  0  0  0  0
  154.6531  140.8135  159.0507 H   0  0  0  0  0  0  0  0  0  0  0  0
  154.0679  140.1026  160.5422 H   0  0  0  0  0  0  0  0  0  0  0  0
  154.7461  138.3445  158.8979 H   0  0  0  0  0  0  0  0  0  0  0  0
  153.0423  138.2057  159.2937 H   0  0  0  0  0  0  0  0  0  0  0  0
  152.0060  139.6751  156.1956 H   0  0  0  0  0  0  0  0  0  0  0  0
  151.4260  138.9632  157.6863 H   0  0  0  0  0  0  0  0  0  0  0  0
  152.8371  141.6717  157.3840 H   0  0  0  0  0  0  0  0  0  0  0  0
  150.0058  140.9807  158.3244 H   0  0  0  0  0  0  0  0  0  0  0  0
  150.6434  142.5929  158.2721 H   0  0  0  0  0  0  0  0  0  0  0  0
  150.8699  142.4316  155.7544 H   0  0  0  0  0  0  0  0  0  0  0  0
  150.1591  140.8388  155.8421 H   0  0  0  0  0  0  0  0  0  0  0  0
  148.9768  143.3019  156.3865 H   0  0  0  0  0  0  0  0  0  0  0  0
  1  2  1  0  0  0  0
  1 17  1  0  0  0  0
  1 18  1  0  0  0  0
  1 19  1  0  0  0  0
  2 16  1  0  0  0  0
  2  3  2  0  0  0  0
  3  4  1  0  0  0  0
  3 20  1  0  0  0  0
  4  5  2  0  0  0  0
  4 21  1  0  0  0  0
  5  6  1  0  0  0  0
  6  7  1  0  0  0  0
  6 16  2  0  0  0  0
  7 12  1  0  0  0  0
  7  8  1  0  0  0  0
  8  9  1  0  0  0  0
  8 22  1  0  0  0  0
  8 23  1  0  0  0  0
  9 10  1  0  0  0  0
  9 24  1  0  0  0  0
  9 25  1  0  0  0  0
 10 11  1  0  0  0  0
 11 12  1  0  0  0  0
 11 26  1  0  0  0  0
 11 27  1  0  0  0  0
 12 13  1  0  0  0  0
 12 28  1  0  0  0  0
 13 14  1  0  0  0  0
 13 29  1  0  0  0  0
 13 30  1  0  0  0  0
 14 15  1  0  0  0  0
 14 31  1  0  0  0  0
 14 32  1  0  0  0  0
 15 33  1  0  0  0  0
M  END
> <s_m_source_file>
AV-unprocessed.smi

> <i_m_source_file_index>
3026

> <i_lp_mmshare_version>
43012

> <i_f3d_flags>
0

> <s_epik_input>
W0NIM11jMVtjSF1bY0hdbmMobjEpTjJbQ0gyXVtDSDJdT1tDSDJdW0NASF0yW0NIMl1bQ0gyXVtPSF0=

> <s_epik_cmdline>
J2VwaWtfcHl0aG9uJywgJy1waCcsICc3LjAnLCAnLXRuJywgJzgnLCAnLW1hJywgJzIwMCcsICctbWV0YWxfYmluZGluZycsICctaW1hZScsICc8aW5maWxlLm1hZT4nLCAnLW9tYWUnLCAnPG91dGZpbGUubWFlPic=

> <r_lp_tautomer_probability>
1

> <r_epik_Ionization_Penalty>
6.52665e-05

> <r_epik_Ionization_Penalty_Charging>
0

> <r_epik_Ionization_Penalty_Neutral>
6.52665e-05

> <r_epik_State_Penalty>
-0

> <r_epik_Charging_Adjusted_Penalty>
0

> <i_epik_Tot_Q>
0

> <i_epik_Tot_abs_Q>
0

> <r_epik_Metal_State_Penalty>
-0

> <b_epik_Metal_Only>
0

> <s_lp_Force_Field>
OPLS_2005

> <r_lp_Energy>
15.2375

> <b_lp_Chiralities_Consistent>
1

> <s_lp_Variant>
AV-unprocessed.smi:3026-1

> <Gold.Version>
5.8.1

> <Gold.Id.Protein>
6NUR|6NUR_protein|mol2

> <Gold.PLP.Fitness>
39.1285

> <Gold.PLP.PLP>
-33.2061

> <Gold.PLP.part.hbond>
-2.0000

> <Gold.PLP.part.metal>
0.0000

> <Gold.PLP.part.buried>
-4.5214

> <Gold.PLP.part.nonpolar>
-25.7543

> <Gold.PLP.part.repulsive>
0.0342

> <Gold.PLP.ligand.clash>
0.0000

> <Gold.PLP.ligand.torsion>
0.1960

> <Gold.PLP.Chemscore.Hbond>
2.0000

> <Gold.PLP.Chemscore.CHOScore>
0.0000

> <Gold.PLP.Chemscore.Metal>
0.0000

> <Gold.Chemscore.Hbonds>
donor molecule, donor type, donor heavy atom, donor atom, acceptor molecule, acceptor atom, score
      L1  H    15    33       P1  8028  0.99
      P1  H  7997  8009       L1    10  1.00

> <Gold.PLP.Chemscore.Internal.Correction>
0.3144

> <Gold.Rescore>
     Score         DG    S(hbond)    S(metal)    S(lipo)     H(rot)  DE(clash)    DE(int)     intcor
     13.54     -15.21       1.45        0.00      85.23       1.99       0.10       1.56       ----

> <Gold.Chemscore.Fitness>
13.5369

> <Gold.Chemscore.DG>
-15.2050

> <Gold.Chemscore.ZeroCoef>
-5.4800

> <Gold.Chemscore.Hbond>
1.4484

> <Gold.Chemscore.Metal>
0.0000

> <Gold.Chemscore.Lipo>
85.2349

> <Gold.Chemscore.Internal_Hbond>
0.0000

> <Gold.Chemscore.DEClash>
0.1036

> <Gold.Chemscore.DEInternal>
1.5646

> <Gold.Chemscore.Rot>
1.9864

> <Gold.Chemscore.Internal.Correction>
   9.000000E+99

> <Gold.Chemscore.Hbonds>
donor molecule, donor type, donor heavy atom, donor atom, acceptor molecule, acceptor atom, score
      L1  H    15    33       P1  8028  0.91
      P1  H  7997  8009       L1    10  0.34

> <Gold.Chemscore.Hbond.Weighted>
-4.8377

> <Gold.Chemscore.Metal.Weighted>
-0.0000

> <Gold.Chemscore.Lipo.Weighted>
-9.9725

> <Gold.Chemscore.Internal_Hbond.Weighted>
0.0000

> <Gold.Chemscore.DEClash.Weighted>
0.1036

> <Gold.Chemscore.DEInternal.Weighted>
1.5646

> <Gold.Chemscore.Rot.Weighted>
5.0851

> <Gold.Chemscore.Internal.Correction.Weighted>
   9.000000E+99

> <Gold.Protein.RotatedTorsions>
[ 6907 6896 6895 6894 ] final  -90.21 input  -60.11 | X-H torsion
[ 7974 7965 7964 7962 ] final  130.87 input  175.53 | X-H torsion
[ 8008 7997 7996 7995 ] final  164.37 input   59.86 | X-H torsion
[ 10167 10162 10161 10158 ] final -155.55 input  -65.29 | X-H torsion
[ 10718 10713 10712 10709 ] final  -67.76 input   66.30 | X-H torsion
[ 10763 10752 10751 10750 ] final   56.58 input  -60.55 | X-H torsion
[ 11005 11000 10999 10996 ] final  165.47 input  -57.11 | X-H torsion

> <Gold.Protein.ActiveResidues>
 VAL166  LYS551  ARG553  GLY616  TRP617  ASP618  TYR619  PRO620  LYS621  CYS622 
 ASP623  PHE694  ASN695  SER759  ASP760  ASP761  ALA762  ILE779  LEU786  VAL792 
 PHE793  MET794  SER795  GLU796  ALA797  LYS798  CYS799  TRP800  GLU811  SER814 

> <Gold.Protein.RotatedAtoms>
  150.6880  134.2468  159.4494 H   0  0  0  0  0  0  0  0  0  0  0  0  # atno 6907 bound_to 6896
  152.0408  134.9710  160.0583 H   0  0  0  0  0  0  0  0  0  0  0  0  # atno 6908 bound_to 6896
  152.1212  133.4320  159.4713 H   0  0  0  0  0  0  0  0  0  0  0  0  # atno 6909 bound_to 6896
  145.0133  139.4200  143.5234 H   0  0  0  0  0  0  0  0  0  0  0  0  # atno 7974 bound_to 7965
  156.1885  140.1698  156.8138 H   0  0  0  0  0  0  0  0  0  0  0  0  # atno 8008 bound_to 7997
  154.5443  140.0730  156.8595 H   0  0  0  0  0  0  0  0  0  0  0  0  # atno 8009 bound_to 7997
  155.3153  140.3370  155.4245 H   0  0  0  0  0  0  0  0  0  0  0  0  # atno 8010 bound_to 7997
  139.6922  143.9402  152.2390 H   0  0  0  0  0  0  0  0  0  0  0  0  # atno 10167 bound_to 10162
  156.0540  130.4283  150.1901 H   0  0  0  0  0  0  0  0  0  0  0  0  # atno 10718 bound_to 10713
  152.9834  135.5671  154.5252 H   0  0  0  0  0  0  0  0  0  0  0  0  # atno 10763 bound_to 10752
  154.4733  135.2785  155.1628 H   0  0  0  0  0  0  0  0  0  0  0  0  # atno 10764 bound_to 10752
  154.3167  135.6277  153.5543 H   0  0  0  0  0  0  0  0  0  0  0  0  # atno 10765 bound_to 10752
  140.2564  134.7936  157.3550 H   0  0  0  0  0  0  0  0  0  0  0  0  # atno 11005 bound_to 11000
  146.3473  139.9589  142.8720 LP  0  0  0  0  0  0  0  0  0  0  0  0  # atno 17320 bound_to 7965
  145.1994  140.9848  143.4164 LP  0  0  0  0  0  0  0  0  0  0  0  0  # atno 17321 bound_to 7965
  139.9221  144.6793  150.8451 LP  0  0  0  0  0  0  0  0  0  0  0  0  # atno 17342 bound_to 10162
  140.7686  143.3368  151.2293 LP  0  0  0  0  0  0  0  0  0  0  0  0  # atno 17343 bound_to 10162
  156.9980  130.9914  151.3398 LP  0  0  0  0  0  0  0  0  0  0  0  0  # atno 17370 bound_to 10713
  157.5494  130.8172  149.8126 LP  0  0  0  0  0  0  0  0  0  0  0  0  # atno 17371 bound_to 10713
  140.1507  134.4853  155.7963 LP  0  0  0  0  0  0  0  0  0  0  0  0  # atno 17394 bound_to 11000
  141.2195  133.6861  156.7374 LP  0  0  0  0  0  0  0  0  0  0  0  0  # atno 17395 bound_to 11000

$$$$
