#       Name:                AV-unprocessed.smi:3032
#       Creating user name   scv26
#       Creation time:       Fri Mar 27 16:52:27 2020


#       File generated by GOLD software.
#

@<TRIPOS>MOLECULE
AV-unprocessed.smi:3032
    41    42     1
SMALL
NO_CHARGES


@<TRIPOS>ATOM
      1 ****        -2.1287   1.6010   1.5602 C.3            1 S1                 0.0000
      2 ****        -1.4507   1.3091   0.2142 C.3            1 S1                 0.0000
      3 ****        -2.0699   2.1440  -0.9219 C.3            1 S1                 0.0000
      4 ****        -1.3775   1.8706  -2.2659 C.3            1 S1                 0.0000
      5 ****        -1.3768   0.3682  -2.6137 C.3            1 S1                 0.0000
      6 ****        -0.8361  -0.5350  -1.4779 C.3            1 S1                 0.0000
      7 ****         0.6985  -0.5273  -1.3492 C.2            1 S1                 0.0000
      8 ****         1.3609   0.4677  -1.6429 O.2            1 S1                 0.0000
      9 ****         1.2530  -1.6596  -0.8901 N.am           1 S1                 0.0000
     10 ****         2.6724  -1.8503  -0.6046 C.3            1 S1                 0.0000
     11 ****         3.1622  -1.0393   0.6137 C.3            1 S1                 0.0000
     12 ****         2.2750  -1.1489   1.8146 C.2            1 S1                 0.0000
     13 ****         1.4323  -0.1761   2.1689 N.pl3          1 S1                 0.0000
     14 ****         0.7472  -0.5574   3.2669 N.2            1 S1                 0.0000
     15 ****         1.2493  -1.7683   3.5013 C.2            1 S1                 0.0000
     16 ****         2.2096  -2.1974   2.6279 N.2            1 S1                 0.0000
     17 ****        -1.5213  -0.1916  -0.1357 C.3            1 S1                 0.0000
     18 ****         1.2904   0.7125   1.7098 H              1 S1                 0.0000
     19 ****        -3.1877   1.3425   1.5358 H              1 S1                 0.0000
     20 ****        -2.0489   2.6570   1.8191 H              1 S1                 0.0000
     21 ****        -1.6651   1.0298   2.3650 H              1 S1                 0.0000
     22 ****        -0.4025   1.5943   0.3129 H              1 S1                 0.0000
     23 ****        -3.1333   1.9168  -1.0087 H              1 S1                 0.0000
     24 ****        -2.0000   3.2066  -0.6865 H              1 S1                 0.0000
     25 ****        -1.8802   2.4276  -3.0569 H              1 S1                 0.0000
     26 ****        -0.3589   2.2559  -2.2337 H              1 S1                 0.0000
     27 ****        -2.3994   0.0641  -2.8406 H              1 S1                 0.0000
     28 ****        -0.8103   0.2036  -3.5313 H              1 S1                 0.0000
     29 ****        -1.1100  -1.5602  -1.7332 H              1 S1                 0.0000
     30 ****         0.6399  -2.4334  -0.6776 H              1 S1                 0.0000
     31 ****         2.8160  -2.9127  -0.4066 H              1 S1                 0.0000
     32 ****         3.2711  -1.6172  -1.4860 H              1 S1                 0.0000
     33 ****         4.1663  -1.3622   0.8906 H              1 S1                 0.0000
     34 ****         3.2498   0.0136   0.3428 H              1 S1                 0.0000
     35 ****         0.9100  -2.3678   4.3331 H              1 S1                 0.0000
     36 ****        -1.0804  -0.7798   0.6708 H              1 S1                 0.0000
     37 ****        -2.5664  -0.5000  -0.1850 H              1 S1                 0.0000
     38 ****         0.9034   1.2934  -1.9729 LP             1 S1                 0.0000
     39 ****         2.3566   0.4503  -1.5515 LP             1 S1                 0.0000
     40 ****         0.0438  -0.0592   3.7739 LP             1 S1                 0.0000
     41 ****         2.7190  -3.0577   2.6071 LP             1 S1                 0.0000
@<TRIPOS>BOND
    1    1    2 1     
    2    1   19 1     
    3    1   20 1     
    4    1   21 1     
    5    2   17 1     
    6    2    3 1     
    7    2   22 1     
    8    3    4 1     
    9    3   23 1     
   10    3   24 1     
   11    4    5 1     
   12    4   25 1     
   13    4   26 1     
   14    5    6 1     
   15    5   27 1     
   16    5   28 1     
   17    6    7 1     
   18    6   17 1     
   19    6   29 1     
   20    7    8 2     
   21    7    9 am    
   22    9   10 1     
   23    9   30 1     
   24   10   11 1     
   25   10   31 1     
   26   10   32 1     
   27   11   33 1     
   28   11   34 1     
   29   11   12 1     
   30   12   16 2     
   31   12   13 1     
   32   13   18 1     
   33   13   14 1     
   34   14   15 2     
   35   15   16 1     
   36   15   35 1     
   37   17   36 1     
   38   17   37 1     
   39    8   38 1     
   40    8   39 1     
   41   14   40 1     
   42   16   41 1     
@<TRIPOS>SUBSTRUCTURE
      1 S1             1
@<TRIPOS>SET
LONE_PAIRS      STATIC     ATOMS    <user>   **** ""
4 38 39 40 41
DONOR_HYDROGENS      STATIC     ATOMS    <user>   **** ""
2 30 18
ATOM$BLUE        STATIC     ATOMS    COLORGROUP SYSTEM
4 38 39 40 41
ATOM$RED        STATIC     ATOMS    COLORGROUP SYSTEM
2 30 18
