AV-unprocessed.smi:939|AV-procd|sdf|4218|dock10
  -GOLD-   22720 2123D 1   1.00000     0.00000
 Structure written by MMmdl.
 36 37  0  0  0  0  0  0  0  0  1 V2000
  146.3733  142.4109  158.5308 C   0  0  0  0  0  0  0  0  0  0  0  0
  145.4082  143.1994  157.6388 C   0  0  0  0  0  0  0  0  0  0  0  0
  145.7489  143.0743  156.1832 C   0  0  0  0  0  0  0  0  0  0  0  0
  146.8261  142.2707  155.8001 N   0  0  0  0  0  0  0  0  0  0  0  0
  147.0148  142.2528  154.4785 C   0  0  0  0  0  0  0  0  0  0  0  0
  148.0550  141.4165  153.8028 C   0  0  0  0  0  0  0  0  0  0  0  0
  149.2035  140.9882  154.7372 C   0  0  0  0  0  0  0  0  0  0  0  0
  149.6257  142.0697  155.6207 N   0  0  0  0  0  0  0  0  0  0  0  0
  150.6874  142.0286  156.4423 C   0  0  0  0  0  0  0  0  0  0  0  0
  151.3591  141.0159  156.6298 O   0  0  0  0  0  0  0  0  0  0  0  0
  150.9950  143.2027  157.0212 N   0  0  0  0  0  0  0  0  0  0  0  0
  152.0620  143.4743  157.9368 C   0  0  0  0  0  0  0  0  0  0  0  0
  151.7169  144.1305  159.2554 C   0  0  0  0  0  0  0  0  0  0  0  0
  152.4118  144.9254  158.1827 C   0  0  0  0  0  0  0  0  0  0  0  0
  145.8546  143.2415  153.6042 S   0  0  0  0  0  0  0  0  0  0  0  0
  145.1162  143.6813  155.1235 C   0  0  0  0  0  0  0  0  0  0  0  0
  143.9456  144.6064  155.1646 C   0  0  0  0  0  0  0  0  0  0  0  0
  146.1082  142.5208  159.5824 H   0  0  0  0  0  0  0  0  0  0  0  0
  147.3981  142.7622  158.4066 H   0  0  0  0  0  0  0  0  0  0  0  0
  146.3518  141.3474  158.2912 H   0  0  0  0  0  0  0  0  0  0  0  0
  144.3907  142.8478  157.8140 H   0  0  0  0  0  0  0  0  0  0  0  0
  145.4139  144.2467  157.9410 H   0  0  0  0  0  0  0  0  0  0  0  0
  147.5737  140.5346  153.3795 H   0  0  0  0  0  0  0  0  0  0  0  0
  148.4567  141.9800  152.9596 H   0  0  0  0  0  0  0  0  0  0  0  0
  148.8671  140.1660  155.3690 H   0  0  0  0  0  0  0  0  0  0  0  0
  150.0474  140.6083  154.1595 H   0  0  0  0  0  0  0  0  0  0  0  0
  149.1326  142.9462  155.5324 H   0  0  0  0  0  0  0  0  0  0  0  0
  150.4185  143.9931  156.7706 H   0  0  0  0  0  0  0  0  0  0  0  0
  152.9121  142.7939  157.9377 H   0  0  0  0  0  0  0  0  0  0  0  0
  150.6702  144.3555  159.4515 H   0  0  0  0  0  0  0  0  0  0  0  0
  152.3003  143.8381  160.1261 H   0  0  0  0  0  0  0  0  0  0  0  0
  153.4608  145.1693  158.3384 H   0  0  0  0  0  0  0  0  0  0  0  0
  151.8290  145.6854  157.6649 H   0  0  0  0  0  0  0  0  0  0  0  0
  144.1579  145.4698  155.7953 H   0  0  0  0  0  0  0  0  0  0  0  0
  143.0676  144.1010  155.5674 H   0  0  0  0  0  0  0  0  0  0  0  0
  143.6947  144.9724  154.1688 H   0  0  0  0  0  0  0  0  0  0  0  0
  1  2  1  0  0  0  0
  1 18  1  0  0  0  0
  1 19  1  0  0  0  0
  1 20  1  0  0  0  0
  2  3  1  0  0  0  0
  2 21  1  0  0  0  0
  2 22  1  0  0  0  0
  3 16  2  0  0  0  0
  3  4  1  0  0  0  0
  4  5  2  0  0  0  0
  5  6  1  0  0  0  0
  5 15  1  0  0  0  0
  6  7  1  0  0  0  0
  6 23  1  0  0  0  0
  6 24  1  0  0  0  0
  7  8  1  0  0  0  0
  7 25  1  0  0  0  0
  7 26  1  0  0  0  0
  8  9  1  0  0  0  0
  8 27  1  0  0  0  0
  9 10  2  0  0  0  0
  9 11  1  0  0  0  0
 11 12  1  0  0  0  0
 11 28  1  0  0  0  0
 12 14  1  0  0  0  0
 12 13  1  0  0  0  0
 12 29  1  0  0  0  0
 13 14  1  0  0  0  0
 13 30  1  0  0  0  0
 13 31  1  0  0  0  0
 14 32  1  0  0  0  0
 14 33  1  0  0  0  0
 15 16  1  0  0  0  0
 16 17  1  0  0  0  0
 17 34  1  0  0  0  0
 17 35  1  0  0  0  0
 17 36  1  0  0  0  0
M  END
> <s_m_source_file>
AV-unprocessed.smi

> <i_m_source_file_index>
939

> <i_lp_mmshare_version>
43012

> <i_f3d_flags>
0

> <s_epik_input>
W0NIM11bQ0gyXWMxbmMoc2MxW0NIM10pW0NIMl1bQ0gyXVtOSF1DKD1PKVtOSF1bQ0hdMltDSDJdW0NIMl0y

> <s_epik_cmdline>
J2VwaWtfcHl0aG9uJywgJy1waCcsICc3LjAnLCAnLXRuJywgJzgnLCAnLW1hJywgJzIwMCcsICctbWV0YWxfYmluZGluZycsICctaW1hZScsICc8aW5maWxlLm1hZT4nLCAnLW9tYWUnLCAnPG91dGZpbGUubWFlPic=

> <r_epik_Ionization_Penalty>
0.00437198

> <r_epik_Ionization_Penalty_Charging>
0

> <r_epik_Ionization_Penalty_Neutral>
0.00437198

> <r_epik_State_Penalty>
0.00310304

> <r_epik_Charging_Adjusted_Penalty>
0.00310304

> <i_epik_Tot_Q>
0

> <i_epik_Tot_abs_Q>
0

> <r_epik_Metal_State_Penalty>
-0

> <b_epik_Metal_Only>
0

> <s_lp_Force_Field>
OPLS_2005

> <r_lp_Energy>
13.9428

> <b_lp_Chiralities_Consistent>
1

> <s_lp_Variant>
AV-unprocessed.smi:939-1

> <Gold.Version>
5.8.1

> <Gold.Id.Protein>
6NUR|6NUR_protein|mol2

> <Gold.PLP.Fitness>
43.2924

> <Gold.PLP.PLP>
-38.2316

> <Gold.PLP.part.hbond>
-2.0000

> <Gold.PLP.part.metal>
0.0000

> <Gold.PLP.part.buried>
-6.8098

> <Gold.PLP.part.nonpolar>
-29.6081

> <Gold.PLP.part.repulsive>
0.3407

> <Gold.PLP.ligand.clash>
0.0000

> <Gold.PLP.ligand.torsion>
0.4882

> <Gold.PLP.Chemscore.Hbond>
1.9920

> <Gold.PLP.Chemscore.CHOScore>
0.0000

> <Gold.PLP.Chemscore.Metal>
0.0000

> <Gold.Chemscore.Hbonds>
donor molecule, donor type, donor heavy atom, donor atom, acceptor molecule, acceptor atom, score
      L1  H     8    27       P1  8028  1.00
      L1  H    11    28       P1  8028  0.99

> <Gold.PLP.Chemscore.Internal.Correction>
0.0612

> <Gold.Rescore>
     Score         DG    S(hbond)    S(metal)    S(lipo)     H(rot)  DE(clash)    DE(int)     intcor
     17.13     -17.59       1.94        0.00      85.26       1.69       0.10       0.36       ----

> <Gold.Chemscore.Fitness>
17.1250

> <Gold.Chemscore.DG>
-17.5886

> <Gold.Chemscore.ZeroCoef>
-5.4800

> <Gold.Chemscore.Hbond>
1.9367

> <Gold.Chemscore.Metal>
0.0000

> <Gold.Chemscore.Lipo>
85.2567

> <Gold.Chemscore.Internal_Hbond>
0.0000

> <Gold.Chemscore.DEClash>
0.1039

> <Gold.Chemscore.DEInternal>
0.3597

> <Gold.Chemscore.Rot>
1.6934

> <Gold.Chemscore.Internal.Correction>
   9.000000E+99

> <Gold.Chemscore.Hbonds>
donor molecule, donor type, donor heavy atom, donor atom, acceptor molecule, acceptor atom, score
      L1  H     8    27       P1  8028  0.99
      L1  H    11    28       P1  8028  0.89

> <Gold.Chemscore.Hbond.Weighted>
-6.4686

> <Gold.Chemscore.Metal.Weighted>
-0.0000

> <Gold.Chemscore.Lipo.Weighted>
-9.9750

> <Gold.Chemscore.Internal_Hbond.Weighted>
0.0000

> <Gold.Chemscore.DEClash.Weighted>
0.1039

> <Gold.Chemscore.DEInternal.Weighted>
0.3597

> <Gold.Chemscore.Rot.Weighted>
4.3351

> <Gold.Chemscore.Internal.Correction.Weighted>
   9.000000E+99

> <Gold.Protein.RotatedTorsions>
[ 6907 6896 6895 6894 ] final -175.92 input  -60.11 | X-H torsion
[ 7974 7965 7964 7962 ] final  123.63 input  175.53 | X-H torsion
[ 8008 7997 7996 7995 ] final  163.89 input   59.86 | X-H torsion
[ 10167 10162 10161 10158 ] final  134.99 input  -65.29 | X-H torsion
[ 10718 10713 10712 10709 ] final   15.77 input   66.30 | X-H torsion
[ 10763 10752 10751 10750 ] final  -91.59 input  -60.55 | X-H torsion
[ 11005 11000 10999 10996 ] final   35.91 input  -57.11 | X-H torsion

> <Gold.Protein.ActiveResidues>
 VAL166  LYS551  ARG553  GLY616  TRP617  ASP618  TYR619  PRO620  LYS621  CYS622 
 ASP623  PHE694  ASN695  SER759  ASP760  ASP761  ALA762  ILE779  LEU786  VAL792 
 PHE793  MET794  SER795  GLU796  ALA797  LYS798  CYS799  TRP800  GLU811  SER814 

> <Gold.Protein.RotatedAtoms>
  151.5964  133.3361  159.3038 H   0  0  0  0  0  0  0  0  0  0  0  0  # atno 6907 bound_to 6896
  150.8231  134.7453  159.6801 H   0  0  0  0  0  0  0  0  0  0  0  0  # atno 6908 bound_to 6896
  152.4323  134.5759  159.9986 H   0  0  0  0  0  0  0  0  0  0  0  0  # atno 6909 bound_to 6896
  145.0937  139.3568  143.4847 H   0  0  0  0  0  0  0  0  0  0  0  0  # atno 7974 bound_to 7965
  156.1922  140.1711  156.8069 H   0  0  0  0  0  0  0  0  0  0  0  0  # atno 8008 bound_to 7997
  154.5485  140.0722  156.8661 H   0  0  0  0  0  0  0  0  0  0  0  0  # atno 8009 bound_to 7997
  155.3074  140.3365  155.4247 H   0  0  0  0  0  0  0  0  0  0  0  0  # atno 8010 bound_to 7997
  139.5234  144.6540  151.5219 H   0  0  0  0  0  0  0  0  0  0  0  0  # atno 10167 bound_to 10162
  157.0583  130.6298  149.5781 H   0  0  0  0  0  0  0  0  0  0  0  0  # atno 10718 bound_to 10713
  154.6776  135.5262  153.8220 H   0  0  0  0  0  0  0  0  0  0  0  0  # atno 10763 bound_to 10752
  153.0542  135.6544  154.0627 H   0  0  0  0  0  0  0  0  0  0  0  0  # atno 10764 bound_to 10752
  154.0518  135.2968  155.3319 H   0  0  0  0  0  0  0  0  0  0  0  0  # atno 10765 bound_to 10752
  140.2379  134.3449  155.7937 H   0  0  0  0  0  0  0  0  0  0  0  0  # atno 11005 bound_to 11000
  146.3531  140.0783  142.8619 LP  0  0  0  0  0  0  0  0  0  0  0  0  # atno 17320 bound_to 7965
  145.1036  140.9361  143.4698 LP  0  0  0  0  0  0  0  0  0  0  0  0  # atno 17321 bound_to 7965
  140.6357  143.8989  150.6645 LP  0  0  0  0  0  0  0  0  0  0  0  0  # atno 17342 bound_to 10162
  140.2307  143.3738  152.1568 LP  0  0  0  0  0  0  0  0  0  0  0  0  # atno 17343 bound_to 10162
  155.9986  130.5060  150.7577 LP  0  0  0  0  0  0  0  0  0  0  0  0  # atno 17370 bound_to 10713
  157.4975  131.0916  151.0354 LP  0  0  0  0  0  0  0  0  0  0  0  0  # atno 17371 bound_to 10713
  141.2213  133.7282  156.8838 LP  0  0  0  0  0  0  0  0  0  0  0  0  # atno 17394 bound_to 11000
  140.1683  134.9118  157.2802 LP  0  0  0  0  0  0  0  0  0  0  0  0  # atno 17395 bound_to 11000

$$$$
