AV-unprocessed.smi:1443|AV-procd|sdf|5880|dock8
  -GOLD-   22720 5563D 1   1.00000     0.00000
 Structure written by MMmdl.
 27 28  0  0  0  0  0  0  0  0  1 V2000
  153.9740  141.2857  161.9075 C   0  0  0  0  0  0  0  0  0  0  0  0
  153.8449  140.6125  160.2279 S   0  0  0  0  0  0  0  0  0  0  0  0
  153.0266  141.8493  159.2731 C   0  0  0  0  0  0  0  0  0  0  0  0
  153.4358  143.1305  159.3139 N   0  0  0  0  0  0  0  0  0  0  0  0
  152.4441  144.0449  158.2941 S   0  0  0  0  0  0  0  0  0  0  0  0
  151.5275  142.6301  157.8660 C   0  0  0  0  0  0  0  0  0  0  0  0
  150.4274  142.6743  156.9607 N   0  0  0  0  0  0  0  0  0  0  0  0
  149.5556  141.7174  156.5752 C   0  0  0  0  0  0  0  0  0  0  0  0
  149.6327  140.5733  157.0197 O   0  0  0  0  0  0  0  0  0  0  0  0
  148.6190  142.0950  155.6907 N   0  0  0  0  0  0  0  0  0  0  0  0
  147.6059  141.2627  155.1319 C   0  0  1  0  0  0  0  0  0  0  0  0
  146.6025  141.9304  154.2168 C   0  0  0  0  0  0  0  0  0  0  0  0
  147.6456  141.0128  153.6378 C   0  0  2  0  0  0  0  0  0  0  0  0
  147.2384  139.6745  153.0609 C   0  0  0  0  0  0  0  0  0  0  0  0
  151.9799  141.5412  158.4875 N   0  0  0  0  0  0  0  0  0  0  0  0
  154.4751  140.5720  162.5613 H   0  0  0  0  0  0  0  0  0  0  0  0
  152.9830  141.4900  162.3134 H   0  0  0  0  0  0  0  0  0  0  0  0
  154.5469  142.2133  161.9042 H   0  0  0  0  0  0  0  0  0  0  0  0
  150.2623  143.5812  156.5483 H   0  0  0  0  0  0  0  0  0  0  0  0
  148.6326  143.0571  155.3831 H   0  0  0  0  0  0  0  0  0  0  0  0
  147.2237  140.4525  155.7514 H   0  0  0  0  0  0  0  0  0  0  0  0
  145.5755  141.5722  154.2561 H   0  0  0  0  0  0  0  0  0  0  0  0
  146.7146  142.9965  154.0272 H   0  0  0  0  0  0  0  0  0  0  0  0
  148.4524  141.4965  153.0894 H   0  0  0  0  0  0  0  0  0  0  0  0
  146.4345  139.2276  153.6466 H   0  0  0  0  0  0  0  0  0  0  0  0
  148.0893  138.9931  153.0629 H   0  0  0  0  0  0  0  0  0  0  0  0
  146.8942  139.7987  152.0340 H   0  0  0  0  0  0  0  0  0  0  0  0
  1  2  1  0  0  0  0
  1 16  1  0  0  0  0
  1 17  1  0  0  0  0
  1 18  1  0  0  0  0
  2  3  1  0  0  0  0
  3 15  1  0  0  0  0
  3  4  2  0  0  0  0
  4  5  1  0  0  0  0
  5  6  1  0  0  0  0
  6  7  1  0  0  0  0
  6 15  2  0  0  0  0
  7  8  1  0  0  0  0
  7 19  1  0  0  0  0
  8  9  2  0  0  0  0
  8 10  1  0  0  0  0
 10 11  1  0  0  0  0
 10 20  1  0  0  0  0
 11 13  1  0  0  0  0
 11 12  1  0  0  0  0
 11 21  1  0  0  0  0
 12 13  1  0  0  0  0
 12 22  1  0  0  0  0
 12 23  1  0  0  0  0
 13 14  1  0  0  0  0
 13 24  1  0  0  0  0
 14 25  1  0  0  0  0
 14 26  1  0  0  0  0
 14 27  1  0  0  0  0
M  END
> <s_m_source_file>
AV-unprocessed.smi

> <i_m_source_file_index>
1443

> <i_lp_mmshare_version>
43012

> <i_f3d_flags>
0

> <s_epik_input>
W0NIM11TYzFuc2MobjEpW05IXUMoPU8pW05IXVtDQEBIXTJbQ0gyXVtDQEhdMltDSDNd

> <s_epik_cmdline>
J2VwaWtfcHl0aG9uJywgJy1waCcsICc3LjAnLCAnLXRuJywgJzgnLCAnLW1hJywgJzIwMCcsICctbWV0YWxfYmluZGluZycsICctaW1hZScsICc8aW5maWxlLm1hZT4nLCAnLW9tYWUnLCAnPG91dGZpbGUubWFlPic=

> <r_lp_tautomer_probability>
1

> <r_epik_Ionization_Penalty>
2.74658e-05

> <r_epik_Ionization_Penalty_Charging>
0

> <r_epik_Ionization_Penalty_Neutral>
2.74658e-05

> <r_epik_State_Penalty>
-0

> <r_epik_Charging_Adjusted_Penalty>
0

> <i_epik_Tot_Q>
0

> <i_epik_Tot_abs_Q>
0

> <r_epik_Metal_State_Penalty>
-0

> <b_epik_Metal_Only>
0

> <s_lp_Force_Field>
OPLS_2005

> <r_lp_Energy>
20.7485

> <b_lp_Chiralities_Consistent>
1

> <s_lp_Variant>
AV-unprocessed.smi:1443-4

> <Gold.Version>
5.8.1

> <Gold.Id.Protein>
6NUR|6NUR_protein|mol2

> <Gold.PLP.Fitness>
36.7877

> <Gold.PLP.PLP>
-31.4241

> <Gold.PLP.part.hbond>
-1.8401

> <Gold.PLP.part.metal>
0.0000

> <Gold.PLP.part.buried>
-3.5956

> <Gold.PLP.part.nonpolar>
-26.6022

> <Gold.PLP.part.repulsive>
0.1591

> <Gold.PLP.ligand.clash>
0.0000

> <Gold.PLP.ligand.torsion>
0.1305

> <Gold.PLP.Chemscore.Hbond>
1.8640

> <Gold.PLP.Chemscore.CHOScore>
0.0000

> <Gold.PLP.Chemscore.Metal>
0.0000

> <Gold.Chemscore.Hbonds>
donor molecule, donor type, donor heavy atom, donor atom, acceptor molecule, acceptor atom, score
      L1  H     7    19       P1  8028  0.90
      L1  H    10    20       P1  8028  1.00

> <Gold.PLP.Chemscore.Internal.Correction>
0.0326

> <Gold.Rescore>
     Score         DG    S(hbond)    S(metal)    S(lipo)     H(rot)  DE(clash)    DE(int)     intcor
     13.99     -15.50       1.94        0.00      58.02       1.27       0.08       1.44       ----

> <Gold.Chemscore.Fitness>
13.9879

> <Gold.Chemscore.DG>
-15.5023

> <Gold.Chemscore.ZeroCoef>
-5.4800

> <Gold.Chemscore.Hbond>
1.9416

> <Gold.Chemscore.Metal>
0.0000

> <Gold.Chemscore.Lipo>
58.0195

> <Gold.Chemscore.Internal_Hbond>
0.0000

> <Gold.Chemscore.DEClash>
0.0782

> <Gold.Chemscore.DEInternal>
1.4361

> <Gold.Chemscore.Rot>
1.2699

> <Gold.Chemscore.Internal.Correction>
   9.000000E+99

> <Gold.Chemscore.Hbonds>
donor molecule, donor type, donor heavy atom, donor atom, acceptor molecule, acceptor atom, score
      L1  H     7    19       P1  8028  0.86
      L1  H    10    20       P1  8028  0.97

> <Gold.Chemscore.Hbond.Weighted>
-6.4849

> <Gold.Chemscore.Metal.Weighted>
-0.0000

> <Gold.Chemscore.Lipo.Weighted>
-6.7883

> <Gold.Chemscore.Internal_Hbond.Weighted>
0.0000

> <Gold.Chemscore.DEClash.Weighted>
0.0782

> <Gold.Chemscore.DEInternal.Weighted>
1.4361

> <Gold.Chemscore.Rot.Weighted>
3.2509

> <Gold.Chemscore.Internal.Correction.Weighted>
   9.000000E+99

> <Gold.Protein.RotatedTorsions>
[ 6907 6896 6895 6894 ] final -121.54 input  -60.11 | X-H torsion
[ 7974 7965 7964 7962 ] final  -20.70 input  175.53 | X-H torsion
[ 8008 7997 7996 7995 ] final  169.52 input   59.86 | X-H torsion
[ 10167 10162 10161 10158 ] final  -86.64 input  -65.29 | X-H torsion
[ 10718 10713 10712 10709 ] final -106.37 input   66.30 | X-H torsion
[ 10763 10752 10751 10750 ] final   -6.24 input  -60.55 | X-H torsion
[ 11005 11000 10999 10996 ] final  138.66 input  -57.11 | X-H torsion

> <Gold.Protein.ActiveResidues>
 VAL166  LYS551  ARG553  GLY616  TRP617  ASP618  TYR619  PRO620  LYS621  CYS622 
 ASP623  PHE694  ASN695  SER759  ASP760  ASP761  ALA762  ILE779  LEU786  VAL792 
 PHE793  MET794  SER795  GLU796  ALA797  LYS798  CYS799  TRP800  GLU811  SER814 

> <Gold.Protein.RotatedAtoms>
  150.8492  133.7813  159.3031 H   0  0  0  0  0  0  0  0  0  0  0  0  # atno 6907 bound_to 6896
  151.5490  135.1066  159.9954 H   0  0  0  0  0  0  0  0  0  0  0  0  # atno 6908 bound_to 6896
  152.4539  133.7640  159.6818 H   0  0  0  0  0  0  0  0  0  0  0  0  # atno 6909 bound_to 6896
  146.1773  140.4239  142.8508 H   0  0  0  0  0  0  0  0  0  0  0  0  # atno 7974 bound_to 7965
  156.1449  140.1562  156.8862 H   0  0  0  0  0  0  0  0  0  0  0  0  # atno 8008 bound_to 7997
  154.5020  140.0823  156.7855 H   0  0  0  0  0  0  0  0  0  0  0  0  # atno 8009 bound_to 7997
  155.4007  140.3414  155.4259 H   0  0  0  0  0  0  0  0  0  0  0  0  # atno 8010 bound_to 7997
  140.3922  143.2699  151.9250 H   0  0  0  0  0  0  0  0  0  0  0  0  # atno 10167 bound_to 10162
  156.0387  130.5610  150.7672 H   0  0  0  0  0  0  0  0  0  0  0  0  # atno 10718 bound_to 10713
  153.4095  135.7007  153.6369 H   0  0  0  0  0  0  0  0  0  0  0  0  # atno 10763 bound_to 10752
  153.4869  135.3681  155.2471 H   0  0  0  0  0  0  0  0  0  0  0  0  # atno 10764 bound_to 10752
  154.8716  135.4079  154.3445 H   0  0  0  0  0  0  0  0  0  0  0  0  # atno 10765 bound_to 10752
  140.0199  134.9401  157.0453 H   0  0  0  0  0  0  0  0  0  0  0  0  # atno 11005 bound_to 11000
  144.8258  140.6625  143.6323 LP  0  0  0  0  0  0  0  0  0  0  0  0  # atno 17320 bound_to 7965
  145.4174  139.1569  143.4092 LP  0  0  0  0  0  0  0  0  0  0  0  0  # atno 17321 bound_to 7965
  139.4788  144.5716  151.8079 LP  0  0  0  0  0  0  0  0  0  0  0  0  # atno 17342 bound_to 10162
  140.4828  144.1425  150.5935 LP  0  0  0  0  0  0  0  0  0  0  0  0  # atno 17343 bound_to 10162
  157.5175  131.0929  151.0120 LP  0  0  0  0  0  0  0  0  0  0  0  0  # atno 17370 bound_to 10713
  157.0459  130.5768  149.5363 LP  0  0  0  0  0  0  0  0  0  0  0  0  # atno 17371 bound_to 10713
  140.4405  134.1686  155.7173 LP  0  0  0  0  0  0  0  0  0  0  0  0  # atno 17394 bound_to 11000
  141.1767  133.8499  157.1397 LP  0  0  0  0  0  0  0  0  0  0  0  0  # atno 17395 bound_to 11000

$$$$
