AV-unprocessed.smi:570|AV-procd|sdf|2962|dock9
  -GOLD-   2262023463D 1   1.00000     0.00000
 Structure written by MMmdl.
 39 40  0  0  0  0  0  0  0  0  2 V2000
  156.7557  137.7538  154.1922 C   0  0  0  0  0  0  0  0  0  0  0  0
  156.3645  138.0624  155.5182 O   0  0  0  0  0  0  0  0  0  0  0  0
  156.4847  136.9510  156.3963 C   0  0  0  0  0  0  0  0  0  0  0  0
  155.8924  137.2743  157.7840 C   0  0  0  0  0  0  0  0  0  0  0  0
  154.3868  136.9762  157.9419 C   0  0  0  0  0  0  0  0  0  0  0  0
  153.6061  138.0652  157.3624 N   0  5  0  0  0  0  0  0  0  0  0  0
  152.4934  137.8839  156.5920 C   0  0  0  0  0  0  0  0  0  0  0  0
  152.0651  136.8450  156.0767 O   0  0  0  0  0  0  0  0  0  0  0  0
  151.7210  139.1677  156.3793 C   0  0  0  0  0  0  0  0  0  0  0  0
  151.9102  140.1736  157.2716 N   0  0  0  0  0  0  0  0  0  0  0  0
  151.2318  141.3154  157.1219 C   0  0  0  0  0  0  0  0  0  0  0  0
  151.4591  142.3316  158.0592 N   0  0  0  0  0  0  0  0  0  0  0  0
  150.8925  143.6732  157.9029 C   0  0  0  0  0  0  0  0  0  0  0  0
  151.8201  144.7335  158.5202 C   0  0  0  0  0  0  0  0  0  0  0  0
  152.0826  144.4108  159.8802 O   0  0  0  0  0  0  0  0  0  0  0  0
  152.7494  143.1601  159.9997 C   0  0  0  0  0  0  0  0  0  0  0  0
  151.8609  142.0377  159.4374 C   0  0  0  0  0  0  0  0  0  0  0  0
  150.3529  141.5576  156.1430 N   0  0  0  0  0  0  0  0  0  0  0  0
  150.1436  140.5801  155.2379 C   0  0  0  0  0  0  0  0  0  0  0  0
  150.8101  139.3414  155.3018 C   0  0  0  0  0  0  0  0  0  0  0  0
  150.5103  138.1556  154.0765 Cl  0  0  0  0  0  0  0  0  0  0  0  0
  156.6470  138.6375  153.5634 H   0  0  0  0  0  0  0  0  0  0  0  0
  156.1340  136.9627  153.7713 H   0  0  0  0  0  0  0  0  0  0  0  0
  157.7992  137.4387  154.1522 H   0  0  0  0  0  0  0  0  0  0  0  0
  155.9324  136.1124  155.9697 H   0  0  0  0  0  0  0  0  0  0  0  0
  157.5261  136.6295  156.4711 H   0  0  0  0  0  0  0  0  0  0  0  0
  156.4575  136.7341  158.5449 H   0  0  0  0  0  0  0  0  0  0  0  0
  156.0577  138.3339  157.9840 H   0  0  0  0  0  0  0  0  0  0  0  0
  154.1616  136.0236  157.4610 H   0  0  0  0  0  0  0  0  0  0  0  0
  154.1637  136.8369  159.0005 H   0  0  0  0  0  0  0  0  0  0  0  0
  150.7260  143.9315  156.8578 H   0  0  0  0  0  0  0  0  0  0  0  0
  149.9184  143.6981  158.3927 H   0  0  0  0  0  0  0  0  0  0  0  0
  152.7559  144.8037  157.9630 H   0  0  0  0  0  0  0  0  0  0  0  0
  151.3489  145.7154  158.4746 H   0  0  0  0  0  0  0  0  0  0  0  0
  153.7082  143.1934  159.4796 H   0  0  0  0  0  0  0  0  0  0  0  0
  152.9653  142.9730  161.0514 H   0  0  0  0  0  0  0  0  0  0  0  0
  150.9633  141.9276  160.0468 H   0  0  0  0  0  0  0  0  0  0  0  0
  152.4121  141.1004  159.5123 H   0  0  0  0  0  0  0  0  0  0  0  0
  149.4390  140.7933  154.4477 H   0  0  0  0  0  0  0  0  0  0  0  0
  1  2  1  0  0  0  0
  1 22  1  0  0  0  0
  1 23  1  0  0  0  0
  1 24  1  0  0  0  0
  2  3  1  0  0  0  0
  3  4  1  0  0  0  0
  3 25  1  0  0  0  0
  3 26  1  0  0  0  0
  4  5  1  0  0  0  0
  4 27  1  0  0  0  0
  4 28  1  0  0  0  0
  5  6  1  0  0  0  0
  5 29  1  0  0  0  0
  5 30  1  0  0  0  0
  6  7  1  0  0  0  0
  7  8  2  0  0  0  0
  7  9  1  0  0  0  0
  9 20  1  0  0  0  0
  9 10  2  0  0  0  0
 10 11  1  0  0  0  0
 11 12  1  0  0  0  0
 11 18  2  0  0  0  0
 12 17  1  0  0  0  0
 12 13  1  0  0  0  0
 13 14  1  0  0  0  0
 13 31  1  0  0  0  0
 13 32  1  0  0  0  0
 14 15  1  0  0  0  0
 14 33  1  0  0  0  0
 14 34  1  0  0  0  0
 15 16  1  0  0  0  0
 16 17  1  0  0  0  0
 16 35  1  0  0  0  0
 16 36  1  0  0  0  0
 17 37  1  0  0  0  0
 17 38  1  0  0  0  0
 18 19  1  0  0  0  0
 19 20  2  0  0  0  0
 19 39  1  0  0  0  0
 20 21  1  0  0  0  0
M  CHG  1   6  -1
M  END
> <s_m_source_file>
AV-unprocessed.smi

> <i_m_source_file_index>
570

> <i_lp_mmshare_version>
43012

> <i_f3d_flags>
0

> <s_epik_input>
W0NIM11PW0NIMl1bQ0gyXVtDSDJdW05IXUMoPU8pYzFuYyhuW2NIXWMxQ2wpTjJbQ0gyXVtDSDJdT1tDSDJdW0NIMl0y

> <s_epik_cmdline>
J2VwaWtfcHl0aG9uJywgJy1waCcsICc3LjAnLCAnLXRuJywgJzgnLCAnLW1hJywgJzIwMCcsICctbWV0YWxfYmluZGluZycsICctaW1hZScsICc8aW5maWxlLm1hZT4nLCAnLW9tYWUnLCAnPG91dGZpbGUubWFlPic=

> <r_lp_tautomer_probability>
1

> <r_epik_Ionization_Penalty>
6.0123

> <r_epik_Ionization_Penalty_Charging>
6.01228

> <r_epik_Ionization_Penalty_Neutral>
2.47988e-05

> <r_epik_State_Penalty>
6.01226

> <r_epik_Charging_Adjusted_Penalty>
12.0245

> <i_epik_Tot_Q>
-1

> <i_epik_Tot_abs_Q>
1

> <r_epik_Metal_State_Penalty>
1.96418

> <b_epik_Metal_Only>
1

> <s_lp_Force_Field>
OPLS_2005

> <r_lp_Energy>
20.8632

> <b_lp_Chiralities_Consistent>
1

> <s_lp_Variant>
AV-unprocessed.smi:570-2

> <Gold.Version>
5.8.1

> <Gold.Id.Protein>
6NUR|6NUR_protein|mol2

> <Gold.PLP.Fitness>
46.4588

> <Gold.PLP.PLP>
-39.2726

> <Gold.PLP.part.hbond>
-3.8600

> <Gold.PLP.part.metal>
0.0000

> <Gold.PLP.part.buried>
-5.5465

> <Gold.PLP.part.nonpolar>
-30.5453

> <Gold.PLP.part.repulsive>
0.1806

> <Gold.PLP.ligand.clash>
0.0000

> <Gold.PLP.ligand.torsion>
0.8190

> <Gold.PLP.Chemscore.Hbond>
2.8480

> <Gold.PLP.Chemscore.CHOScore>
0.0000

> <Gold.PLP.Chemscore.Metal>
0.0000

> <Gold.Chemscore.Hbonds>
donor molecule, donor type, donor heavy atom, donor atom, acceptor molecule, acceptor atom, score
      P1  H  7997  8009       L1     2  0.05
      P1  H  7997  8010       L1     6  0.60
      P1  H 10752 10765       L1     8  0.98

> <Gold.PLP.Chemscore.Internal.Correction>
0.2802

> <Gold.Rescore>
     Score         DG    S(hbond)    S(metal)    S(lipo)     H(rot)  DE(clash)    DE(int)     intcor
     17.34     -19.67       2.06        0.00      97.30       1.59       0.11       2.22       ----

> <Gold.Chemscore.Fitness>
17.3389

> <Gold.Chemscore.DG>
-19.6690

> <Gold.Chemscore.ZeroCoef>
-5.4800

> <Gold.Chemscore.Hbond>
2.0621

> <Gold.Chemscore.Metal>
0.0000

> <Gold.Chemscore.Lipo>
97.3032

> <Gold.Chemscore.Internal_Hbond>
0.0000

> <Gold.Chemscore.DEClash>
0.1095

> <Gold.Chemscore.DEInternal>
2.2207

> <Gold.Chemscore.Rot>
1.5949

> <Gold.Chemscore.Internal.Correction>
   9.000000E+99

> <Gold.Chemscore.Hbonds>
donor molecule, donor type, donor heavy atom, donor atom, acceptor molecule, acceptor atom, score
      P1  H  7997  8009       L1     2  0.05
      P1  H  7997  8010       L1     6  0.25
      P1  H 10752 10765       L1     8  0.87

> <Gold.Chemscore.Hbond.Weighted>
-6.8875

> <Gold.Chemscore.Metal.Weighted>
-0.0000

> <Gold.Chemscore.Lipo.Weighted>
-11.3845

> <Gold.Chemscore.Internal_Hbond.Weighted>
0.0000

> <Gold.Chemscore.DEClash.Weighted>
0.1095

> <Gold.Chemscore.DEInternal.Weighted>
2.2207

> <Gold.Chemscore.Rot.Weighted>
4.0830

> <Gold.Chemscore.Internal.Correction.Weighted>
   9.000000E+99

> <Gold.Protein.RotatedTorsions>
[ 6907 6896 6895 6894 ] final    4.19 input  -60.11 | X-H torsion
[ 7974 7965 7964 7962 ] final -108.87 input  175.53 | X-H torsion
[ 8008 7997 7996 7995 ] final   19.39 input   59.86 | X-H torsion
[ 10167 10162 10161 10158 ] final  -15.48 input  -65.29 | X-H torsion
[ 10718 10713 10712 10709 ] final  139.59 input   66.30 | X-H torsion
[ 10763 10752 10751 10750 ] final -141.92 input  -60.55 | X-H torsion
[ 11005 11000 10999 10996 ] final -120.64 input  -57.11 | X-H torsion

> <Gold.Protein.ActiveResidues>
 VAL166  LYS551  ARG553  GLY616  TRP617  ASP618  TYR619  PRO620  LYS621  CYS622 
 ASP623  PHE694  ASN695  SER759  ASP760  ASP761  ALA762  ILE779  LEU786  VAL792 
 PHE793  MET794  SER795  GLU796  ALA797  LYS798  CYS799  TRP800  GLU811  SER814 

> <Gold.Protein.RotatedAtoms>
  151.6373  135.1016  160.0133 H   0  0  0  0  0  0  0  0  0  0  0  0  # atno 6907 bound_to 6896
  152.4073  133.6905  159.6376 H   0  0  0  0  0  0  0  0  0  0  0  0  # atno 6908 bound_to 6896
  150.7967  133.8603  159.3271 H   0  0  0  0  0  0  0  0  0  0  0  0  # atno 6909 bound_to 6896
  145.1875  140.8999  143.3444 H   0  0  0  0  0  0  0  0  0  0  0  0  # atno 7974 bound_to 7965
  154.9201  140.3026  155.5221 H   0  0  0  0  0  0  0  0  0  0  0  0  # atno 8008 bound_to 7997
  156.3010  140.2373  156.4186 H   0  0  0  0  0  0  0  0  0  0  0  0  # atno 8009 bound_to 7997
  154.8339  140.0417  157.1484 H   0  0  0  0  0  0  0  0  0  0  0  0  # atno 8010 bound_to 7997
  140.7219  143.5214  150.9629 H   0  0  0  0  0  0  0  0  0  0  0  0  # atno 10167 bound_to 10162
  157.4127  131.1030  151.0437 H   0  0  0  0  0  0  0  0  0  0  0  0  # atno 10718 bound_to 10713
  154.8528  135.3510  154.5945 H   0  0  0  0  0  0  0  0  0  0  0  0  # atno 10763 bound_to 10752
  153.6554  135.6992  153.5199 H   0  0  0  0  0  0  0  0  0  0  0  0  # atno 10764 bound_to 10752
  153.2860  135.4249  155.1081 H   0  0  0  0  0  0  0  0  0  0  0  0  # atno 10765 bound_to 10752
  141.0129  134.0238  157.3389 H   0  0  0  0  0  0  0  0  0  0  0  0  # atno 11005 bound_to 11000
  145.0074  139.3541  143.6137 LP  0  0  0  0  0  0  0  0  0  0  0  0  # atno 17320 bound_to 7965
  146.3442  139.9322  142.8752 LP  0  0  0  0  0  0  0  0  0  0  0  0  # atno 17321 bound_to 7965
  139.8931  143.6928  152.3142 LP  0  0  0  0  0  0  0  0  0  0  0  0  # atno 17342 bound_to 10162
  139.7251  144.7594  151.0892 LP  0  0  0  0  0  0  0  0  0  0  0  0  # atno 17343 bound_to 10162
  157.1395  130.6137  149.5551 LP  0  0  0  0  0  0  0  0  0  0  0  0  # atno 17370 bound_to 10713
  155.9856  130.4886  150.7037 LP  0  0  0  0  0  0  0  0  0  0  0  0  # atno 17371 bound_to 10713
  139.9100  135.0188  156.7651 LP  0  0  0  0  0  0  0  0  0  0  0  0  # atno 17394 bound_to 11000
  140.6703  133.9565  155.7853 LP  0  0  0  0  0  0  0  0  0  0  0  0  # atno 17395 bound_to 11000

$$$$
