AV-unprocessed.smi:2050|AV-procd|sdf|8325|dock4
  -GOLD-   2272010593D 1   1.00000     0.00000
 Structure written by MMmdl.
 33 34  0  0  0  0  0  0  0  0  1 V2000
  143.5493  144.4240  161.5160 C   0  0  0  0  0  0  0  0  0  0  0  0
  145.0005  144.3961  161.1779 C   0  0  0  0  0  0  0  0  0  0  0  0
  145.7081  144.7952  160.0789 C   0  0  0  0  0  0  0  0  0  0  0  0
  147.0474  144.4752  160.4274 C   0  0  0  0  0  0  0  0  0  0  0  0
  148.1148  144.7383  159.5315 N   0  0  0  0  0  0  0  0  0  0  0  0
  149.4330  144.6660  159.7837 C   0  0  0  0  0  0  0  0  0  0  0  0
  149.9321  144.3529  160.8648 O   0  0  0  0  0  0  0  0  0  0  0  0
  150.1531  144.9785  158.6963 N   0  0  0  0  0  0  0  0  0  0  0  0
  151.6111  145.0034  158.6218 C   0  0  0  0  0  0  0  0  0  0  0  0
  152.2186  143.5942  158.7573 C   0  0  1  0  0  0  0  0  0  0  0  0
  152.3214  143.1410  160.2267 C   0  0  0  0  0  0  0  0  0  0  0  0
  152.6911  141.6549  160.2557 C   0  0  0  0  0  0  0  0  0  0  0  0
  151.8634  140.9148  158.7996 S   0  0  0  0  0  0  0  0  0  0  0  0
  152.8637  140.1972  157.9947 O   0  0  0  0  0  0  0  0  0  0  0  0
  150.6191  140.2561  159.2245 O   0  0  0  0  0  0  0  0  0  0  0  0
  151.4485  142.5057  157.9892 C   0  0  0  0  0  0  0  0  0  0  0  0
  147.1485  143.9310  161.6303 N   0  0  0  0  0  0  0  0  0  0  0  0
  145.8371  143.8773  162.1173 O   0  0  0  0  0  0  0  0  0  0  0  0
  142.9632  144.8218  160.6873 H   0  0  0  0  0  0  0  0  0  0  0  0
  143.3679  145.0502  162.3897 H   0  0  0  0  0  0  0  0  0  0  0  0
  143.1848  143.4207  161.7369 H   0  0  0  0  0  0  0  0  0  0  0  0
  145.3253  145.2428  159.1737 H   0  0  0  0  0  0  0  0  0  0  0  0
  147.8451  145.0098  158.5976 H   0  0  0  0  0  0  0  0  0  0  0  0
  149.6546  145.2201  157.8525 H   0  0  0  0  0  0  0  0  0  0  0  0
  151.8812  145.4246  157.6531 H   0  0  0  0  0  0  0  0  0  0  0  0
  152.0312  145.6761  159.3719 H   0  0  0  0  0  0  0  0  0  0  0  0
  153.2346  143.6184  158.3597 H   0  0  0  0  0  0  0  0  0  0  0  0
  153.0412  143.7398  160.7855 H   0  0  0  0  0  0  0  0  0  0  0  0
  151.3529  143.2723  160.7115 H   0  0  0  0  0  0  0  0  0  0  0  0
  153.7667  141.5217  160.1369 H   0  0  0  0  0  0  0  0  0  0  0  0
  152.3743  141.1516  161.1690 H   0  0  0  0  0  0  0  0  0  0  0  0
  150.3713  142.6510  158.0780 H   0  0  0  0  0  0  0  0  0  0  0  0
  151.7056  142.4663  156.9306 H   0  0  0  0  0  0  0  0  0  0  0  0
  1  2  1  0  0  0  0
  1 19  1  0  0  0  0
  1 20  1  0  0  0  0
  1 21  1  0  0  0  0
  2 18  1  0  0  0  0
  2  3  2  0  0  0  0
  3  4  1  0  0  0  0
  3 22  1  0  0  0  0
  4  5  1  0  0  0  0
  4 17  2  0  0  0  0
  5  6  1  0  0  0  0
  5 23  1  0  0  0  0
  6  7  2  0  0  0  0
  6  8  1  0  0  0  0
  8  9  1  0  0  0  0
  8 24  1  0  0  0  0
  9 10  1  0  0  0  0
  9 25  1  0  0  0  0
  9 26  1  0  0  0  0
 10 16  1  0  0  0  0
 10 11  1  0  0  0  0
 10 27  1  0  0  0  0
 11 12  1  0  0  0  0
 11 28  1  0  0  0  0
 11 29  1  0  0  0  0
 12 13  1  0  0  0  0
 12 30  1  0  0  0  0
 12 31  1  0  0  0  0
 13 14  2  0  0  0  0
 13 15  2  0  0  0  0
 13 16  1  0  0  0  0
 16 32  1  0  0  0  0
 16 33  1  0  0  0  0
 17 18  1  0  0  0  0
M  END
> <s_m_source_file>
AV-unprocessed.smi

> <i_m_source_file_index>
2050

> <i_lp_mmshare_version>
43012

> <i_f3d_flags>
0

> <s_epik_input>
W0NIM11jMVtjSF1jKG5vMSlbTkhdQyg9TylbTkhdW0NIMl1bQ0BASF0oW0NIMl0yKVtDSDJdW0NIMl1TMig9Tyk9Tw==

> <s_epik_cmdline>
J2VwaWtfcHl0aG9uJywgJy1waCcsICc3LjAnLCAnLXRuJywgJzgnLCAnLW1hJywgJzIwMCcsICctbWV0YWxfYmluZGluZycsICctaW1hZScsICc8aW5maWxlLm1hZT4nLCAnLW9tYWUnLCAnPG91dGZpbGUubWFlPic=

> <r_lp_tautomer_probability>
1

> <r_epik_Ionization_Penalty>
2.22143e-05

> <r_epik_Ionization_Penalty_Charging>
0

> <r_epik_Ionization_Penalty_Neutral>
2.22143e-05

> <r_epik_State_Penalty>
-0

> <r_epik_Charging_Adjusted_Penalty>
0

> <i_epik_Tot_Q>
0

> <i_epik_Tot_abs_Q>
0

> <r_epik_Metal_State_Penalty>
-0

> <b_epik_Metal_Only>
0

> <s_lp_Force_Field>
OPLS_2005

> <r_lp_Energy>
0.896814

> <b_lp_Chiralities_Consistent>
1

> <s_lp_Variant>
AV-unprocessed.smi:2050-2

> <Gold.Version>
5.8.1

> <Gold.Id.Protein>
6NUR|6NUR_protein|mol2

> <Gold.PLP.Fitness>
43.9491

> <Gold.PLP.PLP>
-33.7828

> <Gold.PLP.part.hbond>
-5.6650

> <Gold.PLP.part.metal>
0.0000

> <Gold.PLP.part.buried>
-4.5413

> <Gold.PLP.part.nonpolar>
-24.4151

> <Gold.PLP.part.repulsive>
0.6877

> <Gold.PLP.ligand.clash>
0.0000

> <Gold.PLP.ligand.torsion>
0.2382

> <Gold.PLP.Chemscore.Hbond>
3.5465

> <Gold.PLP.Chemscore.CHOScore>
0.0000

> <Gold.PLP.Chemscore.Metal>
0.0000

> <Gold.Chemscore.Hbonds>
donor molecule, donor type, donor heavy atom, donor atom, acceptor molecule, acceptor atom, score
      L1  H     5    23       P1  8029  1.00
      L1  H     8    24       P1  8029  0.58
      P1  H  6933  6944       L1    17  0.91
      P1  H  7997  8009       L1    14  0.93

> <Gold.PLP.Chemscore.Internal.Correction>
0.0029

> <Gold.Rescore>
     Score         DG    S(hbond)    S(metal)    S(lipo)     H(rot)  DE(clash)    DE(int)     intcor
     16.85     -18.67       2.46        0.00      72.17       1.36       0.02       1.80       ----

> <Gold.Chemscore.Fitness>
16.8512

> <Gold.Chemscore.DG>
-18.6681

> <Gold.Chemscore.ZeroCoef>
-5.4800

> <Gold.Chemscore.Hbond>
2.4603

> <Gold.Chemscore.Metal>
0.0000

> <Gold.Chemscore.Lipo>
72.1713

> <Gold.Chemscore.Internal_Hbond>
0.0000

> <Gold.Chemscore.DEClash>
0.0174

> <Gold.Chemscore.DEInternal>
1.7995

> <Gold.Chemscore.Rot>
1.3567

> <Gold.Chemscore.Internal.Correction>
   9.000000E+99

> <Gold.Chemscore.Hbonds>
donor molecule, donor type, donor heavy atom, donor atom, acceptor molecule, acceptor atom, score
      L1  H     5    23       P1  8029  0.97
      L1  H     8    24       P1  8029  0.06
      P1  H  6933  6944       L1    17  0.52
      P1  H  7997  8009       L1    14  0.87

> <Gold.Chemscore.Hbond.Weighted>
-8.2173

> <Gold.Chemscore.Metal.Weighted>
-0.0000

> <Gold.Chemscore.Lipo.Weighted>
-8.4440

> <Gold.Chemscore.Internal_Hbond.Weighted>
0.0000

> <Gold.Chemscore.DEClash.Weighted>
0.0174

> <Gold.Chemscore.DEInternal.Weighted>
1.7995

> <Gold.Chemscore.Rot.Weighted>
3.4732

> <Gold.Chemscore.Internal.Correction.Weighted>
   9.000000E+99

> <Gold.Protein.RotatedTorsions>
[ 6907 6896 6895 6894 ] final  -29.23 input  -60.11 | X-H torsion
[ 7974 7965 7964 7962 ] final -160.87 input  175.53 | X-H torsion
[ 8008 7997 7996 7995 ] final  153.44 input   59.86 | X-H torsion
[ 10167 10162 10161 10158 ] final  127.62 input  -65.29 | X-H torsion
[ 10718 10713 10712 10709 ] final   16.58 input   66.30 | X-H torsion
[ 10763 10752 10751 10750 ] final -116.42 input  -60.55 | X-H torsion
[ 11005 11000 10999 10996 ] final  -22.59 input  -57.11 | X-H torsion

> <Gold.Protein.ActiveResidues>
 VAL166  LYS551  ARG553  GLY616  TRP617  ASP618  TYR619  PRO620  LYS621  CYS622 
 ASP623  PHE694  ASN695  SER759  ASP760  ASP761  ALA762  ILE779  LEU786  VAL792 
 PHE793  MET794  SER795  GLU796  ALA797  LYS798  CYS799  TRP800  GLU811  SER814 

> <Gold.Protein.RotatedAtoms>
  151.1220  135.0084  159.8542 H   0  0  0  0  0  0  0  0  0  0  0  0  # atno 6907 bound_to 6896
  152.5448  134.1711  159.8607 H   0  0  0  0  0  0  0  0  0  0  0  0  # atno 6908 bound_to 6896
  151.1770  133.4704  159.2627 H   0  0  0  0  0  0  0  0  0  0  0  0  # atno 6909 bound_to 6896
  144.7411  140.3479  143.6121 H   0  0  0  0  0  0  0  0  0  0  0  0  # atno 7974 bound_to 7965
  156.2581  140.1993  156.6491 H   0  0  0  0  0  0  0  0  0  0  0  0  # atno 8008 bound_to 7997
  154.6551  140.0567  157.0024 H   0  0  0  0  0  0  0  0  0  0  0  0  # atno 8009 bound_to 7997
  155.1360  140.3238  155.4466 H   0  0  0  0  0  0  0  0  0  0  0  0  # atno 8010 bound_to 7997
  139.5569  144.6855  151.4157 H   0  0  0  0  0  0  0  0  0  0  0  0  # atno 10167 bound_to 10162
  157.0699  130.6344  149.5803 H   0  0  0  0  0  0  0  0  0  0  0  0  # atno 10718 bound_to 10713
  154.8519  135.4346  154.1819 H   0  0  0  0  0  0  0  0  0  0  0  0  # atno 10763 bound_to 10752
  153.2908  135.6961  153.7301 H   0  0  0  0  0  0  0  0  0  0  0  0  # atno 10764 bound_to 10752
  153.6469  135.3458  155.3063 H   0  0  0  0  0  0  0  0  0  0  0  0  # atno 10765 bound_to 10752
  140.8672  133.7746  156.0143 H   0  0  0  0  0  0  0  0  0  0  0  0  # atno 11005 bound_to 11000
  145.7307  139.1735  143.2432 LP  0  0  0  0  0  0  0  0  0  0  0  0  # atno 17320 bound_to 7965
  146.1208  140.7311  142.9458 LP  0  0  0  0  0  0  0  0  0  0  0  0  # atno 17321 bound_to 7965
  140.6843  143.8010  150.7164 LP  0  0  0  0  0  0  0  0  0  0  0  0  # atno 17342 bound_to 10162
  140.1473  143.4388  152.2154 LP  0  0  0  0  0  0  0  0  0  0  0  0  # atno 17343 bound_to 10162
  155.9953  130.5020  150.7455 LP  0  0  0  0  0  0  0  0  0  0  0  0  # atno 17370 bound_to 10713
  157.4886  131.0909  151.0453 LP  0  0  0  0  0  0  0  0  0  0  0  0  # atno 17371 bound_to 10713
  140.8615  134.2834  157.5232 LP  0  0  0  0  0  0  0  0  0  0  0  0  # atno 17394 bound_to 11000
  139.8710  134.9521  156.4104 LP  0  0  0  0  0  0  0  0  0  0  0  0  # atno 17395 bound_to 11000

$$$$
