AV-unprocessed.smi:44|AV-procd|sdf|399|dock2
  -GOLD-   2262016253D 1   1.00000     0.00000
 Structure written by MMmdl.
 29 31  0  0  0  0  0  0  0  0  3 V2000
  153.9174  137.6366  154.5609 O   0  0  0  0  0  0  0  0  0  0  0  0
  153.1182  138.2852  155.2331 C   0  0  0  0  0  0  0  0  0  0  0  0
  153.3536  138.9608  156.4038 N   0  5  0  0  0  0  0  0  0  0  0  0
  152.3454  139.6545  157.0640 C   0  0  0  0  0  0  0  0  0  0  0  0
  151.1151  139.7712  156.7090 N   0  0  0  0  0  0  0  0  0  0  0  0
  150.7756  139.1167  155.5152 C   0  0  0  0  0  0  0  0  0  0  0  0
  151.6913  138.3980  154.7824 C   0  0  0  0  0  0  0  0  0  0  0  0
  151.0787  137.8606  153.6828 N   0  3  0  0  0  0  0  0  0  0  0  0
  149.8185  138.2794  153.7982 C   0  0  0  0  0  0  0  0  0  0  0  0
  149.5560  139.0639  154.8876 N   0  0  0  0  0  0  0  0  0  0  0  0
  148.2446  139.6615  155.2959 C   0  0  1  0  0  0  0  0  0  0  0  0
  148.3333  141.1873  155.2461 C   0  0  0  0  0  0  0  0  0  0  0  0
  147.9935  141.4534  153.7971 C   0  0  0  0  0  0  0  0  0  0  0  0
  146.9014  140.4127  153.5479 C   0  0  1  0  0  0  0  0  0  0  0  0
  146.7681  140.0132  152.0707 C   0  0  0  0  0  0  0  0  0  0  0  0
  145.7792  139.0171  151.9279 O   0  0  0  0  0  0  0  0  0  0  0  0
  147.2820  139.2911  154.3502 O   0  0  0  0  0  0  0  0  0  0  0  0
  151.4826  137.2776  152.9611 H   0  0  0  0  0  0  0  0  0  0  0  0
  148.0486  139.2478  156.2857 H   0  0  0  0  0  0  0  0  0  0  0  0
  145.9565  140.8053  153.9283 H   0  0  0  0  0  0  0  0  0  0  0  0
  152.7092  140.1296  157.9785 H   0  0  0  0  0  0  0  0  0  0  0  0
  149.0601  138.0138  153.0848 H   0  0  0  0  0  0  0  0  0  0  0  0
  147.5716  141.6057  155.9055 H   0  0  0  0  0  0  0  0  0  0  0  0
  149.3108  141.5619  155.5510 H   0  0  0  0  0  0  0  0  0  0  0  0
  147.6554  142.4745  153.6188 H   0  0  0  0  0  0  0  0  0  0  0  0
  148.8632  141.2662  153.1652 H   0  0  0  0  0  0  0  0  0  0  0  0
  146.4520  140.8731  151.4795 H   0  0  0  0  0  0  0  0  0  0  0  0
  147.7168  139.6701  151.6586 H   0  0  0  0  0  0  0  0  0  0  0  0
  144.9480  139.4369  151.7664 H   0  0  0  0  0  0  0  0  0  0  0  0
  1  2  2  0  0  0  0
  2  7  1  0  0  0  0
  2  3  1  0  0  0  0
  3  4  1  0  0  0  0
  4 21  1  0  0  0  0
  4  5  2  0  0  0  0
  5  6  1  0  0  0  0
  6 10  1  0  0  0  0
  6  7  2  0  0  0  0
  7  8  1  0  0  0  0
  8  9  2  0  0  0  0
  8 18  1  0  0  0  0
  9 10  1  0  0  0  0
  9 22  1  0  0  0  0
 10 11  1  0  0  0  0
 11 19  1  0  0  0  0
 11 17  1  0  0  0  0
 11 12  1  0  0  0  0
 12 13  1  0  0  0  0
 12 23  1  0  0  0  0
 12 24  1  0  0  0  0
 13 14  1  0  0  0  0
 13 25  1  0  0  0  0
 13 26  1  0  0  0  0
 14 20  1  0  0  0  0
 14 15  1  0  0  0  0
 14 17  1  0  0  0  0
 15 16  1  0  0  0  0
 15 27  1  0  0  0  0
 15 28  1  0  0  0  0
 16 29  1  0  0  0  0
M  CHG  1   3  -1
M  CHG  1   8   1
M  END
> <s_m_source_file>
AV-unprocessed.smi

> <i_m_source_file_index>
44

> <i_lp_mmshare_version>
43012

> <i_f3d_flags>
0

> <s_epik_input>
bjFbY0hdW25IXWMoPU8pYyhjMTIpbltjSF1uMltDQEhdM1tDSDJdW0NIMl1bQ0BIXShPMylbQ0gyXVtPSF0=

> <s_epik_cmdline>
J2VwaWtfcHl0aG9uJywgJy1waCcsICc3LjAnLCAnLXRuJywgJzgnLCAnLW1hJywgJzIwMCcsICctbWV0YWxfYmluZGluZycsICctaW1hZScsICc8aW5maWxlLm1hZT4nLCAnLW9tYWUnLCAnPG91dGZpbGUubWFlPic=

> <r_lp_tautomer_probability>
0.144281

> <r_epik_Ionization_Penalty>
5.63685

> <r_epik_Ionization_Penalty_Charging>
5.58669

> <r_epik_Ionization_Penalty_Neutral>
0.0501585

> <r_epik_State_Penalty>
1.20809

> <r_epik_Charging_Adjusted_Penalty>
6.79478

> <i_epik_Tot_Q>
0

> <i_epik_Tot_abs_Q>
2

> <r_epik_Metal_State_Penalty>
1.52487

> <b_epik_Metal_Only>
0

> <s_epik_Chemistry_Notes>
This compound contains an acetal/aminal-like group ( X-CH(R)-Y where X, Y are N, S, or O) that may be acid/base labile, releasing an aldehyde.

> <s_lp_Force_Field>
OPLS_2005

> <r_lp_Energy>
45.4458

> <b_lp_Chiralities_Consistent>
1

> <s_lp_Variant>
AV-unprocessed.smi:44-5

> <Gold.Version>
5.8.1

> <Gold.Id.Protein>
6NUR|6NUR_protein|mol2

> <Gold.PLP.Fitness>
41.2216

> <Gold.PLP.PLP>
-23.7722

> <Gold.PLP.part.hbond>
-4.8139

> <Gold.PLP.part.metal>
0.0000

> <Gold.PLP.part.buried>
2.9337

> <Gold.PLP.part.nonpolar>
-23.0196

> <Gold.PLP.part.repulsive>
0.2678

> <Gold.PLP.ligand.clash>
0.0000

> <Gold.PLP.ligand.torsion>
0.0317

> <Gold.PLP.Chemscore.Hbond>
4.7825

> <Gold.PLP.Chemscore.CHOScore>
1.0461

> <Gold.PLP.Chemscore.Metal>
0.0000

> <Gold.Chemscore.Hbonds>
donor molecule, donor type, donor heavy atom, donor atom, acceptor molecule, acceptor atom, score
      L1  H     8    18       P1  7949  1.92
      L1  H    16    29       P1 10175  0.93
      P1  H  7997  8008       L1     3  1.63
      L1  C     9    22       P1  7948  0.95
      L1  C     9    22       P1  7957  0.09

> <Gold.PLP.Chemscore.Internal.Correction>
0.0271

> <Gold.Rescore>
     Score         DG    S(hbond)    S(metal)    S(lipo)     H(rot)  DE(clash)    DE(int)     intcor
      9.01     -10.22       1.94        0.00      34.88       2.27       1.15       0.06       ----

> <Gold.Chemscore.Fitness>
9.0081

> <Gold.Chemscore.DG>
-10.2199

> <Gold.Chemscore.ZeroCoef>
-5.4800

> <Gold.Chemscore.Hbond>
1.9387

> <Gold.Chemscore.Metal>
0.0000

> <Gold.Chemscore.Lipo>
34.8819

> <Gold.Chemscore.Internal_Hbond>
0.0000

> <Gold.Chemscore.DEClash>
1.1517

> <Gold.Chemscore.DEInternal>
0.0601

> <Gold.Chemscore.Rot>
2.2720

> <Gold.Chemscore.Internal.Correction>
   9.000000E+99

> <Gold.Chemscore.Hbonds>
donor molecule, donor type, donor heavy atom, donor atom, acceptor molecule, acceptor atom, score
      L1  H     8    18       P1  7949  0.80
      L1  H    16    29       P1 10175  0.79
      P1  H  7997  8008       L1     3  0.12

> <Gold.Chemscore.Hbond.Weighted>
-6.4752

> <Gold.Chemscore.Metal.Weighted>
-0.0000

> <Gold.Chemscore.Lipo.Weighted>
-4.0812

> <Gold.Chemscore.Internal_Hbond.Weighted>
0.0000

> <Gold.Chemscore.DEClash.Weighted>
1.1517

> <Gold.Chemscore.DEInternal.Weighted>
0.0601

> <Gold.Chemscore.Rot.Weighted>
5.8164

> <Gold.Chemscore.Internal.Correction.Weighted>
   9.000000E+99

> <Gold.Protein.RotatedTorsions>
[ 6907 6896 6895 6894 ] final   -4.76 input  -60.11 | X-H torsion
[ 7974 7965 7964 7962 ] final  164.57 input  175.53 | X-H torsion
[ 8008 7997 7996 7995 ] final  -41.63 input   59.86 | X-H torsion
[ 10167 10162 10161 10158 ] final  -45.69 input  -65.29 | X-H torsion
[ 10718 10713 10712 10709 ] final   78.90 input   66.30 | X-H torsion
[ 10763 10752 10751 10750 ] final   51.32 input  -60.55 | X-H torsion
[ 11005 11000 10999 10996 ] final  -48.74 input  -57.11 | X-H torsion

> <Gold.Protein.ActiveResidues>
 VAL166  LYS551  ARG553  GLY616  TRP617  ASP618  TYR619  PRO620  LYS621  CYS622 
 ASP623  PHE694  ASN695  SER759  ASP760  ASP761  ALA762  ILE779  LEU786  VAL792 
 PHE793  MET794  SER795  GLU796  ALA797  LYS798  CYS799  TRP800  GLU811  SER814 

> <Gold.Protein.RotatedAtoms>
  151.4925  135.1058  159.9807 H   0  0  0  0  0  0  0  0  0  0  0  0  # atno 6907 bound_to 6896
  152.4735  133.8080  159.6999 H   0  0  0  0  0  0  0  0  0  0  0  0  # atno 6908 bound_to 6896
  150.8758  133.7378  159.2973 H   0  0  0  0  0  0  0  0  0  0  0  0  # atno 6909 bound_to 6896
  144.7539  139.8345  143.6356 H   0  0  0  0  0  0  0  0  0  0  0  0  # atno 7974 bound_to 7965
  154.4003  140.1494  156.3222 H   0  0  0  0  0  0  0  0  0  0  0  0  # atno 8008 bound_to 7997
  155.8519  140.3457  155.5678 H   0  0  0  0  0  0  0  0  0  0  0  0  # atno 8009 bound_to 7997
  155.7974  140.0865  157.1966 H   0  0  0  0  0  0  0  0  0  0  0  0  # atno 8010 bound_to 7997
  140.6848  143.2867  151.3676 H   0  0  0  0  0  0  0  0  0  0  0  0  # atno 10167 bound_to 10162
  157.6759  130.9889  150.1853 H   0  0  0  0  0  0  0  0  0  0  0  0  # atno 10718 bound_to 10713
  152.9785  135.5850  154.4396 H   0  0  0  0  0  0  0  0  0  0  0  0  # atno 10763 bound_to 10752
  154.3999  135.2768  155.2105 H   0  0  0  0  0  0  0  0  0  0  0  0  # atno 10764 bound_to 10752
  154.3940  135.6118  153.5914 H   0  0  0  0  0  0  0  0  0  0  0  0  # atno 10765 bound_to 10752
  141.0719  133.6677  156.3485 H   0  0  0  0  0  0  0  0  0  0  0  0  # atno 11005 bound_to 11000
  146.1525  139.4613  143.0039 LP  0  0  0  0  0  0  0  0  0  0  0  0  # atno 17320 bound_to 7965
  145.6846  141.0181  143.1588 LP  0  0  0  0  0  0  0  0  0  0  0  0  # atno 17321 bound_to 7965
  139.6197  144.0932  152.2379 LP  0  0  0  0  0  0  0  0  0  0  0  0  # atno 17342 bound_to 10162
  140.0372  144.6035  150.7440 LP  0  0  0  0  0  0  0  0  0  0  0  0  # atno 17343 bound_to 10162
  156.2576  130.3707  149.8164 LP  0  0  0  0  0  0  0  0  0  0  0  0  # atno 17370 bound_to 10713
  156.5919  130.8510  151.3410 LP  0  0  0  0  0  0  0  0  0  0  0  0  # atno 17371 bound_to 10713
  140.5656  134.5891  157.5445 LP  0  0  0  0  0  0  0  0  0  0  0  0  # atno 17394 bound_to 11000
  139.9532  134.7581  156.0402 LP  0  0  0  0  0  0  0  0  0  0  0  0  # atno 17395 bound_to 11000

$$$$
