AV-unprocessed.smi:130|AV-procd|sdf|1159|dock2
  -GOLD-   2262018293D 1   1.00000     0.00000
 Structure written by MMmdl.
 44 47  0  0  0  0  0  0  0  0  1 V2000
  153.0113  138.7009  156.7747 O   0  0  0  0  0  0  0  0  0  0  0  0
  152.2655  139.5612  156.3049 C   0  0  0  0  0  0  0  0  0  0  0  0
  151.6319  139.3204  154.9168 C   0  0  0  0  0  0  0  0  0  0  0  0
  150.4181  138.4741  154.9554 N   0  0  0  0  0  0  0  0  0  0  0  0
  149.1990  139.0103  154.4702 C   0  0  0  0  0  0  0  0  0  0  0  0
  149.1353  140.1613  154.0362 O   0  0  0  0  0  0  0  0  0  0  0  0
  148.0527  138.1093  154.5128 C   0  0  0  0  0  0  0  0  0  0  0  0
  146.8574  138.5312  154.0670 F   0  0  0  0  0  0  0  0  0  0  0  0
  148.1742  136.8532  154.9889 C   0  0  0  0  0  0  0  0  0  0  0  0
  149.3698  136.3441  155.4614 N   0  0  0  0  0  0  0  0  0  0  0  0
  149.4715  134.9219  155.9638 C   0  0  2  0  0  0  0  0  0  0  0  0
  150.4208  134.1127  155.0721 C   0  0  0  0  0  0  0  0  0  0  0  0
  149.4575  133.4343  154.1220 C   0  0  0  0  0  0  0  0  0  0  0  0
  148.2542  133.1942  155.0260 C   0  0  0  0  0  0  0  0  0  0  0  0
  148.2090  134.3231  155.8939 O   0  0  0  0  0  0  0  0  0  0  0  0
  150.5296  137.1486  155.4396 C   0  0  0  0  0  0  0  0  0  0  0  0
  151.6139  136.7019  155.8204 O   0  0  0  0  0  0  0  0  0  0  0  0
  151.9680  140.7190  156.9458 N   0  0  0  0  0  0  0  0  0  0  0  0
  151.0868  141.7567  156.3819 C   0  0  0  0  0  0  0  0  0  0  0  0
  151.0439  142.9008  157.4185 C   0  0  0  0  0  0  0  0  0  0  0  0
  151.9151  142.3873  158.5265 C   0  0  0  0  0  0  0  0  0  0  0  0
  152.2092  143.0405  159.7358 C   0  0  0  0  0  0  0  0  0  0  0  0
  153.0527  142.3881  160.6592 C   0  0  0  0  0  0  0  0  0  0  0  0
  153.5825  141.1110  160.3638 C   0  0  0  0  0  0  0  0  0  0  0  0
  153.2773  140.4693  159.1433 C   0  0  0  0  0  0  0  0  0  0  0  0
  152.4314  141.1307  158.2238 C   0  0  0  0  0  0  0  0  0  0  0  0
  151.4050  140.2845  154.4595 H   0  0  0  0  0  0  0  0  0  0  0  0
  152.3807  138.8800  154.2571 H   0  0  0  0  0  0  0  0  0  0  0  0
  147.2941  136.2277  154.9892 H   0  0  0  0  0  0  0  0  0  0  0  0
  149.7878  134.9839  157.0062 H   0  0  0  0  0  0  0  0  0  0  0  0
  151.1659  134.7390  154.5796 H   0  0  0  0  0  0  0  0  0  0  0  0
  150.9327  133.3734  155.6894 H   0  0  0  0  0  0  0  0  0  0  0  0
  149.1917  134.1087  153.3073 H   0  0  0  0  0  0  0  0  0  0  0  0
  149.8568  132.5163  153.6898 H   0  0  0  0  0  0  0  0  0  0  0  0
  147.3243  133.0801  154.4686 H   0  0  0  0  0  0  0  0  0  0  0  0
  148.4044  132.2962  155.6267 H   0  0  0  0  0  0  0  0  0  0  0  0
  151.4725  142.1229  155.4296 H   0  0  0  0  0  0  0  0  0  0  0  0
  150.0844  141.3597  156.2158 H   0  0  0  0  0  0  0  0  0  0  0  0
  151.4496  143.8294  157.0156 H   0  0  0  0  0  0  0  0  0  0  0  0
  150.0320  143.0850  157.7806 H   0  0  0  0  0  0  0  0  0  0  0  0
  151.7998  144.0161  159.9530 H   0  0  0  0  0  0  0  0  0  0  0  0
  153.2948  142.8660  161.5969 H   0  0  0  0  0  0  0  0  0  0  0  0
  154.2267  140.6207  161.0784 H   0  0  0  0  0  0  0  0  0  0  0  0
  153.6959  139.4950  158.9477 H   0  0  0  0  0  0  0  0  0  0  0  0
  1  2  2  0  0  0  0
  2  3  1  0  0  0  0
  2 18  1  0  0  0  0
  3  4  1  0  0  0  0
  3 27  1  0  0  0  0
  3 28  1  0  0  0  0
  4 16  1  0  0  0  0
  4  5  1  0  0  0  0
  5  6  2  0  0  0  0
  5  7  1  0  0  0  0
  7  8  1  0  0  0  0
  7  9  2  0  0  0  0
  9 10  1  0  0  0  0
  9 29  1  0  0  0  0
 10 11  1  0  0  0  0
 10 16  1  0  0  0  0
 11 15  1  0  0  0  0
 11 12  1  0  0  0  0
 11 30  1  0  0  0  0
 12 13  1  0  0  0  0
 12 31  1  0  0  0  0
 12 32  1  0  0  0  0
 13 14  1  0  0  0  0
 13 33  1  0  0  0  0
 13 34  1  0  0  0  0
 14 15  1  0  0  0  0
 14 35  1  0  0  0  0
 14 36  1  0  0  0  0
 16 17  2  0  0  0  0
 18 26  1  0  0  0  0
 18 19  1  0  0  0  0
 19 20  1  0  0  0  0
 19 37  1  0  0  0  0
 19 38  1  0  0  0  0
 20 21  1  0  0  0  0
 20 39  1  0  0  0  0
 20 40  1  0  0  0  0
 21 26  2  0  0  0  0
 21 22  1  0  0  0  0
 22 23  2  0  0  0  0
 22 41  1  0  0  0  0
 23 24  1  0  0  0  0
 23 42  1  0  0  0  0
 24 25  2  0  0  0  0
 24 43  1  0  0  0  0
 25 26  1  0  0  0  0
 25 44  1  0  0  0  0
M  END
> <s_m_source_file>
AV-unprocessed.smi

> <i_m_source_file_index>
130

> <i_lp_mmshare_version>
43012

> <i_f3d_flags>
0

> <s_epik_input>
W2NIXTFbY0hdW2NIXVtjSF1jKGMxMilOKFtDSDJdW0NIMl0yKUMoPU8pW0NIMl1uM2MoPU8pYyhGKVtjSF1uKGMzPU8pW0NAQEhdNFtDSDJdW0NIMl1bQ0gyXU80

> <s_epik_cmdline>
J2VwaWtfcHl0aG9uJywgJy1waCcsICc3LjAnLCAnLXRuJywgJzgnLCAnLW1hJywgJzIwMCcsICctbWV0YWxfYmluZGluZycsICctaW1hZScsICc8aW5maWxlLm1hZT4nLCAnLW9tYWUnLCAnPG91dGZpbGUubWFlPic=

> <r_lp_tautomer_probability>
1

> <r_epik_Ionization_Penalty>
1.67926e-06

> <r_epik_Ionization_Penalty_Charging>
3.62822e-09

> <r_epik_Ionization_Penalty_Neutral>
1.67563e-06

> <r_epik_State_Penalty>
-0

> <r_epik_Charging_Adjusted_Penalty>
3.62822e-09

> <i_epik_Tot_Q>
0

> <i_epik_Tot_abs_Q>
0

> <r_epik_Metal_State_Penalty>
-0

> <b_epik_Metal_Only>
0

> <s_epik_Chemistry_Notes>
This compound contains an acetal/aminal-like group ( X-CH(R)-Y where X, Y are N, S, or O) that may be acid/base labile, releasing an aldehyde.

> <s_lp_Force_Field>
OPLS_2005

> <r_lp_Energy>
53.4857

> <b_lp_Chiralities_Consistent>
1

> <s_lp_Variant>
AV-unprocessed.smi:130-1

> <Gold.Version>
5.8.1

> <Gold.Id.Protein>
6NUR|6NUR_protein|mol2

> <Gold.PLP.Fitness>
47.9107

> <Gold.PLP.PLP>
-43.8066

> <Gold.PLP.part.hbond>
-2.0000

> <Gold.PLP.part.metal>
0.0000

> <Gold.PLP.part.buried>
-4.7252

> <Gold.PLP.part.nonpolar>
-36.7650

> <Gold.PLP.part.repulsive>
0.7484

> <Gold.PLP.ligand.clash>
0.0000

> <Gold.PLP.ligand.torsion>
0.3323

> <Gold.PLP.Chemscore.Hbond>
1.5828

> <Gold.PLP.Chemscore.CHOScore>
0.0000

> <Gold.PLP.Chemscore.Metal>
0.0000

> <Gold.Chemscore.Hbonds>
donor molecule, donor type, donor heavy atom, donor atom, acceptor molecule, acceptor atom, score
      P1  H  7997  8008       L1     1  0.49
      P1  H 10752 10764       L1    17  0.89

> <Gold.PLP.Chemscore.Internal.Correction>
0.0205

> <Gold.Rescore>
     Score         DG    S(hbond)    S(metal)    S(lipo)     H(rot)  DE(clash)    DE(int)     intcor
     11.90     -17.56       1.16        0.00     104.52       1.57       1.45       4.21       ----

> <Gold.Chemscore.Fitness>
11.9014

> <Gold.Chemscore.DG>
-17.5610

> <Gold.Chemscore.ZeroCoef>
-5.4800

> <Gold.Chemscore.Hbond>
1.1594

> <Gold.Chemscore.Metal>
0.0000

> <Gold.Chemscore.Lipo>
104.5208

> <Gold.Chemscore.Internal_Hbond>
0.0000

> <Gold.Chemscore.DEClash>
1.4527

> <Gold.Chemscore.DEInternal>
4.2068

> <Gold.Chemscore.Rot>
1.5704

> <Gold.Chemscore.Internal.Correction>
   9.000000E+99

> <Gold.Chemscore.Hbonds>
donor molecule, donor type, donor heavy atom, donor atom, acceptor molecule, acceptor atom, score
      P1  H  7997  8008       L1     1  0.02
      P1  H 10752 10764       L1    17  0.85

> <Gold.Chemscore.Hbond.Weighted>
-3.8723

> <Gold.Chemscore.Metal.Weighted>
-0.0000

> <Gold.Chemscore.Lipo.Weighted>
-12.2289

> <Gold.Chemscore.Internal_Hbond.Weighted>
0.0000

> <Gold.Chemscore.DEClash.Weighted>
1.4527

> <Gold.Chemscore.DEInternal.Weighted>
4.2068

> <Gold.Chemscore.Rot.Weighted>
4.0203

> <Gold.Chemscore.Internal.Correction.Weighted>
   9.000000E+99

> <Gold.Protein.RotatedTorsions>
[ 6907 6896 6895 6894 ] final  -50.76 input  -60.11 | X-H torsion
[ 7974 7965 7964 7962 ] final   43.36 input  175.53 | X-H torsion
[ 8008 7997 7996 7995 ] final  -76.20 input   59.86 | X-H torsion
[ 10167 10162 10161 10158 ] final -159.79 input  -65.29 | X-H torsion
[ 10718 10713 10712 10709 ] final  116.23 input   66.30 | X-H torsion
[ 10763 10752 10751 10750 ] final  -50.90 input  -60.55 | X-H torsion
[ 11005 11000 10999 10996 ] final   38.08 input  -57.11 | X-H torsion

> <Gold.Protein.ActiveResidues>
 VAL166  LYS551  ARG553  GLY616  TRP617  ASP618  TYR619  PRO620  LYS621  CYS622 
 ASP623  PHE694  ASN695  SER759  ASP760  ASP761  ALA762  ILE779  LEU786  VAL792 
 PHE793  MET794  SER795  GLU796  ALA797  LYS798  CYS799  TRP800  GLU811  SER814 

> <Gold.Protein.RotatedAtoms>
  150.8676  134.8042  159.7129 H   0  0  0  0  0  0  0  0  0  0  0  0  # atno 6907 bound_to 6896
  152.4692  134.4999  159.9731 H   0  0  0  0  0  0  0  0  0  0  0  0  # atno 6908 bound_to 6896
  151.5093  133.3450  159.2917 H   0  0  0  0  0  0  0  0  0  0  0  0  # atno 6909 bound_to 6896
  146.0662  139.5195  142.9627 H   0  0  0  0  0  0  0  0  0  0  0  0  # atno 7974 bound_to 7965
  154.5484  140.0731  156.8627 H   0  0  0  0  0  0  0  0  0  0  0  0  # atno 8008 bound_to 7997
  155.3041  140.3386  155.4228 H   0  0  0  0  0  0  0  0  0  0  0  0  # atno 8009 bound_to 7997
  156.1939  140.1696  156.8023 H   0  0  0  0  0  0  0  0  0  0  0  0  # atno 8010 bound_to 7997
  139.6588  143.9950  152.2211 H   0  0  0  0  0  0  0  0  0  0  0  0  # atno 10167 bound_to 10162
  157.6173  131.1023  150.7443 H   0  0  0  0  0  0  0  0  0  0  0  0  # atno 10718 bound_to 10713
  154.1179  135.6539  153.4897 H   0  0  0  0  0  0  0  0  0  0  0  0  # atno 10763 bound_to 10752
  153.0235  135.5263  154.7127 H   0  0  0  0  0  0  0  0  0  0  0  0  # atno 10764 bound_to 10752
  154.6326  135.2978  155.0169 H   0  0  0  0  0  0  0  0  0  0  0  0  # atno 10765 bound_to 10752
  140.2162  134.3696  155.8026 H   0  0  0  0  0  0  0  0  0  0  0  0  # atno 11005 bound_to 11000
  145.6473  141.0271  143.1779 LP  0  0  0  0  0  0  0  0  0  0  0  0  # atno 17320 bound_to 7965
  144.7204  139.8051  143.7384 LP  0  0  0  0  0  0  0  0  0  0  0  0  # atno 17321 bound_to 7965
  139.9684  144.6511  150.8013 LP  0  0  0  0  0  0  0  0  0  0  0  0  # atno 17342 bound_to 10162
  140.7571  143.3079  151.2917 LP  0  0  0  0  0  0  0  0  0  0  0  0  # atno 17343 bound_to 10162
  156.7808  130.4858  149.5401 LP  0  0  0  0  0  0  0  0  0  0  0  0  # atno 17370 bound_to 10713
  156.1301  130.6172  151.0321 LP  0  0  0  0  0  0  0  0  0  0  0  0  # atno 17371 bound_to 10713
  141.2225  133.7169  156.8499 LP  0  0  0  0  0  0  0  0  0  0  0  0  # atno 17394 bound_to 11000
  140.1898  134.8973  157.3047 LP  0  0  0  0  0  0  0  0  0  0  0  0  # atno 17395 bound_to 11000

$$$$
