AV-unprocessed.smi:2154|AV-procd|sdf|8772|dock1
  -GOLD-   2272011553D 1   1.00000     0.00000
 Structure written by MMmdl.
 32 33  0  0  0  0  0  0  0  0  1 V2000
  153.1150  142.7177  159.7057 C   0  0  0  0  0  0  0  0  0  0  0  0
  152.9341  144.0660  159.0371 C   0  0  2  0  0  0  0  0  0  0  0  0
  152.0626  145.1282  159.6662 C   0  0  0  0  0  0  0  0  0  0  0  0
  151.6357  144.4770  158.3710 C   0  0  2  0  0  0  0  0  0  0  0  0
  150.4270  143.5577  158.3198 C   0  0  0  0  0  0  0  0  0  0  0  0
  150.2229  142.8875  157.0423 N   0  0  0  0  0  0  0  0  0  0  0  0
  150.3217  141.5649  156.8410 C   0  0  0  0  0  0  0  0  0  0  0  0
  150.5737  140.7630  157.7413 O   0  0  0  0  0  0  0  0  0  0  0  0
  150.0765  141.0791  155.4055 C   0  0  0  0  0  0  0  0  0  0  0  0
  150.1297  139.6153  155.2794 N   0  0  0  0  0  0  0  0  0  0  0  0
  148.9620  138.8810  155.1281 C   0  0  0  0  0  0  0  0  0  0  0  0
  148.9394  137.5319  155.0135 C   0  0  0  0  0  0  0  0  0  0  0  0
  150.1814  136.7668  155.0457 C   0  0  0  0  0  0  0  0  0  0  0  0
  150.2641  135.5444  154.9476 O   0  0  0  0  0  0  0  0  0  0  0  0
  151.3341  137.5409  155.2025 N   0  0  0  0  0  0  0  0  0  0  0  0
  151.3642  138.9311  155.3225 C   0  0  0  0  0  0  0  0  0  0  0  0
  152.4376  139.5166  155.4601 O   0  0  0  0  0  0  0  0  0  0  0  0
  152.2184  137.0546  155.2329 H   0  0  0  0  0  0  0  0  0  0  0  0
  152.2358  142.4415  160.2872 H   0  0  0  0  0  0  0  0  0  0  0  0
  153.9718  142.7494  160.3786 H   0  0  0  0  0  0  0  0  0  0  0  0
  153.2932  141.9484  158.9542 H   0  0  0  0  0  0  0  0  0  0  0  0
  153.8374  144.4213  158.5450 H   0  0  0  0  0  0  0  0  0  0  0  0
  151.5154  144.8657  160.5697 H   0  0  0  0  0  0  0  0  0  0  0  0
  152.4107  146.1581  159.6180 H   0  0  0  0  0  0  0  0  0  0  0  0
  151.7620  145.0731  157.4689 H   0  0  0  0  0  0  0  0  0  0  0  0
  150.5199  142.8137  159.1125 H   0  0  0  0  0  0  0  0  0  0  0  0
  149.5247  144.1278  158.5390 H   0  0  0  0  0  0  0  0  0  0  0  0
  150.0068  143.4736  156.2491 H   0  0  0  0  0  0  0  0  0  0  0  0
  149.1032  141.4527  155.0845 H   0  0  0  0  0  0  0  0  0  0  0  0
  150.7988  141.5385  154.7273 H   0  0  0  0  0  0  0  0  0  0  0  0
  148.0174  139.4057  155.1028 H   0  0  0  0  0  0  0  0  0  0  0  0
  147.9972  137.0158  154.8982 H   0  0  0  0  0  0  0  0  0  0  0  0
  1  2  1  0  0  0  0
  1 19  1  0  0  0  0
  1 20  1  0  0  0  0
  1 21  1  0  0  0  0
  2  4  1  0  0  0  0
  2  3  1  0  0  0  0
  2 22  1  0  0  0  0
  3  4  1  0  0  0  0
  3 23  1  0  0  0  0
  3 24  1  0  0  0  0
  4  5  1  0  0  0  0
  4 25  1  0  0  0  0
  5  6  1  0  0  0  0
  5 26  1  0  0  0  0
  5 27  1  0  0  0  0
  6  7  1  0  0  0  0
  6 28  1  0  0  0  0
  7  8  2  0  0  0  0
  7  9  1  0  0  0  0
  9 10  1  0  0  0  0
  9 29  1  0  0  0  0
  9 30  1  0  0  0  0
 10 16  1  0  0  0  0
 10 11  1  0  0  0  0
 11 12  2  0  0  0  0
 11 31  1  0  0  0  0
 12 13  1  0  0  0  0
 12 32  1  0  0  0  0
 13 14  2  0  0  0  0
 13 15  1  0  0  0  0
 15 18  1  0  0  0  0
 15 16  1  0  0  0  0
 16 17  2  0  0  0  0
M  END
> <s_m_source_file>
AV-unprocessed.smi

> <i_m_source_file_index>
2154

> <i_lp_mmshare_version>
43012

> <i_f3d_flags>
0

> <s_epik_input>
W0NIM11bQ0BASF0xW0NIMl1bQ0BIXTFbQ0gyXVtOSF1DKD1PKVtDSDJdbjJbY0hdW2NIXWMoPU8pW25IXWMyPU8=

> <s_epik_cmdline>
J2VwaWtfcHl0aG9uJywgJy1waCcsICc3LjAnLCAnLXRuJywgJzgnLCAnLW1hJywgJzIwMCcsICctbWV0YWxfYmluZGluZycsICctaW1hZScsICc8aW5maWxlLm1hZT4nLCAnLW9tYWUnLCAnPG91dGZpbGUubWFlPic=

> <r_lp_tautomer_probability>
0.999537

> <r_epik_Ionization_Penalty>
0.00305319

> <r_epik_Ionization_Penalty_Charging>
0.00305317

> <r_epik_Ionization_Penalty_Neutral>
2.06703e-08

> <r_epik_State_Penalty>
0.00214626

> <r_epik_Charging_Adjusted_Penalty>
0.00519944

> <i_epik_Tot_Q>
0

> <i_epik_Tot_abs_Q>
0

> <r_epik_Metal_State_Penalty>
0.361976

> <b_epik_Metal_Only>
0

> <s_lp_Force_Field>
OPLS_2005

> <r_lp_Energy>
15.9584

> <b_lp_Chiralities_Consistent>
1

> <s_lp_Variant>
AV-unprocessed.smi:2154-3

> <Gold.Version>
5.8.1

> <Gold.Id.Protein>
6NUR|6NUR_protein|mol2

> <Gold.PLP.Fitness>
45.9389

> <Gold.PLP.PLP>
-37.1273

> <Gold.PLP.part.hbond>
-4.0000

> <Gold.PLP.part.metal>
0.0000

> <Gold.PLP.part.buried>
-3.7863

> <Gold.PLP.part.nonpolar>
-29.8739

> <Gold.PLP.part.repulsive>
0.3453

> <Gold.PLP.ligand.clash>
0.0000

> <Gold.PLP.ligand.torsion>
0.5122

> <Gold.PLP.Chemscore.Hbond>
3.0946

> <Gold.PLP.Chemscore.CHOScore>
0.0000

> <Gold.PLP.Chemscore.Metal>
0.0000

> <Gold.Chemscore.Hbonds>
donor molecule, donor type, donor heavy atom, donor atom, acceptor molecule, acceptor atom, score
      L1  H     6    28       P1  8028  0.86
      P1  H  7997  8009       L1    17  0.75

> <Gold.PLP.Chemscore.Internal.Correction>
0.5520

> <Gold.Rescore>
     Score         DG    S(hbond)    S(metal)    S(lipo)     H(rot)  DE(clash)    DE(int)     intcor
     17.16     -17.83       2.79        0.00      69.82       2.01       0.12       0.55       ----

> <Gold.Chemscore.Fitness>
17.1616

> <Gold.Chemscore.DG>
-17.8345

> <Gold.Chemscore.ZeroCoef>
-5.4800

> <Gold.Chemscore.Hbond>
2.7911

> <Gold.Chemscore.Metal>
0.0000

> <Gold.Chemscore.Lipo>
69.8179

> <Gold.Chemscore.Internal_Hbond>
0.0000

> <Gold.Chemscore.DEClash>
0.1187

> <Gold.Chemscore.DEInternal>
0.5542

> <Gold.Chemscore.Rot>
2.0065

> <Gold.Chemscore.Internal.Correction>
   9.000000E+99

> <Gold.Chemscore.Hbonds>
donor molecule, donor type, donor heavy atom, donor atom, acceptor molecule, acceptor atom, score
      L1  H     6    28       P1  8028  0.87
      P1  H  7997  8009       L1    17  0.75

> <Gold.Chemscore.Hbond.Weighted>
-9.3224

> <Gold.Chemscore.Metal.Weighted>
-0.0000

> <Gold.Chemscore.Lipo.Weighted>
-8.1687

> <Gold.Chemscore.Internal_Hbond.Weighted>
0.0000

> <Gold.Chemscore.DEClash.Weighted>
0.1187

> <Gold.Chemscore.DEInternal.Weighted>
0.5542

> <Gold.Chemscore.Rot.Weighted>
5.1366

> <Gold.Chemscore.Internal.Correction.Weighted>
   9.000000E+99

> <Gold.Protein.RotatedTorsions>
[ 6907 6896 6895 6894 ] final   24.21 input  -60.11 | X-H torsion
[ 7974 7965 7964 7962 ] final  -48.65 input  175.53 | X-H torsion
[ 8008 7997 7996 7995 ] final -146.80 input   59.86 | X-H torsion
[ 10167 10162 10161 10158 ] final  173.54 input  -65.29 | X-H torsion
[ 10718 10713 10712 10709 ] final  -71.15 input   66.30 | X-H torsion
[ 10763 10752 10751 10750 ] final  -69.80 input  -60.55 | X-H torsion
[ 11005 11000 10999 10996 ] final  -51.55 input  -57.11 | X-H torsion

> <Gold.Protein.ActiveResidues>
 VAL166  LYS551  ARG553  GLY616  TRP617  ASP618  TYR619  PRO620  LYS621  CYS622 
 ASP623  PHE694  ASN695  SER759  ASP760  ASP761  ALA762  ILE779  LEU786  VAL792 
 PHE793  MET794  SER795  GLU796  ALA797  LYS798  CYS799  TRP800  GLU811  SER814 

> <Gold.Protein.RotatedAtoms>
  151.9541  135.0155  160.0543 H   0  0  0  0  0  0  0  0  0  0  0  0  # atno 6907 bound_to 6896
  152.1927  133.4780  159.5025 H   0  0  0  0  0  0  0  0  0  0  0  0  # atno 6908 bound_to 6896
  150.6938  134.1609  159.4218 H   0  0  0  0  0  0  0  0  0  0  0  0  # atno 6909 bound_to 6896
  145.9489  140.7592  142.9515 H   0  0  0  0  0  0  0  0  0  0  0  0  # atno 7974 bound_to 7965
  155.5653  140.0629  157.2819 H   0  0  0  0  0  0  0  0  0  0  0  0  # atno 8008 bound_to 7997
  154.4377  140.1878  156.0869 H   0  0  0  0  0  0  0  0  0  0  0  0  # atno 8009 bound_to 7997
  156.0416  140.3295  155.7254 H   0  0  0  0  0  0  0  0  0  0  0  0  # atno 8010 bound_to 7997
  139.5111  144.3249  152.0167 H   0  0  0  0  0  0  0  0  0  0  0  0  # atno 10167 bound_to 10162
  156.0375  130.4345  150.2402 H   0  0  0  0  0  0  0  0  0  0  0  0  # atno 10718 bound_to 10713
  154.4085  135.6014  153.5939 H   0  0  0  0  0  0  0  0  0  0  0  0  # atno 10763 bound_to 10752
  152.9789  135.5924  154.4098 H   0  0  0  0  0  0  0  0  0  0  0  0  # atno 10764 bound_to 10752
  154.3907  135.2842  155.2135 H   0  0  0  0  0  0  0  0  0  0  0  0  # atno 10765 bound_to 10752
  141.0877  133.6639  156.3894 H   0  0  0  0  0  0  0  0  0  0  0  0  # atno 11005 bound_to 11000
  144.6792  140.2401  143.7344 LP  0  0  0  0  0  0  0  0  0  0  0  0  # atno 17320 bound_to 7965
  145.8199  139.2039  143.1944 LP  0  0  0  0  0  0  0  0  0  0  0  0  # atno 17321 bound_to 7965
  140.2690  144.3984  150.6158 LP  0  0  0  0  0  0  0  0  0  0  0  0  # atno 17342 bound_to 10162
  140.6102  143.2169  151.6901 LP  0  0  0  0  0  0  0  0  0  0  0  0  # atno 17343 bound_to 10162
  157.0500  131.0060  151.3257 LP  0  0  0  0  0  0  0  0  0  0  0  0  # atno 17370 bound_to 10713
  157.5147  130.7961  149.7743 LP  0  0  0  0  0  0  0  0  0  0  0  0  # atno 17371 bound_to 10713
  140.5324  134.6199  157.5354 LP  0  0  0  0  0  0  0  0  0  0  0  0  # atno 17394 bound_to 11000
  139.9698  134.7312  156.0065 LP  0  0  0  0  0  0  0  0  0  0  0  0  # atno 17395 bound_to 11000

$$$$
