AV-unprocessed.smi:2407|AV-procd|sdf|9519|dock8
  -GOLD-   2272013153D 1   1.00000     0.00000
 Structure written by MMmdl.
 38 39  0  0  0  0  0  0  0  0  1 V2000
  150.0423  135.7790  155.0780 C   0  0  0  0  0  0  0  0  0  0  0  0
  151.0531  136.6285  155.7904 C   0  0  0  0  0  0  0  0  0  0  0  0
  151.8997  136.1177  156.8518 C   0  0  0  0  0  0  0  0  0  0  0  0
  152.7820  136.9457  157.4514 C   0  0  0  0  0  0  0  0  0  0  0  0
  152.9074  138.3479  157.0594 C   0  0  0  0  0  0  0  0  0  0  0  0
  153.6877  139.1334  157.5974 O   0  0  0  0  0  0  0  0  0  0  0  0
  152.0700  138.7102  156.0440 N   0  0  0  0  0  0  0  0  0  0  0  0
  152.0546  140.0855  155.5347 C   0  0  0  0  0  0  0  0  0  0  0  0
  150.7430  140.8174  155.9089 C   0  0  1  0  0  0  0  0  0  0  0  0
  149.6429  140.0610  155.4451 O   0  0  0  0  0  0  0  0  0  0  0  0
  150.5741  141.0049  157.4239 C   0  0  0  0  0  0  0  0  0  0  0  0
  150.7426  142.3820  157.7325 O   0  0  0  0  0  0  0  0  0  0  0  0
  149.7607  143.0241  158.4582 C   0  0  0  0  0  0  0  0  0  0  0  0
  148.4024  142.6152  158.4681 C   0  0  0  0  0  0  0  0  0  0  0  0
  147.4484  143.3166  159.2283 C   0  0  0  0  0  0  0  0  0  0  0  0
  147.8369  144.4325  159.9886 C   0  0  0  0  0  0  0  0  0  0  0  0
  149.1810  144.8462  159.9890 C   0  0  0  0  0  0  0  0  0  0  0  0
  150.1470  144.1498  159.2277 C   0  0  0  0  0  0  0  0  0  0  0  0
  151.6054  144.5963  159.2449 C   0  0  0  0  0  0  0  0  0  0  0  0
  151.7769  145.7170  159.9473 F   0  0  0  0  0  0  0  0  0  0  0  0
  152.3517  143.6407  159.7979 F   0  0  0  0  0  0  0  0  0  0  0  0
  152.0341  144.8184  158.0020 F   0  0  0  0  0  0  0  0  0  0  0  0
  151.1595  137.8660  155.4315 N   0  0  0  0  0  0  0  0  0  0  0  0
  150.1858  134.7225  155.3047 H   0  0  0  0  0  0  0  0  0  0  0  0
  150.1201  135.9004  153.9970 H   0  0  0  0  0  0  0  0  0  0  0  0
  149.0297  136.0506  155.3768 H   0  0  0  0  0  0  0  0  0  0  0  0
  151.8176  135.0840  157.1537 H   0  0  0  0  0  0  0  0  0  0  0  0
  153.4113  136.5641  158.2419 H   0  0  0  0  0  0  0  0  0  0  0  0
  152.9310  140.6290  155.8941 H   0  0  0  0  0  0  0  0  0  0  0  0
  152.1785  140.0670  154.4500 H   0  0  0  0  0  0  0  0  0  0  0  0
  150.6933  141.7959  155.4282 H   0  0  0  0  0  0  0  0  0  0  0  0
  149.6849  140.0212  154.5014 H   0  0  0  0  0  0  0  0  0  0  0  0
  149.5744  140.6815  157.7192 H   0  0  0  0  0  0  0  0  0  0  0  0
  151.3025  140.3984  157.9653 H   0  0  0  0  0  0  0  0  0  0  0  0
  148.0632  141.7636  157.8987 H   0  0  0  0  0  0  0  0  0  0  0  0
  146.4169  142.9965  159.2276 H   0  0  0  0  0  0  0  0  0  0  0  0
  147.1051  144.9704  160.5731 H   0  0  0  0  0  0  0  0  0  0  0  0
  149.4612  145.7029  160.5833 H   0  0  0  0  0  0  0  0  0  0  0  0
  1  2  1  0  0  0  0
  1 24  1  0  0  0  0
  1 25  1  0  0  0  0
  1 26  1  0  0  0  0
  2 23  2  0  0  0  0
  2  3  1  0  0  0  0
  3  4  2  0  0  0  0
  3 27  1  0  0  0  0
  4  5  1  0  0  0  0
  4 28  1  0  0  0  0
  5  6  2  0  0  0  0
  5  7  1  0  0  0  0
  7  8  1  0  0  0  0
  7 23  1  0  0  0  0
  8  9  1  0  0  0  0
  8 29  1  0  0  0  0
  8 30  1  0  0  0  0
  9 10  1  0  0  0  0
  9 11  1  0  0  0  0
  9 31  1  0  0  0  0
 10 32  1  0  0  0  0
 11 12  1  0  0  0  0
 11 33  1  0  0  0  0
 11 34  1  0  0  0  0
 12 13  1  0  0  0  0
 13 18  1  0  0  0  0
 13 14  2  0  0  0  0
 14 15  1  0  0  0  0
 14 35  1  0  0  0  0
 15 16  2  0  0  0  0
 15 36  1  0  0  0  0
 16 17  1  0  0  0  0
 16 37  1  0  0  0  0
 17 18  2  0  0  0  0
 17 38  1  0  0  0  0
 18 19  1  0  0  0  0
 19 20  1  0  0  0  0
 19 21  1  0  0  0  0
 19 22  1  0  0  0  0
M  END
> <s_m_source_file>
AV-unprocessed.smi

> <i_m_source_file_index>
2407

> <i_lp_mmshare_version>
43012

> <i_f3d_flags>
0

> <s_epik_input>
W0NIM11jMVtjSF1bY0hdYyg9TyluKG4xKVtDSDJdW0NASF0oW09IXSlbQ0gyXU9jMltjSF1bY0hdW2NIXVtjSF1jMkMoRikoRilG

> <s_epik_cmdline>
J2VwaWtfcHl0aG9uJywgJy1waCcsICc3LjAnLCAnLXRuJywgJzgnLCAnLW1hJywgJzIwMCcsICctbWV0YWxfYmluZGluZycsICctaW1hZScsICc8aW5maWxlLm1hZT4nLCAnLW9tYWUnLCAnPG91dGZpbGUubWFlPic=

> <r_lp_tautomer_probability>
1

> <r_epik_Ionization_Penalty>
5.91655e-06

> <r_epik_Ionization_Penalty_Charging>
5.79937e-06

> <r_epik_Ionization_Penalty_Neutral>
1.17174e-07

> <r_epik_State_Penalty>
-0

> <r_epik_Charging_Adjusted_Penalty>
5.79937e-06

> <i_epik_Tot_Q>
0

> <i_epik_Tot_abs_Q>
0

> <r_epik_Metal_State_Penalty>
-0

> <b_epik_Metal_Only>
0

> <s_lp_Force_Field>
OPLS_2005

> <r_lp_Energy>
30.1001

> <b_lp_Chiralities_Consistent>
1

> <s_lp_Variant>
AV-unprocessed.smi:2407-2

> <Gold.Version>
5.8.1

> <Gold.Id.Protein>
6NUR|6NUR_protein|mol2

> <Gold.PLP.Fitness>
42.3758

> <Gold.PLP.PLP>
-42.3581

> <Gold.PLP.part.hbond>
-1.0000

> <Gold.PLP.part.metal>
0.0000

> <Gold.PLP.part.buried>
-5.9894

> <Gold.PLP.part.nonpolar>
-35.7061

> <Gold.PLP.part.repulsive>
0.1440

> <Gold.PLP.ligand.clash>
0.4230

> <Gold.PLP.ligand.torsion>
1.5715

> <Gold.PLP.Chemscore.Hbond>
1.0000

> <Gold.PLP.Chemscore.CHOScore>
0.0000

> <Gold.PLP.Chemscore.Metal>
0.0000

> <Gold.Chemscore.Hbonds>
donor molecule, donor type, donor heavy atom, donor atom, acceptor molecule, acceptor atom, score
      P1  H  7997  8009       L1     6  0.65

> <Gold.PLP.Chemscore.Internal.Correction>
0.5837

> <Gold.Rescore>
     Score         DG    S(hbond)    S(metal)    S(lipo)     H(rot)  DE(clash)    DE(int)     intcor
      5.40     -11.16       1.00        0.00      76.97       2.60       0.09       5.66       ----

> <Gold.Chemscore.Fitness>
5.4004

> <Gold.Chemscore.DG>
-11.1555

> <Gold.Chemscore.ZeroCoef>
-5.4800

> <Gold.Chemscore.Hbond>
0.9986

> <Gold.Chemscore.Metal>
0.0000

> <Gold.Chemscore.Lipo>
76.9655

> <Gold.Chemscore.Internal_Hbond>
0.0000

> <Gold.Chemscore.DEClash>
0.0904

> <Gold.Chemscore.DEInternal>
5.6646

> <Gold.Chemscore.Rot>
2.6035

> <Gold.Chemscore.Internal.Correction>
   9.000000E+99

> <Gold.Chemscore.Hbonds>
donor molecule, donor type, donor heavy atom, donor atom, acceptor molecule, acceptor atom, score
      P1  H  7997  8009       L1     6  0.65

> <Gold.Chemscore.Hbond.Weighted>
-3.3354

> <Gold.Chemscore.Metal.Weighted>
-0.0000

> <Gold.Chemscore.Lipo.Weighted>
-9.0050

> <Gold.Chemscore.Internal_Hbond.Weighted>
0.0000

> <Gold.Chemscore.DEClash.Weighted>
0.0904

> <Gold.Chemscore.DEInternal.Weighted>
5.6646

> <Gold.Chemscore.Rot.Weighted>
6.6649

> <Gold.Chemscore.Internal.Correction.Weighted>
   9.000000E+99

> <Gold.Protein.RotatedTorsions>
[ 6907 6896 6895 6894 ] final   82.41 input  -60.11 | X-H torsion
[ 7974 7965 7964 7962 ] final  178.49 input  175.53 | X-H torsion
[ 8008 7997 7996 7995 ] final  160.88 input   59.86 | X-H torsion
[ 10167 10162 10161 10158 ] final -172.70 input  -65.29 | X-H torsion
[ 10718 10713 10712 10709 ] final  175.73 input   66.30 | X-H torsion
[ 10763 10752 10751 10750 ] final  163.87 input  -60.55 | X-H torsion
[ 11005 11000 10999 10996 ] final   53.20 input  -57.11 | X-H torsion

> <Gold.Protein.ActiveResidues>
 VAL166  LYS551  ARG553  GLY616  TRP617  ASP618  TYR619  PRO620  LYS621  CYS622 
 ASP623  PHE694  ASN695  SER759  ASP760  ASP761  ALA762  ILE779  LEU786  VAL792 
 PHE793  MET794  SER795  GLU796  ALA797  LYS798  CYS799  TRP800  GLU811  SER814 

> <Gold.Protein.RotatedAtoms>
  152.5298  134.3053  159.9093 H   0  0  0  0  0  0  0  0  0  0  0  0  # atno 6907 bound_to 6896
  151.3003  133.4119  159.2647 H   0  0  0  0  0  0  0  0  0  0  0  0  # atno 6908 bound_to 6896
  151.0124  134.9423  159.8072 H   0  0  0  0  0  0  0  0  0  0  0  0  # atno 6909 bound_to 6896
  144.7155  140.0406  143.6437 H   0  0  0  0  0  0  0  0  0  0  0  0  # atno 7974 bound_to 7965
  156.2142  140.1792  156.7626 H   0  0  0  0  0  0  0  0  0  0  0  0  # atno 8008 bound_to 7997
  154.5767  140.0673  156.9074 H   0  0  0  0  0  0  0  0  0  0  0  0  # atno 8009 bound_to 7997
  155.2575  140.3333  155.4278 H   0  0  0  0  0  0  0  0  0  0  0  0  # atno 8010 bound_to 7997
  139.5729  144.1599  152.1410 H   0  0  0  0  0  0  0  0  0  0  0  0  # atno 10167 bound_to 10162
  156.9306  130.9969  151.2988 H   0  0  0  0  0  0  0  0  0  0  0  0  # atno 10718 bound_to 10713
  154.3004  135.2759  155.2614 H   0  0  0  0  0  0  0  0  0  0  0  0  # atno 10763 bound_to 10752
  154.5053  135.5797  153.6566 H   0  0  0  0  0  0  0  0  0  0  0  0  # atno 10764 bound_to 10752
  152.9901  135.6168  154.3174 H   0  0  0  0  0  0  0  0  0  0  0  0  # atno 10765 bound_to 10752
  140.0786  134.5369  155.8970 H   0  0  0  0  0  0  0  0  0  0  0  0  # atno 11005 bound_to 11000
  146.0027  139.3104  143.0918 LP  0  0  0  0  0  0  0  0  0  0  0  0  # atno 17320 bound_to 7965
  145.8775  140.9383  143.0618 LP  0  0  0  0  0  0  0  0  0  0  0  0  # atno 17321 bound_to 7965
  140.1135  144.5436  150.6909 LP  0  0  0  0  0  0  0  0  0  0  0  0  # atno 17342 bound_to 10162
  140.7013  143.2437  151.4855 LP  0  0  0  0  0  0  0  0  0  0  0  0  # atno 17343 bound_to 10162
  157.5849  130.8403  149.8576 LP  0  0  0  0  0  0  0  0  0  0  0  0  # atno 17370 bound_to 10713
  156.0449  130.3730  150.1342 LP  0  0  0  0  0  0  0  0  0  0  0  0  # atno 17371 bound_to 10713
  141.2039  133.6635  156.6087 LP  0  0  0  0  0  0  0  0  0  0  0  0  # atno 17394 bound_to 11000
  140.3520  134.7760  157.4474 LP  0  0  0  0  0  0  0  0  0  0  0  0  # atno 17395 bound_to 11000

$$$$
