AV-unprocessed.smi:3085|AV-procd|sdf|11755|dock8
  -GOLD-   2272017143D 1   1.00000     0.00000
 Structure written by MMmdl.
 27 28  0  0  0  0  0  0  0  0  1 V2000
  152.4891  143.5476  159.8098 C   0  0  0  0  0  0  0  0  0  0  0  0
  151.5793  143.9997  158.6626 C   0  0  0  0  0  0  0  0  0  0  0  0
  151.2982  142.9047  157.6868 C   0  0  0  0  0  0  0  0  0  0  0  0
  151.7469  141.6584  157.7852 N   0  0  0  0  0  0  0  0  0  0  0  0
  151.1746  141.1038  156.6716 C   0  0  0  0  0  0  0  0  0  0  0  0
  151.3946  139.6823  156.2563 C   0  0  1  0  0  0  0  0  0  0  0  0
  150.0786  138.8814  156.2079 C   0  0  0  0  0  0  0  0  0  0  0  0
  150.3254  137.5316  155.7025 N   0  0  0  0  0  0  0  0  0  0  0  0
  150.9978  137.5682  154.4042 C   0  0  0  0  0  0  0  0  0  0  0  0
  152.2869  138.4054  154.4910 C   0  0  0  0  0  0  0  0  0  0  0  0
  151.9767  139.7148  154.9549 O   0  0  0  0  0  0  0  0  0  0  0  0
  150.4474  141.9300  155.9200 N   0  0  0  0  0  0  0  0  0  0  0  0
  150.5318  143.0872  156.6097 N   0  0  0  0  0  0  0  0  0  0  0  0
  150.0756  143.9391  156.3165 H   0  0  0  0  0  0  0  0  0  0  0  0
  152.6758  144.3677  160.5033 H   0  0  0  0  0  0  0  0  0  0  0  0
  153.4530  143.2018  159.4348 H   0  0  0  0  0  0  0  0  0  0  0  0
  152.0357  142.7311  160.3722 H   0  0  0  0  0  0  0  0  0  0  0  0
  150.6351  144.3725  159.0616 H   0  0  0  0  0  0  0  0  0  0  0  0
  152.0415  144.8315  158.1296 H   0  0  0  0  0  0  0  0  0  0  0  0
  152.0941  139.2169  156.9539 H   0  0  0  0  0  0  0  0  0  0  0  0
  149.6302  138.8338  157.2005 H   0  0  0  0  0  0  0  0  0  0  0  0
  149.3610  139.3908  155.5633 H   0  0  0  0  0  0  0  0  0  0  0  0
  149.4443  137.0353  155.6151 H   0  0  0  0  0  0  0  0  0  0  0  0
  151.2300  136.5556  154.0740 H   0  0  0  0  0  0  0  0  0  0  0  0
  150.3330  137.9981  153.6541 H   0  0  0  0  0  0  0  0  0  0  0  0
  153.0162  137.9334  155.1515 H   0  0  0  0  0  0  0  0  0  0  0  0
  152.7515  138.4819  153.5079 H   0  0  0  0  0  0  0  0  0  0  0  0
  1  2  1  0  0  0  0
  1 15  1  0  0  0  0
  1 16  1  0  0  0  0
  1 17  1  0  0  0  0
  2  3  1  0  0  0  0
  2 18  1  0  0  0  0
  2 19  1  0  0  0  0
  3 13  1  0  0  0  0
  3  4  2  0  0  0  0
  4  5  1  0  0  0  0
  5  6  1  0  0  0  0
  5 12  2  0  0  0  0
  6 11  1  0  0  0  0
  6  7  1  0  0  0  0
  6 20  1  0  0  0  0
  7  8  1  0  0  0  0
  7 21  1  0  0  0  0
  7 22  1  0  0  0  0
  8  9  1  0  0  0  0
  8 23  1  0  0  0  0
  9 10  1  0  0  0  0
  9 24  1  0  0  0  0
  9 25  1  0  0  0  0
 10 11  1  0  0  0  0
 10 26  1  0  0  0  0
 10 27  1  0  0  0  0
 12 13  1  0  0  0  0
 13 14  1  0  0  0  0
M  END
> <s_m_source_file>
AV-unprocessed.smi

> <i_m_source_file_index>
3085

> <i_lp_mmshare_version>
43012

> <i_f3d_flags>
0

> <s_epik_input>
W0NIM11bQ0gyXWMxbmMobltuSF0xKVtDQEBIXTJbQ0gyXVtOSF1bQ0gyXVtDSDJdTzI=

> <s_epik_cmdline>
J2VwaWtfcHl0aG9uJywgJy1waCcsICc3LjAnLCAnLXRuJywgJzgnLCAnLW1hJywgJzIwMCcsICctbWV0YWxfYmluZGluZycsICctaW1hZScsICc8aW5maWxlLm1hZT4nLCAnLW9tYWUnLCAnPG91dGZpbGUubWFlPic=

> <r_lp_tautomer_probability>
0.948284

> <r_epik_Ionization_Penalty>
1.10101

> <r_epik_Ionization_Penalty_Charging>
0

> <r_epik_Ionization_Penalty_Neutral>
1.10101

> <r_epik_State_Penalty>
1.49451

> <r_epik_Charging_Adjusted_Penalty>
1.49451

> <i_epik_Tot_Q>
0

> <i_epik_Tot_abs_Q>
0

> <r_epik_Metal_State_Penalty>
1.71443

> <b_epik_Metal_Only>
0

> <s_lp_Force_Field>
OPLS_2005

> <r_lp_Energy>
11.0497

> <b_lp_Chiralities_Consistent>
1

> <s_lp_Variant>
AV-unprocessed.smi:3085-6

> <Gold.Version>
5.8.1

> <Gold.Id.Protein>
6NUR|6NUR_protein|mol2

> <Gold.PLP.Fitness>
30.7733

> <Gold.PLP.PLP>
-25.0042

> <Gold.PLP.part.hbond>
-1.9057

> <Gold.PLP.part.metal>
0.0000

> <Gold.PLP.part.buried>
-4.1258

> <Gold.PLP.part.nonpolar>
-19.2231

> <Gold.PLP.part.repulsive>
0.2158

> <Gold.PLP.ligand.clash>
0.0000

> <Gold.PLP.ligand.torsion>
0.0139

> <Gold.PLP.Chemscore.Hbond>
1.9280

> <Gold.PLP.Chemscore.CHOScore>
0.0000

> <Gold.PLP.Chemscore.Metal>
0.0000

> <Gold.Chemscore.Hbonds>
donor molecule, donor type, donor heavy atom, donor atom, acceptor molecule, acceptor atom, score
      L1  H    13    14       P1  8028  1.00
      P1  H  7989  7998       L1    11  0.91

> <Gold.PLP.Chemscore.Internal.Correction>
0.0129

> <Gold.Rescore>
     Score         DG    S(hbond)    S(metal)    S(lipo)     H(rot)  DE(clash)    DE(int)     intcor
     13.59     -13.66       1.70        0.00      49.41       1.28       0.01       0.07       ----

> <Gold.Chemscore.Fitness>
13.5858

> <Gold.Chemscore.DG>
-13.6620

> <Gold.Chemscore.ZeroCoef>
-5.4800

> <Gold.Chemscore.Hbond>
1.7010

> <Gold.Chemscore.Metal>
0.0000

> <Gold.Chemscore.Lipo>
49.4124

> <Gold.Chemscore.Internal_Hbond>
0.0000

> <Gold.Chemscore.DEClash>
0.0073

> <Gold.Chemscore.DEInternal>
0.0689

> <Gold.Chemscore.Rot>
1.2815

> <Gold.Chemscore.Internal.Correction>
   9.000000E+99

> <Gold.Chemscore.Hbonds>
donor molecule, donor type, donor heavy atom, donor atom, acceptor molecule, acceptor atom, score
      L1  H    13    14       P1  8028  0.93
      P1  H  7989  7998       L1    11  0.67

> <Gold.Chemscore.Hbond.Weighted>
-5.6813

> <Gold.Chemscore.Metal.Weighted>
-0.0000

> <Gold.Chemscore.Lipo.Weighted>
-5.7812

> <Gold.Chemscore.Internal_Hbond.Weighted>
0.0000

> <Gold.Chemscore.DEClash.Weighted>
0.0073

> <Gold.Chemscore.DEInternal.Weighted>
0.0689

> <Gold.Chemscore.Rot.Weighted>
3.2805

> <Gold.Chemscore.Internal.Correction.Weighted>
   9.000000E+99

> <Gold.Protein.RotatedTorsions>
[ 6907 6896 6895 6894 ] final  144.71 input  -60.11 | X-H torsion
[ 7974 7965 7964 7962 ] final  140.54 input  175.53 | X-H torsion
[ 8008 7997 7996 7995 ] final   80.11 input   59.86 | X-H torsion
[ 10167 10162 10161 10158 ] final  -91.53 input  -65.29 | X-H torsion
[ 10718 10713 10712 10709 ] final  -83.72 input   66.30 | X-H torsion
[ 10763 10752 10751 10750 ] final  -36.78 input  -60.55 | X-H torsion
[ 11005 11000 10999 10996 ] final  117.59 input  -57.11 | X-H torsion

> <Gold.Protein.ActiveResidues>
 VAL166  LYS551  ARG553  GLY616  TRP617  ASP618  TYR619  PRO620  LYS621  CYS622 
 ASP623  PHE694  ASN695  SER759  ASP760  ASP761  ALA762  ILE779  LEU786  VAL792 
 PHE793  MET794  SER795  GLU796  ALA797  LYS798  CYS799  TRP800  GLU811  SER814 

> <Gold.Protein.RotatedAtoms>
  152.1902  133.4768  159.5003 H   0  0  0  0  0  0  0  0  0  0  0  0  # atno 6907 bound_to 6896
  150.6950  134.1722  159.4225 H   0  0  0  0  0  0  0  0  0  0  0  0  # atno 6908 bound_to 6896
  151.9636  135.0111  160.0599 H   0  0  0  0  0  0  0  0  0  0  0  0  # atno 6909 bound_to 6896
  144.9177  139.5208  143.5678 H   0  0  0  0  0  0  0  0  0  0  0  0  # atno 7974 bound_to 7965
  155.8789  140.3445  155.5874 H   0  0  0  0  0  0  0  0  0  0  0  0  # atno 8008 bound_to 7997
  155.7742  140.0849  157.2111 H   0  0  0  0  0  0  0  0  0  0  0  0  # atno 8009 bound_to 7997
  154.4023  140.1512  156.2964 H   0  0  0  0  0  0  0  0  0  0  0  0  # atno 8010 bound_to 7997
  140.3439  143.2927  151.9803 H   0  0  0  0  0  0  0  0  0  0  0  0  # atno 10167 bound_to 10162
  156.0015  130.4675  150.4301 H   0  0  0  0  0  0  0  0  0  0  0  0  # atno 10718 bound_to 10713
  153.8854  135.6817  153.4764 H   0  0  0  0  0  0  0  0  0  0  0  0  # atno 10763 bound_to 10752
  153.1210  135.4740  154.9193 H   0  0  0  0  0  0  0  0  0  0  0  0  # atno 10764 bound_to 10752
  154.7648  135.3221  154.8260 H   0  0  0  0  0  0  0  0  0  0  0  0  # atno 10765 bound_to 10752
  139.9080  134.9612  156.7375 H   0  0  0  0  0  0  0  0  0  0  0  0  # atno 11005 bound_to 11000
  146.3190  139.8033  142.8961 LP  0  0  0  0  0  0  0  0  0  0  0  0  # atno 17320 bound_to 7965
  145.3348  141.0274  143.3426 LP  0  0  0  0  0  0  0  0  0  0  0  0  # atno 17321 bound_to 7965
  139.4836  144.6133  151.7393 LP  0  0  0  0  0  0  0  0  0  0  0  0  # atno 17342 bound_to 10162
  140.5283  144.0771  150.6045 LP  0  0  0  0  0  0  0  0  0  0  0  0  # atno 17343 bound_to 10162
  157.2350  131.0513  151.2470 LP  0  0  0  0  0  0  0  0  0  0  0  0  # atno 17370 bound_to 10713
  157.3674  130.7163  149.6542 LP  0  0  0  0  0  0  0  0  0  0  0  0  # atno 17371 bound_to 10713
  140.6876  133.9418  155.7947 LP  0  0  0  0  0  0  0  0  0  0  0  0  # atno 17394 bound_to 11000
  141.0465  134.0547  157.3838 LP  0  0  0  0  0  0  0  0  0  0  0  0  # atno 17395 bound_to 11000

$$$$
