AV-unprocessed.smi:2446|AV-procd|sdf|9646|dock9
  -GOLD-   2272013283D 1   1.00000     0.00000
 Structure written by MMmdl.
 40 41  0  0  0  0  0  0  0  0  2 V2000
  147.5700  142.0571  153.9037 C   0  0  0  0  0  0  0  0  0  0  0  0
  148.6201  140.9636  153.8021 C   0  0  0  0  0  0  0  0  0  0  0  0
  148.3906  139.8558  152.9573 C   0  0  0  0  0  0  0  0  0  0  0  0
  149.3127  138.8755  152.8591 N   0  3  0  0  0  0  0  0  0  0  0  0
  150.4725  138.8932  153.5481 C   0  0  0  0  0  0  0  0  0  0  0  0
  150.7623  139.9702  154.4092 C   0  0  0  0  0  0  0  0  0  0  0  0
  149.8327  141.0344  154.5352 C   0  0  0  0  0  0  0  0  0  0  0  0
  150.0376  142.1519  155.3925 N   0  0  0  0  0  0  0  0  0  0  0  0
  150.9424  142.3177  156.3772 C   0  0  0  0  0  0  0  0  0  0  0  0
  151.7592  141.4695  156.7284 O   0  0  0  0  0  0  0  0  0  0  0  0
  150.9008  143.5282  156.9642 N   0  0  0  0  0  0  0  0  0  0  0  0
  151.7328  144.0402  158.0561 C   0  0  1  0  0  0  0  0  0  0  0  0
  150.9882  145.1766  158.7793 C   0  0  0  0  0  0  0  0  0  0  0  0
  151.7996  145.7049  159.9721 C   0  0  0  0  0  0  0  0  0  0  0  0
  152.1587  144.5741  160.9489 C   0  0  0  0  0  0  0  0  0  0  0  0
  152.9165  143.4315  160.2405 C   0  0  1  0  0  0  0  0  0  0  0  0
  153.3012  142.2980  161.2134 C   0  0  0  0  0  0  0  0  0  0  0  0
  153.6832  142.7922  162.3914 F   0  0  0  0  0  0  0  0  0  0  0  0
  152.2591  141.4883  161.4028 F   0  0  0  0  0  0  0  0  0  0  0  0
  154.3000  141.5776  160.7033 F   0  0  0  0  0  0  0  0  0  0  0  0
  152.0900  142.9106  159.0458 C   0  0  0  0  0  0  0  0  0  0  0  0
  146.6963  141.8247  153.2942 H   0  0  0  0  0  0  0  0  0  0  0  0
  147.9764  143.0088  153.5605 H   0  0  0  0  0  0  0  0  0  0  0  0
  147.2382  142.1752  154.9358 H   0  0  0  0  0  0  0  0  0  0  0  0
  147.5000  139.7233  152.3600 H   0  0  0  0  0  0  0  0  0  0  0  0
  151.1278  138.0479  153.3963 H   0  0  0  0  0  0  0  0  0  0  0  0
  151.6871  139.9495  154.9647 H   0  0  0  0  0  0  0  0  0  0  0  0
  149.4793  142.9649  155.1769 H   0  0  0  0  0  0  0  0  0  0  0  0
  150.1987  144.1666  156.6180 H   0  0  0  0  0  0  0  0  0  0  0  0
  152.6531  144.4605  157.6462 H   0  0  0  0  0  0  0  0  0  0  0  0
  150.7849  145.9925  158.0846 H   0  0  0  0  0  0  0  0  0  0  0  0
  150.0186  144.8212  159.1314 H   0  0  0  0  0  0  0  0  0  0  0  0
  152.7125  146.1804  159.6115 H   0  0  0  0  0  0  0  0  0  0  0  0
  151.2334  146.4782  160.4920 H   0  0  0  0  0  0  0  0  0  0  0  0
  152.7624  144.9781  161.7620 H   0  0  0  0  0  0  0  0  0  0  0  0
  151.2471  144.1870  161.4060 H   0  0  0  0  0  0  0  0  0  0  0  0
  153.8449  143.8465  159.8443 H   0  0  0  0  0  0  0  0  0  0  0  0
  151.1753  142.4415  159.4111 H   0  0  0  0  0  0  0  0  0  0  0  0
  152.6473  142.1283  158.5308 H   0  0  0  0  0  0  0  0  0  0  0  0
  149.1228  138.0851  152.2424 H   0  0  0  0  0  0  0  0  0  0  0  0
  1  2  1  0  0  0  0
  1 22  1  0  0  0  0
  1 23  1  0  0  0  0
  1 24  1  0  0  0  0
  2  7  1  0  0  0  0
  2  3  2  0  0  0  0
  3  4  1  0  0  0  0
  3 25  1  0  0  0  0
  4  5  2  0  0  0  0
  4 40  1  0  0  0  0
  5  6  1  0  0  0  0
  5 26  1  0  0  0  0
  6  7  2  0  0  0  0
  6 27  1  0  0  0  0
  7  8  1  0  0  0  0
  8  9  1  0  0  0  0
  8 28  1  0  0  0  0
  9 10  2  0  0  0  0
  9 11  1  0  0  0  0
 11 12  1  0  0  0  0
 11 29  1  0  0  0  0
 12 21  1  0  0  0  0
 12 13  1  0  0  0  0
 12 30  1  0  0  0  0
 13 14  1  0  0  0  0
 13 31  1  0  0  0  0
 13 32  1  0  0  0  0
 14 15  1  0  0  0  0
 14 33  1  0  0  0  0
 14 34  1  0  0  0  0
 15 16  1  0  0  0  0
 15 35  1  0  0  0  0
 15 36  1  0  0  0  0
 16 17  1  0  0  0  0
 16 21  1  0  0  0  0
 16 37  1  0  0  0  0
 17 18  1  0  0  0  0
 17 19  1  0  0  0  0
 17 20  1  0  0  0  0
 21 38  1  0  0  0  0
 21 39  1  0  0  0  0
M  CHG  1   4   1
M  END
> <s_m_source_file>
AV-unprocessed.smi

> <i_m_source_file_index>
2446

> <i_lp_mmshare_version>
43012

> <i_f3d_flags>
0

> <s_epik_input>
W0NIM11jMVtjSF1uW2NIXVtjSF1jMVtOSF1DKD1PKVtOSF1bQ0BASF0yW0NIMl1bQ0gyXVtDSDJdW0NAQEhdKEMoRikoRilGKVtDSDJdMg==

> <s_epik_cmdline>
J2VwaWtfcHl0aG9uJywgJy1waCcsICc3LjAnLCAnLXRuJywgJzgnLCAnLW1hJywgJzIwMCcsICctbWV0YWxfYmluZGluZycsICctaW1hZScsICc8aW5maWxlLm1hZT4nLCAnLW9tYWUnLCAnPG91dGZpbGUubWFlPic=

> <r_epik_Ionization_Penalty>
0.736582

> <r_epik_Ionization_Penalty_Charging>
0.736562

> <r_epik_Ionization_Penalty_Neutral>
1.98379e-05

> <r_epik_State_Penalty>
0.762314

> <r_epik_Charging_Adjusted_Penalty>
1.49888

> <i_epik_Tot_Q>
1

> <i_epik_Tot_abs_Q>
1

> <r_epik_Metal_State_Penalty>
0.914579

> <b_epik_Metal_Only>
0

> <s_lp_Force_Field>
OPLS_2005

> <r_lp_Energy>
31.4788

> <b_lp_Chiralities_Consistent>
1

> <s_lp_Variant>
AV-unprocessed.smi:2446-6

> <Gold.Version>
5.8.1

> <Gold.Id.Protein>
6NUR|6NUR_protein|mol2

> <Gold.PLP.Fitness>
57.0785

> <Gold.PLP.PLP>
-46.9697

> <Gold.PLP.part.hbond>
-4.0000

> <Gold.PLP.part.metal>
0.0000

> <Gold.PLP.part.buried>
2.5661

> <Gold.PLP.part.nonpolar>
-44.6184

> <Gold.PLP.part.repulsive>
0.2685

> <Gold.PLP.ligand.clash>
0.0379

> <Gold.PLP.ligand.torsion>
0.9001

> <Gold.PLP.Chemscore.Hbond>
3.9760

> <Gold.PLP.Chemscore.CHOScore>
0.0000

> <Gold.PLP.Chemscore.Metal>
0.0000

> <Gold.Chemscore.Hbonds>
donor molecule, donor type, donor heavy atom, donor atom, acceptor molecule, acceptor atom, score
      L1  H     4    40       P1  7948  2.00
      L1  H     8    28       P1  8028  0.99
      L1  H    11    29       P1  8028  1.00

> <Gold.PLP.Chemscore.Internal.Correction>
0.0189

> <Gold.Rescore>
     Score         DG    S(hbond)    S(metal)    S(lipo)     H(rot)  DE(clash)    DE(int)     intcor
     21.18     -26.87       2.86        0.00     123.08       1.00       2.21       3.48       ----

> <Gold.Chemscore.Fitness>
21.1751

> <Gold.Chemscore.DG>
-26.8684

> <Gold.Chemscore.ZeroCoef>
-5.4800

> <Gold.Chemscore.Hbond>
2.8586

> <Gold.Chemscore.Metal>
0.0000

> <Gold.Chemscore.Lipo>
123.0824

> <Gold.Chemscore.Internal_Hbond>
0.0000

> <Gold.Chemscore.DEClash>
2.2101

> <Gold.Chemscore.DEInternal>
3.4832

> <Gold.Chemscore.Rot>
1.0000

> <Gold.Chemscore.Internal.Correction>
   9.000000E+99

> <Gold.Chemscore.Hbonds>
donor molecule, donor type, donor heavy atom, donor atom, acceptor molecule, acceptor atom, score
      L1  H     4    40       P1  7948  0.88
      L1  H     8    28       P1  8028  0.94
      L1  H    11    29       P1  8028  0.99

> <Gold.Chemscore.Hbond.Weighted>
-9.5478

> <Gold.Chemscore.Metal.Weighted>
-0.0000

> <Gold.Chemscore.Lipo.Weighted>
-14.4006

> <Gold.Chemscore.Internal_Hbond.Weighted>
0.0000

> <Gold.Chemscore.DEClash.Weighted>
2.2101

> <Gold.Chemscore.DEInternal.Weighted>
3.4832

> <Gold.Chemscore.Rot.Weighted>
2.5600

> <Gold.Chemscore.Internal.Correction.Weighted>
   9.000000E+99

> <Gold.Protein.RotatedTorsions>
[ 6907 6896 6895 6894 ] final -176.86 input  -60.11 | X-H torsion
[ 7974 7965 7964 7962 ] final  101.30 input  175.53 | X-H torsion
[ 8008 7997 7996 7995 ] final   -6.79 input   59.86 | X-H torsion
[ 10167 10162 10161 10158 ] final  -66.99 input  -65.29 | X-H torsion
[ 10718 10713 10712 10709 ] final  -59.46 input   66.30 | X-H torsion
[ 10763 10752 10751 10750 ] final -120.94 input  -60.55 | X-H torsion
[ 11005 11000 10999 10996 ] final   32.83 input  -57.11 | X-H torsion

> <Gold.Protein.ActiveResidues>
 VAL166  LYS551  ARG553  GLY616  TRP617  ASP618  TYR619  PRO620  LYS621  CYS622 
 ASP623  PHE694  ASN695  SER759  ASP760  ASP761  ALA762  ILE779  LEU786  VAL792 
 PHE793  MET794  SER795  GLU796  ALA797  LYS798  CYS799  TRP800  GLU811  SER814 

> <Gold.Protein.RotatedAtoms>
  151.6117  133.3346  159.3068 H   0  0  0  0  0  0  0  0  0  0  0  0  # atno 6907 bound_to 6896
  150.8153  134.7335  159.6736 H   0  0  0  0  0  0  0  0  0  0  0  0  # atno 6908 bound_to 6896
  152.4249  134.5892  160.0021 H   0  0  0  0  0  0  0  0  0  0  0  0  # atno 6909 bound_to 6896
  145.3742  139.2392  143.3439 H   0  0  0  0  0  0  0  0  0  0  0  0  # atno 7974 bound_to 7965
  154.5902  140.2424  155.7931 H   0  0  0  0  0  0  0  0  0  0  0  0  # atno 8008 bound_to 7997
  156.2242  140.2988  155.9980 H   0  0  0  0  0  0  0  0  0  0  0  0  # atno 8009 bound_to 7997
  155.2387  140.0406  157.2962 H   0  0  0  0  0  0  0  0  0  0  0  0  # atno 8010 bound_to 7997
  140.5616  143.2313  151.6716 H   0  0  0  0  0  0  0  0  0  0  0  0  # atno 10167 bound_to 10162
  156.1060  130.4180  150.0718 H   0  0  0  0  0  0  0  0  0  0  0  0  # atno 10718 bound_to 10713
  154.8656  135.4185  154.2541 H   0  0  0  0  0  0  0  0  0  0  0  0  # atno 10763 bound_to 10752
  153.3482  135.6997  153.6816 H   0  0  0  0  0  0  0  0  0  0  0  0  # atno 10764 bound_to 10752
  153.5767  135.3581  155.2832 H   0  0  0  0  0  0  0  0  0  0  0  0  # atno 10765 bound_to 10752
  140.2694  134.3100  155.7832 H   0  0  0  0  0  0  0  0  0  0  0  0  # atno 11005 bound_to 11000
  146.2872  140.4398  142.8753 LP  0  0  0  0  0  0  0  0  0  0  0  0  # atno 17320 bound_to 7965
  144.8554  140.7063  143.6141 LP  0  0  0  0  0  0  0  0  0  0  0  0  # atno 17321 bound_to 7965
  139.5073  144.3651  152.0524 LP  0  0  0  0  0  0  0  0  0  0  0  0  # atno 17342 bound_to 10162
  140.2778  144.3893  150.6129 LP  0  0  0  0  0  0  0  0  0  0  0  0  # atno 17343 bound_to 10162
  156.8693  130.9519  151.3611 LP  0  0  0  0  0  0  0  0  0  0  0  0  # atno 17370 bound_to 10713
  157.6237  130.8675  149.9152 LP  0  0  0  0  0  0  0  0  0  0  0  0  # atno 17371 bound_to 10713
  141.2179  133.7457  156.9311 LP  0  0  0  0  0  0  0  0  0  0  0  0  # atno 17394 bound_to 11000
  140.1388  134.9307  157.2438 LP  0  0  0  0  0  0  0  0  0  0  0  0  # atno 17395 bound_to 11000

$$$$
