AV-unprocessed.smi:122|AV-procd|sdf|1141|dock6
  -GOLD-   2262018273D 1   1.00000     0.00000
 Structure written by MMmdl.
 48 50  0  0  0  0  0  0  0  0  1 V2000
  143.8676  138.1951  159.0955 C   0  0  0  0  0  0  0  0  0  0  0  0
  144.9731  137.7627  160.5007 S   0  0  0  0  0  0  0  0  0  0  0  0
  145.2707  138.9914  161.2524 O   0  0  0  0  0  0  0  0  0  0  0  0
  144.4085  136.5949  161.1942 O   0  0  0  0  0  0  0  0  0  0  0  0
  146.4278  137.2589  159.7035 N   0  0  0  0  0  0  0  0  0  0  0  0
  147.4655  136.5764  160.5103 C   0  0  0  0  0  0  0  0  0  0  0  0
  148.5352  135.9129  159.6241 C   0  0  0  0  0  0  0  0  0  0  0  0
  149.0608  136.9114  158.6940 N   0  0  0  0  0  0  0  0  0  0  0  0
  150.3012  137.4448  158.7968 C   0  0  0  0  0  0  0  0  0  0  0  0
  151.1059  137.0669  159.6507 O   0  0  0  0  0  0  0  0  0  0  0  0
  150.7130  138.5632  157.8169 C   0  0  0  0  0  0  0  0  0  0  0  0
  151.4572  139.6704  158.4579 N   0  0  0  0  0  0  0  0  0  0  0  0
  152.7318  139.4012  159.0157 C   0  0  0  0  0  0  0  0  0  0  0  0
  153.2246  138.2734  158.9666 O   0  0  0  0  0  0  0  0  0  0  0  0
  153.3952  140.5361  159.6475 C   0  0  0  0  0  0  0  0  0  0  0  0
  154.6083  140.3729  160.2019 F   0  0  0  0  0  0  0  0  0  0  0  0
  152.8093  141.7506  159.6875 C   0  0  0  0  0  0  0  0  0  0  0  0
  151.5625  141.9988  159.1408 N   0  0  0  0  0  0  0  0  0  0  0  0
  150.9103  143.3637  159.2085 C   0  0  2  0  0  0  0  0  0  0  0  0
  151.7518  144.4059  158.4474 C   0  0  0  0  0  0  0  0  0  0  0  0
  151.8980  145.5223  159.4620 C   0  0  0  0  0  0  0  0  0  0  0  0
  151.8501  144.7589  160.7767 C   0  0  0  0  0  0  0  0  0  0  0  0
  150.8366  143.7907  160.5393 O   0  0  0  0  0  0  0  0  0  0  0  0
  150.8527  140.9487  158.5188 C   0  0  0  0  0  0  0  0  0  0  0  0
  149.7312  141.1442  158.0445 O   0  0  0  0  0  0  0  0  0  0  0  0
  148.0087  137.3344  157.7691 C   0  0  0  0  0  0  0  0  0  0  0  0
  146.9179  138.0713  158.5664 C   0  0  0  0  0  0  0  0  0  0  0  0
  142.9119  138.5457  159.4845 H   0  0  0  0  0  0  0  0  0  0  0  0
  143.7022  137.3156  158.4739 H   0  0  0  0  0  0  0  0  0  0  0  0
  144.3239  138.9839  158.4984 H   0  0  0  0  0  0  0  0  0  0  0  0
  147.9323  137.3061  161.1728 H   0  0  0  0  0  0  0  0  0  0  0  0
  147.0009  135.8224  161.1457 H   0  0  0  0  0  0  0  0  0  0  0  0
  149.3105  135.4682  160.2493 H   0  0  0  0  0  0  0  0  0  0  0  0
  148.0986  135.0845  159.0642 H   0  0  0  0  0  0  0  0  0  0  0  0
  151.3009  138.1215  157.0110 H   0  0  0  0  0  0  0  0  0  0  0  0
  149.8194  138.9484  157.3231 H   0  0  0  0  0  0  0  0  0  0  0  0
  153.3525  142.5465  160.1733 H   0  0  0  0  0  0  0  0  0  0  0  0
  149.9008  143.2295  158.8157 H   0  0  0  0  0  0  0  0  0  0  0  0
  152.7297  143.9915  158.1959 H   0  0  0  0  0  0  0  0  0  0  0  0
  151.2526  144.7188  157.5298 H   0  0  0  0  0  0  0  0  0  0  0  0
  152.8145  146.0991  159.3353 H   0  0  0  0  0  0  0  0  0  0  0  0
  151.0493  146.2047  159.3959 H   0  0  0  0  0  0  0  0  0  0  0  0
  152.8033  144.2664  160.9744 H   0  0  0  0  0  0  0  0  0  0  0  0
  151.6064  145.3954  161.6275 H   0  0  0  0  0  0  0  0  0  0  0  0
  148.3664  137.9647  156.9566 H   0  0  0  0  0  0  0  0  0  0  0  0
  147.5813  136.4566  157.2819 H   0  0  0  0  0  0  0  0  0  0  0  0
  146.0870  138.3168  157.9051 H   0  0  0  0  0  0  0  0  0  0  0  0
  147.3086  139.0148  158.9493 H   0  0  0  0  0  0  0  0  0  0  0  0
  1  2  1  0  0  0  0
  1 28  1  0  0  0  0
  1 29  1  0  0  0  0
  1 30  1  0  0  0  0
  2  3  2  0  0  0  0
  2  4  2  0  0  0  0
  2  5  1  0  0  0  0
  5 27  1  0  0  0  0
  5  6  1  0  0  0  0
  6  7  1  0  0  0  0
  6 31  1  0  0  0  0
  6 32  1  0  0  0  0
  7  8  1  0  0  0  0
  7 33  1  0  0  0  0
  7 34  1  0  0  0  0
  8  9  1  0  0  0  0
  8 26  1  0  0  0  0
  9 10  2  0  0  0  0
  9 11  1  0  0  0  0
 11 12  1  0  0  0  0
 11 35  1  0  0  0  0
 11 36  1  0  0  0  0
 12 24  1  0  0  0  0
 12 13  1  0  0  0  0
 13 14  2  0  0  0  0
 13 15  1  0  0  0  0
 15 16  1  0  0  0  0
 15 17  2  0  0  0  0
 17 18  1  0  0  0  0
 17 37  1  0  0  0  0
 18 19  1  0  0  0  0
 18 24  1  0  0  0  0
 19 23  1  0  0  0  0
 19 20  1  0  0  0  0
 19 38  1  0  0  0  0
 20 21  1  0  0  0  0
 20 39  1  0  0  0  0
 20 40  1  0  0  0  0
 21 22  1  0  0  0  0
 21 41  1  0  0  0  0
 21 42  1  0  0  0  0
 22 23  1  0  0  0  0
 22 43  1  0  0  0  0
 22 44  1  0  0  0  0
 24 25  2  0  0  0  0
 26 27  1  0  0  0  0
 26 45  1  0  0  0  0
 26 46  1  0  0  0  0
 27 47  1  0  0  0  0
 27 48  1  0  0  0  0
M  END
> <s_m_source_file>
AV-unprocessed.smi

> <i_m_source_file_index>
122

> <i_lp_mmshare_version>
43012

> <i_f3d_flags>
0

> <s_epik_input>
W0NIM11TKD1PKSg9TylOMVtDSDJdW0NIMl1OKFtDSDJdW0NIMl0xKUMoPU8pW0NIMl1uMmMoPU8pYyhGKVtjSF1uKGMyPU8pW0NAQEhdM1tDSDJdW0NIMl1bQ0gyXU8z

> <s_epik_cmdline>
J2VwaWtfcHl0aG9uJywgJy1waCcsICc3LjAnLCAnLXRuJywgJzgnLCAnLW1hJywgJzIwMCcsICctbWV0YWxfYmluZGluZycsICctaW1hZScsICc8aW5maWxlLm1hZT4nLCAnLW9tYWUnLCAnPG91dGZpbGUubWFlPic=

> <r_lp_tautomer_probability>
1

> <r_epik_Ionization_Penalty>
4.55442e-09

> <r_epik_Ionization_Penalty_Charging>
4.02834e-09

> <r_epik_Ionization_Penalty_Neutral>
5.2608e-10

> <r_epik_State_Penalty>
-0

> <r_epik_Charging_Adjusted_Penalty>
4.02834e-09

> <i_epik_Tot_Q>
0

> <i_epik_Tot_abs_Q>
0

> <r_epik_Metal_State_Penalty>
-0

> <b_epik_Metal_Only>
0

> <s_epik_Chemistry_Notes>
This compound contains an acetal/aminal-like group ( X-CH(R)-Y where X, Y are N, S, or O) that may be acid/base labile, releasing an aldehyde.

> <s_lp_Force_Field>
OPLS_2005

> <r_lp_Energy>
39.2384

> <b_lp_Chiralities_Consistent>
1

> <s_lp_Variant>
AV-unprocessed.smi:122-1

> <Gold.Version>
5.8.1

> <Gold.Id.Protein>
6NUR|6NUR_protein|mol2

> <Gold.PLP.Fitness>
46.6301

> <Gold.PLP.PLP>
-43.8104

> <Gold.PLP.part.hbond>
-2.1968

> <Gold.PLP.part.metal>
0.0000

> <Gold.PLP.part.buried>
-7.0454

> <Gold.PLP.part.nonpolar>
-35.3811

> <Gold.PLP.part.repulsive>
0.1413

> <Gold.PLP.ligand.clash>
0.0000

> <Gold.PLP.ligand.torsion>
1.4884

> <Gold.PLP.Chemscore.Hbond>
1.2400

> <Gold.PLP.Chemscore.CHOScore>
0.0000

> <Gold.PLP.Chemscore.Metal>
0.0000

> <Gold.Chemscore.Hbonds>
donor molecule, donor type, donor heavy atom, donor atom, acceptor molecule, acceptor atom, score
      P1  H  6896  6907       L1    10  1.00
      P1  H  6934  6947       L1     3  0.20

> <Gold.PLP.Chemscore.Internal.Correction>
2.0765

> <Gold.Rescore>
     Score         DG    S(hbond)    S(metal)    S(lipo)     H(rot)  DE(clash)    DE(int)     intcor
     10.57     -14.91       1.80        0.00      66.08       1.69       0.10       4.24       ----

> <Gold.Chemscore.Fitness>
10.5696

> <Gold.Chemscore.DG>
-14.9127

> <Gold.Chemscore.ZeroCoef>
-5.4800

> <Gold.Chemscore.Hbond>
1.8041

> <Gold.Chemscore.Metal>
0.0000

> <Gold.Chemscore.Lipo>
66.0750

> <Gold.Chemscore.Internal_Hbond>
0.0000

> <Gold.Chemscore.DEClash>
0.1019

> <Gold.Chemscore.DEInternal>
4.2411

> <Gold.Chemscore.Rot>
1.6890

> <Gold.Chemscore.Internal.Correction>
   9.000000E+99

> <Gold.Chemscore.Hbonds>
donor molecule, donor type, donor heavy atom, donor atom, acceptor molecule, acceptor atom, score
      P1  H  6896  6907       L1    10  0.82
      P1  H  6934  6947       L1     3  0.04

> <Gold.Chemscore.Hbond.Weighted>
-6.0258

> <Gold.Chemscore.Metal.Weighted>
-0.0000

> <Gold.Chemscore.Lipo.Weighted>
-7.7308

> <Gold.Chemscore.Internal_Hbond.Weighted>
0.0000

> <Gold.Chemscore.DEClash.Weighted>
0.1019

> <Gold.Chemscore.DEInternal.Weighted>
4.2411

> <Gold.Chemscore.Rot.Weighted>
4.3239

> <Gold.Chemscore.Internal.Correction.Weighted>
   9.000000E+99

> <Gold.Protein.RotatedTorsions>
[ 6907 6896 6895 6894 ] final  -27.90 input  -60.11 | X-H torsion
[ 7974 7965 7964 7962 ] final -113.67 input  175.53 | X-H torsion
[ 8008 7997 7996 7995 ] final  -39.23 input   59.86 | X-H torsion
[ 10167 10162 10161 10158 ] final   36.73 input  -65.29 | X-H torsion
[ 10718 10713 10712 10709 ] final -124.80 input   66.30 | X-H torsion
[ 10763 10752 10751 10750 ] final  174.57 input  -60.55 | X-H torsion
[ 11005 11000 10999 10996 ] final -169.58 input  -57.11 | X-H torsion

> <Gold.Protein.ActiveResidues>
 VAL166  LYS551  ARG553  GLY616  TRP617  ASP618  TYR619  PRO620  LYS621  CYS622 
 ASP623  PHE694  ASN695  SER759  ASP760  ASP761  ALA762  ILE779  LEU786  VAL792 
 PHE793  MET794  SER795  GLU796  ALA797  LYS798  CYS799  TRP800  GLU811  SER814 

> <Gold.Protein.RotatedAtoms>
  151.1404  135.0176  159.8622 H   0  0  0  0  0  0  0  0  0  0  0  0  # atno 6907 bound_to 6896
  152.5452  134.1506  159.8527 H   0  0  0  0  0  0  0  0  0  0  0  0  # atno 6908 bound_to 6896
  151.1581  133.4818  159.2627 H   0  0  0  0  0  0  0  0  0  0  0  0  # atno 6909 bound_to 6896
  145.1293  140.8715  143.3767 H   0  0  0  0  0  0  0  0  0  0  0  0  # atno 7974 bound_to 7965
  154.4026  140.1557  156.2830 H   0  0  0  0  0  0  0  0  0  0  0  0  # atno 8008 bound_to 7997
  155.8853  140.3441  155.5895 H   0  0  0  0  0  0  0  0  0  0  0  0  # atno 8009 bound_to 7997
  155.7621  140.0819  157.2141 H   0  0  0  0  0  0  0  0  0  0  0  0  # atno 8010 bound_to 7997
  140.4099  144.1606  150.6139 H   0  0  0  0  0  0  0  0  0  0  0  0  # atno 10167 bound_to 10162
  156.1619  130.6608  151.0061 H   0  0  0  0  0  0  0  0  0  0  0  0  # atno 10718 bound_to 10713
  154.4557  135.2766  155.1749 H   0  0  0  0  0  0  0  0  0  0  0  0  # atno 10763 bound_to 10752
  154.3558  135.6140  153.5669 H   0  0  0  0  0  0  0  0  0  0  0  0  # atno 10764 bound_to 10752
  152.9850  135.5822  154.4910 H   0  0  0  0  0  0  0  0  0  0  0  0  # atno 10765 bound_to 10752
  140.5291  134.5634  157.5070 H   0  0  0  0  0  0  0  0  0  0  0  0  # atno 11005 bound_to 11000
  145.0653  139.3073  143.5859 LP  0  0  0  0  0  0  0  0  0  0  0  0  # atno 17320 bound_to 7965
  146.3515  140.0109  142.8667 LP  0  0  0  0  0  0  0  0  0  0  0  0  # atno 17321 bound_to 7965
  140.4649  143.2435  151.9170 LP  0  0  0  0  0  0  0  0  0  0  0  0  # atno 17342 bound_to 10162
  139.4783  144.5430  151.8500 LP  0  0  0  0  0  0  0  0  0  0  0  0  # atno 17343 bound_to 10162
  157.6739  131.0855  150.7544 LP  0  0  0  0  0  0  0  0  0  0  0  0  # atno 17370 bound_to 10713
  156.7606  130.4797  149.5437 LP  0  0  0  0  0  0  0  0  0  0  0  0  # atno 17371 bound_to 10713
  139.9564  134.7528  156.0333 LP  0  0  0  0  0  0  0  0  0  0  0  0  # atno 17394 bound_to 11000
  141.1291  133.6591  156.3417 LP  0  0  0  0  0  0  0  0  0  0  0  0  # atno 17395 bound_to 11000

$$$$
