AV-unprocessed.smi:662|AV-procd|sdf|3246|dock3
  -GOLD-   22720 0193D 1   1.00000     0.00000
 Structure written by MMmdl.
 33 34  0  0  0  0  0  0  0  0  1 V2000
  154.6235  138.7162  162.8010 O   0  0  0  0  0  0  0  0  0  0  0  0
  154.4653  137.6231  162.2561 C   0  0  0  0  0  0  0  0  0  0  0  0
  153.9012  137.4749  161.0469 N   0  0  0  0  0  0  0  0  0  0  0  0
  153.4136  138.5589  160.1978 C   0  0  0  0  0  0  0  0  0  0  0  0
  154.3532  139.7804  160.2007 C   0  0  0  0  0  0  0  0  0  0  0  0
  153.6514  141.0917  160.0486 C   0  0  0  0  0  0  0  0  0  0  0  0
  152.9528  141.4271  158.9613 N   0  0  0  0  0  0  0  0  0  0  0  0
  152.3446  142.6822  159.0732 C   0  0  0  0  0  0  0  0  0  0  0  0
  151.5134  143.2117  157.9404 C   0  0  0  0  0  0  0  0  0  0  0  0
  151.4310  142.3340  156.9402 F   0  0  0  0  0  0  0  0  0  0  0  0
  150.2711  143.4815  158.3403 F   0  0  0  0  0  0  0  0  0  0  0  0
  152.0344  144.3345  157.4465 F   0  0  0  0  0  0  0  0  0  0  0  0
  152.6004  143.2974  160.2746 C   0  0  0  0  0  0  0  0  0  0  0  0
  153.6076  142.3215  161.3074 S   0  0  0  0  0  0  0  0  0  0  0  0
  154.9286  136.3385  162.9520 C   0  0  1  0  0  0  0  0  0  0  0  0
  154.3413  136.1806  164.3648 C   0  0  0  0  0  0  0  0  0  0  0  0
  153.7644  134.7703  164.3719 C   0  0  0  0  0  0  0  0  0  0  0  0
  154.4501  134.0866  163.1912 C   0  0  0  0  0  0  0  0  0  0  0  0
  154.5396  135.1415  162.1959 N   0  0  0  0  0  0  0  0  0  0  0  0
  153.8125  136.5378  160.6814 H   0  0  0  0  0  0  0  0  0  0  0  0
  153.3251  138.1737  159.1820 H   0  0  0  0  0  0  0  0  0  0  0  0
  152.4075  138.8598  160.4949 H   0  0  0  0  0  0  0  0  0  0  0  0
  154.9252  139.8023  161.1289 H   0  0  0  0  0  0  0  0  0  0  0  0
  155.0824  139.6830  159.3958 H   0  0  0  0  0  0  0  0  0  0  0  0
  152.2546  144.2621  160.6145 H   0  0  0  0  0  0  0  0  0  0  0  0
  156.0175  136.3410  163.0310 H   0  0  0  0  0  0  0  0  0  0  0  0
  155.1315  136.2768  165.1102 H   0  0  0  0  0  0  0  0  0  0  0  0
  153.5730  136.9170  164.6071 H   0  0  0  0  0  0  0  0  0  0  0  0
  153.9354  134.2500  165.3146 H   0  0  0  0  0  0  0  0  0  0  0  0
  152.6875  134.8095  164.2022 H   0  0  0  0  0  0  0  0  0  0  0  0
  155.4536  133.7566  163.4645 H   0  0  0  0  0  0  0  0  0  0  0  0
  153.8936  133.2265  162.8183 H   0  0  0  0  0  0  0  0  0  0  0  0
  155.1930  134.9094  161.4615 H   0  0  0  0  0  0  0  0  0  0  0  0
  1  2  2  0  0  0  0
  2  3  1  0  0  0  0
  2 15  1  0  0  0  0
  3  4  1  0  0  0  0
  3 20  1  0  0  0  0
  4  5  1  0  0  0  0
  4 21  1  0  0  0  0
  4 22  1  0  0  0  0
  5  6  1  0  0  0  0
  5 23  1  0  0  0  0
  5 24  1  0  0  0  0
  6 14  1  0  0  0  0
  6  7  2  0  0  0  0
  7  8  1  0  0  0  0
  8  9  1  0  0  0  0
  8 13  2  0  0  0  0
  9 10  1  0  0  0  0
  9 11  1  0  0  0  0
  9 12  1  0  0  0  0
 13 14  1  0  0  0  0
 13 25  1  0  0  0  0
 15 19  1  0  0  0  0
 15 16  1  0  0  0  0
 15 26  1  0  0  0  0
 16 17  1  0  0  0  0
 16 27  1  0  0  0  0
 16 28  1  0  0  0  0
 17 18  1  0  0  0  0
 17 29  1  0  0  0  0
 17 30  1  0  0  0  0
 18 19  1  0  0  0  0
 18 31  1  0  0  0  0
 18 32  1  0  0  0  0
 19 33  1  0  0  0  0
M  END
> <s_m_source_file>
AV-unprocessed.smi

> <i_m_source_file_index>
662

> <i_lp_mmshare_version>
43012

> <i_f3d_flags>
0

> <s_epik_input>
W05IXTFbQ0gyXVtDSDJdW0NIMl1bQ0BIXTFDKD1PKVtOSF1bQ0gyXVtDSDJdYzJuYyhDKEYpKEYpRilbY0hdczI=

> <s_epik_cmdline>
J2VwaWtfcHl0aG9uJywgJy1waCcsICc3LjAnLCAnLXRuJywgJzgnLCAnLW1hJywgJzIwMCcsICctbWV0YWxfYmluZGluZycsICctaW1hZScsICc8aW5maWxlLm1hZT4nLCAnLW9tYWUnLCAnPG91dGZpbGUubWFlPic=

> <r_epik_Ionization_Penalty>
1.64272

> <r_epik_Ionization_Penalty_Charging>
0

> <r_epik_Ionization_Penalty_Neutral>
1.64272

> <r_epik_State_Penalty>
1.74416

> <r_epik_Charging_Adjusted_Penalty>
1.74416

> <i_epik_Tot_Q>
0

> <i_epik_Tot_abs_Q>
0

> <r_epik_Metal_State_Penalty>
1.74416

> <b_epik_Metal_Only>
0

> <s_lp_Force_Field>
OPLS_2005

> <r_lp_Energy>
17.8155

> <b_lp_Chiralities_Consistent>
1

> <s_lp_Variant>
AV-unprocessed.smi:662-4

> <Gold.Version>
5.8.1

> <Gold.Id.Protein>
6NUR|6NUR_protein|mol2

> <Gold.PLP.Fitness>
38.8392

> <Gold.PLP.PLP>
-39.7091

> <Gold.PLP.part.hbond>
0.0000

> <Gold.PLP.part.metal>
0.0000

> <Gold.PLP.part.buried>
-5.0721

> <Gold.PLP.part.nonpolar>
-33.5951

> <Gold.PLP.part.repulsive>
0.0391

> <Gold.PLP.ligand.clash>
0.0000

> <Gold.PLP.ligand.torsion>
0.4458

> <Gold.PLP.Chemscore.Hbond>
0.0000

> <Gold.PLP.Chemscore.CHOScore>
0.0000

> <Gold.PLP.Chemscore.Metal>
0.0000

> <Gold.PLP.Chemscore.Internal.Correction>
0.0217

> <Gold.Rescore>
     Score         DG    S(hbond)    S(metal)    S(lipo)     H(rot)  DE(clash)    DE(int)     intcor
     10.32     -11.82       0.00        0.00      95.94       1.91       0.04       1.45       ----

> <Gold.Chemscore.Fitness>
10.3227

> <Gold.Chemscore.DG>
-11.8164

> <Gold.Chemscore.ZeroCoef>
-5.4800

> <Gold.Chemscore.Hbond>
0.0000

> <Gold.Chemscore.Metal>
0.0000

> <Gold.Chemscore.Lipo>
95.9377

> <Gold.Chemscore.Internal_Hbond>
0.0000

> <Gold.Chemscore.DEClash>
0.0402

> <Gold.Chemscore.DEInternal>
1.4534

> <Gold.Chemscore.Rot>
1.9095

> <Gold.Chemscore.Internal.Correction>
   9.000000E+99

> <Gold.Chemscore.Hbond.Weighted>
-0.0000

> <Gold.Chemscore.Metal.Weighted>
-0.0000

> <Gold.Chemscore.Lipo.Weighted>
-11.2247

> <Gold.Chemscore.Internal_Hbond.Weighted>
0.0000

> <Gold.Chemscore.DEClash.Weighted>
0.0402

> <Gold.Chemscore.DEInternal.Weighted>
1.4534

> <Gold.Chemscore.Rot.Weighted>
4.8883

> <Gold.Chemscore.Internal.Correction.Weighted>
   9.000000E+99

> <Gold.Protein.RotatedTorsions>
[ 6907 6896 6895 6894 ] final  125.15 input  -60.11 | X-H torsion
[ 7974 7965 7964 7962 ] final  168.83 input  175.53 | X-H torsion
[ 8008 7997 7996 7995 ] final  177.59 input   59.86 | X-H torsion
[ 10167 10162 10161 10158 ] final -111.13 input  -65.29 | X-H torsion
[ 10718 10713 10712 10709 ] final  -65.79 input   66.30 | X-H torsion
[ 10763 10752 10751 10750 ] final   98.37 input  -60.55 | X-H torsion
[ 11005 11000 10999 10996 ] final   93.88 input  -57.11 | X-H torsion

> <Gold.Protein.ActiveResidues>
 VAL166  LYS551  ARG553  GLY616  TRP617  ASP618  TYR619  PRO620  LYS621  CYS622 
 ASP623  PHE694  ASN695  SER759  ASP760  ASP761  ALA762  ILE779  LEU786  VAL792 
 PHE793  MET794  SER795  GLU796  ALA797  LYS798  CYS799  TRP800  GLU811  SER814 

> <Gold.Protein.RotatedAtoms>
  152.4017  133.6827  159.6321 H   0  0  0  0  0  0  0  0  0  0  0  0  # atno 6907 bound_to 6896
  150.7907  133.8780  159.3286 H   0  0  0  0  0  0  0  0  0  0  0  0  # atno 6908 bound_to 6896
  151.6544  135.0999  160.0218 H   0  0  0  0  0  0  0  0  0  0  0  0  # atno 6909 bound_to 6896
  144.7375  139.8966  143.6406 H   0  0  0  0  0  0  0  0  0  0  0  0  # atno 7974 bound_to 7965
  156.0640  140.1354  156.9907 H   0  0  0  0  0  0  0  0  0  0  0  0  # atno 8008 bound_to 7997
  154.4496  140.0985  156.6631 H   0  0  0  0  0  0  0  0  0  0  0  0  # atno 8009 bound_to 7997
  155.5333  140.3459  155.4433 H   0  0  0  0  0  0  0  0  0  0  0  0  # atno 8010 bound_to 7997
  140.1369  143.4312  152.1589 H   0  0  0  0  0  0  0  0  0  0  0  0  # atno 10167 bound_to 10162
  156.0649  130.4252  150.1615 H   0  0  0  0  0  0  0  0  0  0  0  0  # atno 10718 bound_to 10713
  153.2882  135.4151  155.1142 H   0  0  0  0  0  0  0  0  0  0  0  0  # atno 10763 bound_to 10752
  154.8512  135.3512  154.6018 H   0  0  0  0  0  0  0  0  0  0  0  0  # atno 10764 bound_to 10752
  153.6440  135.7055  153.5289 H   0  0  0  0  0  0  0  0  0  0  0  0  # atno 10765 bound_to 10752
  139.8805  134.8814  156.3782 H   0  0  0  0  0  0  0  0  0  0  0  0  # atno 11005 bound_to 11000
  146.1103  139.4107  143.0292 LP  0  0  0  0  0  0  0  0  0  0  0  0  # atno 17320 bound_to 7965
  145.7453  140.9993  143.1279 LP  0  0  0  0  0  0  0  0  0  0  0  0  # atno 17321 bound_to 7965
  139.5491  144.7323  151.4490 LP  0  0  0  0  0  0  0  0  0  0  0  0  # atno 17342 bound_to 10162
  140.6784  143.8138  150.7088 LP  0  0  0  0  0  0  0  0  0  0  0  0  # atno 17343 bound_to 10162
  156.9677  130.9825  151.3465 LP  0  0  0  0  0  0  0  0  0  0  0  0  # atno 17370 bound_to 10713
  157.5684  130.8293  149.8358 LP  0  0  0  0  0  0  0  0  0  0  0  0  # atno 17371 bound_to 10713
  140.9417  133.7510  156.0155 LP  0  0  0  0  0  0  0  0  0  0  0  0  # atno 17394 bound_to 11000
  140.8212  134.3287  157.5381 LP  0  0  0  0  0  0  0  0  0  0  0  0  # atno 17395 bound_to 11000

$$$$
