AV-unprocessed.smi:861|AV-procd|sdf|3966|dock4
  -GOLD-   22720 1443D 1   1.00000     0.00000
 Structure written by MMmdl.
 44 45  0  0  0  0  0  0  0  0  2 V2000
  152.1916  145.2662  159.1388 C   0  0  0  0  0  0  0  0  0  0  0  0
  151.7739  143.7925  159.2785 C   0  0  0  0  0  0  0  0  0  0  0  0
  152.9282  142.9621  159.8603 C   0  0  0  0  0  0  0  0  0  0  0  0
  151.2868  143.1888  157.9455 C   0  0  0  0  0  0  0  0  0  0  0  0
  149.8620  142.6045  158.0075 C   0  0  0  0  0  0  0  0  0  0  0  0
  149.3207  142.2775  156.6642 N   0  3  1  0  0  0  0  0  0  0  0  0
  150.0638  141.1731  156.0128 C   0  0  0  0  0  0  0  0  0  0  0  0
  149.5048  140.9029  154.6067 C   0  0  0  0  0  0  0  0  0  0  0  0
  148.1149  140.6176  154.6959 O   0  0  0  0  0  0  0  0  0  0  0  0
  147.3714  141.7090  155.2259 C   0  0  1  0  0  0  0  0  0  0  0  0
  145.8821  141.3216  155.1708 C   0  0  0  0  0  0  0  0  0  0  0  0
  145.0076  142.3241  155.7698 N   0  0  0  0  0  0  0  0  0  0  0  0
  144.6442  143.4916  155.0824 C   0  0  0  0  0  0  0  0  0  0  0  0
  145.2884  143.7938  153.8659 C   0  0  0  0  0  0  0  0  0  0  0  0
  144.9025  144.9682  153.1965 C   0  0  0  0  0  0  0  0  0  0  0  0
  143.8989  145.7519  153.7946 C   0  0  0  0  0  0  0  0  0  0  0  0
  143.3123  145.4134  154.9649 N   0  0  0  0  0  0  0  0  0  0  0  0
  143.6830  144.2967  155.6013 N   0  0  0  0  0  0  0  0  0  0  0  0
  147.8645  141.9916  156.6605 C   0  0  0  0  0  0  0  0  0  0  0  0
  152.9852  145.3859  158.4007 H   0  0  0  0  0  0  0  0  0  0  0  0
  152.5603  145.6591  160.0869 H   0  0  0  0  0  0  0  0  0  0  0  0
  151.3549  145.8957  158.8370 H   0  0  0  0  0  0  0  0  0  0  0  0
  150.9513  143.7447  159.9935 H   0  0  0  0  0  0  0  0  0  0  0  0
  153.7940  142.9670  159.1972 H   0  0  0  0  0  0  0  0  0  0  0  0
  152.6308  141.9242  160.0118 H   0  0  0  0  0  0  0  0  0  0  0  0
  153.2478  143.3546  160.8262 H   0  0  0  0  0  0  0  0  0  0  0  0
  151.3539  143.9491  157.1672 H   0  0  0  0  0  0  0  0  0  0  0  0
  151.9721  142.3925  157.6513 H   0  0  0  0  0  0  0  0  0  0  0  0
  149.8944  141.6904  158.6021 H   0  0  0  0  0  0  0  0  0  0  0  0
  149.1789  143.2837  158.5187 H   0  0  0  0  0  0  0  0  0  0  0  0
  151.1224  141.4260  155.9432 H   0  0  0  0  0  0  0  0  0  0  0  0
  149.9881  140.2719  156.6235 H   0  0  0  0  0  0  0  0  0  0  0  0
  149.6747  141.7554  153.9470 H   0  0  0  0  0  0  0  0  0  0  0  0
  150.0119  140.0483  154.1586 H   0  0  0  0  0  0  0  0  0  0  0  0
  147.5433  142.5850  154.5981 H   0  0  0  0  0  0  0  0  0  0  0  0
  145.5781  141.1482  154.1377 H   0  0  0  0  0  0  0  0  0  0  0  0
  145.7278  140.3766  155.6923 H   0  0  0  0  0  0  0  0  0  0  0  0
  144.5986  142.1316  156.6731 H   0  0  0  0  0  0  0  0  0  0  0  0
  146.0533  143.1500  153.4569 H   0  0  0  0  0  0  0  0  0  0  0  0
  145.3570  145.2581  152.2607 H   0  0  0  0  0  0  0  0  0  0  0  0
  143.5590  146.6645  153.3280 H   0  0  0  0  0  0  0  0  0  0  0  0
  147.6581  141.1364  157.3061 H   0  0  0  0  0  0  0  0  0  0  0  0
  147.3168  142.8402  157.0684 H   0  0  0  0  0  0  0  0  0  0  0  0
  149.4631  143.0946  156.0872 H   0  0  0  0  0  0  0  0  0  0  0  0
  1  2  1  0  0  0  0
  1 20  1  0  0  0  0
  1 21  1  0  0  0  0
  1 22  1  0  0  0  0
  2  3  1  0  0  0  0
  2  4  1  0  0  0  0
  2 23  1  0  0  0  0
  3 24  1  0  0  0  0
  3 25  1  0  0  0  0
  3 26  1  0  0  0  0
  4  5  1  0  0  0  0
  4 27  1  0  0  0  0
  4 28  1  0  0  0  0
  5  6  1  0  0  0  0
  5 29  1  0  0  0  0
  5 30  1  0  0  0  0
  6 19  1  0  0  0  0
  6  7  1  0  0  0  0
  6 44  1  0  0  0  0
  7  8  1  0  0  0  0
  7 31  1  0  0  0  0
  7 32  1  0  0  0  0
  8  9  1  0  0  0  0
  8 33  1  0  0  0  0
  8 34  1  0  0  0  0
  9 10  1  0  0  0  0
 10 11  1  0  0  0  0
 10 19  1  0  0  0  0
 10 35  1  0  0  0  0
 11 12  1  0  0  0  0
 11 36  1  0  0  0  0
 11 37  1  0  0  0  0
 12 13  1  0  0  0  0
 12 38  1  0  0  0  0
 13 18  1  0  0  0  0
 13 14  2  0  0  0  0
 14 15  1  0  0  0  0
 14 39  1  0  0  0  0
 15 16  2  0  0  0  0
 15 40  1  0  0  0  0
 16 17  1  0  0  0  0
 16 41  1  0  0  0  0
 17 18  2  0  0  0  0
 19 42  1  0  0  0  0
 19 43  1  0  0  0  0
M  CHG  1   6   1
M  END
> <s_m_source_file>
AV-unprocessed.smi

> <i_m_source_file_index>
861

> <i_lp_mmshare_version>
43012

> <i_f3d_flags>
0

> <s_epik_input>
W0NIM11bQ0hdKFtDSDNdKVtDSDJdW0NIMl1OMVtDSDJdW0NIMl1PW0NASF0oW0NIMl0xKVtDSDJdW05IXWMyW2NIXVtjSF1bY0hdbm4y

> <s_epik_cmdline>
J2VwaWtfcHl0aG9uJywgJy1waCcsICc3LjAnLCAnLXRuJywgJzgnLCAnLW1hJywgJzIwMCcsICctbWV0YWxfYmluZGluZycsICctaW1hZScsICc8aW5maWxlLm1hZT4nLCAnLW9tYWUnLCAnPG91dGZpbGUubWFlPic=

> <r_lp_tautomer_probability>
0.999978

> <r_epik_Ionization_Penalty>
0.114704

> <r_epik_Ionization_Penalty_Charging>
0.0953451

> <r_epik_Ionization_Penalty_Neutral>
0.0193593

> <r_epik_State_Penalty>
0.104983

> <r_epik_Charging_Adjusted_Penalty>
0.200328

> <i_epik_Tot_Q>
1

> <i_epik_Tot_abs_Q>
1

> <r_epik_Metal_State_Penalty>
0.100113

> <b_epik_Metal_Only>
0

> <s_lp_Force_Field>
OPLS_2005

> <r_lp_Energy>
24.1259

> <b_lp_Chiralities_Consistent>
1

> <s_lp_Variant>
AV-unprocessed.smi:861-1

> <Gold.Version>
5.8.1

> <Gold.Id.Protein>
6NUR|6NUR_protein|mol2

> <Gold.PLP.Fitness>
42.3440

> <Gold.PLP.PLP>
-38.6425

> <Gold.PLP.part.hbond>
-1.0000

> <Gold.PLP.part.metal>
0.0000

> <Gold.PLP.part.buried>
-3.5456

> <Gold.PLP.part.nonpolar>
-34.1849

> <Gold.PLP.part.repulsive>
0.2262

> <Gold.PLP.ligand.clash>
0.0000

> <Gold.PLP.ligand.torsion>
0.9742

> <Gold.PLP.Chemscore.Hbond>
1.8560

> <Gold.PLP.Chemscore.CHOScore>
0.0000

> <Gold.PLP.Chemscore.Metal>
0.0000

> <Gold.Chemscore.Hbonds>
donor molecule, donor type, donor heavy atom, donor atom, acceptor molecule, acceptor atom, score
      L1  H     6    44       P1  8028  1.86

> <Gold.PLP.Chemscore.Internal.Correction>
0.0819

> <Gold.Rescore>
     Score         DG    S(hbond)    S(metal)    S(lipo)     H(rot)  DE(clash)    DE(int)     intcor
     15.20     -16.46       0.92        0.00     104.98       1.71       0.35       0.91       ----

> <Gold.Chemscore.Fitness>
15.1961

> <Gold.Chemscore.DG>
-16.4579

> <Gold.Chemscore.ZeroCoef>
-5.4800

> <Gold.Chemscore.Hbond>
0.9221

> <Gold.Chemscore.Metal>
0.0000

> <Gold.Chemscore.Lipo>
104.9797

> <Gold.Chemscore.Internal_Hbond>
0.0000

> <Gold.Chemscore.DEClash>
0.3515

> <Gold.Chemscore.DEInternal>
0.9102

> <Gold.Chemscore.Rot>
1.7127

> <Gold.Chemscore.Internal.Correction>
   9.000000E+99

> <Gold.Chemscore.Hbonds>
donor molecule, donor type, donor heavy atom, donor atom, acceptor molecule, acceptor atom, score
      L1  H     6    44       P1  8028  0.90

> <Gold.Chemscore.Hbond.Weighted>
-3.0797

> <Gold.Chemscore.Metal.Weighted>
-0.0000

> <Gold.Chemscore.Lipo.Weighted>
-12.2826

> <Gold.Chemscore.Internal_Hbond.Weighted>
0.0000

> <Gold.Chemscore.DEClash.Weighted>
0.3515

> <Gold.Chemscore.DEInternal.Weighted>
0.9102

> <Gold.Chemscore.Rot.Weighted>
4.3844

> <Gold.Chemscore.Internal.Correction.Weighted>
   9.000000E+99

> <Gold.Protein.RotatedTorsions>
[ 6907 6896 6895 6894 ] final  -89.62 input  -60.11 | X-H torsion
[ 7974 7965 7964 7962 ] final  -11.02 input  175.53 | X-H torsion
[ 8008 7997 7996 7995 ] final  135.11 input   59.86 | X-H torsion
[ 10167 10162 10161 10158 ] final   58.33 input  -65.29 | X-H torsion
[ 10718 10713 10712 10709 ] final   33.18 input   66.30 | X-H torsion
[ 10763 10752 10751 10750 ] final -108.55 input  -60.55 | X-H torsion
[ 11005 11000 10999 10996 ] final    3.97 input  -57.11 | X-H torsion

> <Gold.Protein.ActiveResidues>
 VAL166  LYS551  ARG553  GLY616  TRP617  ASP618  TYR619  PRO620  LYS621  CYS622 
 ASP623  PHE694  ASN695  SER759  ASP760  ASP761  ALA762  ILE779  LEU786  VAL792 
 PHE793  MET794  SER795  GLU796  ALA797  LYS798  CYS799  TRP800  GLU811  SER814 

> <Gold.Protein.RotatedAtoms>
  150.6875  134.2559  159.4529 H   0  0  0  0  0  0  0  0  0  0  0  0  # atno 6907 bound_to 6896
  152.0493  134.9661  160.0584 H   0  0  0  0  0  0  0  0  0  0  0  0  # atno 6908 bound_to 6896
  152.1131  133.4277  159.4677 H   0  0  0  0  0  0  0  0  0  0  0  0  # atno 6909 bound_to 6896
  146.2201  140.2849  142.8364 H   0  0  0  0  0  0  0  0  0  0  0  0  # atno 7974 bound_to 7965
  156.3002  140.2479  156.3528 H   0  0  0  0  0  0  0  0  0  0  0  0  # atno 8008 bound_to 7997
  154.8950  140.0408  157.1880 H   0  0  0  0  0  0  0  0  0  0  0  0  # atno 8009 bound_to 7997
  154.8559  140.2913  155.5573 H   0  0  0  0  0  0  0  0  0  0  0  0  # atno 8010 bound_to 7997
  140.1884  144.4111  150.6582 H   0  0  0  0  0  0  0  0  0  0  0  0  # atno 10167 bound_to 10162
  157.2946  130.7320  149.6631 H   0  0  0  0  0  0  0  0  0  0  0  0  # atno 10718 bound_to 10713
  154.8142  135.4634  154.0598 H   0  0  0  0  0  0  0  0  0  0  0  0  # atno 10763 bound_to 10752
  153.2004  135.6868  153.8245 H   0  0  0  0  0  0  0  0  0  0  0  0  # atno 10764 bound_to 10752
  153.7732  135.3267  155.3332 H   0  0  0  0  0  0  0  0  0  0  0  0  # atno 10765 bound_to 10752
  140.5871  133.9958  155.8072 H   0  0  0  0  0  0  0  0  0  0  0  0  # atno 11005 bound_to 11000
  144.9169  140.7823  143.5772 LP  0  0  0  0  0  0  0  0  0  0  0  0  # atno 17320 bound_to 7965
  145.2783  139.1928  143.4804 LP  0  0  0  0  0  0  0  0  0  0  0  0  # atno 17321 bound_to 7965
  140.6473  143.2216  151.6158 LP  0  0  0  0  0  0  0  0  0  0  0  0  # atno 17342 bound_to 10162
  139.5266  144.3040  152.1049 LP  0  0  0  0  0  0  0  0  0  0  0  0  # atno 17343 bound_to 10162
  155.9668  130.4298  150.4850 LP  0  0  0  0  0  0  0  0  0  0  0  0  # atno 17370 bound_to 10713
  157.2819  131.0608  151.2192 LP  0  0  0  0  0  0  0  0  0  0  0  0  # atno 17371 bound_to 10713
  141.0959  133.9845  157.3161 LP  0  0  0  0  0  0  0  0  0  0  0  0  # atno 17394 bound_to 11000
  139.9291  135.0200  156.8337 LP  0  0  0  0  0  0  0  0  0  0  0  0  # atno 17395 bound_to 11000

$$$$
