AV-unprocessed.smi:3058|AV-procd|sdf|11670|dock9
  -GOLD-   2272017 73D 1   1.00000     0.00000
 Structure written by MMmdl.
 38 40  0  0  0  0  0  0  0  0  1 V2000
  152.9982  140.4011  157.8459 O   0  0  0  0  0  0  0  0  0  0  0  0
  152.0549  141.1886  157.7594 C   0  0  0  0  0  0  0  0  0  0  0  0
  151.3180  141.3246  156.6463 N   0  0  0  0  0  0  0  0  0  0  0  0
  151.5328  140.5891  155.4061 C   0  0  0  0  0  0  0  0  0  0  0  0
  150.5668  139.4001  155.2789 C   0  0  0  0  0  0  0  0  0  0  0  0
  149.2910  139.7793  154.5536 C   0  0  0  0  0  0  0  0  0  0  0  0
  148.5947  138.8326  153.7744 C   0  0  0  0  0  0  0  0  0  0  0  0
  147.4102  139.2290  153.1243 C   0  0  0  0  0  0  0  0  0  0  0  0
  146.9713  140.5589  153.2825 C   0  0  0  0  0  0  0  0  0  0  0  0
  147.6297  141.4736  154.0270 N   0  0  0  0  0  0  0  0  0  0  0  0
  148.7649  141.0853  154.6466 C   0  0  0  0  0  0  0  0  0  0  0  0
  151.6425  142.0665  158.9542 C   0  0  1  0  0  0  0  0  0  0  0  0
  152.8179  142.7666  159.6806 C   0  0  0  0  0  0  0  0  0  0  0  0
  152.3892  144.2461  159.6863 C   0  0  1  0  0  0  0  0  0  0  0  0
  152.5227  144.8264  158.2657 C   0  0  0  0  0  0  0  0  0  0  0  0
  151.3298  144.1925  157.5271 C   0  0  0  0  0  0  0  0  0  0  0  0
  150.7201  143.2635  158.6002 C   0  0  2  0  0  0  0  0  0  0  0  0
  150.8771  144.1331  159.8443 C   0  0  0  0  0  0  0  0  0  0  0  0
  150.5559  141.9869  156.6591 H   0  0  0  0  0  0  0  0  0  0  0  0
  151.4294  141.2604  154.5516 H   0  0  0  0  0  0  0  0  0  0  0  0
  152.5635  140.2335  155.3980 H   0  0  0  0  0  0  0  0  0  0  0  0
  151.0493  138.5804  154.7448 H   0  0  0  0  0  0  0  0  0  0  0  0
  150.3080  139.0137  156.2657 H   0  0  0  0  0  0  0  0  0  0  0  0
  148.9589  137.8203  153.6776 H   0  0  0  0  0  0  0  0  0  0  0  0
  146.8510  138.5304  152.5197 H   0  0  0  0  0  0  0  0  0  0  0  0
  146.0668  140.8964  152.7985 H   0  0  0  0  0  0  0  0  0  0  0  0
  149.2656  141.8389  155.2369 H   0  0  0  0  0  0  0  0  0  0  0  0
  151.1255  141.4332  159.6780 H   0  0  0  0  0  0  0  0  0  0  0  0
  152.9036  142.3920  160.7014 H   0  0  0  0  0  0  0  0  0  0  0  0
  153.7902  142.6280  159.2060 H   0  0  0  0  0  0  0  0  0  0  0  0
  152.8900  144.8418  160.4498 H   0  0  0  0  0  0  0  0  0  0  0  0
  152.4340  145.9135  158.2754 H   0  0  0  0  0  0  0  0  0  0  0  0
  153.4784  144.5717  157.8059 H   0  0  0  0  0  0  0  0  0  0  0  0
  150.6115  144.9640  157.2467 H   0  0  0  0  0  0  0  0  0  0  0  0
  151.6190  143.6818  156.6094 H   0  0  0  0  0  0  0  0  0  0  0  0
  149.6916  142.9702  158.3881 H   0  0  0  0  0  0  0  0  0  0  0  0
  150.5737  143.6335  160.7663 H   0  0  0  0  0  0  0  0  0  0  0  0
  150.3619  145.0928  159.7733 H   0  0  0  0  0  0  0  0  0  0  0  0
  1  2  2  0  0  0  0
  2  3  1  0  0  0  0
  2 12  1  0  0  0  0
  3  4  1  0  0  0  0
  3 19  1  0  0  0  0
  4  5  1  0  0  0  0
  4 20  1  0  0  0  0
  4 21  1  0  0  0  0
  5  6  1  0  0  0  0
  5 22  1  0  0  0  0
  5 23  1  0  0  0  0
  6 11  1  0  0  0  0
  6  7  2  0  0  0  0
  7  8  1  0  0  0  0
  7 24  1  0  0  0  0
  8  9  2  0  0  0  0
  8 25  1  0  0  0  0
  9 10  1  0  0  0  0
  9 26  1  0  0  0  0
 10 11  2  0  0  0  0
 11 27  1  0  0  0  0
 12 17  1  0  0  0  0
 12 13  1  0  0  0  0
 12 28  1  0  0  0  0
 13 14  1  0  0  0  0
 13 29  1  0  0  0  0
 13 30  1  0  0  0  0
 14 18  1  0  0  0  0
 14 15  1  0  0  0  0
 14 31  1  0  0  0  0
 15 16  1  0  0  0  0
 15 32  1  0  0  0  0
 15 33  1  0  0  0  0
 16 17  1  0  0  0  0
 16 34  1  0  0  0  0
 16 35  1  0  0  0  0
 17 18  1  0  0  0  0
 17 36  1  0  0  0  0
 18 37  1  0  0  0  0
 18 38  1  0  0  0  0
M  END
> <s_m_source_file>
AV-unprocessed.smi

> <i_m_source_file_index>
3058

> <i_lp_mmshare_version>
43012

> <i_f3d_flags>
0

> <s_epik_input>
W0NIMl0xW0NIMl1bQ0BIXShbQ0gyXTIpW0NAQEhdKFtDSDJdW0NAQEhdMTIpQyg9TylbTkhdW0NIMl1bQ0gyXWMzW2NIXVtjSF1bY0hdbltjSF0z

> <s_epik_cmdline>
J2VwaWtfcHl0aG9uJywgJy1waCcsICc3LjAnLCAnLXRuJywgJzgnLCAnLW1hJywgJzIwMCcsICctbWV0YWxfYmluZGluZycsICctaW1hZScsICc8aW5maWxlLm1hZT4nLCAnLW9tYWUnLCAnPG91dGZpbGUubWFlPic=

> <r_epik_Ionization_Penalty>
0.0135821

> <r_epik_Ionization_Penalty_Charging>
0

> <r_epik_Ionization_Penalty_Neutral>
0.0135821

> <r_epik_State_Penalty>
0.0105782

> <r_epik_Charging_Adjusted_Penalty>
0.0105782

> <i_epik_Tot_Q>
0

> <i_epik_Tot_abs_Q>
0

> <r_epik_Metal_State_Penalty>
0.0103407

> <b_epik_Metal_Only>
0

> <s_lp_Force_Field>
OPLS_2005

> <r_lp_Energy>
46.4092

> <b_lp_Chiralities_Consistent>
1

> <s_lp_Variant>
AV-unprocessed.smi:3058-2

> <Gold.Version>
5.8.1

> <Gold.Id.Protein>
6NUR|6NUR_protein|mol2

> <Gold.PLP.Fitness>
44.4351

> <Gold.PLP.PLP>
-40.6745

> <Gold.PLP.part.hbond>
-1.0000

> <Gold.PLP.part.metal>
0.0000

> <Gold.PLP.part.buried>
-2.1236

> <Gold.PLP.part.nonpolar>
-37.7391

> <Gold.PLP.part.repulsive>
0.2612

> <Gold.PLP.ligand.clash>
0.0000

> <Gold.PLP.ligand.torsion>
1.1133

> <Gold.PLP.Chemscore.Hbond>
0.9675

> <Gold.PLP.Chemscore.CHOScore>
1.0243

> <Gold.PLP.Chemscore.Metal>
0.0000

> <Gold.Chemscore.Hbonds>
donor molecule, donor type, donor heavy atom, donor atom, acceptor molecule, acceptor atom, score
      P1  H  7997  8010       L1     1  0.86
      L1  C     9    26       P1 10175  1.00

> <Gold.PLP.Chemscore.Internal.Correction>
0.0119

> <Gold.Rescore>
     Score         DG    S(hbond)    S(metal)    S(lipo)     H(rot)  DE(clash)    DE(int)     intcor
     17.74     -20.17       0.96        0.00     127.93       1.37       0.30       2.12       ----

> <Gold.Chemscore.Fitness>
17.7406

> <Gold.Chemscore.DG>
-20.1686

> <Gold.Chemscore.ZeroCoef>
-5.4800

> <Gold.Chemscore.Hbond>
0.9627

> <Gold.Chemscore.Metal>
0.0000

> <Gold.Chemscore.Lipo>
127.9335

> <Gold.Chemscore.Internal_Hbond>
0.0000

> <Gold.Chemscore.DEClash>
0.3031

> <Gold.Chemscore.DEInternal>
2.1249

> <Gold.Chemscore.Rot>
1.3653

> <Gold.Chemscore.Internal.Correction>
   9.000000E+99

> <Gold.Chemscore.Hbonds>
donor molecule, donor type, donor heavy atom, donor atom, acceptor molecule, acceptor atom, score
      P1  H  7997  8010       L1     1  0.85

> <Gold.Chemscore.Hbond.Weighted>
-3.2155

> <Gold.Chemscore.Metal.Weighted>
-0.0000

> <Gold.Chemscore.Lipo.Weighted>
-14.9682

> <Gold.Chemscore.Internal_Hbond.Weighted>
0.0000

> <Gold.Chemscore.DEClash.Weighted>
0.3031

> <Gold.Chemscore.DEInternal.Weighted>
2.1249

> <Gold.Chemscore.Rot.Weighted>
3.4951

> <Gold.Chemscore.Internal.Correction.Weighted>
   9.000000E+99

> <Gold.Protein.RotatedTorsions>
[ 6907 6896 6895 6894 ] final  151.74 input  -60.11 | X-H torsion
[ 7974 7965 7964 7962 ] final   99.31 input  175.53 | X-H torsion
[ 8008 7997 7996 7995 ] final   45.65 input   59.86 | X-H torsion
[ 10167 10162 10161 10158 ] final  103.61 input  -65.29 | X-H torsion
[ 10718 10713 10712 10709 ] final   73.87 input   66.30 | X-H torsion
[ 10763 10752 10751 10750 ] final -166.03 input  -60.55 | X-H torsion
[ 11005 11000 10999 10996 ] final  -77.77 input  -57.11 | X-H torsion

> <Gold.Protein.ActiveResidues>
 VAL166  LYS551  ARG553  GLY616  TRP617  ASP618  TYR619  PRO620  LYS621  CYS622 
 ASP623  PHE694  ASN695  SER759  ASP760  ASP761  ALA762  ILE779  LEU786  VAL792 
 PHE793  MET794  SER795  GLU796  ALA797  LYS798  CYS799  TRP800  GLU811  SER814 

> <Gold.Protein.RotatedAtoms>
  152.0964  133.4227  159.4566 H   0  0  0  0  0  0  0  0  0  0  0  0  # atno 6907 bound_to 6896
  150.6863  134.2811  159.4637 H   0  0  0  0  0  0  0  0  0  0  0  0  # atno 6908 bound_to 6896
  152.0668  134.9559  160.0625 H   0  0  0  0  0  0  0  0  0  0  0  0  # atno 6909 bound_to 6896
  145.4006  139.2348  143.3302 H   0  0  0  0  0  0  0  0  0  0  0  0  # atno 7974 bound_to 7965
  155.3394  140.3407  155.4239 H   0  0  0  0  0  0  0  0  0  0  0  0  # atno 8008 bound_to 7997
  156.1821  140.1667  156.8291 H   0  0  0  0  0  0  0  0  0  0  0  0  # atno 8009 bound_to 7997
  154.5345  140.0738  156.8386 H   0  0  0  0  0  0  0  0  0  0  0  0  # atno 8010 bound_to 7997
  139.7248  144.7050  151.0815 H   0  0  0  0  0  0  0  0  0  0  0  0  # atno 10167 bound_to 10162
  157.6567  130.9650  150.1131 H   0  0  0  0  0  0  0  0  0  0  0  0  # atno 10718 bound_to 10713
  154.6873  135.2965  154.9529 H   0  0  0  0  0  0  0  0  0  0  0  0  # atno 10763 bound_to 10752
  154.0503  135.6645  153.4803 H   0  0  0  0  0  0  0  0  0  0  0  0  # atno 10764 bound_to 10752
  153.0588  135.5128  154.7948 H   0  0  0  0  0  0  0  0  0  0  0  0  # atno 10765 bound_to 10752
  141.1662  133.7036  156.7871 H   0  0  0  0  0  0  0  0  0  0  0  0  # atno 11005 bound_to 11000
  146.2754  140.4703  142.8798 LP  0  0  0  0  0  0  0  0  0  0  0  0  # atno 17320 bound_to 7965
  144.8377  140.6808  143.6250 LP  0  0  0  0  0  0  0  0  0  0  0  0  # atno 17321 bound_to 7965
  140.7760  143.5119  150.9641 LP  0  0  0  0  0  0  0  0  0  0  0  0  # atno 17342 bound_to 10162
  139.8807  143.7076  152.3157 LP  0  0  0  0  0  0  0  0  0  0  0  0  # atno 17343 bound_to 10162
  156.2022  130.3661  149.8774 LP  0  0  0  0  0  0  0  0  0  0  0  0  # atno 17370 bound_to 10713
  156.6674  130.8807  151.3557 LP  0  0  0  0  0  0  0  0  0  0  0  0  # atno 17371 bound_to 10713
  140.2352  134.8655  157.3517 LP  0  0  0  0  0  0  0  0  0  0  0  0  # atno 17394 bound_to 11000
  140.1851  134.4441  155.7749 LP  0  0  0  0  0  0  0  0  0  0  0  0  # atno 17395 bound_to 11000

$$$$
