AV-unprocessed.smi:110|AV-procd|sdf|1069|dock5
  -GOLD-   2262018153D 1   1.00000     0.00000
 Structure written by MMmdl.
 46 50  0  0  0  0  0  0  0  0  1 V2000
  143.6634  139.4717  155.7021 O   0  0  0  0  0  0  0  0  0  0  0  0
  144.7156  138.6612  156.1805 C   0  0  0  0  0  0  0  0  0  0  0  0
  146.0688  139.3319  155.8994 C   0  0  1  0  0  0  0  0  0  0  0  0
  147.1179  138.4000  156.1150 O   0  0  0  0  0  0  0  0  0  0  0  0
  148.2440  138.7854  155.3952 C   0  0  2  0  0  0  0  0  0  0  0  0
  149.1352  139.5928  156.3014 N   0  0  0  0  0  0  0  0  0  0  0  0
  148.7994  140.7911  156.8910 C   0  0  0  0  0  0  0  0  0  0  0  0
  149.7266  141.3425  157.6226 N   0  0  0  0  0  0  0  0  0  0  0  0
  150.8084  140.4804  157.5085 C   0  0  0  0  0  0  0  0  0  0  0  0
  152.1313  140.4716  158.0378 C   0  0  0  0  0  0  0  0  0  0  0  0
  152.6401  141.4218  158.8560 N   0  0  0  0  0  0  0  0  0  0  0  0
  153.2651  140.9932  160.1162 C   0  0  0  0  0  0  0  0  0  0  0  0
  153.2244  142.1860  161.0902 C   0  0  0  0  0  0  0  0  0  0  0  0
  152.6315  143.2451  160.2188 C   0  0  0  0  0  0  0  0  0  0  0  0
  152.3965  144.5906  160.5511 C   0  0  0  0  0  0  0  0  0  0  0  0
  151.8396  145.4318  159.5640 C   0  0  0  0  0  0  0  0  0  0  0  0
  151.5387  144.9239  158.2788 C   0  0  0  0  0  0  0  0  0  0  0  0
  151.7849  143.5685  157.9672 C   0  0  0  0  0  0  0  0  0  0  0  0
  152.3233  142.7294  158.9642 C   0  0  0  0  0  0  0  0  0  0  0  0
  152.9214  139.4095  157.7431 N   0  0  0  0  0  0  0  0  0  0  0  0
  152.4663  138.4373  156.9506 C   0  0  0  0  0  0  0  0  0  0  0  0
  151.2689  138.3256  156.3746 N   0  0  0  0  0  0  0  0  0  0  0  0
  150.4498  139.3727  156.6853 C   0  0  0  0  0  0  0  0  0  0  0  0
  147.7536  139.5544  154.1566 C   0  0  1  0  0  0  0  0  0  0  0  0
  147.9512  138.7985  152.9784 O   0  0  0  0  0  0  0  0  0  0  0  0
  146.2557  139.7339  154.4269 C   0  0  2  0  0  0  0  0  0  0  0  0
  145.8712  141.0812  154.2394 O   0  0  0  0  0  0  0  0  0  0  0  0
  146.2108  140.1913  156.5550 H   0  0  0  0  0  0  0  0  0  0  0  0
  148.8490  137.9119  155.1485 H   0  0  0  0  0  0  0  0  0  0  0  0
  148.2930  140.4943  154.0442 H   0  0  0  0  0  0  0  0  0  0  0  0
  145.6631  139.0854  153.7790 H   0  0  0  0  0  0  0  0  0  0  0  0
  143.8647  139.7335  154.8167 H   0  0  0  0  0  0  0  0  0  0  0  0
  144.5860  138.4577  157.2439 H   0  0  0  0  0  0  0  0  0  0  0  0
  144.6555  137.7064  155.6572 H   0  0  0  0  0  0  0  0  0  0  0  0
  147.8291  141.2488  156.7640 H   0  0  0  0  0  0  0  0  0  0  0  0
  152.7426  140.1318  160.5351 H   0  0  0  0  0  0  0  0  0  0  0  0
  154.2955  140.6934  159.9213 H   0  0  0  0  0  0  0  0  0  0  0  0
  152.5793  141.9920  161.9475 H   0  0  0  0  0  0  0  0  0  0  0  0
  154.2172  142.4709  161.4388 H   0  0  0  0  0  0  0  0  0  0  0  0
  152.6376  144.9716  161.5325 H   0  0  0  0  0  0  0  0  0  0  0  0
  151.6475  146.4705  159.7894 H   0  0  0  0  0  0  0  0  0  0  0  0
  151.1203  145.5776  157.5279 H   0  0  0  0  0  0  0  0  0  0  0  0
  151.5641  143.1888  156.9805 H   0  0  0  0  0  0  0  0  0  0  0  0
  153.1591  137.6333  156.7508 H   0  0  0  0  0  0  0  0  0  0  0  0
  148.8139  138.9881  152.6421 H   0  0  0  0  0  0  0  0  0  0  0  0
  145.1758  141.1053  153.5992 H   0  0  0  0  0  0  0  0  0  0  0  0
  1  2  1  0  0  0  0
  1 32  1  0  0  0  0
  2  3  1  0  0  0  0
  2 33  1  0  0  0  0
  2 34  1  0  0  0  0
  3 28  1  0  0  0  0
  3 26  1  0  0  0  0
  3  4  1  0  0  0  0
  4  5  1  0  0  0  0
  5 29  1  0  0  0  0
  5  6  1  0  0  0  0
  5 24  1  0  0  0  0
  6 23  1  0  0  0  0
  6  7  1  0  0  0  0
  7  8  2  0  0  0  0
  7 35  1  0  0  0  0
  8  9  1  0  0  0  0
  9 23  2  0  0  0  0
  9 10  1  0  0  0  0
 10 11  1  0  0  0  0
 10 20  2  0  0  0  0
 11 19  1  0  0  0  0
 11 12  1  0  0  0  0
 12 13  1  0  0  0  0
 12 36  1  0  0  0  0
 12 37  1  0  0  0  0
 13 14  1  0  0  0  0
 13 38  1  0  0  0  0
 13 39  1  0  0  0  0
 14 19  2  0  0  0  0
 14 15  1  0  0  0  0
 15 16  2  0  0  0  0
 15 40  1  0  0  0  0
 16 17  1  0  0  0  0
 16 41  1  0  0  0  0
 17 18  2  0  0  0  0
 17 42  1  0  0  0  0
 18 19  1  0  0  0  0
 18 43  1  0  0  0  0
 20 21  1  0  0  0  0
 21 22  2  0  0  0  0
 21 44  1  0  0  0  0
 22 23  1  0  0  0  0
 24 30  1  0  0  0  0
 24 25  1  0  0  0  0
 24 26  1  0  0  0  0
 25 45  1  0  0  0  0
 26 31  1  0  0  0  0
 26 27  1  0  0  0  0
 27 46  1  0  0  0  0
M  END
> <s_m_source_file>
AV-unprocessed.smi

> <i_m_source_file_index>
110

> <i_lp_mmshare_version>
43012

> <i_f3d_flags>
0

> <s_epik_input>
W09IXVtDSDJdW0NASF0xT1tDQEhdKFtDQEhdKFtPSF0pW0NAQEhdMVtPSF0pbihbY0hdbjIpYyhjMjMpbltjSF1uYzNOKFtDSDJdW0NIMl00KWMoYzQ1KVtjSF1bY0hdW2NIXVtjSF01

> <s_epik_cmdline>
J2VwaWtfcHl0aG9uJywgJy1waCcsICc3LjAnLCAnLXRuJywgJzgnLCAnLW1hJywgJzIwMCcsICctbWV0YWxfYmluZGluZycsICctaW1hZScsICc8aW5maWxlLm1hZT4nLCAnLW9tYWUnLCAnPG91dGZpbGUubWFlPic=

> <r_lp_tautomer_probability>
1

> <r_epik_Ionization_Penalty>
0.00068475

> <r_epik_Ionization_Penalty_Charging>
0

> <r_epik_Ionization_Penalty_Neutral>
0.00068475

> <r_epik_State_Penalty>
0.000417442

> <r_epik_Charging_Adjusted_Penalty>
0.000417442

> <i_epik_Tot_Q>
0

> <i_epik_Tot_abs_Q>
0

> <r_epik_Metal_State_Penalty>
-0

> <b_epik_Metal_Only>
0

> <s_epik_Chemistry_Notes>
This compound contains an acetal/aminal-like group ( X-CH(R)-Y where X, Y are N, S, or O) that may be acid/base labile, releasing an aldehyde.

> <s_lp_Force_Field>
OPLS_2005

> <r_lp_Energy>
55.3724

> <b_lp_Chiralities_Consistent>
1

> <s_lp_Variant>
AV-unprocessed.smi:110-7

> <Gold.Version>
5.8.1

> <Gold.Id.Protein>
6NUR|6NUR_protein|mol2

> <Gold.PLP.Fitness>
55.0077

> <Gold.PLP.PLP>
-45.4648

> <Gold.PLP.part.hbond>
-4.0424

> <Gold.PLP.part.metal>
0.0000

> <Gold.PLP.part.buried>
-5.8600

> <Gold.PLP.part.nonpolar>
-35.7026

> <Gold.PLP.part.repulsive>
0.0663

> <Gold.PLP.ligand.clash>
0.0000

> <Gold.PLP.ligand.torsion>
0.6581

> <Gold.PLP.Chemscore.Hbond>
3.5680

> <Gold.PLP.Chemscore.CHOScore>
0.0000

> <Gold.PLP.Chemscore.Metal>
0.0000

> <Gold.Chemscore.Hbonds>
donor molecule, donor type, donor heavy atom, donor atom, acceptor molecule, acceptor atom, score
      L1  H    25    45       P1  7957  0.75
      L1  H    27    46       P1 10175  1.00
      P1  H  7997  8008       L1    20  1.00

> <Gold.PLP.Chemscore.Internal.Correction>
0.1551

> <Gold.Rescore>
     Score         DG    S(hbond)    S(metal)    S(lipo)     H(rot)  DE(clash)    DE(int)     intcor
     17.16     -18.26       2.77        0.00     104.31       3.38       0.03       1.07       ----

> <Gold.Chemscore.Fitness>
17.1579

> <Gold.Chemscore.DG>
-18.2598

> <Gold.Chemscore.ZeroCoef>
-5.4800

> <Gold.Chemscore.Hbond>
2.7658

> <Gold.Chemscore.Metal>
0.0000

> <Gold.Chemscore.Lipo>
104.3104

> <Gold.Chemscore.Internal_Hbond>
0.0000

> <Gold.Chemscore.DEClash>
0.0324

> <Gold.Chemscore.DEInternal>
1.0695

> <Gold.Chemscore.Rot>
3.3837

> <Gold.Chemscore.Internal.Correction>
   9.000000E+99

> <Gold.Chemscore.Hbonds>
donor molecule, donor type, donor heavy atom, donor atom, acceptor molecule, acceptor atom, score
      L1  H     1    32       P1 10175  0.06
      L1  H    25    45       P1  7957  0.72
      L1  H    27    46       P1 10175  0.54
      P1  H  7997  8008       L1    20  0.29

> <Gold.Chemscore.Hbond.Weighted>
-9.2377

> <Gold.Chemscore.Metal.Weighted>
-0.0000

> <Gold.Chemscore.Lipo.Weighted>
-12.2043

> <Gold.Chemscore.Internal_Hbond.Weighted>
0.0000

> <Gold.Chemscore.DEClash.Weighted>
0.0324

> <Gold.Chemscore.DEInternal.Weighted>
1.0695

> <Gold.Chemscore.Rot.Weighted>
8.6622

> <Gold.Chemscore.Internal.Correction.Weighted>
   9.000000E+99

> <Gold.Protein.RotatedTorsions>
[ 6907 6896 6895 6894 ] final  152.47 input  -60.11 | X-H torsion
[ 7974 7965 7964 7962 ] final    8.46 input  175.53 | X-H torsion
[ 8008 7997 7996 7995 ] final  -72.93 input   59.86 | X-H torsion
[ 10167 10162 10161 10158 ] final  150.38 input  -65.29 | X-H torsion
[ 10718 10713 10712 10709 ] final  108.53 input   66.30 | X-H torsion
[ 10763 10752 10751 10750 ] final -175.17 input  -60.55 | X-H torsion
[ 11005 11000 10999 10996 ] final -137.77 input  -57.11 | X-H torsion

> <Gold.Protein.ActiveResidues>
 VAL166  LYS551  ARG553  GLY616  TRP617  ASP618  TYR619  PRO620  LYS621  CYS622 
 ASP623  PHE694  ASN695  SER759  ASP760  ASP761  ALA762  ILE779  LEU786  VAL792 
 PHE793  MET794  SER795  GLU796  ALA797  LYS798  CYS799  TRP800  GLU811  SER814 

> <Gold.Protein.RotatedAtoms>
  152.0863  133.4178  159.4523 H   0  0  0  0  0  0  0  0  0  0  0  0  # atno 6907 bound_to 6896
  150.6862  134.2924  159.4681 H   0  0  0  0  0  0  0  0  0  0  0  0  # atno 6908 bound_to 6896
  152.0770  134.9495  160.0624 H   0  0  0  0  0  0  0  0  0  0  0  0  # atno 6909 bound_to 6896
  146.2416  139.9929  142.8424 H   0  0  0  0  0  0  0  0  0  0  0  0  # atno 7974 bound_to 7965
  154.5206  140.0788  156.8165 H   0  0  0  0  0  0  0  0  0  0  0  0  # atno 8008 bound_to 7997
  155.3584  140.3416  155.4222 H   0  0  0  0  0  0  0  0  0  0  0  0  # atno 8009 bound_to 7997
  156.1677  140.1609  156.8490 H   0  0  0  0  0  0  0  0  0  0  0  0  # atno 8010 bound_to 7997
  139.4851  144.5527  151.7373 H   0  0  0  0  0  0  0  0  0  0  0  0  # atno 10167 bound_to 10162
  157.6582  131.0895  150.6318 H   0  0  0  0  0  0  0  0  0  0  0  0  # atno 10718 bound_to 10713
  154.5875  135.2842  155.0669 H   0  0  0  0  0  0  0  0  0  0  0  0  # atno 10763 bound_to 10752
  154.1982  135.6429  153.5083 H   0  0  0  0  0  0  0  0  0  0  0  0  # atno 10764 bound_to 10752
  153.0109  135.5462  154.6550 H   0  0  0  0  0  0  0  0  0  0  0  0  # atno 10765 bound_to 10752
  140.8680  134.2086  157.4668 H   0  0  0  0  0  0  0  0  0  0  0  0  # atno 11005 bound_to 11000
  145.1486  140.9611  143.4446 LP  0  0  0  0  0  0  0  0  0  0  0  0  # atno 17320 bound_to 7965
  145.0227  139.3410  143.6064 LP  0  0  0  0  0  0  0  0  0  0  0  0  # atno 17321 bound_to 7965
  140.5083  144.1064  150.5988 LP  0  0  0  0  0  0  0  0  0  0  0  0  # atno 17342 bound_to 10162
  140.3981  143.2718  151.9981 LP  0  0  0  0  0  0  0  0  0  0  0  0  # atno 17343 bound_to 10162
  156.6623  130.4516  149.5683 LP  0  0  0  0  0  0  0  0  0  0  0  0  # atno 17370 bound_to 10713
  156.2058  130.6648  151.1216 LP  0  0  0  0  0  0  0  0  0  0  0  0  # atno 17371 bound_to 10713
  139.8710  134.9761  156.4907 LP  0  0  0  0  0  0  0  0  0  0  0  0  # atno 17394 bound_to 11000
  140.8606  133.8062  155.9261 LP  0  0  0  0  0  0  0  0  0  0  0  0  # atno 17395 bound_to 11000

$$$$
