AV-unprocessed.smi:524|AV-procd|sdf|2805|dock4
  -GOLD-   2262023283D 1   1.00000     0.00000
 Structure written by MMmdl.
 43 45  0  0  0  0  0  0  0  0  1 V2000
  147.7116  141.4228  153.6208 C   0  0  0  0  0  0  0  0  0  0  0  0
  148.9455  141.9530  154.0706 O   0  0  0  0  0  0  0  0  0  0  0  0
  149.3321  141.4339  155.3325 C   0  0  0  0  0  0  0  0  0  0  0  0
  150.6835  142.0308  155.7494 C   0  0  0  0  0  0  0  0  0  0  0  0
  151.3977  141.1607  156.6818 N   0  0  0  0  0  0  0  0  0  0  0  0
  151.8759  141.4585  157.9222 C   0  0  0  0  0  0  0  0  0  0  0  0
  151.7624  142.7326  158.4819 N   0  0  0  0  0  0  0  0  0  0  0  0
  150.6735  143.6844  158.2560 C   0  0  0  0  0  0  0  0  0  0  0  0
  150.1183  144.2386  159.5807 C   0  0  0  0  0  0  0  0  0  0  0  0
  151.2354  144.9109  160.3907 C   0  0  0  0  0  0  0  0  0  0  0  0
  152.4279  143.9549  160.5350 C   0  0  0  0  0  0  0  0  0  0  0  0
  152.8635  143.4143  159.1612 C   0  0  0  0  0  0  0  0  0  0  0  0
  152.4128  140.4237  158.5750 N   0  0  0  0  0  0  0  0  0  0  0  0
  152.2883  139.3833  157.6689 C   0  0  0  0  0  0  0  0  0  0  0  0
  151.6749  139.7990  156.5321 C   0  0  0  0  0  0  0  0  0  0  0  0
  151.3734  138.8796  155.4249 C   0  0  0  0  0  0  0  0  0  0  0  0
  150.8084  139.2212  154.3887 O   0  0  0  0  0  0  0  0  0  0  0  0
  151.7749  137.6078  155.6656 N   0  0  0  0  0  0  0  0  0  0  0  0
  152.3989  137.1282  156.7844 C   0  0  0  0  0  0  0  0  0  0  0  0
  152.6913  135.9348  156.8555 O   0  0  0  0  0  0  0  0  0  0  0  0
  152.6693  138.0186  157.7930 N   0  0  0  0  0  0  0  0  0  0  0  0
  153.3307  137.6028  159.0316 C   0  0  0  0  0  0  0  0  0  0  0  0
  151.5863  136.9349  154.9371 H   0  0  0  0  0  0  0  0  0  0  0  0
  147.4576  141.8573  152.6541 H   0  0  0  0  0  0  0  0  0  0  0  0
  146.9051  141.6553  154.3173 H   0  0  0  0  0  0  0  0  0  0  0  0
  147.7694  140.3404  153.4988 H   0  0  0  0  0  0  0  0  0  0  0  0
  148.5760  141.6710  156.0822 H   0  0  0  0  0  0  0  0  0  0  0  0
  149.4070  140.3468  155.2793 H   0  0  0  0  0  0  0  0  0  0  0  0
  151.2996  142.2161  154.8724 H   0  0  0  0  0  0  0  0  0  0  0  0
  150.5373  143.0118  156.1914 H   0  0  0  0  0  0  0  0  0  0  0  0
  151.0515  144.5061  157.6460 H   0  0  0  0  0  0  0  0  0  0  0  0
  149.8819  143.2254  157.6653 H   0  0  0  0  0  0  0  0  0  0  0  0
  149.3194  144.9536  159.3822 H   0  0  0  0  0  0  0  0  0  0  0  0
  149.6747  143.4323  160.1654 H   0  0  0  0  0  0  0  0  0  0  0  0
  151.5577  145.8202  159.8822 H   0  0  0  0  0  0  0  0  0  0  0  0
  150.8671  145.2128  161.3714 H   0  0  0  0  0  0  0  0  0  0  0  0
  153.2609  144.4669  161.0174 H   0  0  0  0  0  0  0  0  0  0  0  0
  152.1556  143.1227  161.1855 H   0  0  0  0  0  0  0  0  0  0  0  0
  153.6960  142.7219  159.2924 H   0  0  0  0  0  0  0  0  0  0  0  0
  153.2308  144.2256  158.5313 H   0  0  0  0  0  0  0  0  0  0  0  0
  153.7843  136.6124  158.9770 H   0  0  0  0  0  0  0  0  0  0  0  0
  152.6120  137.5963  159.8515 H   0  0  0  0  0  0  0  0  0  0  0  0
  154.1268  138.3030  159.2881 H   0  0  0  0  0  0  0  0  0  0  0  0
  1  2  1  0  0  0  0
  1 24  1  0  0  0  0
  1 25  1  0  0  0  0
  1 26  1  0  0  0  0
  2  3  1  0  0  0  0
  3  4  1  0  0  0  0
  3 27  1  0  0  0  0
  3 28  1  0  0  0  0
  4  5  1  0  0  0  0
  4 29  1  0  0  0  0
  4 30  1  0  0  0  0
  5 15  1  0  0  0  0
  5  6  1  0  0  0  0
  6  7  1  0  0  0  0
  6 13  2  0  0  0  0
  7 12  1  0  0  0  0
  7  8  1  0  0  0  0
  8  9  1  0  0  0  0
  8 31  1  0  0  0  0
  8 32  1  0  0  0  0
  9 10  1  0  0  0  0
  9 33  1  0  0  0  0
  9 34  1  0  0  0  0
 10 11  1  0  0  0  0
 10 35  1  0  0  0  0
 10 36  1  0  0  0  0
 11 12  1  0  0  0  0
 11 37  1  0  0  0  0
 11 38  1  0  0  0  0
 12 39  1  0  0  0  0
 12 40  1  0  0  0  0
 13 14  1  0  0  0  0
 14 21  1  0  0  0  0
 14 15  2  0  0  0  0
 15 16  1  0  0  0  0
 16 17  2  0  0  0  0
 16 18  1  0  0  0  0
 18 23  1  0  0  0  0
 18 19  1  0  0  0  0
 19 20  2  0  0  0  0
 19 21  1  0  0  0  0
 21 22  1  0  0  0  0
 22 41  1  0  0  0  0
 22 42  1  0  0  0  0
 22 43  1  0  0  0  0
M  END
> <s_m_source_file>
AV-unprocessed.smi

> <i_m_source_file_index>
524

> <i_lp_mmshare_version>
43012

> <i_f3d_flags>
0

> <s_epik_input>
W0NIM11uMWMoPU8pW25IXWMoPU8pYyhjMTIpbihbQ0gyXVtDSDJdT1tDSDNdKWMobjIpTjNbQ0gyXVtDSDJdW0NIMl1bQ0gyXVtDSDJdMw==

> <s_epik_cmdline>
J2VwaWtfcHl0aG9uJywgJy1waCcsICc3LjAnLCAnLXRuJywgJzgnLCAnLW1hJywgJzIwMCcsICctbWV0YWxfYmluZGluZycsICctaW1hZScsICc8aW5maWxlLm1hZT4nLCAnLW9tYWUnLCAnPG91dGZpbGUubWFlPic=

> <r_lp_tautomer_probability>
1

> <r_epik_Ionization_Penalty>
0.000298119

> <r_epik_Ionization_Penalty_Charging>
0.000125384

> <r_epik_Ionization_Penalty_Neutral>
0.000172735

> <r_epik_State_Penalty>
-0

> <r_epik_Charging_Adjusted_Penalty>
0.000125384

> <i_epik_Tot_Q>
0

> <i_epik_Tot_abs_Q>
0

> <r_epik_Metal_State_Penalty>
0.0954001

> <b_epik_Metal_Only>
0

> <s_lp_Force_Field>
OPLS_2005

> <r_lp_Energy>
37.2528

> <b_lp_Chiralities_Consistent>
1

> <s_lp_Variant>
AV-unprocessed.smi:524-1

> <Gold.Version>
5.8.1

> <Gold.Id.Protein>
6NUR|6NUR_protein|mol2

> <Gold.PLP.Fitness>
45.0534

> <Gold.PLP.PLP>
-38.8685

> <Gold.PLP.part.hbond>
-3.0124

> <Gold.PLP.part.metal>
0.0000

> <Gold.PLP.part.buried>
-6.8769

> <Gold.PLP.part.nonpolar>
-29.1390

> <Gold.PLP.part.repulsive>
0.4627

> <Gold.PLP.ligand.clash>
0.0000

> <Gold.PLP.ligand.torsion>
0.8076

> <Gold.PLP.Chemscore.Hbond>
2.4320

> <Gold.PLP.Chemscore.CHOScore>
0.0000

> <Gold.PLP.Chemscore.Metal>
0.0000

> <Gold.Chemscore.Hbonds>
donor molecule, donor type, donor heavy atom, donor atom, acceptor molecule, acceptor atom, score
      P1  H  7989  7998       L1    17  0.98
      P1  H  8011  8017       L1     2  0.43
      P1  H 10752 10763       L1    20  1.00

> <Gold.PLP.Chemscore.Internal.Correction>
0.5041

> <Gold.Rescore>
     Score         DG    S(hbond)    S(metal)    S(lipo)     H(rot)  DE(clash)    DE(int)     intcor
     15.17     -18.67       2.12        0.00      84.76       1.48       0.46       3.04       ----

> <Gold.Chemscore.Fitness>
15.1702

> <Gold.Chemscore.DG>
-18.6717

> <Gold.Chemscore.ZeroCoef>
-5.4800

> <Gold.Chemscore.Hbond>
2.1173

> <Gold.Chemscore.Metal>
0.0000

> <Gold.Chemscore.Lipo>
84.7606

> <Gold.Chemscore.Internal_Hbond>
0.0000

> <Gold.Chemscore.DEClash>
0.4567

> <Gold.Chemscore.DEInternal>
3.0448

> <Gold.Chemscore.Rot>
1.4832

> <Gold.Chemscore.Internal.Correction>
   9.000000E+99

> <Gold.Chemscore.Hbonds>
donor molecule, donor type, donor heavy atom, donor atom, acceptor molecule, acceptor atom, score
      P1  H  7989  7998       L1    17  0.80
      P1  H  8011  8017       L1     2  0.13
      P1  H 10752 10763       L1    20  0.82

> <Gold.Chemscore.Hbond.Weighted>
-7.0717

> <Gold.Chemscore.Metal.Weighted>
-0.0000

> <Gold.Chemscore.Lipo.Weighted>
-9.9170

> <Gold.Chemscore.Internal_Hbond.Weighted>
0.0000

> <Gold.Chemscore.DEClash.Weighted>
0.4567

> <Gold.Chemscore.DEInternal.Weighted>
3.0448

> <Gold.Chemscore.Rot.Weighted>
3.7970

> <Gold.Chemscore.Internal.Correction.Weighted>
   9.000000E+99

> <Gold.Protein.RotatedTorsions>
[ 6907 6896 6895 6894 ] final   13.18 input  -60.11 | X-H torsion
[ 7974 7965 7964 7962 ] final -142.01 input  175.53 | X-H torsion
[ 8008 7997 7996 7995 ] final  -55.54 input   59.86 | X-H torsion
[ 10167 10162 10161 10158 ] final   25.57 input  -65.29 | X-H torsion
[ 10718 10713 10712 10709 ] final  170.67 input   66.30 | X-H torsion
[ 10763 10752 10751 10750 ] final  124.16 input  -60.55 | X-H torsion
[ 11005 11000 10999 10996 ] final -160.33 input  -57.11 | X-H torsion

> <Gold.Protein.ActiveResidues>
 VAL166  LYS551  ARG553  GLY616  TRP617  ASP618  TYR619  PRO620  LYS621  CYS622 
 ASP623  PHE694  ASN695  SER759  ASP760  ASP761  ALA762  ILE779  LEU786  VAL792 
 PHE793  MET794  SER795  GLU796  ALA797  LYS798  CYS799  TRP800  GLU811  SER814 

> <Gold.Protein.RotatedAtoms>
  151.7822  135.0758  160.0375 H   0  0  0  0  0  0  0  0  0  0  0  0  # atno 6907 bound_to 6896
  152.3215  133.5854  159.5756 H   0  0  0  0  0  0  0  0  0  0  0  0  # atno 6908 bound_to 6896
  150.7372  133.9920  159.3652 H   0  0  0  0  0  0  0  0  0  0  0  0  # atno 6909 bound_to 6896
  144.8476  140.6010  143.5411 H   0  0  0  0  0  0  0  0  0  0  0  0  # atno 7974 bound_to 7965
  154.4198  140.1150  156.5492 H   0  0  0  0  0  0  0  0  0  0  0  0  # atno 8008 bound_to 7997
  155.6427  140.3496  155.4701 H   0  0  0  0  0  0  0  0  0  0  0  0  # atno 8009 bound_to 7997
  155.9857  140.1169  157.0675 H   0  0  0  0  0  0  0  0  0  0  0  0  # atno 8010 bound_to 7997
  140.5095  144.0184  150.6366 H   0  0  0  0  0  0  0  0  0  0  0  0  # atno 10167 bound_to 10162
  157.0047  131.0186  151.2820 H   0  0  0  0  0  0  0  0  0  0  0  0  # atno 10718 bound_to 10713
  153.6569  135.3353  155.3116 H   0  0  0  0  0  0  0  0  0  0  0  0  # atno 10763 bound_to 10752
  154.8524  135.4354  154.1845 H   0  0  0  0  0  0  0  0  0  0  0  0  # atno 10764 bound_to 10752
  153.2802  135.7008  153.7468 H   0  0  0  0  0  0  0  0  0  0  0  0  # atno 10765 bound_to 10752
  140.6327  134.4634  157.5230 H   0  0  0  0  0  0  0  0  0  0  0  0  # atno 11005 bound_to 11000
  145.4566  139.1517  143.3889 LP  0  0  0  0  0  0  0  0  0  0  0  0  # atno 17320 bound_to 7965
  146.2757  140.4694  142.8796 LP  0  0  0  0  0  0  0  0  0  0  0  0  # atno 17321 bound_to 7965
  140.3502  143.2967  152.0495 LP  0  0  0  0  0  0  0  0  0  0  0  0  # atno 17342 bound_to 10162
  139.4892  144.6379  151.6937 LP  0  0  0  0  0  0  0  0  0  0  0  0  # atno 17343 bound_to 10162
  157.5365  130.8092  149.7977 LP  0  0  0  0  0  0  0  0  0  0  0  0  # atno 17370 bound_to 10713
  156.0158  130.3814  150.2116 LP  0  0  0  0  0  0  0  0  0  0  0  0  # atno 17371 bound_to 10713
  139.9110  134.8346  156.1530 LP  0  0  0  0  0  0  0  0  0  0  0  0  # atno 17394 bound_to 11000
  141.0663  133.6817  156.2052 LP  0  0  0  0  0  0  0  0  0  0  0  0  # atno 17395 bound_to 11000

$$$$
