AV-unprocessed.smi:133|AV-procd|sdf|1165|dock3
  -GOLD-   2262018303D 1   1.00000     0.00000
 Structure written by MMmdl.
 47 50  0  0  0  0  0  0  0  0  1 V2000
  150.4680  139.3545  155.1070 O   0  0  0  0  0  0  0  0  0  0  0  0
  150.3691  138.7139  156.1543 C   0  0  0  0  0  0  0  0  0  0  0  0
  149.9485  137.2356  156.1300 C   0  0  0  0  0  0  0  0  0  0  0  0
  148.8480  136.9138  157.0653 N   0  0  0  0  0  0  0  0  0  0  0  0
  147.5439  136.7302  156.5416 C   0  0  0  0  0  0  0  0  0  0  0  0
  147.3159  136.8534  155.3373 O   0  0  0  0  0  0  0  0  0  0  0  0
  146.5176  136.3796  157.5164 C   0  0  0  0  0  0  0  0  0  0  0  0
  145.2544  136.1710  157.1080 F   0  0  0  0  0  0  0  0  0  0  0  0
  146.8172  136.2557  158.8256 C   0  0  0  0  0  0  0  0  0  0  0  0
  148.0878  136.4588  159.3269 N   0  0  0  0  0  0  0  0  0  0  0  0
  148.3414  136.2486  160.8018 C   0  0  2  0  0  0  0  0  0  0  0  0
  147.9433  134.8474  161.3031 C   0  0  0  0  0  0  0  0  0  0  0  0
  146.9314  135.1520  162.3958 C   0  0  0  0  0  0  0  0  0  0  0  0
  147.2535  136.5962  162.7643 C   0  0  0  0  0  0  0  0  0  0  0  0
  147.5959  137.1835  161.5187 O   0  0  0  0  0  0  0  0  0  0  0  0
  149.1469  136.7644  158.4411 C   0  0  0  0  0  0  0  0  0  0  0  0
  150.3017  136.8902  158.8516 O   0  0  0  0  0  0  0  0  0  0  0  0
  150.5840  139.2224  157.3812 N   0  0  0  0  0  0  0  0  0  0  0  0
  150.9829  140.5386  157.7381 C   0  0  0  0  0  0  0  0  0  0  0  0
  151.8033  140.8276  158.8646 C   0  0  0  0  0  0  0  0  0  0  0  0
  152.1497  142.1595  159.1822 C   0  0  0  0  0  0  0  0  0  0  0  0
  151.6564  143.1904  158.3652 C   0  0  0  0  0  0  0  0  0  0  0  0
  150.8433  142.9160  157.2737 C   0  0  0  0  0  0  0  0  0  0  0  0
  150.4869  141.5975  156.9423 C   0  0  0  0  0  0  0  0  0  0  0  0
  150.4327  144.1744  156.5588 C   0  0  0  0  0  0  0  0  0  0  0  0
  151.2730  145.2799  157.2430 C   0  0  0  0  0  0  0  0  0  0  0  0
  151.8953  144.6673  158.5212 C   0  0  0  0  0  0  0  0  0  0  0  0
  149.6789  136.9699  155.1065 H   0  0  0  0  0  0  0  0  0  0  0  0
  150.8275  136.6232  156.3368 H   0  0  0  0  0  0  0  0  0  0  0  0
  146.0213  135.9878  159.5051 H   0  0  0  0  0  0  0  0  0  0  0  0
  149.4037  136.4443  160.9556 H   0  0  0  0  0  0  0  0  0  0  0  0
  147.5384  134.2171  160.5107 H   0  0  0  0  0  0  0  0  0  0  0  0
  148.8294  134.3610  161.7123 H   0  0  0  0  0  0  0  0  0  0  0  0
  145.9179  135.0872  161.9987 H   0  0  0  0  0  0  0  0  0  0  0  0
  147.0040  134.4722  163.2451 H   0  0  0  0  0  0  0  0  0  0  0  0
  146.4141  137.1089  163.2342 H   0  0  0  0  0  0  0  0  0  0  0  0
  148.1102  136.6443  163.4385 H   0  0  0  0  0  0  0  0  0  0  0  0
  150.3708  138.6105  158.1552 H   0  0  0  0  0  0  0  0  0  0  0  0
  152.1664  140.0418  159.5088 H   0  0  0  0  0  0  0  0  0  0  0  0
  152.7730  142.3791  160.0366 H   0  0  0  0  0  0  0  0  0  0  0  0
  149.8506  141.4019  156.0913 H   0  0  0  0  0  0  0  0  0  0  0  0
  150.6309  144.1088  155.4884 H   0  0  0  0  0  0  0  0  0  0  0  0
  149.3652  144.3405  156.7070 H   0  0  0  0  0  0  0  0  0  0  0  0
  152.0833  145.5609  156.5690 H   0  0  0  0  0  0  0  0  0  0  0  0
  150.6983  146.1847  157.4434 H   0  0  0  0  0  0  0  0  0  0  0  0
  151.3869  145.0230  159.4179 H   0  0  0  0  0  0  0  0  0  0  0  0
  152.9588  144.8916  158.6100 H   0  0  0  0  0  0  0  0  0  0  0  0
  1  2  2  0  0  0  0
  2  3  1  0  0  0  0
  2 18  1  0  0  0  0
  3  4  1  0  0  0  0
  3 28  1  0  0  0  0
  3 29  1  0  0  0  0
  4 16  1  0  0  0  0
  4  5  1  0  0  0  0
  5  6  2  0  0  0  0
  5  7  1  0  0  0  0
  7  8  1  0  0  0  0
  7  9  2  0  0  0  0
  9 10  1  0  0  0  0
  9 30  1  0  0  0  0
 10 11  1  0  0  0  0
 10 16  1  0  0  0  0
 11 15  1  0  0  0  0
 11 12  1  0  0  0  0
 11 31  1  0  0  0  0
 12 13  1  0  0  0  0
 12 32  1  0  0  0  0
 12 33  1  0  0  0  0
 13 14  1  0  0  0  0
 13 34  1  0  0  0  0
 13 35  1  0  0  0  0
 14 15  1  0  0  0  0
 14 36  1  0  0  0  0
 14 37  1  0  0  0  0
 16 17  2  0  0  0  0
 18 19  1  0  0  0  0
 18 38  1  0  0  0  0
 19 24  1  0  0  0  0
 19 20  2  0  0  0  0
 20 21  1  0  0  0  0
 20 39  1  0  0  0  0
 21 22  2  0  0  0  0
 21 40  1  0  0  0  0
 22 27  1  0  0  0  0
 22 23  1  0  0  0  0
 23 24  2  0  0  0  0
 23 25  1  0  0  0  0
 24 41  1  0  0  0  0
 25 26  1  0  0  0  0
 25 42  1  0  0  0  0
 25 43  1  0  0  0  0
 26 27  1  0  0  0  0
 26 44  1  0  0  0  0
 26 45  1  0  0  0  0
 27 46  1  0  0  0  0
 27 47  1  0  0  0  0
M  END
> <s_m_source_file>
AV-unprocessed.smi

> <i_m_source_file_index>
133

> <i_lp_mmshare_version>
43012

> <i_f3d_flags>
0

> <s_epik_input>
W0NIMl0xW0NIMl1bQ0gyXWMoYzEyKVtjSF1jKFtjSF1bY0hdMilbTkhdQyg9TylbQ0gyXW4zYyg9TyljKEYpW2NIXW4oYzM9TylbQ0BASF00W0NIMl1bQ0gyXVtDSDJdTzQ=

> <s_epik_cmdline>
J2VwaWtfcHl0aG9uJywgJy1waCcsICc3LjAnLCAnLXRuJywgJzgnLCAnLW1hJywgJzIwMCcsICctbWV0YWxfYmluZGluZycsICctaW1hZScsICc8aW5maWxlLm1hZT4nLCAnLW9tYWUnLCAnPG91dGZpbGUubWFlPic=

> <r_lp_tautomer_probability>
1

> <r_epik_Ionization_Penalty>
4.05675e-06

> <r_epik_Ionization_Penalty_Charging>
3.88729e-08

> <r_epik_Ionization_Penalty_Neutral>
4.01788e-06

> <r_epik_State_Penalty>
-0

> <r_epik_Charging_Adjusted_Penalty>
3.88729e-08

> <i_epik_Tot_Q>
0

> <i_epik_Tot_abs_Q>
0

> <r_epik_Metal_State_Penalty>
-0

> <b_epik_Metal_Only>
0

> <s_epik_Chemistry_Notes>
This compound contains an acetal/aminal-like group ( X-CH(R)-Y where X, Y are N, S, or O) that may be acid/base labile, releasing an aldehyde.

> <s_lp_Force_Field>
OPLS_2005

> <r_lp_Energy>
40.9248

> <b_lp_Chiralities_Consistent>
1

> <s_lp_Variant>
AV-unprocessed.smi:133-1

> <Gold.Version>
5.8.1

> <Gold.Id.Protein>
6NUR|6NUR_protein|mol2

> <Gold.PLP.Fitness>
50.2619

> <Gold.PLP.PLP>
-45.4005

> <Gold.PLP.part.hbond>
-2.2534

> <Gold.PLP.part.metal>
0.0000

> <Gold.PLP.part.buried>
-6.5022

> <Gold.PLP.part.nonpolar>
-37.5532

> <Gold.PLP.part.repulsive>
0.0816

> <Gold.PLP.ligand.clash>
0.0000

> <Gold.PLP.ligand.torsion>
0.5832

> <Gold.PLP.Chemscore.Hbond>
2.0000

> <Gold.PLP.Chemscore.CHOScore>
0.0000

> <Gold.PLP.Chemscore.Metal>
0.0000

> <Gold.Chemscore.Hbonds>
donor molecule, donor type, donor heavy atom, donor atom, acceptor molecule, acceptor atom, score
      P1  H  6896  6909       L1    17  0.38
      P1  H  6931  6943       L1    15  0.73
      P1  H  6934  6947       L1    15  0.82

> <Gold.PLP.Chemscore.Internal.Correction>
0.0278

> <Gold.Rescore>
     Score         DG    S(hbond)    S(metal)    S(lipo)     H(rot)  DE(clash)    DE(int)     intcor
     19.87     -22.77       2.16        0.00     120.87       1.59       0.25       2.65       ----

> <Gold.Chemscore.Fitness>
19.8710

> <Gold.Chemscore.DG>
-22.7685

> <Gold.Chemscore.ZeroCoef>
-5.4800

> <Gold.Chemscore.Hbond>
2.1584

> <Gold.Chemscore.Metal>
0.0000

> <Gold.Chemscore.Lipo>
120.8696

> <Gold.Chemscore.Internal_Hbond>
0.0000

> <Gold.Chemscore.DEClash>
0.2496

> <Gold.Chemscore.DEInternal>
2.6480

> <Gold.Chemscore.Rot>
1.5869

> <Gold.Chemscore.Internal.Correction>
   9.000000E+99

> <Gold.Chemscore.Hbonds>
donor molecule, donor type, donor heavy atom, donor atom, acceptor molecule, acceptor atom, score
      P1  H  6896  6909       L1    17  0.16
      P1  H  6931  6943       L1    15  0.04
      P1  H  6934  6947       L1    15  0.80
      P1  H  7989  7998       L1     1  0.02

> <Gold.Chemscore.Hbond.Weighted>
-7.2092

> <Gold.Chemscore.Metal.Weighted>
-0.0000

> <Gold.Chemscore.Lipo.Weighted>
-14.1417

> <Gold.Chemscore.Internal_Hbond.Weighted>
0.0000

> <Gold.Chemscore.DEClash.Weighted>
0.2496

> <Gold.Chemscore.DEInternal.Weighted>
2.6480

> <Gold.Chemscore.Rot.Weighted>
4.0624

> <Gold.Chemscore.Internal.Correction.Weighted>
   9.000000E+99

> <Gold.Protein.RotatedTorsions>
[ 6907 6896 6895 6894 ] final   66.37 input  -60.11 | X-H torsion
[ 7974 7965 7964 7962 ] final  134.90 input  175.53 | X-H torsion
[ 8008 7997 7996 7995 ] final -147.03 input   59.86 | X-H torsion
[ 10167 10162 10161 10158 ] final  -85.53 input  -65.29 | X-H torsion
[ 10718 10713 10712 10709 ] final -107.74 input   66.30 | X-H torsion
[ 10763 10752 10751 10750 ] final   53.33 input  -60.55 | X-H torsion
[ 11005 11000 10999 10996 ] final  168.89 input  -57.11 | X-H torsion

> <Gold.Protein.ActiveResidues>
 VAL166  LYS551  ARG553  GLY616  TRP617  ASP618  TYR619  PRO620  LYS621  CYS622 
 ASP623  PHE694  ASN695  SER759  ASP760  ASP761  ALA762  ILE779  LEU786  VAL792 
 PHE793  MET794  SER795  GLU796  ALA797  LYS798  CYS799  TRP800  GLU811  SER814 

> <Gold.Protein.RotatedAtoms>
  152.4476  134.5462  159.9853 H   0  0  0  0  0  0  0  0  0  0  0  0  # atno 6907 bound_to 6896
  151.5543  133.3407  159.2967 H   0  0  0  0  0  0  0  0  0  0  0  0  # atno 6908 bound_to 6896
  150.8396  134.7715  159.6984 H   0  0  0  0  0  0  0  0  0  0  0  0  # atno 6909 bound_to 6896
  144.9717  139.4598  143.5430 H   0  0  0  0  0  0  0  0  0  0  0  0  # atno 7974 bound_to 7965
  155.5689  140.0632  157.2811 H   0  0  0  0  0  0  0  0  0  0  0  0  # atno 8008 bound_to 7997
  154.4367  140.1872  156.0905 H   0  0  0  0  0  0  0  0  0  0  0  0  # atno 8009 bound_to 7997
  156.0391  140.3297  155.7227 H   0  0  0  0  0  0  0  0  0  0  0  0  # atno 8010 bound_to 7997
  140.4028  143.2655  151.9120 H   0  0  0  0  0  0  0  0  0  0  0  0  # atno 10167 bound_to 10162
  156.0451  130.5677  150.7863 H   0  0  0  0  0  0  0  0  0  0  0  0  # atno 10718 bound_to 10713
  152.9794  135.5782  154.4723 H   0  0  0  0  0  0  0  0  0  0  0  0  # atno 10763 bound_to 10752
  154.4284  135.2773  155.1931 H   0  0  0  0  0  0  0  0  0  0  0  0  # atno 10764 bound_to 10752
  154.3650  135.6180  153.5764 H   0  0  0  0  0  0  0  0  0  0  0  0  # atno 10765 bound_to 10752
  140.2920  134.7665  157.3846 H   0  0  0  0  0  0  0  0  0  0  0  0  # atno 11005 bound_to 11000
  146.3384  139.8933  142.8805 LP  0  0  0  0  0  0  0  0  0  0  0  0  # atno 17320 bound_to 7965
  145.2549  141.0057  143.3859 LP  0  0  0  0  0  0  0  0  0  0  0  0  # atno 17321 bound_to 7965
  139.4784  144.5616  151.8230 LP  0  0  0  0  0  0  0  0  0  0  0  0  # atno 17342 bound_to 10162
  140.4721  144.1571  150.5919 LP  0  0  0  0  0  0  0  0  0  0  0  0  # atno 17343 bound_to 10162
  157.5317  131.0937  150.9946 LP  0  0  0  0  0  0  0  0  0  0  0  0  # atno 17370 bound_to 10713
  157.0251  130.5689  149.5336 LP  0  0  0  0  0  0  0  0  0  0  0  0  # atno 17371 bound_to 10713
  140.1187  134.5249  155.8203 LP  0  0  0  0  0  0  0  0  0  0  0  0  # atno 17394 bound_to 11000
  141.2144  133.6749  156.6825 LP  0  0  0  0  0  0  0  0  0  0  0  0  # atno 17395 bound_to 11000

$$$$
