#       Name:                AV-unprocessed.smi:2143
#       Creating user name   scv26
#       Creation time:       Fri Mar 27 11:49:41 2020


#       File generated by GOLD software.
#

@<TRIPOS>MOLECULE
AV-unprocessed.smi:2143
    50    51     1
SMALL
NO_CHARGES


@<TRIPOS>ATOM
      1 ****        -4.7826  -1.4018   0.0334 C.3            1 S1                 0.0000
      2 ****        -3.8035  -0.2697  -0.3200 C.3            1 S1                 0.0000
      3 ****        -4.2838   0.5423  -1.5401 C.3            1 S1                 0.0000
      4 ****        -3.3544   1.7323  -1.8262 C.3            1 S1                 0.0000
      5 ****        -1.8939   1.2837  -1.9864 C.3            1 S1                 0.0000
      6 ****        -1.4203   0.4781  -0.7612 C.3            1 S1                 0.0000
      7 ****        -0.0186   0.0999  -0.9279 N.am           1 S1                 0.0000
      8 ****         0.8335  -0.1828   0.0689 C.2            1 S1                 0.0000
      9 ****         0.5122  -0.1646   1.2580 O.2            1 S1                 0.0000
     10 ****         2.2577  -0.5661  -0.3556 C.3            1 S1                 0.0000
     11 ****         3.2463  -0.3958   0.7171 N.am           1 S1                 0.0000
     12 ****         3.6345  -1.4886   1.4707 C.2            1 S1                 0.0000
     13 ****         4.5219  -1.4155   2.4865 C.2            1 S1                 0.0000
     14 ****         5.1381  -0.1460   2.8524 C.2            1 S1                 0.0000
     15 ****         5.9343  -0.0307   3.7848 O.2            1 S1                 0.0000
     16 ****         4.7361   0.9527   2.0554 N.am           1 S1                 0.0000
     17 ****         5.2806   2.2601   2.3596 C.3            1 S1                 0.0000
     18 ****         3.7940   0.8726   1.0053 C.2            1 S1                 0.0000
     19 ****         3.4477   1.8664   0.3617 O.2            1 S1                 0.0000
     20 ****        -2.3368  -0.7477  -0.4920 C.3            1 S1                 0.0000
     21 ****        -2.1717  -1.8732  -1.5398 C.3            1 S1                 0.0000
     22 ****        -4.9283  -2.0879  -0.8008 H              1 S1                 0.0000
     23 ****        -5.7614  -0.9996   0.2961 H              1 S1                 0.0000
     24 ****        -4.4259  -1.9794   0.8866 H              1 S1                 0.0000
     25 ****        -3.8112   0.4090   0.5343 H              1 S1                 0.0000
     26 ****        -4.3424  -0.0988  -2.4201 H              1 S1                 0.0000
     27 ****        -5.2955   0.9101  -1.3652 H              1 S1                 0.0000
     28 ****        -3.6841   2.2541  -2.7250 H              1 S1                 0.0000
     29 ****        -3.4247   2.4518  -1.0093 H              1 S1                 0.0000
     30 ****        -1.7901   0.6892  -2.8948 H              1 S1                 0.0000
     31 ****        -1.2600   2.1608  -2.1224 H              1 S1                 0.0000
     32 ****        -1.4829   1.1447   0.1015 H              1 S1                 0.0000
     33 ****         0.3292   0.0521  -1.8746 H              1 S1                 0.0000
     34 ****         2.2448  -1.6054  -0.6869 H              1 S1                 0.0000
     35 ****         2.5509   0.0176  -1.2302 H              1 S1                 0.0000
     36 ****         3.2017  -2.4518   1.2417 H              1 S1                 0.0000
     37 ****         4.7765  -2.3083   3.0388 H              1 S1                 0.0000
     38 ****         5.4624   2.7916   1.4241 H              1 S1                 0.0000
     39 ****         6.2324   2.1617   2.8822 H              1 S1                 0.0000
     40 ****         4.5417   2.7746   2.9757 H              1 S1                 0.0000
     41 ****        -2.0300  -1.1750   0.4637 H              1 S1                 0.0000
     42 ****        -2.4803  -1.5560  -2.5352 H              1 S1                 0.0000
     43 ****        -2.7593  -2.7522  -1.2773 H              1 S1                 0.0000
     44 ****        -1.1369  -2.2079  -1.6090 H              1 S1                 0.0000
     45 ****        -0.4242   0.0694   1.5194 LP             1 S1                 0.0000
     46 ****         1.1879  -0.3839   1.9619 LP             1 S1                 0.0000
     47 ****         6.1849  -0.8306   4.3302 LP             1 S1                 0.0000
     48 ****         6.3304   0.8628   3.9966 LP             1 S1                 0.0000
     49 ****         2.7735   1.7773  -0.3714 LP             1 S1                 0.0000
     50 ****         3.8413   2.7611   0.5731 LP             1 S1                 0.0000
@<TRIPOS>BOND
    1    1    2 1     
    2    1   22 1     
    3    1   23 1     
    4    1   24 1     
    5    2   20 1     
    6    2    3 1     
    7    2   25 1     
    8    3    4 1     
    9    3   26 1     
   10    3   27 1     
   11    4    5 1     
   12    4   28 1     
   13    4   29 1     
   14    5    6 1     
   15    5   30 1     
   16    5   31 1     
   17    6    7 1     
   18    6   20 1     
   19    6   32 1     
   20    7    8 am    
   21    7   33 1     
   22    8    9 2     
   23    8   10 1     
   24   10   11 1     
   25   10   34 1     
   26   10   35 1     
   27   11   18 am    
   28   11   12 1     
   29   12   13 2     
   30   12   36 1     
   31   13   14 1     
   32   13   37 1     
   33   14   15 2     
   34   14   16 am    
   35   16   17 1     
   36   16   18 am    
   37   17   38 1     
   38   17   39 1     
   39   17   40 1     
   40   18   19 2     
   41   20   21 1     
   42   20   41 1     
   43   21   42 1     
   44   21   43 1     
   45   21   44 1     
   46    9   45 1     
   47    9   46 1     
   48   15   47 1     
   49   15   48 1     
   50   19   49 1     
   51   19   50 1     
@<TRIPOS>SUBSTRUCTURE
      1 S1             1
@<TRIPOS>SET
LONE_PAIRS      STATIC     ATOMS    <user>   **** ""
6 45 46 47 48 49 50
DONOR_HYDROGENS      STATIC     ATOMS    <user>   **** ""
1 33
ATOM$BLUE        STATIC     ATOMS    COLORGROUP SYSTEM
6 45 46 47 48 49 50
ATOM$RED        STATIC     ATOMS    COLORGROUP SYSTEM
1 33
