AV-unprocessed.smi:533|AV-procd|sdf|2855|dock10
  -GOLD-   2262023343D 1   1.00000     0.00000
 Structure written by MMmdl.
 35 36  0  0  0  0  0  0  0  0  2 V2000
  152.2785  144.8357  158.1018 C   0  0  0  0  0  0  0  0  0  0  0  0
  152.7392  143.7288  159.0542 C   0  0  0  0  0  0  0  0  0  0  0  0
  152.2649  142.4266  158.6285 N   0  0  0  0  0  0  0  0  0  0  0  0
  152.5269  141.1463  159.1004 C   0  0  0  0  0  0  0  0  0  0  0  0
  153.3398  140.8707  160.1213 N   0  0  0  0  0  0  0  0  0  0  0  0
  153.2744  139.4861  160.1907 C   0  0  0  0  0  0  0  0  0  0  0  0
  152.4489  138.9777  159.2362 C   0  0  0  0  0  0  0  0  0  0  0  0
  152.1925  137.5320  159.0571 C   0  0  0  0  0  0  0  0  0  0  0  0
  151.4456  137.1224  158.1709 O   0  0  0  0  0  0  0  0  0  0  0  0
  152.8739  136.7708  159.9713 N   0  5  0  0  0  0  0  0  0  0  0  0
  153.7152  137.2431  160.9563 C   0  0  0  0  0  0  0  0  0  0  0  0
  154.2863  136.4795  161.7350 O   0  0  0  0  0  0  0  0  0  0  0  0
  153.9279  138.5927  161.0805 N   0  0  0  0  0  0  0  0  0  0  0  0
  154.8069  139.1738  162.1001 C   0  0  0  0  0  0  0  0  0  0  0  0
  151.9466  140.0676  158.5185 N   0  0  0  0  0  0  0  0  0  0  0  0
  151.0173  140.0719  157.3912 C   0  0  0  0  0  0  0  0  0  0  0  0
  151.5949  140.7939  156.1648 C   0  0  0  0  0  0  0  0  0  0  0  0
  151.2904  140.0687  154.9848 O   0  0  0  0  0  0  0  0  0  0  0  0
  151.9820  138.8358  154.9069 C   0  0  0  0  0  0  0  0  0  0  0  0
  152.6413  145.8080  158.4358 H   0  0  0  0  0  0  0  0  0  0  0  0
  151.1905  144.8865  158.0532 H   0  0  0  0  0  0  0  0  0  0  0  0
  152.6545  144.6698  157.0917 H   0  0  0  0  0  0  0  0  0  0  0  0
  153.8281  143.7069  159.1068 H   0  0  0  0  0  0  0  0  0  0  0  0
  152.3732  143.9249  160.0625 H   0  0  0  0  0  0  0  0  0  0  0  0
  151.6343  142.4608  157.8409 H   0  0  0  0  0  0  0  0  0  0  0  0
  155.2685  138.4448  162.7666 H   0  0  0  0  0  0  0  0  0  0  0  0
  154.2435  139.8696  162.7227 H   0  0  0  0  0  0  0  0  0  0  0  0
  155.6123  139.7306  161.6207 H   0  0  0  0  0  0  0  0  0  0  0  0
  150.7393  139.0500  157.1401 H   0  0  0  0  0  0  0  0  0  0  0  0
  150.0885  140.5524  157.6995 H   0  0  0  0  0  0  0  0  0  0  0  0
  151.1797  141.8007  156.1017 H   0  0  0  0  0  0  0  0  0  0  0  0
  152.6765  140.8946  156.2683 H   0  0  0  0  0  0  0  0  0  0  0  0
  151.7141  138.3250  153.9820 H   0  0  0  0  0  0  0  0  0  0  0  0
  151.7194  138.1831  155.7403 H   0  0  0  0  0  0  0  0  0  0  0  0
  153.0620  138.9885  154.9068 H   0  0  0  0  0  0  0  0  0  0  0  0
  1  2  1  0  0  0  0
  1 20  1  0  0  0  0
  1 21  1  0  0  0  0
  1 22  1  0  0  0  0
  2  3  1  0  0  0  0
  2 23  1  0  0  0  0
  2 24  1  0  0  0  0
  3  4  1  0  0  0  0
  3 25  1  0  0  0  0
  4 15  1  0  0  0  0
  4  5  2  0  0  0  0
  5  6  1  0  0  0  0
  6 13  1  0  0  0  0
  6  7  2  0  0  0  0
  7  8  1  0  0  0  0
  7 15  1  0  0  0  0
  8  9  2  0  0  0  0
  8 10  1  0  0  0  0
 10 11  1  0  0  0  0
 11 12  2  0  0  0  0
 11 13  1  0  0  0  0
 13 14  1  0  0  0  0
 14 26  1  0  0  0  0
 14 27  1  0  0  0  0
 14 28  1  0  0  0  0
 15 16  1  0  0  0  0
 16 17  1  0  0  0  0
 16 29  1  0  0  0  0
 16 30  1  0  0  0  0
 17 18  1  0  0  0  0
 17 31  1  0  0  0  0
 17 32  1  0  0  0  0
 18 19  1  0  0  0  0
 19 33  1  0  0  0  0
 19 34  1  0  0  0  0
 19 35  1  0  0  0  0
M  CHG  1  10  -1
M  END
> <s_m_source_file>
AV-unprocessed.smi

> <i_m_source_file_index>
533

> <i_lp_mmshare_version>
43012

> <i_f3d_flags>
0

> <s_epik_input>
W0NIM11bQ0gyXVtOSF1jKG4xKW4oW0NIMl1bQ0gyXU9bQ0gzXSljKGMxMiljKD1PKVtuSF1jKD1PKW4yW0NIM10=

> <s_epik_cmdline>
J2VwaWtfcHl0aG9uJywgJy1waCcsICc3LjAnLCAnLXRuJywgJzgnLCAnLW1hJywgJzIwMCcsICctbWV0YWxfYmluZGluZycsICctaW1hZScsICc8aW5maWxlLm1hZT4nLCAnLW9tYWUnLCAnPG91dGZpbGUubWFlPic=

> <r_lp_tautomer_probability>
1

> <r_epik_Ionization_Penalty>
5.85583

> <r_epik_Ionization_Penalty_Charging>
1.37787e-08

> <r_epik_Ionization_Penalty_Neutral>
5.85583

> <r_epik_State_Penalty>
5.8557

> <r_epik_Charging_Adjusted_Penalty>
5.8557

> <i_epik_Tot_Q>
-1

> <i_epik_Tot_abs_Q>
1

> <r_epik_Metal_State_Penalty>
1.82051

> <b_epik_Metal_Only>
1

> <s_lp_Force_Field>
OPLS_2005

> <r_lp_Energy>
24.2596

> <b_lp_Chiralities_Consistent>
1

> <s_lp_Variant>
AV-unprocessed.smi:533-2

> <Gold.Version>
5.8.1

> <Gold.Id.Protein>
6NUR|6NUR_protein|mol2

> <Gold.PLP.Fitness>
43.0099

> <Gold.PLP.PLP>
-34.7230

> <Gold.PLP.part.hbond>
-2.0000

> <Gold.PLP.part.metal>
0.0000

> <Gold.PLP.part.buried>
-6.4179

> <Gold.PLP.part.nonpolar>
-25.7493

> <Gold.PLP.part.repulsive>
0.1152

> <Gold.PLP.ligand.clash>
0.0000

> <Gold.PLP.ligand.torsion>
0.3571

> <Gold.PLP.Chemscore.Hbond>
3.0000

> <Gold.PLP.Chemscore.CHOScore>
0.0000

> <Gold.PLP.Chemscore.Metal>
0.0000

> <Gold.Chemscore.Hbonds>
donor molecule, donor type, donor heavy atom, donor atom, acceptor molecule, acceptor atom, score
      P1  H  6896  6908       L1    10  2.00
      P1  H  7989  7998       L1    18  1.00

> <Gold.PLP.Chemscore.Internal.Correction>
0.0010

> <Gold.Rescore>
     Score         DG    S(hbond)    S(metal)    S(lipo)     H(rot)  DE(clash)    DE(int)     intcor
     12.66     -13.65       1.78        0.00      59.17       1.83       0.15       0.85       ----

> <Gold.Chemscore.Fitness>
12.6555

> <Gold.Chemscore.DG>
-13.6549

> <Gold.Chemscore.ZeroCoef>
-5.4800

> <Gold.Chemscore.Hbond>
1.7806

> <Gold.Chemscore.Metal>
0.0000

> <Gold.Chemscore.Lipo>
59.1737

> <Gold.Chemscore.Internal_Hbond>
0.0000

> <Gold.Chemscore.DEClash>
0.1483

> <Gold.Chemscore.DEInternal>
0.8511

> <Gold.Chemscore.Rot>
1.8342

> <Gold.Chemscore.Internal.Correction>
   9.000000E+99

> <Gold.Chemscore.Hbonds>
donor molecule, donor type, donor heavy atom, donor atom, acceptor molecule, acceptor atom, score
      P1  H  6896  6908       L1    10  0.73
      P1  H  7989  7998       L1    18  0.46

> <Gold.Chemscore.Hbond.Weighted>
-5.9472

> <Gold.Chemscore.Metal.Weighted>
-0.0000

> <Gold.Chemscore.Lipo.Weighted>
-6.9233

> <Gold.Chemscore.Internal_Hbond.Weighted>
0.0000

> <Gold.Chemscore.DEClash.Weighted>
0.1483

> <Gold.Chemscore.DEInternal.Weighted>
0.8511

> <Gold.Chemscore.Rot.Weighted>
4.6957

> <Gold.Chemscore.Internal.Correction.Weighted>
   9.000000E+99

> <Gold.Protein.RotatedTorsions>
[ 6907 6896 6895 6894 ] final  -87.20 input  -60.11 | X-H torsion
[ 7974 7965 7964 7962 ] final   88.47 input  175.53 | X-H torsion
[ 8008 7997 7996 7995 ] final  147.01 input   59.86 | X-H torsion
[ 10167 10162 10161 10158 ] final -133.77 input  -65.29 | X-H torsion
[ 10718 10713 10712 10709 ] final    6.33 input   66.30 | X-H torsion
[ 10763 10752 10751 10750 ] final -151.73 input  -60.55 | X-H torsion
[ 11005 11000 10999 10996 ] final -109.67 input  -57.11 | X-H torsion

> <Gold.Protein.ActiveResidues>
 VAL166  LYS551  ARG553  GLY616  TRP617  ASP618  TYR619  PRO620  LYS621  CYS622 
 ASP623  PHE694  ASN695  SER759  ASP760  ASP761  ALA762  ILE779  LEU786  VAL792 
 PHE793  MET794  SER795  GLU796  ALA797  LYS798  CYS799  TRP800  GLU811  SER814 

> <Gold.Protein.RotatedAtoms>
  150.6866  134.2933  159.4675 H   0  0  0  0  0  0  0  0  0  0  0  0  # atno 6907 bound_to 6896
  152.0836  134.9452  160.0582 H   0  0  0  0  0  0  0  0  0  0  0  0  # atno 6908 bound_to 6896
  152.0796  133.4111  159.4532 H   0  0  0  0  0  0  0  0  0  0  0  0  # atno 6909 bound_to 6896
  145.5452  139.2291  143.2543 H   0  0  0  0  0  0  0  0  0  0  0  0  # atno 7974 bound_to 7965
  156.2838  140.2167  156.5468 H   0  0  0  0  0  0  0  0  0  0  0  0  # atno 8008 bound_to 7997
  154.7324  140.0494  157.0760 H   0  0  0  0  0  0  0  0  0  0  0  0  # atno 8009 bound_to 7997
  155.0337  140.3138  155.4752 H   0  0  0  0  0  0  0  0  0  0  0  0  # atno 8010 bound_to 7997
  139.8948  143.6678  152.2606 H   0  0  0  0  0  0  0  0  0  0  0  0  # atno 10167 bound_to 10162
  156.9206  130.5789  149.5648 H   0  0  0  0  0  0  0  0  0  0  0  0  # atno 10718 bound_to 10713
  154.8039  135.3253  154.7480 H   0  0  0  0  0  0  0  0  0  0  0  0  # atno 10763 bound_to 10752
  153.8142  135.6893  153.4841 H   0  0  0  0  0  0  0  0  0  0  0  0  # atno 10764 bound_to 10752
  153.1773  135.4600  154.9926 H   0  0  0  0  0  0  0  0  0  0  0  0  # atno 10765 bound_to 10752
  141.0834  133.9180  157.2238 H   0  0  0  0  0  0  0  0  0  0  0  0  # atno 11005 bound_to 11000
  146.1954  140.6273  142.9126 LP  0  0  0  0  0  0  0  0  0  0  0  0  # atno 17320 bound_to 7965
  144.7557  140.5300  143.6771 LP  0  0  0  0  0  0  0  0  0  0  0  0  # atno 17321 bound_to 7965
  139.7077  144.7625  151.1165 LP  0  0  0  0  0  0  0  0  0  0  0  0  # atno 17342 bound_to 10162
  140.7719  143.5372  150.9354 LP  0  0  0  0  0  0  0  0  0  0  0  0  # atno 17343 bound_to 10162
  156.0492  130.5564  150.8952 LP  0  0  0  0  0  0  0  0  0  0  0  0  # atno 17370 bound_to 10713
  157.5910  131.0944  150.9119 LP  0  0  0  0  0  0  0  0  0  0  0  0  # atno 17371 bound_to 10713
  139.9650  135.0144  156.9363 LP  0  0  0  0  0  0  0  0  0  0  0  0  # atno 17394 bound_to 11000
  140.5417  134.0714  155.7343 LP  0  0  0  0  0  0  0  0  0  0  0  0  # atno 17395 bound_to 11000

$$$$
