#       Name:                AV-unprocessed.smi:861
#       Creating user name   scv26
#       Creation time:       Fri Mar 27 01:43:57 2020


#       File generated by GOLD software.
#

@<TRIPOS>MOLECULE
AV-unprocessed.smi:861
    48    49     1
SMALL
NO_CHARGES


@<TRIPOS>ATOM
      1 ****        -0.8512   4.6118   0.2503 C.3            1 S1                 0.0000
      2 ****        -1.0918   3.7320  -0.9881 C.3            1 S1                 0.0000
      3 ****        -2.5799   3.7416  -1.3702 C.3            1 S1                 0.0000
      4 ****        -0.5895   2.2871  -0.7916 C.3            1 S1                 0.0000
      5 ****         0.9386   2.1735  -0.6267 C.3            1 S1                 0.0000
      6 ****         1.4129   0.7670  -0.6606 N.4            1 S1                 1.0000
      7 ****         2.8664   0.6708  -0.9331 C.3            1 S1                 0.0000
      8 ****         3.3041  -0.8006  -1.0110 C.3            1 S1                 0.0000
      9 ****         2.9528  -1.4642   0.1962 O.3            1 S1                 0.0000
     10 ****         1.5478  -1.4696   0.4217 C.3            1 S1                 0.0000
     11 ****         1.2881  -2.3035   1.6898 C.3            1 S1                 0.0000
     12 ****        -0.1311  -2.5031   1.9628 N.pl3          1 S1                 0.0000
     13 ****        -0.8876  -3.4616   1.2725 C.ar           1 S1                 0.0000
     14 ****        -2.2420  -3.6389   1.6197 C.ar           1 S1                 0.0000
     15 ****        -2.9775  -4.6038   0.9095 C.ar           1 S1                 0.0000
     16 ****        -2.3021  -5.3185  -0.0966 C.ar           1 S1                 0.0000
     17 ****        -0.9992  -5.1066  -0.3897 N.ar           1 S1                 0.0000
     18 ****        -0.3008  -4.1896   0.2891 N.ar           1 S1                 0.0000
     19 ****         1.0637  -0.0104   0.5544 C.3            1 S1                 0.0000
     20 ****        -1.3406   4.1983   1.1326 H              1 S1                 0.0000
     21 ****        -1.2426   5.6179   0.0966 H              1 S1                 0.0000
     22 ****         0.2108   4.7137   0.4725 H              1 S1                 0.0000
     23 ****        -0.5430   4.1717  -1.8220 H              1 S1                 0.0000
     24 ****        -3.1960   3.3175  -0.5766 H              1 S1                 0.0000
     25 ****        -2.7588   3.1621  -2.2761 H              1 S1                 0.0000
     26 ****        -2.9319   4.7567  -1.5571 H              1 S1                 0.0000
     27 ****        -1.0995   1.8488   0.0663 H              1 S1                 0.0000
     28 ****        -0.8867   1.6930  -1.6570 H              1 S1                 0.0000
     29 ****         1.4109   2.7203  -1.4441 H              1 S1                 0.0000
     30 ****         1.2721   2.6470   0.2974 H              1 S1                 0.0000
     31 ****         3.1039   1.1732  -1.8716 H              1 S1                 0.0000
     32 ****         3.4205   1.1833  -0.1450 H              1 S1                 0.0000
     33 ****         2.8454  -1.3011  -1.8654 H              1 S1                 0.0000
     34 ****         4.3837  -0.8647  -1.1471 H              1 S1                 0.0000
     35 ****         1.0600  -1.9433  -0.4319 H              1 S1                 0.0000
     36 ****         1.7798  -3.2737   1.6075 H              1 S1                 0.0000
     37 ****         1.7372  -1.8112   2.5528 H              1 S1                 0.0000
     38 ****        -0.5556  -1.9859   2.7195 H              1 S1                 0.0000
     39 ****        -2.7048  -3.0572   2.4034 H              1 S1                 0.0000
     40 ****        -4.0190  -4.7897   1.1263 H              1 S1                 0.0000
     41 ****        -2.8135  -6.0717  -0.6773 H              1 S1                 0.0000
     42 ****         1.5141   0.4587   1.4308 H              1 S1                 0.0000
     43 ****        -0.0150  -0.0017   0.7054 H              1 S1                 0.0000
     44 ****         0.9479   0.3227  -1.4397 H              1 S1                 0.0000
     45 ****         3.3991  -0.9987   0.9605 LP             1 S1                 0.0000
     46 ****         3.2742  -2.4099   0.1484 LP             1 S1                 0.0000
     47 ****        -0.5575  -5.6356  -1.1142 LP             1 S1                 0.0000
     48 ****         0.6631  -4.0391   0.0698 LP             1 S1                 0.0000
@<TRIPOS>BOND
    1    1    2 1     
    2    1   20 1     
    3    1   21 1     
    4    1   22 1     
    5    2    3 1     
    6    2    4 1     
    7    2   23 1     
    8    3   24 1     
    9    3   25 1     
   10    3   26 1     
   11    4    5 1     
   12    4   27 1     
   13    4   28 1     
   14    5    6 1     
   15    5   29 1     
   16    5   30 1     
   17    6   19 1     
   18    6    7 1     
   19    6   44 1     
   20    7    8 1     
   21    7   31 1     
   22    7   32 1     
   23    8    9 1     
   24    8   33 1     
   25    8   34 1     
   26    9   10 1     
   27   10   11 1     
   28   10   19 1     
   29   10   35 1     
   30   11   12 1     
   31   11   36 1     
   32   11   37 1     
   33   12   13 1     
   34   12   38 1     
   35   13   18 ar    
   36   13   14 ar    
   37   14   15 ar    
   38   14   39 1     
   39   15   16 ar    
   40   15   40 1     
   41   16   17 ar    
   42   16   41 1     
   43   17   18 ar    
   44   19   42 1     
   45   19   43 1     
   46    9   45 1     
   47    9   46 1     
   48   17   47 1     
   49   18   48 1     
@<TRIPOS>SUBSTRUCTURE
      1 S1             1
@<TRIPOS>SET
LONE_PAIRS      STATIC     ATOMS    <user>   **** ""
4 45 46 47 48
DONOR_HYDROGENS      STATIC     ATOMS    <user>   **** ""
2 44 38
ATOM$BLUE        STATIC     ATOMS    COLORGROUP SYSTEM
4 45 46 47 48
ATOM$RED        STATIC     ATOMS    COLORGROUP SYSTEM
2 44 38
