AV-unprocessed.smi:2061|AV-procd|sdf|8372|dock4
  -GOLD-   2272011 43D 1   1.00000     0.00000
 Structure written by MMmdl.
 46 47  0  0  0  0  0  0  0  0  2 V2000
  151.7480  141.3188  156.5949 C   0  0  0  0  0  0  0  0  0  0  0  0
  151.5730  140.0637  155.8110 C   0  0  0  0  0  0  0  0  0  0  0  0
  150.4942  139.2601  155.5698 C   0  0  0  0  0  0  0  0  0  0  0  0
  151.0357  138.2376  154.7461 C   0  0  0  0  0  0  0  0  0  0  0  0
  150.2198  137.1829  154.2631 N   0  0  0  0  0  0  0  0  0  0  0  0
  149.4730  136.3314  154.9860 C   0  0  0  0  0  0  0  0  0  0  0  0
  149.3606  136.3493  156.2124 O   0  0  0  0  0  0  0  0  0  0  0  0
  148.8541  135.4349  154.2041 N   0  0  0  0  0  0  0  0  0  0  0  0
  147.9846  134.3696  154.6951 C   0  0  0  0  0  0  0  0  0  0  0  0
  147.5137  133.4060  153.5725 C   0  0  2  0  0  0  0  0  0  0  0  0
  148.6303  132.3805  153.2606 C   0  0  0  0  0  0  0  0  0  0  0  0
  147.0679  134.1853  152.3688 N   0  3  1  0  0  0  0  0  0  0  0  0
  146.7853  133.4105  151.1300 C   0  0  0  0  0  0  0  0  0  0  0  0
  145.4467  132.6529  151.2411 C   0  0  2  0  0  0  0  0  0  0  0  0
  145.1161  131.8769  149.9618 C   0  0  0  0  0  0  0  0  0  0  0  0
  144.4093  133.6021  151.4635 O   0  0  0  0  0  0  0  0  0  0  0  0
  144.5774  134.3362  152.6719 C   0  0  2  0  0  0  0  0  0  0  0  0
  143.3834  135.2856  152.8192 C   0  0  0  0  0  0  0  0  0  0  0  0
  145.9208  135.0999  152.6261 C   0  0  0  0  0  0  0  0  0  0  0  0
  152.3275  138.4025  154.5055 N   0  0  0  0  0  0  0  0  0  0  0  0
  152.6784  139.5737  155.1871 O   0  0  0  0  0  0  0  0  0  0  0  0
  150.8244  141.5919  157.1053 H   0  0  0  0  0  0  0  0  0  0  0  0
  152.0312  142.1448  155.9423 H   0  0  0  0  0  0  0  0  0  0  0  0
  152.5272  141.1987  157.3479 H   0  0  0  0  0  0  0  0  0  0  0  0
  149.4829  139.3867  155.9265 H   0  0  0  0  0  0  0  0  0  0  0  0
  150.2145  137.0577  153.2616 H   0  0  0  0  0  0  0  0  0  0  0  0
  148.9958  135.4889  153.2058 H   0  0  0  0  0  0  0  0  0  0  0  0
  148.5149  133.8501  155.4918 H   0  0  0  0  0  0  0  0  0  0  0  0
  147.1185  134.8345  155.1673 H   0  0  0  0  0  0  0  0  0  0  0  0
  146.6626  132.8332  153.9388 H   0  0  0  0  0  0  0  0  0  0  0  0
  148.9709  131.8676  154.1597 H   0  0  0  0  0  0  0  0  0  0  0  0
  149.4997  132.8616  152.8113 H   0  0  0  0  0  0  0  0  0  0  0  0
  148.2883  131.5940  152.5884 H   0  0  0  0  0  0  0  0  0  0  0  0
  146.7206  134.1186  150.3023 H   0  0  0  0  0  0  0  0  0  0  0  0
  147.6045  132.7464  150.8591 H   0  0  0  0  0  0  0  0  0  0  0  0
  145.4768  131.9483  152.0738 H   0  0  0  0  0  0  0  0  0  0  0  0
  145.8755  131.1228  149.7537 H   0  0  0  0  0  0  0  0  0  0  0  0
  145.0585  132.5414  149.0990 H   0  0  0  0  0  0  0  0  0  0  0  0
  144.1573  131.3658  150.0526 H   0  0  0  0  0  0  0  0  0  0  0  0
  144.5603  133.6434  153.5139 H   0  0  0  0  0  0  0  0  0  0  0  0
  143.4533  135.8638  153.7408 H   0  0  0  0  0  0  0  0  0  0  0  0
  142.4454  134.7305  152.8469 H   0  0  0  0  0  0  0  0  0  0  0  0
  143.3303  135.9873  151.9863 H   0  0  0  0  0  0  0  0  0  0  0  0
  146.0552  135.6781  153.5378 H   0  0  0  0  0  0  0  0  0  0  0  0
  145.8888  135.8320  151.8178 H   0  0  0  0  0  0  0  0  0  0  0  0
  147.8562  134.7739  152.1395 H   0  0  0  0  0  0  0  0  0  0  0  0
  1  2  1  0  0  0  0
  1 22  1  0  0  0  0
  1 23  1  0  0  0  0
  1 24  1  0  0  0  0
  2 21  1  0  0  0  0
  2  3  2  0  0  0  0
  3  4  1  0  0  0  0
  3 25  1  0  0  0  0
  4  5  1  0  0  0  0
  4 20  2  0  0  0  0
  5  6  1  0  0  0  0
  5 26  1  0  0  0  0
  6  7  2  0  0  0  0
  6  8  1  0  0  0  0
  8  9  1  0  0  0  0
  8 27  1  0  0  0  0
  9 10  1  0  0  0  0
  9 28  1  0  0  0  0
  9 29  1  0  0  0  0
 10 11  1  0  0  0  0
 10 12  1  0  0  0  0
 10 30  1  0  0  0  0
 11 31  1  0  0  0  0
 11 32  1  0  0  0  0
 11 33  1  0  0  0  0
 12 19  1  0  0  0  0
 12 13  1  0  0  0  0
 12 46  1  0  0  0  0
 13 14  1  0  0  0  0
 13 34  1  0  0  0  0
 13 35  1  0  0  0  0
 14 15  1  0  0  0  0
 14 16  1  0  0  0  0
 14 36  1  0  0  0  0
 15 37  1  0  0  0  0
 15 38  1  0  0  0  0
 15 39  1  0  0  0  0
 16 17  1  0  0  0  0
 17 18  1  0  0  0  0
 17 19  1  0  0  0  0
 17 40  1  0  0  0  0
 18 41  1  0  0  0  0
 18 42  1  0  0  0  0
 18 43  1  0  0  0  0
 19 44  1  0  0  0  0
 19 45  1  0  0  0  0
 20 21  1  0  0  0  0
M  CHG  1  12   1
M  END
> <s_m_source_file>
AV-unprocessed.smi

> <i_m_source_file_index>
2061

> <i_lp_mmshare_version>
43012

> <i_f3d_flags>
0

> <s_epik_input>
W0NIM11jMVtjSF1jKG5vMSlbTkhdQyg9TylbTkhdW0NIMl1bQ0BIXShbQ0gzXSlOMltDSDJdW0NAQEhdKFtDSDNdKU9bQ0BASF0oW0NIM10pW0NIMl0y

> <s_epik_cmdline>
J2VwaWtfcHl0aG9uJywgJy1waCcsICc3LjAnLCAnLXRuJywgJzgnLCAnLW1hJywgJzIwMCcsICctbWV0YWxfYmluZGluZycsICctaW1hZScsICc8aW5maWxlLm1hZT4nLCAnLW9tYWUnLCAnPG91dGZpbGUubWFlPic=

> <r_epik_Ionization_Penalty>
0.707076

> <r_epik_Ionization_Penalty_Charging>
0.707039

> <r_epik_Ionization_Penalty_Neutral>
3.6548e-05

> <r_epik_State_Penalty>
0.730276

> <r_epik_Charging_Adjusted_Penalty>
1.43732

> <i_epik_Tot_Q>
1

> <i_epik_Tot_abs_Q>
1

> <r_epik_Metal_State_Penalty>
0.743132

> <b_epik_Metal_Only>
0

> <s_lp_Force_Field>
OPLS_2005

> <r_lp_Energy>
17.7624

> <b_lp_Chiralities_Consistent>
1

> <s_lp_Variant>
AV-unprocessed.smi:2061-13

> <Gold.Version>
5.8.1

> <Gold.Id.Protein>
6NUR|6NUR_protein|mol2

> <Gold.PLP.Fitness>
43.9110

> <Gold.PLP.PLP>
-31.6558

> <Gold.PLP.part.hbond>
-4.6079

> <Gold.PLP.part.metal>
0.0000

> <Gold.PLP.part.buried>
-6.3153

> <Gold.PLP.part.nonpolar>
-22.0353

> <Gold.PLP.part.repulsive>
0.2845

> <Gold.PLP.ligand.clash>
0.0000

> <Gold.PLP.ligand.torsion>
0.7465

> <Gold.PLP.Chemscore.Hbond>
4.5629

> <Gold.PLP.Chemscore.CHOScore>
0.0000

> <Gold.PLP.Chemscore.Metal>
0.0000

> <Gold.Chemscore.Hbonds>
donor molecule, donor type, donor heavy atom, donor atom, acceptor molecule, acceptor atom, score
      L1  H     5    26       P1  7948  0.50
      L1  H     8    27       P1  7948  0.94
      L1  H    12    46       P1  7948  2.00
      P1  H  7997  8009       L1    21  1.00

> <Gold.PLP.Chemscore.Internal.Correction>
0.0597

> <Gold.Rescore>
     Score         DG    S(hbond)    S(metal)    S(lipo)     H(rot)  DE(clash)    DE(int)     intcor
     18.44     -19.06       3.10        0.00      62.29       1.58       0.00       0.63       ----

> <Gold.Chemscore.Fitness>
18.4351

> <Gold.Chemscore.DG>
-19.0635

> <Gold.Chemscore.ZeroCoef>
-5.4800

> <Gold.Chemscore.Hbond>
3.0984

> <Gold.Chemscore.Metal>
0.0000

> <Gold.Chemscore.Lipo>
62.2932

> <Gold.Chemscore.Internal_Hbond>
0.0000

> <Gold.Chemscore.DEClash>
0.0000

> <Gold.Chemscore.DEInternal>
0.6284

> <Gold.Chemscore.Rot>
1.5834

> <Gold.Chemscore.Internal.Correction>
   9.000000E+99

> <Gold.Chemscore.Hbonds>
donor molecule, donor type, donor heavy atom, donor atom, acceptor molecule, acceptor atom, score
      L1  H     5    26       P1  7948  0.04
      L1  H     8    27       P1  7948  0.53
      L1  H    12    46       P1  7948  0.55
      P1  H  7997  8009       L1    21  0.79

> <Gold.Chemscore.Hbond.Weighted>
-10.3486

> <Gold.Chemscore.Metal.Weighted>
-0.0000

> <Gold.Chemscore.Lipo.Weighted>
-7.2883

> <Gold.Chemscore.Internal_Hbond.Weighted>
0.0000

> <Gold.Chemscore.DEClash.Weighted>
0.0000

> <Gold.Chemscore.DEInternal.Weighted>
0.6284

> <Gold.Chemscore.Rot.Weighted>
4.0535

> <Gold.Chemscore.Internal.Correction.Weighted>
   9.000000E+99

> <Gold.Protein.RotatedTorsions>
[ 6907 6896 6895 6894 ] final   56.95 input  -60.11 | X-H torsion
[ 7974 7965 7964 7962 ] final   86.30 input  175.53 | X-H torsion
[ 8008 7997 7996 7995 ] final -148.83 input   59.86 | X-H torsion
[ 10167 10162 10161 10158 ] final -142.34 input  -65.29 | X-H torsion
[ 10718 10713 10712 10709 ] final    1.33 input   66.30 | X-H torsion
[ 10763 10752 10751 10750 ] final   89.74 input  -60.55 | X-H torsion
[ 11005 11000 10999 10996 ] final  -71.38 input  -57.11 | X-H torsion

> <Gold.Protein.ActiveResidues>
 VAL166  LYS551  ARG553  GLY616  TRP617  ASP618  TYR619  PRO620  LYS621  CYS622 
 ASP623  PHE694  ASN695  SER759  ASP760  ASP761  ALA762  ILE779  LEU786  VAL792 
 PHE793  MET794  SER795  GLU796  ALA797  LYS798  CYS799  TRP800  GLU811  SER814 

> <Gold.Protein.RotatedAtoms>
  152.3685  134.6768  160.0183 H   0  0  0  0  0  0  0  0  0  0  0  0  # atno 6907 bound_to 6896
  151.7069  133.3306  159.3288 H   0  0  0  0  0  0  0  0  0  0  0  0  # atno 6908 bound_to 6896
  150.7656  134.6502  159.6328 H   0  0  0  0  0  0  0  0  0  0  0  0  # atno 6909 bound_to 6896
  145.5741  139.2317  143.2390 H   0  0  0  0  0  0  0  0  0  0  0  0  # atno 7974 bound_to 7965
  155.5980  140.0659  157.2741 H   0  0  0  0  0  0  0  0  0  0  0  0  # atno 8008 bound_to 7997
  154.4287  140.1823  156.1190 H   0  0  0  0  0  0  0  0  0  0  0  0  # atno 8009 bound_to 7997
  156.0181  140.3319  155.7014 H   0  0  0  0  0  0  0  0  0  0  0  0  # atno 8010 bound_to 7997
  139.8098  143.7718  152.2663 H   0  0  0  0  0  0  0  0  0  0  0  0  # atno 10167 bound_to 10162
  156.8466  130.5539  149.5673 H   0  0  0  0  0  0  0  0  0  0  0  0  # atno 10718 bound_to 10713
  153.1902  135.4459  155.0139 H   0  0  0  0  0  0  0  0  0  0  0  0  # atno 10763 bound_to 10752
  154.8085  135.3284  154.7369 H   0  0  0  0  0  0  0  0  0  0  0  0  # atno 10764 bound_to 10752
  153.7824  135.6976  153.4941 H   0  0  0  0  0  0  0  0  0  0  0  0  # atno 10765 bound_to 10752
  141.1591  133.6816  156.6897 H   0  0  0  0  0  0  0  0  0  0  0  0  # atno 11005 bound_to 11000
  146.1763  140.6567  142.9209 LP  0  0  0  0  0  0  0  0  0  0  0  0  # atno 17320 bound_to 7965
  144.7424  140.4978  143.6859 LP  0  0  0  0  0  0  0  0  0  0  0  0  # atno 17321 bound_to 7965
  139.7864  144.7426  151.0017 LP  0  0  0  0  0  0  0  0  0  0  0  0  # atno 17342 bound_to 10162
  140.7818  143.4488  151.0443 LP  0  0  0  0  0  0  0  0  0  0  0  0  # atno 17343 bound_to 10162
  156.0851  130.5852  150.9634 LP  0  0  0  0  0  0  0  0  0  0  0  0  # atno 17370 bound_to 10713
  157.6326  131.0919  150.8411 LP  0  0  0  0  0  0  0  0  0  0  0  0  # atno 17371 bound_to 10713
  140.3039  134.8141  157.4121 LP  0  0  0  0  0  0  0  0  0  0  0  0  # atno 17394 bound_to 11000
  140.1237  134.5186  155.8162 LP  0  0  0  0  0  0  0  0  0  0  0  0  # atno 17395 bound_to 11000

$$$$
