AV-unprocessed.smi:1097|AV-procd|sdf|4751|dock5
  -GOLD-   22720 3283D 1   1.00000     0.00000
 Structure written by MMmdl.
 40 41  0  0  0  0  0  0  0  0  1 V2000
  148.2172  136.4692  160.5410 C   0  0  0  0  0  0  0  0  0  0  0  0
  147.9440  137.4970  159.6050 O   0  0  0  0  0  0  0  0  0  0  0  0
  147.8911  137.0167  158.2722 C   0  0  0  0  0  0  0  0  0  0  0  0
  147.2177  138.0696  157.3880 C   0  0  0  0  0  0  0  0  0  0  0  0
  148.1259  139.1502  157.1989 O   0  0  0  0  0  0  0  0  0  0  0  0
  148.0017  139.9400  156.0709 C   0  0  0  0  0  0  0  0  0  0  0  0
  146.9471  139.7097  155.2475 N   0  0  0  0  0  0  0  0  0  0  0  0
  146.8019  140.4771  154.1484 C   0  0  0  0  0  0  0  0  0  0  0  0
  147.6937  141.5100  153.8087 C   0  0  0  0  0  0  0  0  0  0  0  0
  148.7883  141.7524  154.6584 C   0  0  0  0  0  0  0  0  0  0  0  0
  148.9533  140.9631  155.8202 C   0  0  0  0  0  0  0  0  0  0  0  0
  150.1284  141.1877  156.7312 C   0  0  0  0  0  0  0  0  0  0  0  0
  150.6477  140.2574  157.3484 O   0  0  0  0  0  0  0  0  0  0  0  0
  150.5308  142.4640  156.8419 N   0  0  0  0  0  0  0  0  0  0  0  0
  151.6338  142.9233  157.6810 C   0  0  2  0  0  0  0  0  0  0  0  0
  151.6480  142.2085  159.0414 C   0  0  0  0  0  0  0  0  0  0  0  0
  151.8272  143.3401  160.0394 C   0  0  0  0  0  0  0  0  0  0  0  0
  151.9961  143.1489  161.2426 O   0  0  0  0  0  0  0  0  0  0  0  0
  151.7779  144.5285  159.4303 N   0  0  0  0  0  0  0  0  0  0  0  0
  151.9076  145.8248  160.0811 C   0  0  0  0  0  0  0  0  0  0  0  0
  151.5217  144.4269  158.0046 C   0  0  0  0  0  0  0  0  0  0  0  0
  148.2567  136.8898  161.5457 H   0  0  0  0  0  0  0  0  0  0  0  0
  149.1785  135.9956  160.3371 H   0  0  0  0  0  0  0  0  0  0  0  0
  147.4394  135.7044  160.5261 H   0  0  0  0  0  0  0  0  0  0  0  0
  148.8997  136.8160  157.9075 H   0  0  0  0  0  0  0  0  0  0  0  0
  147.3322  136.0806  158.2308 H   0  0  0  0  0  0  0  0  0  0  0  0
  146.9463  137.6262  156.4285 H   0  0  0  0  0  0  0  0  0  0  0  0
  146.3043  138.4224  157.8701 H   0  0  0  0  0  0  0  0  0  0  0  0
  145.9502  140.2608  153.5207 H   0  0  0  0  0  0  0  0  0  0  0  0
  147.5438  142.0990  152.9160 H   0  0  0  0  0  0  0  0  0  0  0  0
  149.4913  142.5343  154.4105 H   0  0  0  0  0  0  0  0  0  0  0  0
  150.0353  143.1665  156.3122 H   0  0  0  0  0  0  0  0  0  0  0  0
  152.5830  142.7288  157.1778 H   0  0  0  0  0  0  0  0  0  0  0  0
  150.7094  141.6937  159.2515 H   0  0  0  0  0  0  0  0  0  0  0  0
  152.4628  141.4875  159.1152 H   0  0  0  0  0  0  0  0  0  0  0  0
  152.8514  145.8887  160.6242 H   0  0  0  0  0  0  0  0  0  0  0  0
  151.0922  145.9795  160.7886 H   0  0  0  0  0  0  0  0  0  0  0  0
  151.8818  146.6354  159.3518 H   0  0  0  0  0  0  0  0  0  0  0  0
  152.2409  145.0134  157.4315 H   0  0  0  0  0  0  0  0  0  0  0  0
  150.5242  144.8188  157.7984 H   0  0  0  0  0  0  0  0  0  0  0  0
  1  2  1  0  0  0  0
  1 22  1  0  0  0  0
  1 23  1  0  0  0  0
  1 24  1  0  0  0  0
  2  3  1  0  0  0  0
  3  4  1  0  0  0  0
  3 25  1  0  0  0  0
  3 26  1  0  0  0  0
  4  5  1  0  0  0  0
  4 27  1  0  0  0  0
  4 28  1  0  0  0  0
  5  6  1  0  0  0  0
  6 11  1  0  0  0  0
  6  7  2  0  0  0  0
  7  8  1  0  0  0  0
  8  9  2  0  0  0  0
  8 29  1  0  0  0  0
  9 10  1  0  0  0  0
  9 30  1  0  0  0  0
 10 11  2  0  0  0  0
 10 31  1  0  0  0  0
 11 12  1  0  0  0  0
 12 13  2  0  0  0  0
 12 14  1  0  0  0  0
 14 15  1  0  0  0  0
 14 32  1  0  0  0  0
 15 21  1  0  0  0  0
 15 16  1  0  0  0  0
 15 33  1  0  0  0  0
 16 17  1  0  0  0  0
 16 34  1  0  0  0  0
 16 35  1  0  0  0  0
 17 18  2  0  0  0  0
 17 19  1  0  0  0  0
 19 20  1  0  0  0  0
 19 21  1  0  0  0  0
 20 36  1  0  0  0  0
 20 37  1  0  0  0  0
 20 38  1  0  0  0  0
 21 39  1  0  0  0  0
 21 40  1  0  0  0  0
M  END
> <s_m_source_file>
AV-unprocessed.smi

> <i_m_source_file_index>
1097

> <i_lp_mmshare_version>
43012

> <i_f3d_flags>
0

> <s_epik_input>
W0NIM11PW0NIMl1bQ0gyXU9jMW5bY0hdW2NIXVtjSF1jMUMoPU8pW05IXVtDQEBIXTJbQ0gyXUMoPU8pTihbQ0gzXSlbQ0gyXTI=

> <s_epik_cmdline>
J2VwaWtfcHl0aG9uJywgJy1waCcsICc3LjAnLCAnLXRuJywgJzgnLCAnLW1hJywgJzIwMCcsICctbWV0YWxfYmluZGluZycsICctaW1hZScsICc8aW5maWxlLm1hZT4nLCAnLW9tYWUnLCAnPG91dGZpbGUubWFlPic=

> <r_lp_tautomer_probability>
1

> <r_epik_Ionization_Penalty>
2.30122e-06

> <r_epik_Ionization_Penalty_Charging>
0

> <r_epik_Ionization_Penalty_Neutral>
2.30122e-06

> <r_epik_State_Penalty>
-0

> <r_epik_Charging_Adjusted_Penalty>
0

> <i_epik_Tot_Q>
0

> <i_epik_Tot_abs_Q>
0

> <r_epik_Metal_State_Penalty>
-0

> <b_epik_Metal_Only>
0

> <s_lp_Force_Field>
OPLS_2005

> <r_lp_Energy>
19.8502

> <b_lp_Chiralities_Consistent>
1

> <s_lp_Variant>
AV-unprocessed.smi:1097-1

> <Gold.Version>
5.8.1

> <Gold.Id.Protein>
6NUR|6NUR_protein|mol2

> <Gold.PLP.Fitness>
43.2166

> <Gold.PLP.PLP>
-37.1743

> <Gold.PLP.part.hbond>
-2.5834

> <Gold.PLP.part.metal>
0.0000

> <Gold.PLP.part.buried>
-4.4290

> <Gold.PLP.part.nonpolar>
-29.9265

> <Gold.PLP.part.repulsive>
0.1893

> <Gold.PLP.ligand.clash>
0.0000

> <Gold.PLP.ligand.torsion>
0.9917

> <Gold.PLP.Chemscore.Hbond>
1.6313

> <Gold.PLP.Chemscore.CHOScore>
1.0000

> <Gold.PLP.Chemscore.Metal>
0.0000

> <Gold.Chemscore.Hbonds>
donor molecule, donor type, donor heavy atom, donor atom, acceptor molecule, acceptor atom, score
      L1  H    14    32       P1  8028  0.98
      P1  H  6934  6947       L1     2  0.44
      L1  C     8    29       P1 10175  1.00

> <Gold.PLP.Chemscore.Internal.Correction>
0.1319

> <Gold.Rescore>
     Score         DG    S(hbond)    S(metal)    S(lipo)     H(rot)  DE(clash)    DE(int)     intcor
     10.87     -14.76       1.91        0.00      67.40       1.95       0.01       3.88       ----

> <Gold.Chemscore.Fitness>
10.8723

> <Gold.Chemscore.DG>
-14.7612

> <Gold.Chemscore.ZeroCoef>
-5.4800

> <Gold.Chemscore.Hbond>
1.9100

> <Gold.Chemscore.Metal>
0.0000

> <Gold.Chemscore.Lipo>
67.3998

> <Gold.Chemscore.Internal_Hbond>
0.0000

> <Gold.Chemscore.DEClash>
0.0073

> <Gold.Chemscore.DEInternal>
3.8816

> <Gold.Chemscore.Rot>
1.9468

> <Gold.Chemscore.Internal.Correction>
   9.000000E+99

> <Gold.Chemscore.Hbonds>
donor molecule, donor type, donor heavy atom, donor atom, acceptor molecule, acceptor atom, score
      L1  H    14    32       P1  8028  0.92
      P1  H  6934  6947       L1     2  0.13

> <Gold.Chemscore.Hbond.Weighted>
-6.3793

> <Gold.Chemscore.Metal.Weighted>
-0.0000

> <Gold.Chemscore.Lipo.Weighted>
-7.8858

> <Gold.Chemscore.Internal_Hbond.Weighted>
0.0000

> <Gold.Chemscore.DEClash.Weighted>
0.0073

> <Gold.Chemscore.DEInternal.Weighted>
3.8816

> <Gold.Chemscore.Rot.Weighted>
4.9839

> <Gold.Chemscore.Internal.Correction.Weighted>
   9.000000E+99

> <Gold.Protein.RotatedTorsions>
[ 6907 6896 6895 6894 ] final  -22.10 input  -60.11 | X-H torsion
[ 7974 7965 7964 7962 ] final   29.13 input  175.53 | X-H torsion
[ 8008 7997 7996 7995 ] final  -37.15 input   59.86 | X-H torsion
[ 10167 10162 10161 10158 ] final  -37.61 input  -65.29 | X-H torsion
[ 10718 10713 10712 10709 ] final  -19.72 input   66.30 | X-H torsion
[ 10763 10752 10751 10750 ] final -163.22 input  -60.55 | X-H torsion
[ 11005 11000 10999 10996 ] final   17.80 input  -57.11 | X-H torsion

> <Gold.Protein.ActiveResidues>
 VAL166  LYS551  ARG553  GLY616  TRP617  ASP618  TYR619  PRO620  LYS621  CYS622 
 ASP623  PHE694  ASN695  SER759  ASP760  ASP761  ALA762  ILE779  LEU786  VAL792 
 PHE793  MET794  SER795  GLU796  ALA797  LYS798  CYS799  TRP800  GLU811  SER814 

> <Gold.Protein.RotatedAtoms>
  151.2236  135.0528  159.8959 H   0  0  0  0  0  0  0  0  0  0  0  0  # atno 6907 bound_to 6896
  152.5413  134.0614  159.8164 H   0  0  0  0  0  0  0  0  0  0  0  0  # atno 6908 bound_to 6896
  151.0784  133.5362  159.2654 H   0  0  0  0  0  0  0  0  0  0  0  0  # atno 6909 bound_to 6896
  146.1689  139.6963  142.8981 H   0  0  0  0  0  0  0  0  0  0  0  0  # atno 7974 bound_to 7965
  154.4059  140.1611  156.2491 H   0  0  0  0  0  0  0  0  0  0  0  0  # atno 8008 bound_to 7997
  155.9135  140.3426  155.6094 H   0  0  0  0  0  0  0  0  0  0  0  0  # atno 8009 bound_to 7997
  155.7307  140.0780  157.2280 H   0  0  0  0  0  0  0  0  0  0  0  0  # atno 8010 bound_to 7997
  140.7114  143.3330  151.2525 H   0  0  0  0  0  0  0  0  0  0  0  0  # atno 10167 bound_to 10162
  156.5417  130.4680  149.6495 H   0  0  0  0  0  0  0  0  0  0  0  0  # atno 10718 bound_to 10713
  154.7142  135.3012  154.9150 H   0  0  0  0  0  0  0  0  0  0  0  0  # atno 10763 bound_to 10752
  154.0042  135.6703  153.4765 H   0  0  0  0  0  0  0  0  0  0  0  0  # atno 10764 bound_to 10752
  153.0780  135.5024  154.8358 H   0  0  0  0  0  0  0  0  0  0  0  0  # atno 10765 bound_to 10752
  140.4319  134.1411  155.7681 H   0  0  0  0  0  0  0  0  0  0  0  0  # atno 11005 bound_to 11000
  145.4392  141.0421  143.2867 LP  0  0  0  0  0  0  0  0  0  0  0  0  # atno 17320 bound_to 7965
  144.8134  139.5921  143.7019 LP  0  0  0  0  0  0  0  0  0  0  0  0  # atno 17321 bound_to 7965
  139.6818  143.9842  152.2812 LP  0  0  0  0  0  0  0  0  0  0  0  0  # atno 17342 bound_to 10162
  139.9474  144.6642  150.8205 LP  0  0  0  0  0  0  0  0  0  0  0  0  # atno 17343 bound_to 10162
  156.2965  130.7153  151.2015 LP  0  0  0  0  0  0  0  0  0  0  0  0  # atno 17370 bound_to 10713
  157.7404  131.0517  150.5169 LP  0  0  0  0  0  0  0  0  0  0  0  0  # atno 17371 bound_to 10713
  141.1742  133.8548  157.1475 LP  0  0  0  0  0  0  0  0  0  0  0  0  # atno 17394 bound_to 11000
  140.0128  134.9980  157.0431 LP  0  0  0  0  0  0  0  0  0  0  0  0  # atno 17395 bound_to 11000

$$$$
