AV-unprocessed.smi:405|AV-procd|sdf|2498|dock3
  -GOLD-   2262022443D 1   1.00000     0.00000
 Structure written by MMmdl.
 46 47  0  0  0  0  0  0  0  0  1 V2000
  151.9080  145.8431  160.1047 C   0  0  0  0  0  0  0  0  0  0  0  0
  151.9101  144.5047  159.3363 C   0  0  0  0  0  0  0  0  0  0  0  0
  152.6410  144.7143  157.9960 C   0  0  0  0  0  0  0  0  0  0  0  0
  152.6876  143.4500  160.1525 C   0  0  0  0  0  0  0  0  0  0  0  0
  150.4595  144.0379  159.0252 C   0  0  0  0  0  0  0  0  0  0  0  0
  150.3303  142.6647  158.3519 C   0  0  0  0  0  0  0  0  0  0  0  0
  151.3336  142.0610  157.9727 O   0  0  0  0  0  0  0  0  0  0  0  0
  149.0836  142.2004  158.1807 N   0  0  0  0  0  0  0  0  0  0  0  0
  148.7362  140.9524  157.5102 C   0  0  0  0  0  0  0  0  0  0  0  0
  148.2430  141.1434  156.0796 C   0  0  0  0  0  0  0  0  0  0  0  0
  147.1160  141.9571  155.8368 C   0  0  0  0  0  0  0  0  0  0  0  0
  146.6664  142.1325  154.5155 C   0  0  0  0  0  0  0  0  0  0  0  0
  147.3654  141.4837  153.4813 C   0  0  0  0  0  0  0  0  0  0  0  0
  148.4450  140.7035  153.6955 N   0  0  0  0  0  0  0  0  0  0  0  0
  148.8802  140.5333  154.9677 C   0  0  0  0  0  0  0  0  0  0  0  0
  150.0028  139.7124  155.1586 N   0  0  0  0  0  0  0  0  0  0  0  0
  150.3867  138.9671  153.9667 C   0  0  0  0  0  0  0  0  0  0  0  0
  151.5033  137.9685  154.3141 C   0  0  0  0  0  0  0  0  0  0  0  0
  152.6009  138.6634  154.9008 O   0  0  0  0  0  0  0  0  0  0  0  0
  152.2320  139.3379  156.1012 C   0  0  0  0  0  0  0  0  0  0  0  0
  151.1344  140.3717  155.7964 C   0  0  0  0  0  0  0  0  0  0  0  0
  152.9224  146.2144  160.2541 H   0  0  0  0  0  0  0  0  0  0  0  0
  151.4538  145.7459  161.0913 H   0  0  0  0  0  0  0  0  0  0  0  0
  151.3554  146.6108  159.5620 H   0  0  0  0  0  0  0  0  0  0  0  0
  152.1433  145.4682  157.3849 H   0  0  0  0  0  0  0  0  0  0  0  0
  152.6764  143.7922  157.4145 H   0  0  0  0  0  0  0  0  0  0  0  0
  153.6693  145.0446  158.1481 H   0  0  0  0  0  0  0  0  0  0  0  0
  153.7345  143.7324  160.2680 H   0  0  0  0  0  0  0  0  0  0  0  0
  152.6629  142.4748  159.6650 H   0  0  0  0  0  0  0  0  0  0  0  0
  152.2808  143.3288  161.1566 H   0  0  0  0  0  0  0  0  0  0  0  0
  149.8696  144.0340  159.9435 H   0  0  0  0  0  0  0  0  0  0  0  0
  149.9750  144.7661  158.3731 H   0  0  0  0  0  0  0  0  0  0  0  0
  148.3170  142.7635  158.5190 H   0  0  0  0  0  0  0  0  0  0  0  0
  149.5924  140.2763  157.5300 H   0  0  0  0  0  0  0  0  0  0  0  0
  147.9501  140.4629  158.0854 H   0  0  0  0  0  0  0  0  0  0  0  0
  146.5981  142.4404  156.6523 H   0  0  0  0  0  0  0  0  0  0  0  0
  145.8061  142.7488  154.3002 H   0  0  0  0  0  0  0  0  0  0  0  0
  147.0498  141.5941  152.4544 H   0  0  0  0  0  0  0  0  0  0  0  0
  149.5223  138.4387  153.5629 H   0  0  0  0  0  0  0  0  0  0  0  0
  150.7315  139.6579  153.1960 H   0  0  0  0  0  0  0  0  0  0  0  0
  151.1381  137.2003  154.9976 H   0  0  0  0  0  0  0  0  0  0  0  0
  151.8448  137.4583  153.4135 H   0  0  0  0  0  0  0  0  0  0  0  0
  151.8898  138.6164  156.8448 H   0  0  0  0  0  0  0  0  0  0  0  0
  153.1098  139.8324  156.5169 H   0  0  0  0  0  0  0  0  0  0  0  0
  151.5290  141.1485  155.1401 H   0  0  0  0  0  0  0  0  0  0  0  0
  150.8087  140.8582  156.7166 H   0  0  0  0  0  0  0  0  0  0  0  0
  1  2  1  0  0  0  0
  1 22  1  0  0  0  0
  1 23  1  0  0  0  0
  1 24  1  0  0  0  0
  2  3  1  0  0  0  0
  2  4  1  0  0  0  0
  2  5  1  0  0  0  0
  3 25  1  0  0  0  0
  3 26  1  0  0  0  0
  3 27  1  0  0  0  0
  4 28  1  0  0  0  0
  4 29  1  0  0  0  0
  4 30  1  0  0  0  0
  5  6  1  0  0  0  0
  5 31  1  0  0  0  0
  5 32  1  0  0  0  0
  6  7  2  0  0  0  0
  6  8  1  0  0  0  0
  8  9  1  0  0  0  0
  8 33  1  0  0  0  0
  9 10  1  0  0  0  0
  9 34  1  0  0  0  0
  9 35  1  0  0  0  0
 10 15  1  0  0  0  0
 10 11  2  0  0  0  0
 11 12  1  0  0  0  0
 11 36  1  0  0  0  0
 12 13  2  0  0  0  0
 12 37  1  0  0  0  0
 13 14  1  0  0  0  0
 13 38  1  0  0  0  0
 14 15  2  0  0  0  0
 15 16  1  0  0  0  0
 16 21  1  0  0  0  0
 16 17  1  0  0  0  0
 17 18  1  0  0  0  0
 17 39  1  0  0  0  0
 17 40  1  0  0  0  0
 18 19  1  0  0  0  0
 18 41  1  0  0  0  0
 18 42  1  0  0  0  0
 19 20  1  0  0  0  0
 20 21  1  0  0  0  0
 20 43  1  0  0  0  0
 20 44  1  0  0  0  0
 21 45  1  0  0  0  0
 21 46  1  0  0  0  0
M  END
> <s_m_source_file>
AV-unprocessed.smi

> <i_m_source_file_index>
405

> <i_lp_mmshare_version>
43012

> <i_f3d_flags>
0

> <s_epik_input>
W0NIM11DKFtDSDNdKShbQ0gzXSlbQ0gyXUMoPU8pW05IXVtDSDJdYzFbY0hdW2NIXVtjSF1uYzFOMltDSDJdW0NIMl1PW0NIMl1bQ0gyXTI=

> <s_epik_cmdline>
J2VwaWtfcHl0aG9uJywgJy1waCcsICc3LjAnLCAnLXRuJywgJzgnLCAnLW1hJywgJzIwMCcsICctbWV0YWxfYmluZGluZycsICctaW1hZScsICc8aW5maWxlLm1hZT4nLCAnLW9tYWUnLCAnPG91dGZpbGUubWFlPic=

> <r_lp_tautomer_probability>
1

> <r_epik_Ionization_Penalty>
0.00557636

> <r_epik_Ionization_Penalty_Charging>
0

> <r_epik_Ionization_Penalty_Neutral>
0.00557636

> <r_epik_State_Penalty>
0.00408419

> <r_epik_Charging_Adjusted_Penalty>
0.00408419

> <i_epik_Tot_Q>
0

> <i_epik_Tot_abs_Q>
0

> <r_epik_Metal_State_Penalty>
-0

> <b_epik_Metal_Only>
0

> <s_lp_Force_Field>
OPLS_2005

> <r_lp_Energy>
19.7271

> <b_lp_Chiralities_Consistent>
1

> <s_lp_Variant>
AV-unprocessed.smi:405-1

> <Gold.Version>
5.8.1

> <Gold.Id.Protein>
6NUR|6NUR_protein|mol2

> <Gold.PLP.Fitness>
43.7172

> <Gold.PLP.PLP>
-44.1657

> <Gold.PLP.part.hbond>
0.0000

> <Gold.PLP.part.metal>
0.0000

> <Gold.PLP.part.buried>
-7.2288

> <Gold.PLP.part.nonpolar>
-37.9010

> <Gold.PLP.part.repulsive>
1.7151

> <Gold.PLP.ligand.clash>
0.0000

> <Gold.PLP.ligand.torsion>
0.3041

> <Gold.PLP.Chemscore.Hbond>
0.0000

> <Gold.PLP.Chemscore.CHOScore>
0.0000

> <Gold.PLP.Chemscore.Metal>
0.0000

> <Gold.PLP.Chemscore.Internal.Correction>
0.1596

> <Gold.Rescore>
     Score         DG    S(hbond)    S(metal)    S(lipo)     H(rot)  DE(clash)    DE(int)     intcor
     12.24     -14.33       0.00        0.00     110.98       1.62       0.09       2.00       ----

> <Gold.Chemscore.Fitness>
12.2372

> <Gold.Chemscore.DG>
-14.3266

> <Gold.Chemscore.ZeroCoef>
-5.4800

> <Gold.Chemscore.Hbond>
0.0000

> <Gold.Chemscore.Metal>
0.0000

> <Gold.Chemscore.Lipo>
110.9801

> <Gold.Chemscore.Internal_Hbond>
0.0000

> <Gold.Chemscore.DEClash>
0.0927

> <Gold.Chemscore.DEInternal>
1.9967

> <Gold.Chemscore.Rot>
1.6164

> <Gold.Chemscore.Internal.Correction>
   9.000000E+99

> <Gold.Chemscore.Hbond.Weighted>
-0.0000

> <Gold.Chemscore.Metal.Weighted>
-0.0000

> <Gold.Chemscore.Lipo.Weighted>
-12.9847

> <Gold.Chemscore.Internal_Hbond.Weighted>
0.0000

> <Gold.Chemscore.DEClash.Weighted>
0.0927

> <Gold.Chemscore.DEInternal.Weighted>
1.9967

> <Gold.Chemscore.Rot.Weighted>
4.1381

> <Gold.Chemscore.Internal.Correction.Weighted>
   9.000000E+99

> <Gold.Protein.RotatedTorsions>
[ 6907 6896 6895 6894 ] final -119.49 input  -60.11 | X-H torsion
[ 7974 7965 7964 7962 ] final -167.62 input  175.53 | X-H torsion
[ 8008 7997 7996 7995 ] final   21.76 input   59.86 | X-H torsion
[ 10167 10162 10161 10158 ] final   50.80 input  -65.29 | X-H torsion
[ 10718 10713 10712 10709 ] final -157.76 input   66.30 | X-H torsion
[ 10763 10752 10751 10750 ] final   38.70 input  -60.55 | X-H torsion
[ 11005 11000 10999 10996 ] final -142.73 input  -57.11 | X-H torsion

> <Gold.Protein.ActiveResidues>
 VAL166  LYS551  ARG553  GLY616  TRP617  ASP618  TYR619  PRO620  LYS621  CYS622 
 ASP623  PHE694  ASN695  SER759  ASP760  ASP761  ALA762  ILE779  LEU786  VAL792 
 PHE793  MET794  SER795  GLU796  ALA797  LYS798  CYS799  TRP800  GLU811  SER814 

> <Gold.Protein.RotatedAtoms>
  150.8310  133.8092  159.3098 H   0  0  0  0  0  0  0  0  0  0  0  0  # atno 6907 bound_to 6896
  151.5822  135.1056  160.0029 H   0  0  0  0  0  0  0  0  0  0  0  0  # atno 6908 bound_to 6896
  152.4389  133.7370  159.6676 H   0  0  0  0  0  0  0  0  0  0  0  0  # atno 6909 bound_to 6896
  144.7219  140.2491  143.6281 H   0  0  0  0  0  0  0  0  0  0  0  0  # atno 7974 bound_to 7965
  154.9555  140.3071  155.5055 H   0  0  0  0  0  0  0  0  0  0  0  0  # atno 8008 bound_to 7997
  156.2982  140.2311  156.4575 H   0  0  0  0  0  0  0  0  0  0  0  0  # atno 8009 bound_to 7997
  154.8014  140.0434  157.1264 H   0  0  0  0  0  0  0  0  0  0  0  0  # atno 8010 bound_to 7997
  140.2686  144.3291  150.6296 H   0  0  0  0  0  0  0  0  0  0  0  0  # atno 10167 bound_to 10162
  156.5448  130.8579  151.2760 H   0  0  0  0  0  0  0  0  0  0  0  0  # atno 10718 bound_to 10713
  152.9992  135.6242  154.2346 H   0  0  0  0  0  0  0  0  0  0  0  0  # atno 10763 bound_to 10752
  154.2088  135.2801  155.2967 H   0  0  0  0  0  0  0  0  0  0  0  0  # atno 10764 bound_to 10752
  154.5624  135.5701  153.7078 H   0  0  0  0  0  0  0  0  0  0  0  0  # atno 10765 bound_to 10752
  140.8196  134.2647  157.4906 H   0  0  0  0  0  0  0  0  0  0  0  0  # atno 11005 bound_to 11000
  145.8245  139.2058  143.1918 LP  0  0  0  0  0  0  0  0  0  0  0  0  # atno 17320 bound_to 7965
  146.0485  140.8093  142.9793 LP  0  0  0  0  0  0  0  0  0  0  0  0  # atno 17321 bound_to 7965
  140.5908  143.2168  151.7257 LP  0  0  0  0  0  0  0  0  0  0  0  0  # atno 17342 bound_to 10162
  139.4995  144.3942  152.0248 LP  0  0  0  0  0  0  0  0  0  0  0  0  # atno 17343 bound_to 10162
  157.7399  130.9839  150.2341 LP  0  0  0  0  0  0  0  0  0  0  0  0  # atno 17370 bound_to 10713
  156.2939  130.3749  149.7815 LP  0  0  0  0  0  0  0  0  0  0  0  0  # atno 17371 bound_to 10713
  139.8709  134.9528  156.4125 LP  0  0  0  0  0  0  0  0  0  0  0  0  # atno 17394 bound_to 11000
  140.9113  133.7710  155.9795 LP  0  0  0  0  0  0  0  0  0  0  0  0  # atno 17395 bound_to 11000

$$$$
