AV-unprocessed.smi:3290|AV-procd|sdf|12617|dock9
  -GOLD-   2272018553D 1   1.00000     0.00000
 Structure written by MMmdl.
 43 44  0  0  0  0  0  0  0  0  2 V2000
  143.6726  133.2714  151.3257 C   0  0  0  0  0  0  0  0  0  0  0  0
  145.0874  133.4563  150.7400 C   0  0  2  0  0  0  0  0  0  0  0  0
  145.7467  132.1010  150.4063 C   0  0  0  0  0  0  0  0  0  0  0  0
  146.1829  131.3361  151.6674 C   0  0  0  0  0  0  0  0  0  0  0  0
  147.1070  132.1924  152.5454 C   0  0  0  0  0  0  0  0  0  0  0  0
  146.4605  133.5423  152.8944 C   0  0  0  0  0  0  0  0  0  0  0  0
  146.0346  134.3124  151.6231 C   0  0  2  0  0  0  0  0  0  0  0  0
  145.4509  135.7025  151.9466 C   0  0  0  0  0  0  0  0  0  0  0  0
  146.2828  136.4242  152.9293 N   0  3  0  0  0  0  0  0  0  0  0  0
  145.9322  137.8501  153.0863 C   0  0  0  0  0  0  0  0  0  0  0  0
  146.9487  138.7627  152.3767 C   0  0  1  0  0  0  0  0  0  0  0  0
  146.2451  139.5907  151.4746 O   0  0  0  0  0  0  0  0  0  0  0  0
  147.7792  139.5694  153.3643 C   0  0  0  0  0  0  0  0  0  0  0  0
  148.8002  138.9595  154.1246 C   0  0  0  0  0  0  0  0  0  0  0  0
  149.5490  139.7587  155.0114 C   0  0  0  0  0  0  0  0  0  0  0  0
  149.3416  141.0833  155.1696 N   0  0  0  0  0  0  0  0  0  0  0  0
  148.3635  141.6615  154.4405 C   0  0  0  0  0  0  0  0  0  0  0  0
  147.5581  140.9533  153.5263 C   0  0  0  0  0  0  0  0  0  0  0  0
  143.6909  132.7995  152.3074 H   0  0  0  0  0  0  0  0  0  0  0  0
  143.0620  132.6451  150.6746 H   0  0  0  0  0  0  0  0  0  0  0  0
  143.1526  134.2238  151.4258 H   0  0  0  0  0  0  0  0  0  0  0  0
  144.9580  133.9836  149.7938 H   0  0  0  0  0  0  0  0  0  0  0  0
  145.0690  131.4854  149.8135 H   0  0  0  0  0  0  0  0  0  0  0  0
  146.6211  132.2736  149.7774 H   0  0  0  0  0  0  0  0  0  0  0  0
  145.3071  131.0329  152.2416 H   0  0  0  0  0  0  0  0  0  0  0  0
  146.6934  130.4155  151.3825 H   0  0  0  0  0  0  0  0  0  0  0  0
  147.3571  131.6521  153.4590 H   0  0  0  0  0  0  0  0  0  0  0  0
  148.0485  132.3643  152.0224 H   0  0  0  0  0  0  0  0  0  0  0  0
  145.6005  133.3806  153.5448 H   0  0  0  0  0  0  0  0  0  0  0  0
  147.1702  134.1323  153.4749 H   0  0  0  0  0  0  0  0  0  0  0  0
  146.9366  134.4794  151.0315 H   0  0  0  0  0  0  0  0  0  0  0  0
  145.3930  136.3024  151.0372 H   0  0  0  0  0  0  0  0  0  0  0  0
  144.4366  135.6104  152.3371 H   0  0  0  0  0  0  0  0  0  0  0  0
  146.1752  135.9713  153.8260 H   0  0  0  0  0  0  0  0  0  0  0  0
  144.9338  138.0093  152.6764 H   0  0  0  0  0  0  0  0  0  0  0  0
  145.8842  138.0960  154.1484 H   0  0  0  0  0  0  0  0  0  0  0  0
  147.6195  138.1461  151.7764 H   0  0  0  0  0  0  0  0  0  0  0  0
  145.3324  139.5967  151.7211 H   0  0  0  0  0  0  0  0  0  0  0  0
  149.0091  137.9037  154.0331 H   0  0  0  0  0  0  0  0  0  0  0  0
  150.3377  139.3225  155.6065 H   0  0  0  0  0  0  0  0  0  0  0  0
  148.2204  142.7219  154.5874 H   0  0  0  0  0  0  0  0  0  0  0  0
  146.7901  141.4663  152.9660 H   0  0  0  0  0  0  0  0  0  0  0  0
  147.2506  136.3574  152.6479 H   0  0  0  0  0  0  0  0  0  0  0  0
  1  2  1  0  0  0  0
  1 19  1  0  0  0  0
  1 20  1  0  0  0  0
  1 21  1  0  0  0  0
  2  7  1  0  0  0  0
  2  3  1  0  0  0  0
  2 22  1  0  0  0  0
  3  4  1  0  0  0  0
  3 23  1  0  0  0  0
  3 24  1  0  0  0  0
  4  5  1  0  0  0  0
  4 25  1  0  0  0  0
  4 26  1  0  0  0  0
  5  6  1  0  0  0  0
  5 27  1  0  0  0  0
  5 28  1  0  0  0  0
  6  7  1  0  0  0  0
  6 29  1  0  0  0  0
  6 30  1  0  0  0  0
  7  8  1  0  0  0  0
  7 31  1  0  0  0  0
  8  9  1  0  0  0  0
  8 32  1  0  0  0  0
  8 33  1  0  0  0  0
  9 10  1  0  0  0  0
  9 34  1  0  0  0  0
  9 43  1  0  0  0  0
 10 11  1  0  0  0  0
 10 35  1  0  0  0  0
 10 36  1  0  0  0  0
 11 12  1  0  0  0  0
 11 13  1  0  0  0  0
 11 37  1  0  0  0  0
 12 38  1  0  0  0  0
 13 18  1  0  0  0  0
 13 14  2  0  0  0  0
 14 15  1  0  0  0  0
 14 39  1  0  0  0  0
 15 16  2  0  0  0  0
 15 40  1  0  0  0  0
 16 17  1  0  0  0  0
 17 18  2  0  0  0  0
 17 41  1  0  0  0  0
 18 42  1  0  0  0  0
M  CHG  1   9   1
M  END
> <s_m_source_file>
AV-unprocessed.smi

> <i_m_source_file_index>
3290

> <i_lp_mmshare_version>
43012

> <i_f3d_flags>
0

> <s_epik_input>
W0NIM11bQ0BASF0xW0NIMl1bQ0gyXVtDSDJdW0NIMl1bQ0BIXTFbQ0gyXVtOSF1bQ0gyXVtDQEhdKFtPSF0pYzJbY0hdW2NIXW5bY0hdW2NIXTI=

> <s_epik_cmdline>
J2VwaWtfcHl0aG9uJywgJy1waCcsICc3LjAnLCAnLXRuJywgJzgnLCAnLW1hJywgJzIwMCcsICctbWV0YWxfYmluZGluZycsICctaW1hZScsICc8aW5maWxlLm1hZT4nLCAnLW9tYWUnLCAnPG91dGZpbGUubWFlPic=

> <r_lp_tautomer_probability>
1

> <r_epik_Ionization_Penalty>
0.00420552

> <r_epik_Ionization_Penalty_Charging>
0.00207255

> <r_epik_Ionization_Penalty_Neutral>
0.00213297

> <r_epik_State_Penalty>
-0

> <r_epik_Charging_Adjusted_Penalty>
0.00207255

> <i_epik_Tot_Q>
1

> <i_epik_Tot_abs_Q>
1

> <r_epik_Metal_State_Penalty>
-0

> <b_epik_Metal_Only>
0

> <s_lp_Force_Field>
OPLS_2005

> <r_lp_Energy>
19.3175

> <b_lp_Chiralities_Consistent>
1

> <s_lp_Variant>
AV-unprocessed.smi:3290-7

> <Gold.Version>
5.8.1

> <Gold.Id.Protein>
6NUR|6NUR_protein|mol2

> <Gold.PLP.Fitness>
44.0228

> <Gold.PLP.PLP>
-34.9494

> <Gold.PLP.part.hbond>
-3.0000

> <Gold.PLP.part.metal>
0.0000

> <Gold.PLP.part.buried>
-0.6590

> <Gold.PLP.part.nonpolar>
-30.8002

> <Gold.PLP.part.repulsive>
0.1206

> <Gold.PLP.ligand.clash>
0.0000

> <Gold.PLP.ligand.torsion>
1.4822

> <Gold.PLP.Chemscore.Hbond>
3.0000

> <Gold.PLP.Chemscore.CHOScore>
1.0000

> <Gold.PLP.Chemscore.Metal>
0.0000

> <Gold.Chemscore.Hbonds>
donor molecule, donor type, donor heavy atom, donor atom, acceptor molecule, acceptor atom, score
      L1  H     9    43       P1  7948  2.00
      L1  H    12    38       P1 10175  1.00
      L1  C    17    41       P1  8028  1.00

> <Gold.PLP.Chemscore.Internal.Correction>
0.0377

> <Gold.Rescore>
     Score         DG    S(hbond)    S(metal)    S(lipo)     H(rot)  DE(clash)    DE(int)     intcor
     16.60     -17.97       1.93        0.00      96.61       2.05       0.17       1.21       ----

> <Gold.Chemscore.Fitness>
16.5976

> <Gold.Chemscore.DG>
-17.9739

> <Gold.Chemscore.ZeroCoef>
-5.4800

> <Gold.Chemscore.Hbond>
1.9274

> <Gold.Chemscore.Metal>
0.0000

> <Gold.Chemscore.Lipo>
96.6137

> <Gold.Chemscore.Internal_Hbond>
0.0000

> <Gold.Chemscore.DEClash>
0.1708

> <Gold.Chemscore.DEInternal>
1.2055

> <Gold.Chemscore.Rot>
2.0498

> <Gold.Chemscore.Internal.Correction>
   9.000000E+99

> <Gold.Chemscore.Hbonds>
donor molecule, donor type, donor heavy atom, donor atom, acceptor molecule, acceptor atom, score
      L1  H     9    43       P1  7948  1.00
      L1  H    12    38       P1 10175  0.70

> <Gold.Chemscore.Hbond.Weighted>
-6.4376

> <Gold.Chemscore.Metal.Weighted>
-0.0000

> <Gold.Chemscore.Lipo.Weighted>
-11.3038

> <Gold.Chemscore.Internal_Hbond.Weighted>
0.0000

> <Gold.Chemscore.DEClash.Weighted>
0.1708

> <Gold.Chemscore.DEInternal.Weighted>
1.2055

> <Gold.Chemscore.Rot.Weighted>
5.2475

> <Gold.Chemscore.Internal.Correction.Weighted>
   9.000000E+99

> <Gold.Protein.RotatedTorsions>
[ 6907 6896 6895 6894 ] final  -32.12 input  -60.11 | X-H torsion
[ 7974 7965 7964 7962 ] final  -34.74 input  175.53 | X-H torsion
[ 8008 7997 7996 7995 ] final   -0.77 input   59.86 | X-H torsion
[ 10167 10162 10161 10158 ] final -109.03 input  -65.29 | X-H torsion
[ 10718 10713 10712 10709 ] final  -86.14 input   66.30 | X-H torsion
[ 10763 10752 10751 10750 ] final   -6.96 input  -60.55 | X-H torsion
[ 11005 11000 10999 10996 ] final   44.69 input  -57.11 | X-H torsion

> <Gold.Protein.ActiveResidues>
 VAL166  LYS551  ARG553  GLY616  TRP617  ASP618  TYR619  PRO620  LYS621  CYS622 
 ASP623  PHE694  ASN695  SER759  ASP760  ASP761  ALA762  ILE779  LEU786  VAL792 
 PHE793  MET794  SER795  GLU796  ALA797  LYS798  CYS799  TRP800  GLU811  SER814 

> <Gold.Protein.RotatedAtoms>
  151.0830  134.9870  159.8365 H   0  0  0  0  0  0  0  0  0  0  0  0  # atno 6907 bound_to 6896
  152.5421  134.2158  159.8778 H   0  0  0  0  0  0  0  0  0  0  0  0  # atno 6908 bound_to 6896
  151.2189  133.4470  159.2633 H   0  0  0  0  0  0  0  0  0  0  0  0  # atno 6909 bound_to 6896
  146.0805  140.6075  142.8910 H   0  0  0  0  0  0  0  0  0  0  0  0  # atno 7974 bound_to 7965
  154.6542  140.2576  155.7179 H   0  0  0  0  0  0  0  0  0  0  0  0  # atno 8008 bound_to 7997
  156.2589  140.2861  156.0910 H   0  0  0  0  0  0  0  0  0  0  0  0  # atno 8009 bound_to 7997
  155.1404  140.0380  157.2787 H   0  0  0  0  0  0  0  0  0  0  0  0  # atno 8010 bound_to 7997
  140.1597  143.4130  152.1435 H   0  0  0  0  0  0  0  0  0  0  0  0  # atno 10167 bound_to 10162
  155.9991  130.4755  150.4670 H   0  0  0  0  0  0  0  0  0  0  0  0  # atno 10718 bound_to 10713
  153.4196  135.7009  153.6303 H   0  0  0  0  0  0  0  0  0  0  0  0  # atno 10763 bound_to 10752
  153.4763  135.3703  155.2418 H   0  0  0  0  0  0  0  0  0  0  0  0  # atno 10764 bound_to 10752
  154.8721  135.4055  154.3562 H   0  0  0  0  0  0  0  0  0  0  0  0  # atno 10765 bound_to 10752
  140.1528  134.4440  155.8370 H   0  0  0  0  0  0  0  0  0  0  0  0  # atno 11005 bound_to 11000
  144.7290  140.4613  143.6952 LP  0  0  0  0  0  0  0  0  0  0  0  0  # atno 17320 bound_to 7965
  145.6227  139.1526  143.3013 LP  0  0  0  0  0  0  0  0  0  0  0  0  # atno 17321 bound_to 7965
  139.5387  144.7235  151.4807 LP  0  0  0  0  0  0  0  0  0  0  0  0  # atno 17342 bound_to 10162
  140.6651  143.8416  150.6932 LP  0  0  0  0  0  0  0  0  0  0  0  0  # atno 17343 bound_to 10162
  157.2688  131.0583  151.2273 LP  0  0  0  0  0  0  0  0  0  0  0  0  # atno 17370 bound_to 10713
  157.3361  130.7009  149.6353 LP  0  0  0  0  0  0  0  0  0  0  0  0  # atno 17371 bound_to 10713
  141.2201  133.6879  156.7453 LP  0  0  0  0  0  0  0  0  0  0  0  0  # atno 17394 bound_to 11000
  140.2584  134.8486  157.3735 LP  0  0  0  0  0  0  0  0  0  0  0  0  # atno 17395 bound_to 11000

$$$$
