AV-unprocessed.smi:1179|AV-procd|sdf|4959|dock3
  -GOLD-   22720 3553D 1   1.00000     0.00000
 Structure written by MMmdl.
 47 48  0  0  0  0  0  0  0  0  2 V2000
  151.7209  138.0923  154.4578 C   0  0  0  0  0  0  0  0  0  0  0  0
  151.1312  139.4097  154.8676 C   0  0  0  0  0  0  0  0  0  0  0  0
  151.5535  140.2784  155.9126 C   0  0  0  0  0  0  0  0  0  0  0  0
  150.6798  141.3276  155.8538 C   0  0  0  0  0  0  0  0  0  0  0  0
  150.5994  142.5628  156.6893 C   0  0  0  0  0  0  0  0  0  0  0  0
  149.8014  141.0605  154.8187 N   0  0  0  0  0  0  0  0  0  0  0  0
  148.6843  141.8566  154.3337 C   0  0  0  0  0  0  0  0  0  0  0  0
  147.4697  140.9812  154.0192 C   0  0  0  0  0  0  0  0  0  0  0  0
  146.4184  141.1394  154.6396 O   0  0  0  0  0  0  0  0  0  0  0  0
  147.6260  140.0594  153.0560 N   0  0  0  0  0  0  0  0  0  0  0  0
  146.5953  139.1287  152.6143 C   0  0  0  0  0  0  0  0  0  0  0  0
  146.5631  137.8606  153.4900 C   0  0  0  0  0  0  0  0  0  0  0  0
  146.3227  136.6301  152.6945 N   0  3  2  0  0  0  0  0  0  0  0  0
  145.2741  136.8250  151.6603 C   0  0  0  0  0  0  0  0  0  0  0  0
  145.1455  135.5861  150.7556 C   0  0  0  0  0  0  0  0  0  0  0  0
  144.8785  134.3006  151.5596 C   0  0  2  0  0  0  0  0  0  0  0  0
  143.4381  134.2203  152.0947 C   0  0  0  0  0  0  0  0  0  0  0  0
  145.9347  134.1633  152.6711 C   0  0  0  0  0  0  0  0  0  0  0  0
  146.0434  135.4340  153.5332 C   0  0  0  0  0  0  0  0  0  0  0  0
  150.0835  139.8849  154.2149 N   0  0  0  0  0  0  0  0  0  0  0  0
  152.5025  137.7778  155.1496 H   0  0  0  0  0  0  0  0  0  0  0  0
  152.1630  138.1532  153.4631 H   0  0  0  0  0  0  0  0  0  0  0  0
  150.9619  137.3098  154.4389 H   0  0  0  0  0  0  0  0  0  0  0  0
  152.3743  140.1497  156.6026 H   0  0  0  0  0  0  0  0  0  0  0  0
  151.3874  142.5758  157.4425 H   0  0  0  0  0  0  0  0  0  0  0  0
  149.6414  142.6206  157.2063 H   0  0  0  0  0  0  0  0  0  0  0  0
  150.7089  143.4565  156.0747 H   0  0  0  0  0  0  0  0  0  0  0  0
  148.4168  142.6041  155.0824 H   0  0  0  0  0  0  0  0  0  0  0  0
  148.9963  142.4009  153.4416 H   0  0  0  0  0  0  0  0  0  0  0  0
  148.5254  140.0025  152.5986 H   0  0  0  0  0  0  0  0  0  0  0  0
  145.6338  139.6400  152.6662 H   0  0  0  0  0  0  0  0  0  0  0  0
  146.7629  138.8887  151.5640 H   0  0  0  0  0  0  0  0  0  0  0  0
  147.4865  137.7503  154.0607 H   0  0  0  0  0  0  0  0  0  0  0  0
  145.7628  137.9791  154.2221 H   0  0  0  0  0  0  0  0  0  0  0  0
  144.3210  137.0507  152.1406 H   0  0  0  0  0  0  0  0  0  0  0  0
  145.5250  137.6876  151.0418 H   0  0  0  0  0  0  0  0  0  0  0  0
  144.3577  135.7405  150.0173 H   0  0  0  0  0  0  0  0  0  0  0  0
  146.0701  135.4664  150.1890 H   0  0  0  0  0  0  0  0  0  0  0  0
  145.0018  133.4551  150.8812 H   0  0  0  0  0  0  0  0  0  0  0  0
  143.2096  135.0303  152.7867 H   0  0  0  0  0  0  0  0  0  0  0  0
  143.2699  133.2803  152.6211 H   0  0  0  0  0  0  0  0  0  0  0  0
  142.7161  134.2701  151.2793 H   0  0  0  0  0  0  0  0  0  0  0  0
  145.7106  133.3013  153.3009 H   0  0  0  0  0  0  0  0  0  0  0  0
  146.9058  133.9599  152.2174 H   0  0  0  0  0  0  0  0  0  0  0  0
  146.8375  135.2893  154.2642 H   0  0  0  0  0  0  0  0  0  0  0  0
  145.1251  135.5899  154.1011 H   0  0  0  0  0  0  0  0  0  0  0  0
  147.1787  136.4444  152.1919 H   0  0  0  0  0  0  0  0  0  0  0  0
  1  2  1  0  0  0  0
  1 21  1  0  0  0  0
  1 22  1  0  0  0  0
  1 23  1  0  0  0  0
  2 20  2  0  0  0  0
  2  3  1  0  0  0  0
  3  4  2  0  0  0  0
  3 24  1  0  0  0  0
  4  5  1  0  0  0  0
  4  6  1  0  0  0  0
  5 25  1  0  0  0  0
  5 26  1  0  0  0  0
  5 27  1  0  0  0  0
  6  7  1  0  0  0  0
  6 20  1  0  0  0  0
  7  8  1  0  0  0  0
  7 28  1  0  0  0  0
  7 29  1  0  0  0  0
  8  9  2  0  0  0  0
  8 10  1  0  0  0  0
 10 11  1  0  0  0  0
 10 30  1  0  0  0  0
 11 12  1  0  0  0  0
 11 31  1  0  0  0  0
 11 32  1  0  0  0  0
 12 13  1  0  0  0  0
 12 33  1  0  0  0  0
 12 34  1  0  0  0  0
 13 19  1  0  0  0  0
 13 14  1  0  0  0  0
 13 47  1  0  0  0  0
 14 15  1  0  0  0  0
 14 35  1  0  0  0  0
 14 36  1  0  0  0  0
 15 16  1  0  0  0  0
 15 37  1  0  0  0  0
 15 38  1  0  0  0  0
 16 17  1  0  0  0  0
 16 18  1  0  0  0  0
 16 39  1  0  0  0  0
 17 40  1  0  0  0  0
 17 41  1  0  0  0  0
 17 42  1  0  0  0  0
 18 19  1  0  0  0  0
 18 43  1  0  0  0  0
 18 44  1  0  0  0  0
 19 45  1  0  0  0  0
 19 46  1  0  0  0  0
M  CHG  1  13   1
M  END
> <s_m_source_file>
AV-unprocessed.smi

> <i_m_source_file_index>
1179

> <i_lp_mmshare_version>
43012

> <i_f3d_flags>
0

> <s_epik_input>
W0NIM11jMVtjSF1jKFtDSDNdKW4objEpW0NIMl1DKD1PKVtOSF1bQ0gyXVtDSDJdTjJbQ0gyXVtDSDJdW0NIXShbQ0gzXSlbQ0gyXVtDSDJdMg==

> <s_epik_cmdline>
J2VwaWtfcHl0aG9uJywgJy1waCcsICc3LjAnLCAnLXRuJywgJzgnLCAnLW1hJywgJzIwMCcsICctbWV0YWxfYmluZGluZycsICctaW1hZScsICc8aW5maWxlLm1hZT4nLCAnLW9tYWUnLCAnPG91dGZpbGUubWFlPic=

> <r_lp_tautomer_probability>
1

> <r_epik_Ionization_Penalty>
0.00206343

> <r_epik_Ionization_Penalty_Charging>
0.00187095

> <r_epik_Ionization_Penalty_Neutral>
0.000192474

> <r_epik_State_Penalty>
-0

> <r_epik_Charging_Adjusted_Penalty>
0.00187095

> <i_epik_Tot_Q>
1

> <i_epik_Tot_abs_Q>
1

> <r_epik_Metal_State_Penalty>
-0

> <b_epik_Metal_Only>
0

> <s_lp_Force_Field>
OPLS_2005

> <r_lp_Energy>
16.047

> <b_lp_Chiralities_Consistent>
1

> <s_lp_Variant>
AV-unprocessed.smi:1179-2

> <Gold.Version>
5.8.1

> <Gold.Id.Protein>
6NUR|6NUR_protein|mol2

> <Gold.PLP.Fitness>
46.7074

> <Gold.PLP.PLP>
-39.2763

> <Gold.PLP.part.hbond>
-3.0000

> <Gold.PLP.part.metal>
0.0000

> <Gold.PLP.part.buried>
0.1279

> <Gold.PLP.part.nonpolar>
-36.5251

> <Gold.PLP.part.repulsive>
0.3224

> <Gold.PLP.ligand.clash>
0.0000

> <Gold.PLP.ligand.torsion>
0.8017

> <Gold.PLP.Chemscore.Hbond>
3.0000

> <Gold.PLP.Chemscore.CHOScore>
0.0000

> <Gold.PLP.Chemscore.Metal>
0.0000

> <Gold.Chemscore.Hbonds>
donor molecule, donor type, donor heavy atom, donor atom, acceptor molecule, acceptor atom, score
      L1  H    10    30       P1  7957  1.00
      L1  H    13    47       P1  7948  2.00

> <Gold.PLP.Chemscore.Internal.Correction>
0.0344

> <Gold.Rescore>
     Score         DG    S(hbond)    S(metal)    S(lipo)     H(rot)  DE(clash)    DE(int)     intcor
     14.67     -17.16       1.83        0.00      84.14       1.67       0.02       2.48       ----

> <Gold.Chemscore.Fitness>
14.6682

> <Gold.Chemscore.DG>
-17.1649

> <Gold.Chemscore.ZeroCoef>
-5.4800

> <Gold.Chemscore.Hbond>
1.8277

> <Gold.Chemscore.Metal>
0.0000

> <Gold.Chemscore.Lipo>
84.1417

> <Gold.Chemscore.Internal_Hbond>
0.0000

> <Gold.Chemscore.DEClash>
0.0211

> <Gold.Chemscore.DEInternal>
2.4755

> <Gold.Chemscore.Rot>
1.6657

> <Gold.Chemscore.Internal.Correction>
   9.000000E+99

> <Gold.Chemscore.Hbonds>
donor molecule, donor type, donor heavy atom, donor atom, acceptor molecule, acceptor atom, score
      L1  H    10    30       P1  7957  0.97
      L1  H    13    47       P1  7948  1.00

> <Gold.Chemscore.Hbond.Weighted>
-6.1044

> <Gold.Chemscore.Metal.Weighted>
-0.0000

> <Gold.Chemscore.Lipo.Weighted>
-9.8446

> <Gold.Chemscore.Internal_Hbond.Weighted>
0.0000

> <Gold.Chemscore.DEClash.Weighted>
0.0211

> <Gold.Chemscore.DEInternal.Weighted>
2.4755

> <Gold.Chemscore.Rot.Weighted>
4.2641

> <Gold.Chemscore.Internal.Correction.Weighted>
   9.000000E+99

> <Gold.Protein.RotatedTorsions>
[ 6907 6896 6895 6894 ] final  174.34 input  -60.11 | X-H torsion
[ 7974 7965 7964 7962 ] final -158.93 input  175.53 | X-H torsion
[ 8008 7997 7996 7995 ] final -143.92 input   59.86 | X-H torsion
[ 10167 10162 10161 10158 ] final   79.59 input  -65.29 | X-H torsion
[ 10718 10713 10712 10709 ] final  131.79 input   66.30 | X-H torsion
[ 10763 10752 10751 10750 ] final -170.19 input  -60.55 | X-H torsion
[ 11005 11000 10999 10996 ] final  176.24 input  -57.11 | X-H torsion

> <Gold.Protein.ActiveResidues>
 VAL166  LYS551  ARG553  GLY616  TRP617  ASP618  TYR619  PRO620  LYS621  CYS622 
 ASP623  PHE694  ASN695  SER759  ASP760  ASP761  ALA762  ILE779  LEU786  VAL792 
 PHE793  MET794  SER795  GLU796  ALA797  LYS798  CYS799  TRP800  GLU811  SER814 

> <Gold.Protein.RotatedAtoms>
  151.7539  133.3329  159.3398 H   0  0  0  0  0  0  0  0  0  0  0  0  # atno 6907 bound_to 6896
  150.7524  134.6167  159.6124 H   0  0  0  0  0  0  0  0  0  0  0  0  # atno 6908 bound_to 6896
  152.3450  134.7085  160.0304 H   0  0  0  0  0  0  0  0  0  0  0  0  # atno 6909 bound_to 6896
  144.7486  140.3758  143.6066 H   0  0  0  0  0  0  0  0  0  0  0  0  # atno 7974 bound_to 7965
  155.5184  140.0589  157.2911 H   0  0  0  0  0  0  0  0  0  0  0  0  # atno 8008 bound_to 7997
  154.4526  140.1957  156.0419 H   0  0  0  0  0  0  0  0  0  0  0  0  # atno 8009 bound_to 7997
  156.0736  140.3256  155.7610 H   0  0  0  0  0  0  0  0  0  0  0  0  # atno 8010 bound_to 7997
  139.9587  144.5976  150.8092 H   0  0  0  0  0  0  0  0  0  0  0  0  # atno 10167 bound_to 10162
  157.4933  131.1091  150.9526 H   0  0  0  0  0  0  0  0  0  0  0  0  # atno 10718 bound_to 10713
  154.6442  135.2902  155.0066 H   0  0  0  0  0  0  0  0  0  0  0  0  # atno 10763 bound_to 10752
  154.1182  135.6552  153.4902 H   0  0  0  0  0  0  0  0  0  0  0  0  # atno 10764 bound_to 10752
  153.0342  135.5281  154.7322 H   0  0  0  0  0  0  0  0  0  0  0  0  # atno 10765 bound_to 10752
  140.3709  134.7030  157.4391 H   0  0  0  0  0  0  0  0  0  0  0  0  # atno 11005 bound_to 11000
  145.7030  139.1666  143.2582 LP  0  0  0  0  0  0  0  0  0  0  0  0  # atno 17320 bound_to 7965
  146.1402  140.7068  142.9370 LP  0  0  0  0  0  0  0  0  0  0  0  0  # atno 17321 bound_to 7965
  140.7560  143.3057  151.2968 LP  0  0  0  0  0  0  0  0  0  0  0  0  # atno 17342 bound_to 10162
  139.6571  144.0257  152.2667 LP  0  0  0  0  0  0  0  0  0  0  0  0  # atno 17343 bound_to 10162
  157.0221  130.5678  149.5332 LP  0  0  0  0  0  0  0  0  0  0  0  0  # atno 17370 bound_to 10713
  156.0186  130.5281  150.8209 LP  0  0  0  0  0  0  0  0  0  0  0  0  # atno 17371 bound_to 10713
  140.0552  134.6073  155.8813 LP  0  0  0  0  0  0  0  0  0  0  0  0  # atno 17394 bound_to 11000
  141.1955  133.6587  156.5644 LP  0  0  0  0  0  0  0  0  0  0  0  0  # atno 17395 bound_to 11000

$$$$
