AV-unprocessed.smi:1648|AV-procd|sdf|6632|dock8
  -GOLD-   22720 7333D 1   1.00000     0.00000
 Structure written by MMmdl.
 41 41  0  0  0  0  0  0  0  0  1 V2000
  143.1457  140.8058  155.9814 C   0  0  0  0  0  0  0  0  0  0  0  0
  142.3942  139.5898  155.4363 C   0  0  0  0  0  0  0  0  0  0  0  0
  142.0678  138.6882  156.2048 O   0  0  0  0  0  0  0  0  0  0  0  0
  142.1010  139.5284  154.1254 N   0  0  0  0  0  0  0  0  0  0  0  0
  141.3936  138.4583  153.4145 C   0  0  1  0  0  0  0  0  0  0  0  0
  142.3340  137.2442  153.2739 C   0  0  0  0  0  0  0  0  0  0  0  0
  142.0032  136.1418  153.7129 O   0  0  0  0  0  0  0  0  0  0  0  0
  143.5046  137.4697  152.6558 N   0  0  0  0  0  0  0  0  0  0  0  0
  144.5780  136.4953  152.4665 C   0  0  2  0  0  0  0  0  0  0  0  0
  145.8913  137.1145  152.9637 C   0  0  0  0  0  0  0  0  0  0  0  0
  144.6922  136.0597  150.9890 C   0  0  0  0  0  0  0  0  0  0  0  0
  145.0479  134.6608  150.8292 N   0  0  0  0  0  0  0  0  0  0  0  0
  146.2363  134.0480  151.2060 C   0  0  0  0  0  0  0  0  0  0  0  0
  146.1270  132.7230  150.8496 C   0  0  0  0  0  0  0  0  0  0  0  0
  144.8969  132.5034  150.2346 N   0  0  0  0  0  0  0  0  0  0  0  0
  144.3186  133.6971  150.2501 C   0  0  0  0  0  0  0  0  0  0  0  0
  140.1292  138.0605  154.2332 C   0  0  0  0  0  0  0  0  0  0  0  0
  139.3512  136.8880  153.6018 C   0  0  0  0  0  0  0  0  0  0  0  0
  139.1642  139.2474  154.4291 C   0  0  0  0  0  0  0  0  0  0  0  0
  144.1241  140.9015  155.5105 H   0  0  0  0  0  0  0  0  0  0  0  0
  143.3020  140.7081  157.0562 H   0  0  0  0  0  0  0  0  0  0  0  0
  142.5804  141.7214  155.8081 H   0  0  0  0  0  0  0  0  0  0  0  0
  142.3871  140.3145  153.5599 H   0  0  0  0  0  0  0  0  0  0  0  0
  141.0841  138.8093  152.4286 H   0  0  0  0  0  0  0  0  0  0  0  0
  143.6814  138.4048  152.3184 H   0  0  0  0  0  0  0  0  0  0  0  0
  144.3876  135.6166  153.0859 H   0  0  0  0  0  0  0  0  0  0  0  0
  146.7161  136.4062  152.8792 H   0  0  0  0  0  0  0  0  0  0  0  0
  145.8166  137.4062  154.0120 H   0  0  0  0  0  0  0  0  0  0  0  0
  146.1552  138.0024  152.3879 H   0  0  0  0  0  0  0  0  0  0  0  0
  143.7582  136.2534  150.4592 H   0  0  0  0  0  0  0  0  0  0  0  0
  145.4614  136.6475  150.4866 H   0  0  0  0  0  0  0  0  0  0  0  0
  147.0355  134.5878  151.6919 H   0  0  0  0  0  0  0  0  0  0  0  0
  146.8365  131.9194  150.9803 H   0  0  0  0  0  0  0  0  0  0  0  0
  143.3389  133.8729  149.8306 H   0  0  0  0  0  0  0  0  0  0  0  0
  140.4469  137.7411  155.2277 H   0  0  0  0  0  0  0  0  0  0  0  0
  139.0253  137.1299  152.5897 H   0  0  0  0  0  0  0  0  0  0  0  0
  138.4629  136.6467  154.1861 H   0  0  0  0  0  0  0  0  0  0  0  0
  139.9476  135.9793  153.5491 H   0  0  0  0  0  0  0  0  0  0  0  0
  138.8363  139.6513  153.4707 H   0  0  0  0  0  0  0  0  0  0  0  0
  139.6213  140.0597  154.9941 H   0  0  0  0  0  0  0  0  0  0  0  0
  138.2746  138.9428  154.9810 H   0  0  0  0  0  0  0  0  0  0  0  0
  1  2  1  0  0  0  0
  1 20  1  0  0  0  0
  1 21  1  0  0  0  0
  1 22  1  0  0  0  0
  2  3  2  0  0  0  0
  2  4  1  0  0  0  0
  4  5  1  0  0  0  0
  4 23  1  0  0  0  0
  5  6  1  0  0  0  0
  5 17  1  0  0  0  0
  5 24  1  0  0  0  0
  6  7  2  0  0  0  0
  6  8  1  0  0  0  0
  8  9  1  0  0  0  0
  8 25  1  0  0  0  0
  9 10  1  0  0  0  0
  9 11  1  0  0  0  0
  9 26  1  0  0  0  0
 10 27  1  0  0  0  0
 10 28  1  0  0  0  0
 10 29  1  0  0  0  0
 11 12  1  0  0  0  0
 11 30  1  0  0  0  0
 11 31  1  0  0  0  0
 12 16  1  0  0  0  0
 12 13  1  0  0  0  0
 13 14  2  0  0  0  0
 13 32  1  0  0  0  0
 14 15  1  0  0  0  0
 14 33  1  0  0  0  0
 15 16  2  0  0  0  0
 16 34  1  0  0  0  0
 17 18  1  0  0  0  0
 17 19  1  0  0  0  0
 17 35  1  0  0  0  0
 18 36  1  0  0  0  0
 18 37  1  0  0  0  0
 18 38  1  0  0  0  0
 19 39  1  0  0  0  0
 19 40  1  0  0  0  0
 19 41  1  0  0  0  0
M  END
> <s_m_source_file>
AV-unprocessed.smi

> <i_m_source_file_index>
1648

> <i_lp_mmshare_version>
43012

> <i_f3d_flags>
0

> <s_epik_input>
W0NIM11DKD1PKVtOSF1bQ0BASF0oW0NIXShbQ0gzXSlbQ0gzXSlDKD1PKVtOSF1bQ0BIXShbQ0gzXSlbQ0gyXW4xW2NIXVtjSF1uW2NIXTE=

> <s_epik_cmdline>
J2VwaWtfcHl0aG9uJywgJy1waCcsICc3LjAnLCAnLXRuJywgJzgnLCAnLW1hJywgJzIwMCcsICctbWV0YWxfYmluZGluZycsICctaW1hZScsICc8aW5maWxlLm1hZT4nLCAnLW9tYWUnLCAnPG91dGZpbGUubWFlPic=

> <r_lp_tautomer_probability>
1

> <r_epik_Ionization_Penalty>
0.628885

> <r_epik_Ionization_Penalty_Charging>
0.628884

> <r_epik_Ionization_Penalty_Neutral>
4.35155e-07

> <r_epik_State_Penalty>
0.64556

> <r_epik_Charging_Adjusted_Penalty>
1.27444

> <i_epik_Tot_Q>
0

> <i_epik_Tot_abs_Q>
0

> <r_epik_Metal_State_Penalty>
0.30874

> <b_epik_Metal_Only>
0

> <s_lp_Force_Field>
OPLS_2005

> <r_lp_Energy>
9.77282

> <b_lp_Chiralities_Consistent>
1

> <s_lp_Variant>
AV-unprocessed.smi:1648-6

> <Gold.Version>
5.8.1

> <Gold.Id.Protein>
6NUR|6NUR_protein|mol2

> <Gold.PLP.Fitness>
40.5853

> <Gold.PLP.PLP>
-28.1975

> <Gold.PLP.part.hbond>
-2.5996

> <Gold.PLP.part.metal>
0.0000

> <Gold.PLP.part.buried>
-1.7337

> <Gold.PLP.part.nonpolar>
-23.4026

> <Gold.PLP.part.repulsive>
0.3120

> <Gold.PLP.ligand.clash>
0.0000

> <Gold.PLP.ligand.torsion>
0.7847

> <Gold.PLP.Chemscore.Hbond>
1.6400

> <Gold.PLP.Chemscore.CHOScore>
3.0000

> <Gold.PLP.Chemscore.Metal>
0.0000

> <Gold.Chemscore.Hbonds>
donor molecule, donor type, donor heavy atom, donor atom, acceptor molecule, acceptor atom, score
      L1  H     4    23       P1 10175  0.64
      L1  H     8    25       P1 10175  0.99
      L1  C    13    32       P1  7948  1.00
      L1  C    14    33       P1 10747  1.00
      L1  C    16    34       P1 10186  1.00

> <Gold.PLP.Chemscore.Internal.Correction>
0.0373

> <Gold.Rescore>
     Score         DG    S(hbond)    S(metal)    S(lipo)     H(rot)  DE(clash)    DE(int)     intcor
      6.63     -10.61       1.65        0.00      51.92       2.52       0.28       3.70       ----

> <Gold.Chemscore.Fitness>
6.6290

> <Gold.Chemscore.DG>
-10.6086

> <Gold.Chemscore.ZeroCoef>
-5.4800

> <Gold.Chemscore.Hbond>
1.6495

> <Gold.Chemscore.Metal>
0.0000

> <Gold.Chemscore.Lipo>
51.9178

> <Gold.Chemscore.Internal_Hbond>
0.0000

> <Gold.Chemscore.DEClash>
0.2763

> <Gold.Chemscore.DEInternal>
3.7033

> <Gold.Chemscore.Rot>
2.5216

> <Gold.Chemscore.Internal.Correction>
   9.000000E+99

> <Gold.Chemscore.Hbonds>
donor molecule, donor type, donor heavy atom, donor atom, acceptor molecule, acceptor atom, score
      L1  H     4    23       P1 10175  0.38
      L1  H     8    25       P1 10175  0.91

> <Gold.Chemscore.Hbond.Weighted>
-5.5095

> <Gold.Chemscore.Metal.Weighted>
-0.0000

> <Gold.Chemscore.Lipo.Weighted>
-6.0744

> <Gold.Chemscore.Internal_Hbond.Weighted>
0.0000

> <Gold.Chemscore.DEClash.Weighted>
0.2763

> <Gold.Chemscore.DEInternal.Weighted>
3.7033

> <Gold.Chemscore.Rot.Weighted>
6.4553

> <Gold.Chemscore.Internal.Correction.Weighted>
   9.000000E+99

> <Gold.Protein.RotatedTorsions>
[ 6907 6896 6895 6894 ] final -147.77 input  -60.11 | X-H torsion
[ 7974 7965 7964 7962 ] final  -76.53 input  175.53 | X-H torsion
[ 8008 7997 7996 7995 ] final  -90.50 input   59.86 | X-H torsion
[ 10167 10162 10161 10158 ] final   -9.73 input  -65.29 | X-H torsion
[ 10718 10713 10712 10709 ] final  -23.73 input   66.30 | X-H torsion
[ 10763 10752 10751 10750 ] final   91.97 input  -60.55 | X-H torsion
[ 11005 11000 10999 10996 ] final   56.80 input  -57.11 | X-H torsion

> <Gold.Protein.ActiveResidues>
 VAL166  LYS551  ARG553  GLY616  TRP617  ASP618  TYR619  PRO620  LYS621  CYS622 
 ASP623  PHE694  ASN695  SER759  ASP760  ASP761  ALA762  ILE779  LEU786  VAL792 
 PHE793  MET794  SER795  GLU796  ALA797  LYS798  CYS799  TRP800  GLU811  SER814 

> <Gold.Protein.RotatedAtoms>
  151.1604  133.4849  159.2594 H   0  0  0  0  0  0  0  0  0  0  0  0  # atno 6907 bound_to 6896
  151.1460  135.0203  159.8657 H   0  0  0  0  0  0  0  0  0  0  0  0  # atno 6908 bound_to 6896
  152.5463  134.1492  159.8565 H   0  0  0  0  0  0  0  0  0  0  0  0  # atno 6909 bound_to 6896
  145.6116  140.9385  143.1186 H   0  0  0  0  0  0  0  0  0  0  0  0  # atno 7974 bound_to 7965
  154.6994  140.0529  157.0443 H   0  0  0  0  0  0  0  0  0  0  0  0  # atno 8008 bound_to 7997
  155.0706  140.3199  155.4613 H   0  0  0  0  0  0  0  0  0  0  0  0  # atno 8009 bound_to 7997
  156.2755  140.2082  156.5834 H   0  0  0  0  0  0  0  0  0  0  0  0  # atno 8010 bound_to 7997
  140.7095  143.5826  150.8976 H   0  0  0  0  0  0  0  0  0  0  0  0  # atno 10167 bound_to 10162
  156.4871  130.4558  149.6777 H   0  0  0  0  0  0  0  0  0  0  0  0  # atno 10718 bound_to 10713
  153.2140  135.4378  155.0412 H   0  0  0  0  0  0  0  0  0  0  0  0  # atno 10763 bound_to 10752
  154.8215  135.3340  154.7026 H   0  0  0  0  0  0  0  0  0  0  0  0  # atno 10764 bound_to 10752
  153.7462  135.7001  153.5011 H   0  0  0  0  0  0  0  0  0  0  0  0  # atno 10765 bound_to 10752
  140.0501  134.5749  155.9274 H   0  0  0  0  0  0  0  0  0  0  0  0  # atno 11005 bound_to 11000
  144.7267  139.7852  143.7362 LP  0  0  0  0  0  0  0  0  0  0  0  0  # atno 17320 bound_to 7965
  146.1500  139.4580  143.0055 LP  0  0  0  0  0  0  0  0  0  0  0  0  # atno 17321 bound_to 7965
  139.9552  143.6227  152.3018 LP  0  0  0  0  0  0  0  0  0  0  0  0  # atno 17342 bound_to 10162
  139.6760  144.7658  151.1696 LP  0  0  0  0  0  0  0  0  0  0  0  0  # atno 17343 bound_to 10162
  156.3463  130.7408  151.2361 LP  0  0  0  0  0  0  0  0  0  0  0  0  # atno 17370 bound_to 10713
  157.7477  131.0389  150.4527 LP  0  0  0  0  0  0  0  0  0  0  0  0  # atno 17371 bound_to 10713
  141.1926  133.6576  156.5510 LP  0  0  0  0  0  0  0  0  0  0  0  0  # atno 17394 bound_to 11000
  140.3930  134.7423  157.4733 LP  0  0  0  0  0  0  0  0  0  0  0  0  # atno 17395 bound_to 11000

$$$$
