AV-unprocessed.smi:2342|AV-procd|sdf|9354|dock6
  -GOLD-   2272012573D 1   1.00000     0.00000
 Structure written by MMmdl.
 38 38  0  0  0  0  0  0  0  0  2 V2000
  149.5492  138.0031  154.6181 C   0  0  0  0  0  0  0  0  0  0  0  0
  151.0797  137.8590  154.6405 C   0  0  2  0  0  0  0  0  0  0  0  0
  151.5548  136.9796  155.8252 C   0  0  0  0  0  0  0  0  0  0  0  0
  151.1891  137.5332  157.1256 N   0  0  0  0  0  0  0  0  0  0  0  0
  151.9856  138.2907  157.8949 C   0  0  0  0  0  0  0  0  0  0  0  0
  153.1792  138.4803  157.6611 O   0  0  0  0  0  0  0  0  0  0  0  0
  151.3213  138.9662  159.0949 C   0  0  0  0  0  0  0  0  0  0  0  0
  152.0692  140.2227  159.4372 C   0  0  0  0  0  0  0  0  0  0  0  0
  153.3497  140.3130  159.9211 C   0  0  0  0  0  0  0  0  0  0  0  0
  153.8504  141.9677  160.1231 S   0  0  0  0  0  0  0  0  0  0  0  0
  152.2666  142.4977  159.5452 C   0  0  0  0  0  0  0  0  0  0  0  0
  151.8399  143.9373  159.3877 C   0  0  0  0  0  0  0  0  0  0  0  0
  151.9176  144.6581  160.7475 C   0  0  0  0  0  0  0  0  0  0  0  0
  150.3820  144.0389  158.8895 C   0  0  0  0  0  0  0  0  0  0  0  0
  152.7363  144.6374  158.3479 C   0  0  0  0  0  0  0  0  0  0  0  0
  151.4652  141.4692  159.2450 N   0  0  0  0  0  0  0  0  0  0  0  0
  151.7363  139.2515  154.6500 C   0  0  0  0  0  0  0  0  0  0  0  0
  152.9866  139.2997  154.6502 O   0  0  0  0  0  0  0  0  0  0  0  0
  150.9746  140.2435  154.6513 O   0  5  0  0  0  0  0  0  0  0  0  0
  149.2201  138.6235  153.7835 H   0  0  0  0  0  0  0  0  0  0  0  0
  149.1759  138.4554  155.5378 H   0  0  0  0  0  0  0  0  0  0  0  0
  149.0702  137.0298  154.5107 H   0  0  0  0  0  0  0  0  0  0  0  0
  151.3807  137.3643  153.7155 H   0  0  0  0  0  0  0  0  0  0  0  0
  151.1088  135.9871  155.7529 H   0  0  0  0  0  0  0  0  0  0  0  0
  152.6342  136.8288  155.7728 H   0  0  0  0  0  0  0  0  0  0  0  0
  150.2212  137.4394  157.3989 H   0  0  0  0  0  0  0  0  0  0  0  0
  150.2782  139.1805  158.8581 H   0  0  0  0  0  0  0  0  0  0  0  0
  151.3143  138.2799  159.9425 H   0  0  0  0  0  0  0  0  0  0  0  0
  154.0335  139.5092  160.1492 H   0  0  0  0  0  0  0  0  0  0  0  0
  151.6138  145.7019  160.6635 H   0  0  0  0  0  0  0  0  0  0  0  0
  152.9304  144.6458  161.1516 H   0  0  0  0  0  0  0  0  0  0  0  0
  151.2663  144.1848  161.4833 H   0  0  0  0  0  0  0  0  0  0  0  0
  149.6851  143.5750  159.5888 H   0  0  0  0  0  0  0  0  0  0  0  0
  150.2532  143.5561  157.9200 H   0  0  0  0  0  0  0  0  0  0  0  0
  150.0749  145.0789  158.7742 H   0  0  0  0  0  0  0  0  0  0  0  0
  152.4397  145.6764  158.2015 H   0  0  0  0  0  0  0  0  0  0  0  0
  152.6827  144.1392  157.3792 H   0  0  0  0  0  0  0  0  0  0  0  0
  153.7817  144.6400  158.6588 H   0  0  0  0  0  0  0  0  0  0  0  0
  1  2  1  0  0  0  0
  1 20  1  0  0  0  0
  1 21  1  0  0  0  0
  1 22  1  0  0  0  0
  2  3  1  0  0  0  0
  2 17  1  0  0  0  0
  2 23  1  0  0  0  0
  3  4  1  0  0  0  0
  3 24  1  0  0  0  0
  3 25  1  0  0  0  0
  4  5  1  0  0  0  0
  4 26  1  0  0  0  0
  5  6  2  0  0  0  0
  5  7  1  0  0  0  0
  7  8  1  0  0  0  0
  7 27  1  0  0  0  0
  7 28  1  0  0  0  0
  8 16  1  0  0  0  0
  8  9  2  0  0  0  0
  9 10  1  0  0  0  0
  9 29  1  0  0  0  0
 10 11  1  0  0  0  0
 11 12  1  0  0  0  0
 11 16  2  0  0  0  0
 12 13  1  0  0  0  0
 12 14  1  0  0  0  0
 12 15  1  0  0  0  0
 13 30  1  0  0  0  0
 13 31  1  0  0  0  0
 13 32  1  0  0  0  0
 14 33  1  0  0  0  0
 14 34  1  0  0  0  0
 14 35  1  0  0  0  0
 15 36  1  0  0  0  0
 15 37  1  0  0  0  0
 15 38  1  0  0  0  0
 17 18  2  0  0  0  0
 17 19  1  0  0  0  0
M  CHG  1  19  -1
M  END
> <s_m_source_file>
AV-unprocessed.smi

> <i_m_source_file_index>
2342

> <i_lp_mmshare_version>
43012

> <i_f3d_flags>
0

> <s_epik_input>
Tz1DKFtPSF0pW0NASF0oW0NIM10pW0NIMl1bTkhdQyg9TylbQ0gyXWMxW2NIXXNjKG4xKUMoW0NIM10pKFtDSDNdKVtDSDNd

> <s_epik_cmdline>
J2VwaWtfcHl0aG9uJywgJy1waCcsICc3LjAnLCAnLXRuJywgJzgnLCAnLW1hJywgJzIwMCcsICctbWV0YWxfYmluZGluZycsICctaW1hZScsICc8aW5maWxlLm1hZT4nLCAnLW9tYWUnLCAnPG91dGZpbGUubWFlPic=

> <r_epik_Ionization_Penalty>
0.00120065

> <r_epik_Ionization_Penalty_Charging>
0.00115909

> <r_epik_Ionization_Penalty_Neutral>
4.15663e-05

> <r_epik_State_Penalty>
0.00076313

> <r_epik_Charging_Adjusted_Penalty>
0.00192222

> <i_epik_Tot_Q>
-1

> <i_epik_Tot_abs_Q>
1

> <r_epik_Metal_State_Penalty>
-0

> <b_epik_Metal_Only>
0

> <s_lp_Force_Field>
OPLS_2005

> <r_lp_Energy>
-10.4991

> <b_lp_Chiralities_Consistent>
1

> <s_lp_Variant>
AV-unprocessed.smi:2342-1

> <Gold.Version>
5.8.1

> <Gold.Id.Protein>
6NUR|6NUR_protein|mol2

> <Gold.PLP.Fitness>
49.3952

> <Gold.PLP.PLP>
-39.0562

> <Gold.PLP.part.hbond>
-3.5893

> <Gold.PLP.part.metal>
0.0000

> <Gold.PLP.part.buried>
-3.7376

> <Gold.PLP.part.nonpolar>
-32.5086

> <Gold.PLP.part.repulsive>
0.1725

> <Gold.PLP.ligand.clash>
0.0000

> <Gold.PLP.ligand.torsion>
0.6139

> <Gold.PLP.Chemscore.Hbond>
3.8160

> <Gold.PLP.Chemscore.CHOScore>
0.0000

> <Gold.PLP.Chemscore.Metal>
0.0000

> <Gold.Chemscore.Hbonds>
donor molecule, donor type, donor heavy atom, donor atom, acceptor molecule, acceptor atom, score
      P1  H  7989  7998       L1    19  0.59
      P1  H  7997  8009       L1     6  0.15
      P1  H  7997  8010       L1    18  1.20

> <Gold.PLP.Chemscore.Internal.Correction>
0.1189

> <Gold.Rescore>
     Score         DG    S(hbond)    S(metal)    S(lipo)     H(rot)  DE(clash)    DE(int)     intcor
     17.24     -19.99       2.49        0.00     104.98       2.38       1.04       1.71       ----

> <Gold.Chemscore.Fitness>
17.2429

> <Gold.Chemscore.DG>
-19.9933

> <Gold.Chemscore.ZeroCoef>
-5.4800

> <Gold.Chemscore.Hbond>
2.4931

> <Gold.Chemscore.Metal>
0.0000

> <Gold.Chemscore.Lipo>
104.9768

> <Gold.Chemscore.Internal_Hbond>
0.0000

> <Gold.Chemscore.DEClash>
1.0398

> <Gold.Chemscore.DEInternal>
1.7106

> <Gold.Chemscore.Rot>
2.3812

> <Gold.Chemscore.Internal.Correction>
   9.000000E+99

> <Gold.Chemscore.Hbonds>
donor molecule, donor type, donor heavy atom, donor atom, acceptor molecule, acceptor atom, score
      P1  H  7989  7998       L1    19  0.06
      P1  H  7997  8009       L1     6  0.17
      P1  H  7997  8010       L1    18  0.58

> <Gold.Chemscore.Hbond.Weighted>
-8.3269

> <Gold.Chemscore.Metal.Weighted>
-0.0000

> <Gold.Chemscore.Lipo.Weighted>
-12.2823

> <Gold.Chemscore.Internal_Hbond.Weighted>
0.0000

> <Gold.Chemscore.DEClash.Weighted>
1.0398

> <Gold.Chemscore.DEInternal.Weighted>
1.7106

> <Gold.Chemscore.Rot.Weighted>
6.0959

> <Gold.Chemscore.Internal.Correction.Weighted>
   9.000000E+99

> <Gold.Protein.RotatedTorsions>
[ 6907 6896 6895 6894 ] final  -25.30 input  -60.11 | X-H torsion
[ 7974 7965 7964 7962 ] final  158.52 input  175.53 | X-H torsion
[ 8008 7997 7996 7995 ] final  129.96 input   59.86 | X-H torsion
[ 10167 10162 10161 10158 ] final   53.63 input  -65.29 | X-H torsion
[ 10718 10713 10712 10709 ] final   63.25 input   66.30 | X-H torsion
[ 10763 10752 10751 10750 ] final  115.02 input  -60.55 | X-H torsion
[ 11005 11000 10999 10996 ] final -119.67 input  -57.11 | X-H torsion

> <Gold.Protein.ActiveResidues>
 VAL166  LYS551  ARG553  GLY616  TRP617  ASP618  TYR619  PRO620  LYS621  CYS622 
 ASP623  PHE694  ASN695  SER759  ASP760  ASP761  ALA762  ILE779  LEU786  VAL792 
 PHE793  MET794  SER795  GLU796  ALA797  LYS798  CYS799  TRP800  GLU811  SER814 

> <Gold.Protein.RotatedAtoms>
  151.1772  135.0344  159.8776 H   0  0  0  0  0  0  0  0  0  0  0  0  # atno 6907 bound_to 6896
  152.5446  134.1104  159.8366 H   0  0  0  0  0  0  0  0  0  0  0  0  # atno 6908 bound_to 6896
  151.1217  133.5053  159.2634 H   0  0  0  0  0  0  0  0  0  0  0  0  # atno 6909 bound_to 6896
  144.7841  139.7490  143.6248 H   0  0  0  0  0  0  0  0  0  0  0  0  # atno 7974 bound_to 7965
  156.2946  140.2607  156.2684 H   0  0  0  0  0  0  0  0  0  0  0  0  # atno 8008 bound_to 7997
  154.9719  140.0391  157.2257 H   0  0  0  0  0  0  0  0  0  0  0  0  # atno 8009 bound_to 7997
  154.7851  140.2802  155.6039 H   0  0  0  0  0  0  0  0  0  0  0  0  # atno 8010 bound_to 7997
  140.2388  144.3607  150.6388 H   0  0  0  0  0  0  0  0  0  0  0  0  # atno 10167 bound_to 10162
  157.5958  130.9095  149.9692 H   0  0  0  0  0  0  0  0  0  0  0  0  # atno 10718 bound_to 10713
  153.5160  135.3608  155.2609 H   0  0  0  0  0  0  0  0  0  0  0  0  # atno 10763 bound_to 10752
  154.8738  135.4034  154.3315 H   0  0  0  0  0  0  0  0  0  0  0  0  # atno 10764 bound_to 10752
  153.3976  135.7074  153.6516 H   0  0  0  0  0  0  0  0  0  0  0  0  # atno 10765 bound_to 10752
  141.0199  134.0140  157.3297 H   0  0  0  0  0  0  0  0  0  0  0  0  # atno 11005 bound_to 11000
  146.2064  139.5391  142.9710 LP  0  0  0  0  0  0  0  0  0  0  0  0  # atno 17320 bound_to 7965
  145.5970  141.0361  143.2039 LP  0  0  0  0  0  0  0  0  0  0  0  0  # atno 17321 bound_to 7965
  140.6130  143.2170  151.6849 LP  0  0  0  0  0  0  0  0  0  0  0  0  # atno 17342 bound_to 10162
  139.5084  144.3611  152.0561 LP  0  0  0  0  0  0  0  0  0  0  0  0  # atno 17343 bound_to 10162
  156.1021  130.3655  150.0200 LP  0  0  0  0  0  0  0  0  0  0  0  0  # atno 17370 bound_to 10713
  156.8313  130.9393  151.3637 LP  0  0  0  0  0  0  0  0  0  0  0  0  # atno 17371 bound_to 10713
  139.9139  135.0194  156.7805 LP  0  0  0  0  0  0  0  0  0  0  0  0  # atno 17394 bound_to 11000
  140.6591  133.9661  155.7795 LP  0  0  0  0  0  0  0  0  0  0  0  0  # atno 17395 bound_to 11000

$$$$
