#       Name:                AV-unprocessed.smi:1978
#       Creating user name   scv26
#       Creation time:       Fri Mar 27 10:20:16 2020


#       File generated by GOLD software.
#

@<TRIPOS>MOLECULE
AV-unprocessed.smi:1978
    50    51     1
SMALL
NO_CHARGES


@<TRIPOS>ATOM
      1 ****        -4.9331   6.2305   3.0161 C.3            1 S1                 0.0000
      2 ****        -4.2716   4.9496   2.6393 C.2            1 S1                 0.0000
      3 ****        -3.3254   4.6303   1.7068 C.2            1 S1                 0.0000
      4 ****        -3.1586   3.2309   1.8845 C.2            1 S1                 0.0000
      5 ****        -2.2390   2.5042   1.0828 N.am           1 S1                 0.0000
      6 ****        -1.9843   1.1828   1.0790 C.2            1 S1                 0.0000
      7 ****        -2.5963   0.4261   1.8423 O.2            1 S1                 0.0000
      8 ****        -1.0261   0.8473   0.1725 N.pl3          1 S1                -1.0000
      9 ****        -0.5583  -0.5161  -0.0764 C.3            1 S1                 0.0000
     10 ****         0.7819  -0.4997  -0.8619 C.3            1 S1                 0.0000
     11 ****         0.6813   0.1055  -2.2859 C.3            1 S1                 0.0000
     12 ****         1.4221  -1.8612  -0.8491 N.4            1 S1                 1.0000
     13 ****         0.9341  -2.7762  -1.9310 C.3            1 S1                 0.0000
     14 ****         1.4087  -4.2181  -1.7180 C.3            1 S1                 0.0000
     15 ****         2.9353  -4.2653  -1.6777 C.3            1 S1                 0.0000
     16 ****         3.4407  -3.3256  -0.5808 C.3            1 S1                 0.0000
     17 ****         2.9227  -1.8779  -0.7515 C.3            1 S1                 0.0000
     18 ****         3.4829  -1.0373   0.4174 C.3            1 S1                 0.0000
     19 ****        -3.9310   2.7421   2.8437 N.2            1 S1                 0.0000
     20 ****        -4.6479   3.8408   3.3320 O.3            1 S1                 0.0000
     21 ****        -4.7146   7.0110   2.2871 H              1 S1                 0.0000
     22 ****        -4.5862   6.5713   3.9916 H              1 S1                 0.0000
     23 ****        -6.0152   6.1077   3.0649 H              1 S1                 0.0000
     24 ****        -2.8345   5.2918   1.0085 H              1 S1                 0.0000
     25 ****        -1.7088   3.0531   0.4229 H              1 S1                 0.0000
     26 ****        -0.3976  -1.0565   0.8579 H              1 S1                 0.0000
     27 ****        -1.2934  -1.1003  -0.6304 H              1 S1                 0.0000
     28 ****         1.4058   0.1867  -0.2985 H              1 S1                 0.0000
     29 ****         0.3749   1.1527  -2.2610 H              1 S1                 0.0000
     30 ****        -0.0305  -0.4216  -2.9234 H              1 S1                 0.0000
     31 ****         1.6504   0.0808  -2.7847 H              1 S1                 0.0000
     32 ****        -0.1550  -2.7774  -1.9784 H              1 S1                 0.0000
     33 ****         1.2888  -2.4273  -2.9018 H              1 S1                 0.0000
     34 ****         0.9953  -4.6134  -0.7891 H              1 S1                 0.0000
     35 ****         1.0384  -4.8552  -2.5216 H              1 S1                 0.0000
     36 ****         3.2783  -5.2836  -1.4921 H              1 S1                 0.0000
     37 ****         3.3455  -3.9658  -2.6431 H              1 S1                 0.0000
     38 ****         3.1312  -3.7125   0.3914 H              1 S1                 0.0000
     39 ****         4.5314  -3.3356  -0.5798 H              1 S1                 0.0000
     40 ****         3.3257  -1.4772  -1.6828 H              1 S1                 0.0000
     41 ****         4.5382  -1.2555   0.5837 H              1 S1                 0.0000
     42 ****         2.9558  -1.2475   1.3488 H              1 S1                 0.0000
     43 ****         3.4330   0.0340   0.2274 H              1 S1                 0.0000
     44 ****         1.1061  -2.2709   0.0186 H              1 S1                 0.0000
     45 ****        -3.2846   0.7953   2.4667 LP             1 S1                 0.0000
     46 ****        -2.4028  -0.5550   1.8350 LP             1 S1                 0.0000
     47 ****        -0.6127   1.5850  -0.3611 LP             1 S1                 0.0000
     48 ****        -3.9893   1.7927   3.1523 LP             1 S1                 0.0000
     49 ****        -5.6280   3.6842   3.2100 LP             1 S1                 0.0000
     50 ****        -4.4490   3.9674   4.3038 LP             1 S1                 0.0000
@<TRIPOS>BOND
    1    1    2 1     
    2    1   21 1     
    3    1   22 1     
    4    1   23 1     
    5    2   20 1     
    6    2    3 2     
    7    3    4 1     
    8    3   24 1     
    9    4    5 1     
   10    4   19 2     
   11    5    6 am    
   12    5   25 1     
   13    6    7 2     
   14    6    8 1     
   15    8    9 1     
   16    9   10 1     
   17    9   26 1     
   18    9   27 1     
   19   10   11 1     
   20   10   12 1     
   21   10   28 1     
   22   11   29 1     
   23   11   30 1     
   24   11   31 1     
   25   12   17 1     
   26   12   13 1     
   27   12   44 1     
   28   13   14 1     
   29   13   32 1     
   30   13   33 1     
   31   14   15 1     
   32   14   34 1     
   33   14   35 1     
   34   15   16 1     
   35   15   36 1     
   36   15   37 1     
   37   16   17 1     
   38   16   38 1     
   39   16   39 1     
   40   17   18 1     
   41   17   40 1     
   42   18   41 1     
   43   18   42 1     
   44   18   43 1     
   45   19   20 1     
   46    7   45 1     
   47    7   46 1     
   48    8   47 1     
   49   19   48 1     
   50   20   49 1     
   51   20   50 1     
@<TRIPOS>SUBSTRUCTURE
      1 S1             1
@<TRIPOS>SET
LONE_PAIRS      STATIC     ATOMS    <user>   **** ""
6 45 46 47 48 49 50
DONOR_HYDROGENS      STATIC     ATOMS    <user>   **** ""
2 25 44
ATOM$BLUE        STATIC     ATOMS    COLORGROUP SYSTEM
6 45 46 47 48 49 50
ATOM$RED        STATIC     ATOMS    COLORGROUP SYSTEM
2 25 44
