AV-unprocessed.smi:2612|AV-procd|sdf|10211|dock9
  -GOLD-   2272014213D 1   1.00000     0.00000
 Structure written by MMmdl.
 40 41  0  0  0  0  0  0  0  0  1 V2000
  145.5468  136.2214  151.9981 C   0  0  0  0  0  0  0  0  0  0  0  0
  146.1556  135.2288  151.1811 O   0  0  0  0  0  0  0  0  0  0  0  0
  145.6724  133.8802  151.2496 C   0  0  0  0  0  0  0  0  0  0  0  0
  146.3074  133.3447  152.5598 C   0  0  0  0  0  0  0  0  0  0  0  0
  147.7194  133.6960  152.6974 N   0  0  0  0  0  0  0  0  0  0  0  0
  148.5469  133.0922  153.6553 C   0  0  0  0  0  0  0  0  0  0  0  0
  149.4349  133.9122  154.3849 C   0  0  0  0  0  0  0  0  0  0  0  0
  150.2689  133.3209  155.3542 C   0  0  0  0  0  0  0  0  0  0  0  0
  150.1756  131.9310  155.5573 C   0  0  0  0  0  0  0  0  0  0  0  0
  151.2347  131.1152  156.7426 S   0  0  0  0  0  0  0  0  0  0  0  0
  150.1728  129.7810  157.4304 C   0  0  0  0  0  0  0  0  0  0  0  0
  152.3412  130.4840  156.0070 O   0  0  0  0  0  0  0  0  0  0  0  0
  151.5288  132.0678  157.8241 O   0  0  0  0  0  0  0  0  0  0  0  0
  149.2745  131.1862  154.7717 C   0  0  0  0  0  0  0  0  0  0  0  0
  148.4753  131.7523  153.8421 N   0  0  0  0  0  0  0  0  0  0  0  0
  144.1246  133.7657  151.2443 C   0  0  0  0  0  0  0  0  0  0  0  0
  143.6646  132.3005  151.1405 C   0  0  0  0  0  0  0  0  0  0  0  0
  144.2132  131.7049  149.9703 O   0  0  0  0  0  0  0  0  0  0  0  0
  145.6356  131.6579  149.9828 C   0  0  0  0  0  0  0  0  0  0  0  0
  146.2121  133.0852  150.0377 C   0  0  0  0  0  0  0  0  0  0  0  0
  145.9476  137.1968  151.7239 H   0  0  0  0  0  0  0  0  0  0  0  0
  145.7771  136.0670  153.0521 H   0  0  0  0  0  0  0  0  0  0  0  0
  144.4660  136.2670  151.8741 H   0  0  0  0  0  0  0  0  0  0  0  0
  145.7360  133.6557  153.4324 H   0  0  0  0  0  0  0  0  0  0  0  0
  146.2551  132.2556  152.5592 H   0  0  0  0  0  0  0  0  0  0  0  0
  148.0017  134.5934  152.3299 H   0  0  0  0  0  0  0  0  0  0  0  0
  149.4773  134.9772  154.2091 H   0  0  0  0  0  0  0  0  0  0  0  0
  150.9610  133.9232  155.9240 H   0  0  0  0  0  0  0  0  0  0  0  0
  150.7333  129.2224  158.1796 H   0  0  0  0  0  0  0  0  0  0  0  0
  149.8684  129.1075  156.6296 H   0  0  0  0  0  0  0  0  0  0  0  0
  149.2886  130.2198  157.8922 H   0  0  0  0  0  0  0  0  0  0  0  0
  149.1908  130.1155  154.8837 H   0  0  0  0  0  0  0  0  0  0  0  0
  143.6888  134.2422  152.1218 H   0  0  0  0  0  0  0  0  0  0  0  0
  143.7071  134.2837  150.3815 H   0  0  0  0  0  0  0  0  0  0  0  0
  143.9470  131.7235  152.0206 H   0  0  0  0  0  0  0  0  0  0  0  0
  142.5773  132.2579  151.0760 H   0  0  0  0  0  0  0  0  0  0  0  0
  145.9843  131.0518  150.8193 H   0  0  0  0  0  0  0  0  0  0  0  0
  145.9735  131.1573  149.0755 H   0  0  0  0  0  0  0  0  0  0  0  0
  145.9456  133.5821  149.1061 H   0  0  0  0  0  0  0  0  0  0  0  0
  147.3019  133.0492  150.0596 H   0  0  0  0  0  0  0  0  0  0  0  0
  1  2  1  0  0  0  0
  1 21  1  0  0  0  0
  1 22  1  0  0  0  0
  1 23  1  0  0  0  0
  2  3  1  0  0  0  0
  3 20  1  0  0  0  0
  3  4  1  0  0  0  0
  3 16  1  0  0  0  0
  4  5  1  0  0  0  0
  4 24  1  0  0  0  0
  4 25  1  0  0  0  0
  5  6  1  0  0  0  0
  5 26  1  0  0  0  0
  6 15  1  0  0  0  0
  6  7  2  0  0  0  0
  7  8  1  0  0  0  0
  7 27  1  0  0  0  0
  8  9  2  0  0  0  0
  8 28  1  0  0  0  0
  9 10  1  0  0  0  0
  9 14  1  0  0  0  0
 10 11  1  0  0  0  0
 10 12  2  0  0  0  0
 10 13  2  0  0  0  0
 11 29  1  0  0  0  0
 11 30  1  0  0  0  0
 11 31  1  0  0  0  0
 14 15  2  0  0  0  0
 14 32  1  0  0  0  0
 16 17  1  0  0  0  0
 16 33  1  0  0  0  0
 16 34  1  0  0  0  0
 17 18  1  0  0  0  0
 17 35  1  0  0  0  0
 17 36  1  0  0  0  0
 18 19  1  0  0  0  0
 19 20  1  0  0  0  0
 19 37  1  0  0  0  0
 19 38  1  0  0  0  0
 20 39  1  0  0  0  0
 20 40  1  0  0  0  0
M  END
> <s_m_source_file>
AV-unprocessed.smi

> <i_m_source_file_index>
2612

> <i_lp_mmshare_version>
43012

> <i_f3d_flags>
0

> <s_epik_input>
W0NIMl0xW0NIMl1PW0NIMl1bQ0gyXUMxKE9bQ0gzXSlbQ0gyXVtOSF1jMltjSF1bY0hdYyhbY0hdbjIpUyg9TykoPU8pW0NIM10=

> <s_epik_cmdline>
J2VwaWtfcHl0aG9uJywgJy1waCcsICc3LjAnLCAnLXRuJywgJzgnLCAnLW1hJywgJzIwMCcsICctbWV0YWxfYmluZGluZycsICctaW1hZScsICc8aW5maWxlLm1hZT4nLCAnLW9tYWUnLCAnPG91dGZpbGUubWFlPic=

> <r_lp_tautomer_probability>
1

> <r_epik_Ionization_Penalty>
1.02976e-06

> <r_epik_Ionization_Penalty_Charging>
0

> <r_epik_Ionization_Penalty_Neutral>
1.02976e-06

> <r_epik_State_Penalty>
-0

> <r_epik_Charging_Adjusted_Penalty>
0

> <i_epik_Tot_Q>
0

> <i_epik_Tot_abs_Q>
0

> <r_epik_Metal_State_Penalty>
-0

> <b_epik_Metal_Only>
0

> <s_lp_Force_Field>
OPLS_2005

> <r_lp_Energy>
16.1681

> <b_lp_Chiralities_Consistent>
1

> <s_lp_Variant>
AV-unprocessed.smi:2612-1

> <Gold.Version>
5.8.1

> <Gold.Id.Protein>
6NUR|6NUR_protein|mol2

> <Gold.PLP.Fitness>
37.3555

> <Gold.PLP.PLP>
-31.7013

> <Gold.PLP.part.hbond>
-3.0000

> <Gold.PLP.part.metal>
0.0000

> <Gold.PLP.part.buried>
-3.6460

> <Gold.PLP.part.nonpolar>
-25.8067

> <Gold.PLP.part.repulsive>
1.0207

> <Gold.PLP.ligand.clash>
0.0000

> <Gold.PLP.ligand.torsion>
1.9015

> <Gold.PLP.Chemscore.Hbond>
2.4696

> <Gold.PLP.Chemscore.CHOScore>
0.0000

> <Gold.PLP.Chemscore.Metal>
0.0000

> <Gold.Chemscore.Hbonds>
donor molecule, donor type, donor heavy atom, donor atom, acceptor molecule, acceptor atom, score
      L1  H     5    26       P1  7948  1.00
      P1  H  6896  6908       L1    13  1.00
      P1  H 10785 10796       L1    18  0.33

> <Gold.PLP.Chemscore.Internal.Correction>
2.0486

> <Gold.Rescore>
     Score         DG    S(hbond)    S(metal)    S(lipo)     H(rot)  DE(clash)    DE(int)     intcor
     15.55     -18.45       2.33        0.00      76.00       1.45       0.90       2.00       ----

> <Gold.Chemscore.Fitness>
15.5468

> <Gold.Chemscore.DG>
-18.4481

> <Gold.Chemscore.ZeroCoef>
-5.4800

> <Gold.Chemscore.Hbond>
2.3310

> <Gold.Chemscore.Metal>
0.0000

> <Gold.Chemscore.Lipo>
76.0005

> <Gold.Chemscore.Internal_Hbond>
0.0000

> <Gold.Chemscore.DEClash>
0.9037

> <Gold.Chemscore.DEInternal>
1.9976

> <Gold.Chemscore.Rot>
1.4490

> <Gold.Chemscore.Internal.Correction>
   9.000000E+99

> <Gold.Chemscore.Hbonds>
donor molecule, donor type, donor heavy atom, donor atom, acceptor molecule, acceptor atom, score
      L1  H     5    26       P1  7948  0.40
      P1  H  6896  6908       L1    13  0.99
      P1  H 10785 10796       L1    18  0.30

> <Gold.Chemscore.Hbond.Weighted>
-7.7855

> <Gold.Chemscore.Metal.Weighted>
-0.0000

> <Gold.Chemscore.Lipo.Weighted>
-8.8921

> <Gold.Chemscore.Internal_Hbond.Weighted>
0.0000

> <Gold.Chemscore.DEClash.Weighted>
0.9037

> <Gold.Chemscore.DEInternal.Weighted>
1.9976

> <Gold.Chemscore.Rot.Weighted>
3.7094

> <Gold.Chemscore.Internal.Correction.Weighted>
   9.000000E+99

> <Gold.Protein.RotatedTorsions>
[ 6907 6896 6895 6894 ] final   54.00 input  -60.11 | X-H torsion
[ 7974 7965 7964 7962 ] final -136.29 input  175.53 | X-H torsion
[ 8008 7997 7996 7995 ] final -133.20 input   59.86 | X-H torsion
[ 10167 10162 10161 10158 ] final   19.03 input  -65.29 | X-H torsion
[ 10718 10713 10712 10709 ] final  -45.25 input   66.30 | X-H torsion
[ 10763 10752 10751 10750 ] final  135.54 input  -60.55 | X-H torsion
[ 11005 11000 10999 10996 ] final -167.18 input  -57.11 | X-H torsion

> <Gold.Protein.ActiveResidues>
 VAL166  LYS551  ARG553  GLY616  TRP617  ASP618  TYR619  PRO620  LYS621  CYS622 
 ASP623  PHE694  ASN695  SER759  ASP760  ASP761  ALA762  ILE779  LEU786  VAL792 
 PHE793  MET794  SER795  GLU796  ALA797  LYS798  CYS799  TRP800  GLU811  SER814 

> <Gold.Protein.RotatedAtoms>
  152.3394  134.7155  160.0267 H   0  0  0  0  0  0  0  0  0  0  0  0  # atno 6907 bound_to 6896
  151.7545  133.3324  159.3409 H   0  0  0  0  0  0  0  0  0  0  0  0  # atno 6908 bound_to 6896
  150.7470  134.6094  159.6123 H   0  0  0  0  0  0  0  0  0  0  0  0  # atno 6909 bound_to 6896
  144.8939  140.6680  143.5127 H   0  0  0  0  0  0  0  0  0  0  0  0  # atno 7974 bound_to 7965
  155.3415  140.0472  157.3045 H   0  0  0  0  0  0  0  0  0  0  0  0  # atno 8008 bound_to 7997
  154.5275  140.2246  155.8829 H   0  0  0  0  0  0  0  0  0  0  0  0  # atno 8009 bound_to 7997
  156.1754  140.3086  155.9056 H   0  0  0  0  0  0  0  0  0  0  0  0  # atno 8010 bound_to 7997
  140.5609  143.9339  150.6642 H   0  0  0  0  0  0  0  0  0  0  0  0  # atno 10167 bound_to 10162
  156.2302  130.4172  149.8884 H   0  0  0  0  0  0  0  0  0  0  0  0  # atno 10718 bound_to 10713
  153.8417  135.3090  155.3426 H   0  0  0  0  0  0  0  0  0  0  0  0  # atno 10763 bound_to 10752
  154.7930  135.4772  154.0098 H   0  0  0  0  0  0  0  0  0  0  0  0  # atno 10764 bound_to 10752
  153.1572  135.6854  153.8888 H   0  0  0  0  0  0  0  0  0  0  0  0  # atno 10765 bound_to 10752
  140.5561  134.5379  157.5133 H   0  0  0  0  0  0  0  0  0  0  0  0  # atno 11005 bound_to 11000
  145.3734  139.1653  143.4320 LP  0  0  0  0  0  0  0  0  0  0  0  0  # atno 17320 bound_to 7965
  146.3070  140.3808  142.8684 LP  0  0  0  0  0  0  0  0  0  0  0  0  # atno 17321 bound_to 7965
  140.2789  143.3403  152.1169 LP  0  0  0  0  0  0  0  0  0  0  0  0  # atno 17342 bound_to 10162
  139.5070  144.6823  151.5976 LP  0  0  0  0  0  0  0  0  0  0  0  0  # atno 17343 bound_to 10162
  156.6500  130.8740  151.3529 LP  0  0  0  0  0  0  0  0  0  0  0  0  # atno 17370 bound_to 10713
  157.7129  130.9462  150.1154 LP  0  0  0  0  0  0  0  0  0  0  0  0  # atno 17371 bound_to 10713
  139.9431  134.7751  156.0630 LP  0  0  0  0  0  0  0  0  0  0  0  0  # atno 17394 bound_to 11000
  141.1142  133.6633  156.3054 LP  0  0  0  0  0  0  0  0  0  0  0  0  # atno 17395 bound_to 11000

$$$$
