AV-unprocessed.smi:508|AV-procd|sdf|2759|dock3
  -GOLD-   2262023223D 1   1.00000     0.00000
 Structure written by MMmdl.
 48 50  0  0  0  0  0  0  0  0  2 V2000
  147.5194  139.9961  153.3970 C   0  0  0  0  0  0  0  0  0  0  0  0
  147.8426  141.4658  153.6754 C   0  0  0  0  0  0  0  0  0  0  0  0
  149.2155  141.5794  154.0088 O   0  0  0  0  0  0  0  0  0  0  0  0
  149.4849  141.2162  155.3525 C   0  0  0  0  0  0  0  0  0  0  0  0
  150.8758  141.7450  155.7308 C   0  0  0  0  0  0  0  0  0  0  0  0
  151.5336  140.9354  156.7519 N   0  0  0  0  0  0  0  0  0  0  0  0
  151.9185  141.3068  158.0036 C   0  0  0  0  0  0  0  0  0  0  0  0
  151.6565  142.5795  158.5165 N   0  0  0  0  0  0  0  0  0  0  0  0
  151.7331  143.8094  157.7317 C   0  0  0  0  0  0  0  0  0  0  0  0
  152.5997  144.9240  158.3506 C   0  0  0  0  0  0  0  0  0  0  0  0
  151.9223  145.6218  159.5393 C   0  0  0  0  0  0  0  0  0  0  0  0
  152.0663  144.8947  160.8884 C   0  0  0  0  0  0  0  0  0  0  0  0
  151.9608  143.3587  160.8524 C   0  0  0  0  0  0  0  0  0  0  0  0
  150.9942  142.7910  159.8009 C   0  0  0  0  0  0  0  0  0  0  0  0
  152.5802  140.3677  158.6839 N   0  0  0  0  0  0  0  0  0  0  0  0
  152.5913  139.2980  157.8023 C   0  0  0  0  0  0  0  0  0  0  0  0
  151.9693  139.6120  156.6355 C   0  0  0  0  0  0  0  0  0  0  0  0
  151.8404  138.6780  155.4965 C   0  0  0  0  0  0  0  0  0  0  0  0
  151.2810  139.0183  154.4562 O   0  0  0  0  0  0  0  0  0  0  0  0
  152.4022  137.4566  155.7650 N   0  5  0  0  0  0  0  0  0  0  0  0
  153.0380  137.0943  156.9339 C   0  0  0  0  0  0  0  0  0  0  0  0
  153.5116  135.9682  157.0865 O   0  0  0  0  0  0  0  0  0  0  0  0
  153.1500  138.0019  157.9568 N   0  0  0  0  0  0  0  0  0  0  0  0
  153.8194  137.6991  159.2256 C   0  0  0  0  0  0  0  0  0  0  0  0
  146.4683  139.8708  153.1361 H   0  0  0  0  0  0  0  0  0  0  0  0
  147.7233  139.3785  154.2720 H   0  0  0  0  0  0  0  0  0  0  0  0
  148.1175  139.6143  152.5696 H   0  0  0  0  0  0  0  0  0  0  0  0
  147.6187  142.0684  152.7940 H   0  0  0  0  0  0  0  0  0  0  0  0
  147.2243  141.8343  154.4953 H   0  0  0  0  0  0  0  0  0  0  0  0
  148.7202  141.6350  156.0049 H   0  0  0  0  0  0  0  0  0  0  0  0
  149.4426  140.1323  155.4627 H   0  0  0  0  0  0  0  0  0  0  0  0
  151.5164  141.7834  154.8502 H   0  0  0  0  0  0  0  0  0  0  0  0
  150.8128  142.7745  156.0755 H   0  0  0  0  0  0  0  0  0  0  0  0
  152.1169  143.5621  156.7441 H   0  0  0  0  0  0  0  0  0  0  0  0
  150.7221  144.1793  157.5566 H   0  0  0  0  0  0  0  0  0  0  0  0
  153.5919  144.5679  158.6237 H   0  0  0  0  0  0  0  0  0  0  0  0
  152.7615  145.6739  157.5758 H   0  0  0  0  0  0  0  0  0  0  0  0
  152.3375  146.6242  159.6490 H   0  0  0  0  0  0  0  0  0  0  0  0
  150.8657  145.7705  159.3130 H   0  0  0  0  0  0  0  0  0  0  0  0
  153.0238  145.1587  161.3385 H   0  0  0  0  0  0  0  0  0  0  0  0
  151.3078  145.2889  161.5655 H   0  0  0  0  0  0  0  0  0  0  0  0
  152.9508  142.9229  160.7061 H   0  0  0  0  0  0  0  0  0  0  0  0
  151.6441  143.0230  161.8402 H   0  0  0  0  0  0  0  0  0  0  0  0
  150.1119  143.4229  159.6912 H   0  0  0  0  0  0  0  0  0  0  0  0
  150.6269  141.8272  160.1550 H   0  0  0  0  0  0  0  0  0  0  0  0
  154.2884  136.7157  159.2640 H   0  0  0  0  0  0  0  0  0  0  0  0
  153.1014  137.7514  160.0443 H   0  0  0  0  0  0  0  0  0  0  0  0
  154.6009  138.4349  159.4179 H   0  0  0  0  0  0  0  0  0  0  0  0
  1  2  1  0  0  0  0
  1 25  1  0  0  0  0
  1 26  1  0  0  0  0
  1 27  1  0  0  0  0
  2  3  1  0  0  0  0
  2 28  1  0  0  0  0
  2 29  1  0  0  0  0
  3  4  1  0  0  0  0
  4  5  1  0  0  0  0
  4 30  1  0  0  0  0
  4 31  1  0  0  0  0
  5  6  1  0  0  0  0
  5 32  1  0  0  0  0
  5 33  1  0  0  0  0
  6 17  1  0  0  0  0
  6  7  1  0  0  0  0
  7  8  1  0  0  0  0
  7 15  2  0  0  0  0
  8 14  1  0  0  0  0
  8  9  1  0  0  0  0
  9 10  1  0  0  0  0
  9 34  1  0  0  0  0
  9 35  1  0  0  0  0
 10 11  1  0  0  0  0
 10 36  1  0  0  0  0
 10 37  1  0  0  0  0
 11 12  1  0  0  0  0
 11 38  1  0  0  0  0
 11 39  1  0  0  0  0
 12 13  1  0  0  0  0
 12 40  1  0  0  0  0
 12 41  1  0  0  0  0
 13 14  1  0  0  0  0
 13 42  1  0  0  0  0
 13 43  1  0  0  0  0
 14 44  1  0  0  0  0
 14 45  1  0  0  0  0
 15 16  1  0  0  0  0
 16 23  1  0  0  0  0
 16 17  2  0  0  0  0
 17 18  1  0  0  0  0
 18 19  2  0  0  0  0
 18 20  1  0  0  0  0
 20 21  1  0  0  0  0
 21 22  2  0  0  0  0
 21 23  1  0  0  0  0
 23 24  1  0  0  0  0
 24 46  1  0  0  0  0
 24 47  1  0  0  0  0
 24 48  1  0  0  0  0
M  CHG  1  20  -1
M  END
> <s_m_source_file>
AV-unprocessed.smi

> <i_m_source_file_index>
508

> <i_lp_mmshare_version>
43012

> <i_f3d_flags>
0

> <s_epik_input>
W0NIM11uMWMoPU8pW25IXWMoPU8pYyhjMTIpbihbQ0gyXVtDSDJdT1tDSDJdW0NIM10pYyhuMilOM1tDSDJdW0NIMl1bQ0gyXVtDSDJdW0NIMl1bQ0gyXTM=

> <s_epik_cmdline>
J2VwaWtfcHl0aG9uJywgJy1waCcsICc3LjAnLCAnLXRuJywgJzgnLCAnLW1hJywgJzIwMCcsICctbWV0YWxfYmluZGluZycsICctaW1hZScsICc8aW5maWxlLm1hZT4nLCAnLW9tYWUnLCAnPG91dGZpbGUubWFlPic=

> <r_lp_tautomer_probability>
1

> <r_epik_Ionization_Penalty>
6.1764

> <r_epik_Ionization_Penalty_Charging>
0.0751667

> <r_epik_Ionization_Penalty_Neutral>
6.10123

> <r_epik_State_Penalty>
6.09793

> <r_epik_Charging_Adjusted_Penalty>
6.17309

> <i_epik_Tot_Q>
-1

> <i_epik_Tot_abs_Q>
1

> <r_epik_Metal_State_Penalty>
2.04406

> <b_epik_Metal_Only>
1

> <s_lp_Force_Field>
OPLS_2005

> <r_lp_Energy>
49.0985

> <b_lp_Chiralities_Consistent>
1

> <s_lp_Variant>
AV-unprocessed.smi:508-2

> <Gold.Version>
5.8.1

> <Gold.Id.Protein>
6NUR|6NUR_protein|mol2

> <Gold.PLP.Fitness>
50.6039

> <Gold.PLP.PLP>
-44.5186

> <Gold.PLP.part.hbond>
-3.5943

> <Gold.PLP.part.metal>
0.0000

> <Gold.PLP.part.buried>
-3.1427

> <Gold.PLP.part.nonpolar>
-37.7860

> <Gold.PLP.part.repulsive>
0.3631

> <Gold.PLP.ligand.clash>
0.0011

> <Gold.PLP.ligand.torsion>
1.1251

> <Gold.PLP.Chemscore.Hbond>
2.5280

> <Gold.PLP.Chemscore.CHOScore>
0.0000

> <Gold.PLP.Chemscore.Metal>
0.0000

> <Gold.Chemscore.Hbonds>
donor molecule, donor type, donor heavy atom, donor atom, acceptor molecule, acceptor atom, score
      P1  H  7989  7998       L1    19  0.81
      P1  H  8011  8017       L1     3  0.54
      P1  H 10752 10763       L1    22  1.00

> <Gold.PLP.Chemscore.Internal.Correction>
0.7526

> <Gold.Rescore>
     Score         DG    S(hbond)    S(metal)    S(lipo)     H(rot)  DE(clash)    DE(int)     intcor
     18.12     -21.57       2.12        0.00     110.96       1.55       1.26       2.19       ----

> <Gold.Chemscore.Fitness>
18.1210

> <Gold.Chemscore.DG>
-21.5694

> <Gold.Chemscore.ZeroCoef>
-5.4800

> <Gold.Chemscore.Hbond>
2.1208

> <Gold.Chemscore.Metal>
0.0000

> <Gold.Chemscore.Lipo>
110.9642

> <Gold.Chemscore.Internal_Hbond>
0.0000

> <Gold.Chemscore.DEClash>
1.2557

> <Gold.Chemscore.DEInternal>
2.1927

> <Gold.Chemscore.Rot>
1.5534

> <Gold.Chemscore.Internal.Correction>
   9.000000E+99

> <Gold.Chemscore.Hbonds>
donor molecule, donor type, donor heavy atom, donor atom, acceptor molecule, acceptor atom, score
      P1  H  7989  7998       L1    19  0.80
      P1  H  8011  8017       L1     3  0.09
      P1  H 10752 10763       L1    22  0.50

> <Gold.Chemscore.Hbond.Weighted>
-7.0834

> <Gold.Chemscore.Metal.Weighted>
-0.0000

> <Gold.Chemscore.Lipo.Weighted>
-12.9828

> <Gold.Chemscore.Internal_Hbond.Weighted>
0.0000

> <Gold.Chemscore.DEClash.Weighted>
1.2557

> <Gold.Chemscore.DEInternal.Weighted>
2.1927

> <Gold.Chemscore.Rot.Weighted>
3.9768

> <Gold.Chemscore.Internal.Correction.Weighted>
   9.000000E+99

> <Gold.Protein.RotatedTorsions>
[ 6907 6896 6895 6894 ] final  -26.95 input  -60.11 | X-H torsion
[ 7974 7965 7964 7962 ] final  144.09 input  175.53 | X-H torsion
[ 8008 7997 7996 7995 ] final   23.34 input   59.86 | X-H torsion
[ 10167 10162 10161 10158 ] final  -39.47 input  -65.29 | X-H torsion
[ 10718 10713 10712 10709 ] final  119.27 input   66.30 | X-H torsion
[ 10763 10752 10751 10750 ] final  134.03 input  -60.55 | X-H torsion
[ 11005 11000 10999 10996 ] final -112.03 input  -57.11 | X-H torsion

> <Gold.Protein.ActiveResidues>
 VAL166  LYS551  ARG553  GLY616  TRP617  ASP618  TYR619  PRO620  LYS621  CYS622 
 ASP623  PHE694  ASN695  SER759  ASP760  ASP761  ALA762  ILE779  LEU786  VAL792 
 PHE793  MET794  SER795  GLU796  ALA797  LYS798  CYS799  TRP800  GLU811  SER814 

> <Gold.Protein.RotatedAtoms>
  151.1537  135.0239  159.8679 H   0  0  0  0  0  0  0  0  0  0  0  0  # atno 6907 bound_to 6896
  152.5452  134.1359  159.8469 H   0  0  0  0  0  0  0  0  0  0  0  0  # atno 6908 bound_to 6896
  151.1447  133.4901  159.2629 H   0  0  0  0  0  0  0  0  0  0  0  0  # atno 6909 bound_to 6896
  144.8865  139.5621  143.5818 H   0  0  0  0  0  0  0  0  0  0  0  0  # atno 7974 bound_to 7965
  154.9794  140.3100  155.4953 H   0  0  0  0  0  0  0  0  0  0  0  0  # atno 8008 bound_to 7997
  156.2955  140.2269  156.4832 H   0  0  0  0  0  0  0  0  0  0  0  0  # atno 8009 bound_to 7997
  154.7803  140.0446  157.1110 H   0  0  0  0  0  0  0  0  0  0  0  0  # atno 8010 bound_to 7997
  140.7063  143.3212  151.2787 H   0  0  0  0  0  0  0  0  0  0  0  0  # atno 10167 bound_to 10162
  157.5973  131.1056  150.7873 H   0  0  0  0  0  0  0  0  0  0  0  0  # atno 10718 bound_to 10713
  153.8169  135.3121  155.3406 H   0  0  0  0  0  0  0  0  0  0  0  0  # atno 10763 bound_to 10752
  154.8028  135.4716  154.0322 H   0  0  0  0  0  0  0  0  0  0  0  0  # atno 10764 bound_to 10752
  153.1718  135.6879  153.8687 H   0  0  0  0  0  0  0  0  0  0  0  0  # atno 10765 bound_to 10752
  141.0699  133.9396  157.2505 H   0  0  0  0  0  0  0  0  0  0  0  0  # atno 11005 bound_to 11000
  146.3027  139.7479  142.9079 LP  0  0  0  0  0  0  0  0  0  0  0  0  # atno 17320 bound_to 7965
  145.3860  141.0365  143.3151 LP  0  0  0  0  0  0  0  0  0  0  0  0  # atno 17321 bound_to 7965
  139.6667  144.0093  152.2727 LP  0  0  0  0  0  0  0  0  0  0  0  0  # atno 17342 bound_to 10162
  139.9678  144.6514  150.8018 LP  0  0  0  0  0  0  0  0  0  0  0  0  # atno 17343 bound_to 10162
  156.8281  130.5006  149.5335 LP  0  0  0  0  0  0  0  0  0  0  0  0  # atno 17370 bound_to 10713
  156.1038  130.5989  150.9937 LP  0  0  0  0  0  0  0  0  0  0  0  0  # atno 17371 bound_to 10713
  139.9513  135.0175  156.9002 LP  0  0  0  0  0  0  0  0  0  0  0  0  # atno 17394 bound_to 11000
  140.5694  134.0457  155.7425 LP  0  0  0  0  0  0  0  0  0  0  0  0  # atno 17395 bound_to 11000

$$$$
