AV-unprocessed.smi:1831|AV-procd|sdf|7463|dock1
  -GOLD-   22720 9153D 1   1.00000     0.00000
 Structure written by MMmdl.
 40 41  0  0  0  0  0  0  0  0  3 V2000
  145.7976  135.7746  162.4209 C   0  0  0  0  0  0  0  0  0  0  0  0
  146.7341  135.5805  161.2780 C   0  0  0  0  0  0  0  0  0  0  0  0
  147.3401  136.5962  160.6585 N   0  0  0  0  0  0  0  0  0  0  0  0
  148.1634  136.1643  159.6290 N   0  0  0  0  0  0  0  0  0  0  0  0
  148.1779  134.8312  159.4915 C   0  0  0  0  0  0  0  0  0  0  0  0
  148.9129  134.2116  158.5534 N   0  5  0  0  0  0  0  0  0  0  0  0
  148.8075  134.5872  157.2598 C   0  0  0  0  0  0  0  0  0  0  0  0
  148.5595  135.7235  156.8475 O   0  0  0  0  0  0  0  0  0  0  0  0
  149.0271  133.5920  156.3868 N   0  0  0  0  0  0  0  0  0  0  0  0
  149.0032  133.7122  154.9315 C   0  0  0  0  0  0  0  0  0  0  0  0
  148.1569  132.6105  154.2505 C   0  0  1  0  0  0  0  0  0  0  0  0
  146.6689  132.7857  154.5598 C   0  0  0  0  0  0  0  0  0  0  0  0
  146.1292  133.6702  153.4237 C   0  0  0  0  0  0  0  0  0  0  0  0
  147.1854  133.7294  152.3825 N   0  3  2  0  0  0  0  0  0  0  0  0
  146.7011  133.7453  150.9743 C   0  0  0  0  0  0  0  0  0  0  0  0
  145.7027  134.8931  150.7308 C   0  0  0  0  0  0  0  0  0  0  0  0
  146.0429  132.4039  150.6015 C   0  0  0  0  0  0  0  0  0  0  0  0
  148.1511  132.6642  152.7189 C   0  0  0  0  0  0  0  0  0  0  0  0
  147.1346  133.9944  160.6413 S   0  0  0  0  0  0  0  0  0  0  0  0
  146.3518  135.7720  163.3593 H   0  0  0  0  0  0  0  0  0  0  0  0
  145.0614  134.9711  162.4457 H   0  0  0  0  0  0  0  0  0  0  0  0
  145.2718  136.7250  162.3250 H   0  0  0  0  0  0  0  0  0  0  0  0
  149.2269  132.6782  156.7675 H   0  0  0  0  0  0  0  0  0  0  0  0
  148.5827  134.6888  154.6905 H   0  0  0  0  0  0  0  0  0  0  0  0
  150.0182  133.7232  154.5310 H   0  0  0  0  0  0  0  0  0  0  0  0
  148.5121  131.6373  154.5921 H   0  0  0  0  0  0  0  0  0  0  0  0
  146.1750  131.8135  154.5273 H   0  0  0  0  0  0  0  0  0  0  0  0
  146.4835  133.2104  155.5473 H   0  0  0  0  0  0  0  0  0  0  0  0
  145.2013  133.2475  153.0358 H   0  0  0  0  0  0  0  0  0  0  0  0
  145.9164  134.6807  153.7739 H   0  0  0  0  0  0  0  0  0  0  0  0
  147.5605  133.8994  150.3201 H   0  0  0  0  0  0  0  0  0  0  0  0
  145.3033  134.8560  149.7170 H   0  0  0  0  0  0  0  0  0  0  0  0
  146.1684  135.8716  150.8481 H   0  0  0  0  0  0  0  0  0  0  0  0
  144.8592  134.8383  151.4205 H   0  0  0  0  0  0  0  0  0  0  0  0
  145.6696  132.4233  149.5773 H   0  0  0  0  0  0  0  0  0  0  0  0
  145.1986  132.1836  151.2558 H   0  0  0  0  0  0  0  0  0  0  0  0
  146.7418  131.5705  150.6681 H   0  0  0  0  0  0  0  0  0  0  0  0
  149.1334  132.8325  152.2813 H   0  0  0  0  0  0  0  0  0  0  0  0
  147.7857  131.7139  152.3259 H   0  0  0  0  0  0  0  0  0  0  0  0
  147.6813  134.5968  152.5339 H   0  0  0  0  0  0  0  0  0  0  0  0
  1  2  1  0  0  0  0
  1 20  1  0  0  0  0
  1 21  1  0  0  0  0
  1 22  1  0  0  0  0
  2 19  1  0  0  0  0
  2  3  2  0  0  0  0
  3  4  1  0  0  0  0
  4  5  2  0  0  0  0
  5  6  1  0  0  0  0
  5 19  1  0  0  0  0
  6  7  1  0  0  0  0
  7  8  2  0  0  0  0
  7  9  1  0  0  0  0
  9 10  1  0  0  0  0
  9 23  1  0  0  0  0
 10 11  1  0  0  0  0
 10 24  1  0  0  0  0
 10 25  1  0  0  0  0
 11 18  1  0  0  0  0
 11 12  1  0  0  0  0
 11 26  1  0  0  0  0
 12 13  1  0  0  0  0
 12 27  1  0  0  0  0
 12 28  1  0  0  0  0
 13 14  1  0  0  0  0
 13 29  1  0  0  0  0
 13 30  1  0  0  0  0
 14 15  1  0  0  0  0
 14 18  1  0  0  0  0
 14 40  1  0  0  0  0
 15 16  1  0  0  0  0
 15 17  1  0  0  0  0
 15 31  1  0  0  0  0
 16 32  1  0  0  0  0
 16 33  1  0  0  0  0
 16 34  1  0  0  0  0
 17 35  1  0  0  0  0
 17 36  1  0  0  0  0
 17 37  1  0  0  0  0
 18 38  1  0  0  0  0
 18 39  1  0  0  0  0
M  CHG  1   6  -1
M  CHG  1  14   1
M  END
> <s_m_source_file>
AV-unprocessed.smi

> <i_m_source_file_index>
1831

> <i_lp_mmshare_version>
43012

> <i_f3d_flags>
0

> <s_epik_input>
W0NIM11jMW5uYyhzMSlbTkhdQyg9TylbTkhdW0NIMl1bQ0BASF0yW0NIMl1bQ0gyXU4oW0NIMl0yKVtDSF0oW0NIM10pW0NIM10=

> <s_epik_cmdline>
J2VwaWtfcHl0aG9uJywgJy1waCcsICc3LjAnLCAnLXRuJywgJzgnLCAnLW1hJywgJzIwMCcsICctbWV0YWxfYmluZGluZycsICctaW1hZScsICc8aW5maWxlLm1hZT4nLCAnLW9tYWUnLCAnPG91dGZpbGUubWFlPic=

> <r_lp_tautomer_probability>
1

> <r_epik_Ionization_Penalty>
4.24531

> <r_epik_Ionization_Penalty_Charging>
4.11954

> <r_epik_Ionization_Penalty_Neutral>
0.125766

> <r_epik_State_Penalty>
4.11879

> <r_epik_Charging_Adjusted_Penalty>
8.23833

> <i_epik_Tot_Q>
0

> <i_epik_Tot_abs_Q>
2

> <r_epik_Metal_State_Penalty>
0.659341

> <b_epik_Metal_Only>
1

> <s_lp_Force_Field>
OPLS_2005

> <r_lp_Energy>
23.48

> <b_lp_Chiralities_Consistent>
1

> <s_lp_Variant>
AV-unprocessed.smi:1831-8

> <Gold.Version>
5.8.1

> <Gold.Id.Protein>
6NUR|6NUR_protein|mol2

> <Gold.PLP.Fitness>
43.0033

> <Gold.PLP.PLP>
-27.8090

> <Gold.PLP.part.hbond>
-4.0000

> <Gold.PLP.part.metal>
0.0000

> <Gold.PLP.part.buried>
-3.1816

> <Gold.PLP.part.nonpolar>
-20.5768

> <Gold.PLP.part.repulsive>
0.0570

> <Gold.PLP.ligand.clash>
0.0000

> <Gold.PLP.ligand.torsion>
0.7757

> <Gold.PLP.Chemscore.Hbond>
5.5376

> <Gold.PLP.Chemscore.CHOScore>
0.0000

> <Gold.PLP.Chemscore.Metal>
0.0000

> <Gold.Chemscore.Hbonds>
donor molecule, donor type, donor heavy atom, donor atom, acceptor molecule, acceptor atom, score
      L1  H    14    40       P1  7948  1.46
      P1  H  6896  6909       L1     6  1.80

> <Gold.PLP.Chemscore.Internal.Correction>
0.1327

> <Gold.Rescore>
     Score         DG    S(hbond)    S(metal)    S(lipo)     H(rot)  DE(clash)    DE(int)     intcor
     15.28     -17.47       2.76        0.00      56.75       1.51       0.00       2.19       ----

> <Gold.Chemscore.Fitness>
15.2827

> <Gold.Chemscore.DG>
-17.4696

> <Gold.Chemscore.ZeroCoef>
-5.4800

> <Gold.Chemscore.Hbond>
2.7613

> <Gold.Chemscore.Metal>
0.0000

> <Gold.Chemscore.Lipo>
56.7546

> <Gold.Chemscore.Internal_Hbond>
0.0000

> <Gold.Chemscore.DEClash>
0.0015

> <Gold.Chemscore.DEInternal>
2.1854

> <Gold.Chemscore.Rot>
1.5131

> <Gold.Chemscore.Internal.Correction>
   9.000000E+99

> <Gold.Chemscore.Hbonds>
donor molecule, donor type, donor heavy atom, donor atom, acceptor molecule, acceptor atom, score
      L1  H    14    40       P1  7948  0.54
      P1  H  6896  6909       L1     6  0.17
      P1  H  6934  6947       L1     3  0.05

> <Gold.Chemscore.Hbond.Weighted>
-9.2228

> <Gold.Chemscore.Metal.Weighted>
-0.0000

> <Gold.Chemscore.Lipo.Weighted>
-6.6403

> <Gold.Chemscore.Internal_Hbond.Weighted>
0.0000

> <Gold.Chemscore.DEClash.Weighted>
0.0015

> <Gold.Chemscore.DEInternal.Weighted>
2.1854

> <Gold.Chemscore.Rot.Weighted>
3.8735

> <Gold.Chemscore.Internal.Correction.Weighted>
   9.000000E+99

> <Gold.Protein.RotatedTorsions>
[ 6907 6896 6895 6894 ] final   33.97 input  -60.11 | X-H torsion
[ 7974 7965 7964 7962 ] final -153.23 input  175.53 | X-H torsion
[ 8008 7997 7996 7995 ] final  145.43 input   59.86 | X-H torsion
[ 10167 10162 10161 10158 ] final  -38.27 input  -65.29 | X-H torsion
[ 10718 10713 10712 10709 ] final -100.06 input   66.30 | X-H torsion
[ 10763 10752 10751 10750 ] final  -47.73 input  -60.55 | X-H torsion
[ 11005 11000 10999 10996 ] final -105.19 input  -57.11 | X-H torsion

> <Gold.Protein.ActiveResidues>
 VAL166  LYS551  ARG553  GLY616  TRP617  ASP618  TYR619  PRO620  LYS621  CYS622 
 ASP623  PHE694  ASN695  SER759  ASP760  ASP761  ALA762  ILE779  LEU786  VAL792 
 PHE793  MET794  SER795  GLU796  ALA797  LYS798  CYS799  TRP800  GLU811  SER814 

> <Gold.Protein.RotatedAtoms>
  152.0959  134.9375  160.0570 H   0  0  0  0  0  0  0  0  0  0  0  0  # atno 6907 bound_to 6896
  152.0608  133.4056  159.4425 H   0  0  0  0  0  0  0  0  0  0  0  0  # atno 6908 bound_to 6896
  150.6838  134.3122  159.4795 H   0  0  0  0  0  0  0  0  0  0  0  0  # atno 6909 bound_to 6896
  144.7751  140.4553  143.5879 H   0  0  0  0  0  0  0  0  0  0  0  0  # atno 7974 bound_to 7965
  156.2883  140.2209  156.5214 H   0  0  0  0  0  0  0  0  0  0  0  0  # atno 8008 bound_to 7997
  154.7525  140.0479  157.0927 H   0  0  0  0  0  0  0  0  0  0  0  0  # atno 8009 bound_to 7997
  155.0091  140.3111  155.4840 H   0  0  0  0  0  0  0  0  0  0  0  0  # atno 8010 bound_to 7997
  140.7096  143.3288  151.2617 H   0  0  0  0  0  0  0  0  0  0  0  0  # atno 10167 bound_to 10162
  156.0152  130.5311  150.6762 H   0  0  0  0  0  0  0  0  0  0  0  0  # atno 10718 bound_to 10713
  154.0662  135.6611  153.4818 H   0  0  0  0  0  0  0  0  0  0  0  0  # atno 10763 bound_to 10752
  153.0408  135.5146  154.7611 H   0  0  0  0  0  0  0  0  0  0  0  0  # atno 10764 bound_to 10752
  154.6663  135.3022  154.9768 H   0  0  0  0  0  0  0  0  0  0  0  0  # atno 10765 bound_to 10752
  141.1065  133.8787  157.1704 H   0  0  0  0  0  0  0  0  0  0  0  0  # atno 11005 bound_to 11000
  145.6208  139.1524  143.3023 LP  0  0  0  0  0  0  0  0  0  0  0  0  # atno 17320 bound_to 7965
  146.1926  140.6319  142.9139 LP  0  0  0  0  0  0  0  0  0  0  0  0  # atno 17321 bound_to 7965
  139.6764  143.9930  152.2783 LP  0  0  0  0  0  0  0  0  0  0  0  0  # atno 17342 bound_to 10162
  139.9546  144.6598  150.8139 LP  0  0  0  0  0  0  0  0  0  0  0  0  # atno 17343 bound_to 10162
  157.4474  131.0868  151.0881 LP  0  0  0  0  0  0  0  0  0  0  0  0  # atno 17370 bound_to 10713
  157.1407  130.6142  149.5554 LP  0  0  0  0  0  0  0  0  0  0  0  0  # atno 17371 bound_to 10713
  139.9937  135.0055  157.0035 LP  0  0  0  0  0  0  0  0  0  0  0  0  # atno 17394 bound_to 11000
  140.4889  134.1214  155.7229 LP  0  0  0  0  0  0  0  0  0  0  0  0  # atno 17395 bound_to 11000

$$$$
