AV-unprocessed.smi:3029|AV-procd|sdf|11526|dock4
  -GOLD-   2272016463D 1   1.00000     0.00000
 Structure written by MMmdl.
 42 43  0  0  0  0  0  0  0  0  4 V2000
  151.1376  139.5354  154.9544 O   0  0  0  0  0  0  0  0  0  0  0  0
  150.0604  140.1130  154.8078 C   0  0  0  0  0  0  0  0  0  0  0  0
  149.0372  139.6311  153.8743 C   0  0  0  0  0  0  0  0  0  0  0  0
  147.8519  140.2579  153.7377 C   0  0  0  0  0  0  0  0  0  0  0  0
  147.5507  141.4406  154.5212 C   0  0  0  0  0  0  0  0  0  0  0  0
  146.2763  142.1125  154.3948 N   0  3  0  0  0  0  0  0  0  0  0  0
  146.2173  143.1611  153.7597 O   0  0  0  0  0  0  0  0  0  0  0  0
  145.2919  141.6121  154.9289 O   0  5  0  0  0  0  0  0  0  0  0  0
  148.4968  141.8866  155.3709 C   0  0  0  0  0  0  0  0  0  0  0  0
  149.7410  141.2424  155.5093 N   0  0  0  0  0  0  0  0  0  0  0  0
  150.6914  141.8250  156.4661 C   0  0  0  0  0  0  0  0  0  0  0  0
  151.0494  140.8292  157.5809 C   0  0  0  0  0  0  0  0  0  0  0  0
  151.3283  141.5392  158.8461 N   0  3  0  0  0  0  0  0  0  0  0  0
  152.4003  142.5619  158.7831 C   0  0  1  0  0  0  0  0  0  0  0  0
  151.8395  143.9437  158.3774 C   0  0  0  0  0  0  0  0  0  0  0  0
  150.9494  144.5511  159.4753 C   0  0  0  0  0  0  0  0  0  0  0  0
  151.6987  144.6403  160.8129 C   0  0  0  0  0  0  0  0  0  0  0  0
  152.2665  143.2750  161.2330 C   0  0  0  0  0  0  0  0  0  0  0  0
  153.1636  142.6690  160.1306 C   0  0  1  0  0  0  0  0  0  0  0  0
  153.8404  141.3507  160.5724 C   0  0  0  0  0  0  0  0  0  0  0  0
  154.1394  141.3651  161.8717 F   0  0  0  0  0  0  0  0  0  0  0  0
  153.0318  140.3196  160.3282 F   0  0  0  0  0  0  0  0  0  0  0  0
  154.9650  141.1693  159.8810 F   0  0  0  0  0  0  0  0  0  0  0  0
  149.2408  138.7518  153.2807 H   0  0  0  0  0  0  0  0  0  0  0  0
  147.1293  139.8661  153.0367 H   0  0  0  0  0  0  0  0  0  0  0  0
  148.3687  142.7552  156.0009 H   0  0  0  0  0  0  0  0  0  0  0  0
  151.5965  142.1525  155.9509 H   0  0  0  0  0  0  0  0  0  0  0  0
  150.2729  142.7326  156.9045 H   0  0  0  0  0  0  0  0  0  0  0  0
  150.2246  140.1315  157.7331 H   0  0  0  0  0  0  0  0  0  0  0  0
  151.9198  140.2418  157.2893 H   0  0  0  0  0  0  0  0  0  0  0  0
  150.4804  141.9764  159.1783 H   0  0  0  0  0  0  0  0  0  0  0  0
  153.1129  142.2456  158.0201 H   0  0  0  0  0  0  0  0  0  0  0  0
  152.6723  144.6218  158.1862 H   0  0  0  0  0  0  0  0  0  0  0  0
  151.2885  143.8873  157.4391 H   0  0  0  0  0  0  0  0  0  0  0  0
  150.6149  145.5440  159.1727 H   0  0  0  0  0  0  0  0  0  0  0  0
  150.0482  143.9493  159.5980 H   0  0  0  0  0  0  0  0  0  0  0  0
  152.5125  145.3612  160.7261 H   0  0  0  0  0  0  0  0  0  0  0  0
  151.0329  145.0207  161.5881 H   0  0  0  0  0  0  0  0  0  0  0  0
  152.8354  143.3941  162.1555 H   0  0  0  0  0  0  0  0  0  0  0  0
  151.4480  142.5937  161.4673 H   0  0  0  0  0  0  0  0  0  0  0  0
  153.9761  143.3794  159.9668 H   0  0  0  0  0  0  0  0  0  0  0  0
  151.6124  140.8434  159.5212 H   0  0  0  0  0  0  0  0  0  0  0  0
  1  2  2  0  0  0  0
  2 10  1  0  0  0  0
  2  3  1  0  0  0  0
  3  4  2  0  0  0  0
  3 24  1  0  0  0  0
  4  5  1  0  0  0  0
  4 25  1  0  0  0  0
  5  6  1  0  0  0  0
  5  9  2  0  0  0  0
  6  7  2  0  0  0  0
  6  8  1  0  0  0  0
  9 10  1  0  0  0  0
  9 26  1  0  0  0  0
 10 11  1  0  0  0  0
 11 12  1  0  0  0  0
 11 27  1  0  0  0  0
 11 28  1  0  0  0  0
 12 13  1  0  0  0  0
 12 29  1  0  0  0  0
 12 30  1  0  0  0  0
 13 14  1  0  0  0  0
 13 31  1  0  0  0  0
 13 42  1  0  0  0  0
 14 19  1  0  0  0  0
 14 15  1  0  0  0  0
 14 32  1  0  0  0  0
 15 16  1  0  0  0  0
 15 33  1  0  0  0  0
 15 34  1  0  0  0  0
 16 17  1  0  0  0  0
 16 35  1  0  0  0  0
 16 36  1  0  0  0  0
 17 18  1  0  0  0  0
 17 37  1  0  0  0  0
 17 38  1  0  0  0  0
 18 19  1  0  0  0  0
 18 39  1  0  0  0  0
 18 40  1  0  0  0  0
 19 20  1  0  0  0  0
 19 41  1  0  0  0  0
 20 21  1  0  0  0  0
 20 22  1  0  0  0  0
 20 23  1  0  0  0  0
M  CHG  1   6   1
M  CHG  1   8  -1
M  CHG  1  13   1
M  END
> <s_m_source_file>
AV-unprocessed.smi

> <i_m_source_file_index>
3029

> <i_lp_mmshare_version>
43012

> <i_f3d_flags>
0

> <s_epik_input>
Tz1jMVtjSF1bY0hdYyhbTitdKD1PKVtPLV0pW2NIXW4xW0NIMl1bQ0gyXVtOSF1bQ0BASF0yW0NIMl1bQ0gyXVtDSDJdW0NIMl1bQ0BIXTJDKEYpKEYpRg==

> <s_epik_cmdline>
J2VwaWtfcHl0aG9uJywgJy1waCcsICc3LjAnLCAnLXRuJywgJzgnLCAnLW1hJywgJzIwMCcsICctbWV0YWxfYmluZGluZycsICctaW1hZScsICc8aW5maWxlLm1hZT4nLCAnLW9tYWUnLCAnPG91dGZpbGUubWFlPic=

> <r_lp_tautomer_probability>
1

> <r_epik_Ionization_Penalty>
0.037386

> <r_epik_Ionization_Penalty_Charging>
0.037386

> <r_epik_Ionization_Penalty_Neutral>
0

> <r_epik_State_Penalty>
0.0312892

> <r_epik_Charging_Adjusted_Penalty>
0.0686752

> <i_epik_Tot_Q>
1

> <i_epik_Tot_abs_Q>
3

> <r_epik_Metal_State_Penalty>
0.0312892

> <b_epik_Metal_Only>
0

> <s_lp_Force_Field>
OPLS_2005

> <r_lp_Energy>
34.3569

> <b_lp_Chiralities_Consistent>
1

> <s_lp_Variant>
AV-unprocessed.smi:3029-2

> <Gold.Version>
5.8.1

> <Gold.Id.Protein>
6NUR|6NUR_protein|mol2

> <Gold.PLP.Fitness>
48.7057

> <Gold.PLP.PLP>
-50.9658

> <Gold.PLP.part.hbond>
-1.2306

> <Gold.PLP.part.metal>
0.0000

> <Gold.PLP.part.buried>
0.8672

> <Gold.PLP.part.nonpolar>
-52.0455

> <Gold.PLP.part.repulsive>
0.5527

> <Gold.PLP.ligand.clash>
0.0000

> <Gold.PLP.ligand.torsion>
2.6902

> <Gold.PLP.Chemscore.Hbond>
0.0000

> <Gold.PLP.Chemscore.CHOScore>
0.9824

> <Gold.PLP.Chemscore.Metal>
0.0000

> <Gold.Chemscore.Hbonds>
donor molecule, donor type, donor heavy atom, donor atom, acceptor molecule, acceptor atom, score
      L1  C     9    26       P1  8028  1.00

> <Gold.PLP.Chemscore.Internal.Correction>
0.1731

> <Gold.Rescore>
     Score         DG    S(hbond)    S(metal)    S(lipo)     H(rot)  DE(clash)    DE(int)     intcor
      8.76     -14.24       0.00        0.00     116.51       1.90       0.12       5.36       ----

> <Gold.Chemscore.Fitness>
8.7637

> <Gold.Chemscore.DG>
-14.2376

> <Gold.Chemscore.ZeroCoef>
-5.4800

> <Gold.Chemscore.Hbond>
0.0000

> <Gold.Chemscore.Metal>
0.0000

> <Gold.Chemscore.Lipo>
116.5055

> <Gold.Chemscore.Internal_Hbond>
0.0000

> <Gold.Chemscore.DEClash>
0.1163

> <Gold.Chemscore.DEInternal>
5.3576

> <Gold.Chemscore.Rot>
1.9037

> <Gold.Chemscore.Internal.Correction>
   9.000000E+99

> <Gold.Chemscore.Hbond.Weighted>
-0.0000

> <Gold.Chemscore.Metal.Weighted>
-0.0000

> <Gold.Chemscore.Lipo.Weighted>
-13.6311

> <Gold.Chemscore.Internal_Hbond.Weighted>
0.0000

> <Gold.Chemscore.DEClash.Weighted>
0.1163

> <Gold.Chemscore.DEInternal.Weighted>
5.3576

> <Gold.Chemscore.Rot.Weighted>
4.8736

> <Gold.Chemscore.Internal.Correction.Weighted>
   9.000000E+99

> <Gold.Protein.RotatedTorsions>
[ 6907 6896 6895 6894 ] final   94.57 input  -60.11 | X-H torsion
[ 7974 7965 7964 7962 ] final  -61.59 input  175.53 | X-H torsion
[ 8008 7997 7996 7995 ] final -124.76 input   59.86 | X-H torsion
[ 10167 10162 10161 10158 ] final  -62.07 input  -65.29 | X-H torsion
[ 10718 10713 10712 10709 ] final -150.61 input   66.30 | X-H torsion
[ 10763 10752 10751 10750 ] final  -53.14 input  -60.55 | X-H torsion
[ 11005 11000 10999 10996 ] final -173.97 input  -57.11 | X-H torsion

> <Gold.Protein.ActiveResidues>
 VAL166  LYS551  ARG553  GLY616  TRP617  ASP618  TYR619  PRO620  LYS621  CYS622 
 ASP623  PHE694  ASN695  SER759  ASP760  ASP761  ALA762  ILE779  LEU786  VAL792 
 PHE793  MET794  SER795  GLU796  ALA797  LYS798  CYS799  TRP800  GLU811  SER814 

> <Gold.Protein.RotatedAtoms>
  152.5449  134.1173  159.8383 H   0  0  0  0  0  0  0  0  0  0  0  0  # atno 6907 bound_to 6896
  151.1232  133.5081  159.2609 H   0  0  0  0  0  0  0  0  0  0  0  0  # atno 6908 bound_to 6896
  151.1755  135.0347  159.8825 H   0  0  0  0  0  0  0  0  0  0  0  0  # atno 6909 bound_to 6896
  145.8016  140.8652  143.0228 H   0  0  0  0  0  0  0  0  0  0  0  0  # atno 7974 bound_to 7965
  155.2022  140.0416  157.2919 H   0  0  0  0  0  0  0  0  0  0  0  0  # atno 8008 bound_to 7997
  154.6067  140.2466  155.7693 H   0  0  0  0  0  0  0  0  0  0  0  0  # atno 8009 bound_to 7997
  156.2354  140.2923  156.0309 H   0  0  0  0  0  0  0  0  0  0  0  0  # atno 8010 bound_to 7997
  140.5964  143.2351  151.6027 H   0  0  0  0  0  0  0  0  0  0  0  0  # atno 10167 bound_to 10162
  156.4483  130.8155  151.2386 H   0  0  0  0  0  0  0  0  0  0  0  0  # atno 10718 bound_to 10713
  154.1541  135.6485  153.4970 H   0  0  0  0  0  0  0  0  0  0  0  0  # atno 10763 bound_to 10752
  153.0129  135.5345  154.6778 H   0  0  0  0  0  0  0  0  0  0  0  0  # atno 10764 bound_to 10752
  154.6074  135.2950  155.0441 H   0  0  0  0  0  0  0  0  0  0  0  0  # atno 10765 bound_to 10752
  140.4797  134.6087  157.4914 H   0  0  0  0  0  0  0  0  0  0  0  0  # atno 11005 bound_to 11000
  144.6768  140.0267  143.7483 LP  0  0  0  0  0  0  0  0  0  0  0  0  # atno 17320 bound_to 7965
  145.9872  139.2986  143.1007 LP  0  0  0  0  0  0  0  0  0  0  0  0  # atno 17321 bound_to 7965
  139.5261  144.3056  152.1036 LP  0  0  0  0  0  0  0  0  0  0  0  0  # atno 17342 bound_to 10162
  140.2229  144.4448  150.6334 LP  0  0  0  0  0  0  0  0  0  0  0  0  # atno 17343 bound_to 10162
  157.7504  131.0146  150.3470 LP  0  0  0  0  0  0  0  0  0  0  0  0  # atno 17370 bound_to 10713
  156.3843  130.3886  149.7078 LP  0  0  0  0  0  0  0  0  0  0  0  0  # atno 17371 bound_to 10713
  139.9834  134.7101  155.9818 LP  0  0  0  0  0  0  0  0  0  0  0  0  # atno 17394 bound_to 11000
  141.1537  133.6545  156.4093 LP  0  0  0  0  0  0  0  0  0  0  0  0  # atno 17395 bound_to 11000

$$$$
