AV-unprocessed.smi:3262|AV-procd|sdf|12484|dock9
  -GOLD-   2272018383D 1   1.00000     0.00000
 Structure written by MMmdl.
 39 40  0  0  0  0  0  0  0  0  1 V2000
  150.4344  143.5186  157.6997 O   0  0  0  0  0  0  0  0  0  0  0  0
  150.9666  142.5986  158.3239 C   0  0  0  0  0  0  0  0  0  0  0  0
  150.4926  141.3426  158.2724 N   0  0  0  0  0  0  0  0  0  0  0  0
  149.3181  140.9292  157.5165 C   0  0  0  0  0  0  0  0  0  0  0  0
  149.5806  141.0386  156.0081 C   0  0  0  0  0  0  0  0  0  0  0  0
  150.5279  139.9638  155.5093 C   0  0  0  0  0  0  0  0  0  0  0  0
  151.8759  139.9413  155.9266 C   0  0  0  0  0  0  0  0  0  0  0  0
  152.7120  138.9180  155.4395 C   0  0  0  0  0  0  0  0  0  0  0  0
  152.1707  137.9612  154.5594 C   0  0  0  0  0  0  0  0  0  0  0  0
  150.8112  138.0700  154.2050 C   0  0  0  0  0  0  0  0  0  0  0  0
  150.0010  139.0471  154.6663 N   0  0  0  0  0  0  0  0  0  0  0  0
  152.0960  142.7572  159.0652 N   0  0  0  0  0  0  0  0  0  0  0  0
  152.8714  141.6443  159.6553 C   0  0  0  0  0  0  0  0  0  0  0  0
  153.4416  141.9232  161.0628 C   0  0  0  0  0  0  0  0  0  0  0  0
  152.4702  142.6313  162.0255 C   0  0  0  0  0  0  0  0  0  0  0  0
  152.5115  144.1643  161.9032 C   0  0  0  0  0  0  0  0  0  0  0  0
  151.9576  144.7216  160.5818 C   0  0  0  0  0  0  0  0  0  0  0  0
  152.6104  144.1098  159.3289 C   0  0  0  0  0  0  0  0  0  0  0  0
  150.9837  140.6273  158.7884 H   0  0  0  0  0  0  0  0  0  0  0  0
  149.0596  139.9010  157.7754 H   0  0  0  0  0  0  0  0  0  0  0  0
  148.4716  141.5569  157.7993 H   0  0  0  0  0  0  0  0  0  0  0  0
  148.6410  140.9639  155.4587 H   0  0  0  0  0  0  0  0  0  0  0  0
  149.9962  142.0194  155.7722 H   0  0  0  0  0  0  0  0  0  0  0  0
  152.2611  140.6880  156.6055 H   0  0  0  0  0  0  0  0  0  0  0  0
  153.7492  138.8676  155.7358 H   0  0  0  0  0  0  0  0  0  0  0  0
  152.7822  137.1626  154.1661 H   0  0  0  0  0  0  0  0  0  0  0  0
  150.3625  137.3532  153.5333 H   0  0  0  0  0  0  0  0  0  0  0  0
  152.2586  140.7483  159.7589 H   0  0  0  0  0  0  0  0  0  0  0  0
  153.6807  141.3785  158.9742 H   0  0  0  0  0  0  0  0  0  0  0  0
  153.7316  140.9665  161.4986 H   0  0  0  0  0  0  0  0  0  0  0  0
  154.3692  142.4919  160.9903 H   0  0  0  0  0  0  0  0  0  0  0  0
  151.4539  142.2574  161.8945 H   0  0  0  0  0  0  0  0  0  0  0  0
  152.7544  142.3729  163.0460 H   0  0  0  0  0  0  0  0  0  0  0  0
  151.9445  144.5996  162.7265 H   0  0  0  0  0  0  0  0  0  0  0  0
  153.5378  144.5079  162.0375 H   0  0  0  0  0  0  0  0  0  0  0  0
  150.8759  144.5858  160.5470 H   0  0  0  0  0  0  0  0  0  0  0  0
  152.1198  145.7997  160.5719 H   0  0  0  0  0  0  0  0  0  0  0  0
  153.6965  144.1005  159.4254 H   0  0  0  0  0  0  0  0  0  0  0  0
  152.4195  144.7567  158.4707 H   0  0  0  0  0  0  0  0  0  0  0  0
  1  2  2  0  0  0  0
  2  3  1  0  0  0  0
  2 12  1  0  0  0  0
  3  4  1  0  0  0  0
  3 19  1  0  0  0  0
  4  5  1  0  0  0  0
  4 20  1  0  0  0  0
  4 21  1  0  0  0  0
  5  6  1  0  0  0  0
  5 22  1  0  0  0  0
  5 23  1  0  0  0  0
  6 11  1  0  0  0  0
  6  7  2  0  0  0  0
  7  8  1  0  0  0  0
  7 24  1  0  0  0  0
  8  9  2  0  0  0  0
  8 25  1  0  0  0  0
  9 10  1  0  0  0  0
  9 26  1  0  0  0  0
 10 11  2  0  0  0  0
 10 27  1  0  0  0  0
 12 18  1  0  0  0  0
 12 13  1  0  0  0  0
 13 14  1  0  0  0  0
 13 28  1  0  0  0  0
 13 29  1  0  0  0  0
 14 15  1  0  0  0  0
 14 30  1  0  0  0  0
 14 31  1  0  0  0  0
 15 16  1  0  0  0  0
 15 32  1  0  0  0  0
 15 33  1  0  0  0  0
 16 17  1  0  0  0  0
 16 34  1  0  0  0  0
 16 35  1  0  0  0  0
 17 18  1  0  0  0  0
 17 36  1  0  0  0  0
 17 37  1  0  0  0  0
 18 38  1  0  0  0  0
 18 39  1  0  0  0  0
M  END
> <s_m_source_file>
AV-unprocessed.smi

> <i_m_source_file_index>
3262

> <i_lp_mmshare_version>
43012

> <i_f3d_flags>
0

> <s_epik_input>
W0NIMl0xW0NIMl1bQ0gyXVtDSDJdW0NIMl1bQ0gyXU4xQyg9TylbTkhdW0NIMl1bQ0gyXWMyW2NIXVtjSF1bY0hdW2NIXW4y

> <s_epik_cmdline>
J2VwaWtfcHl0aG9uJywgJy1waCcsICc3LjAnLCAnLXRuJywgJzgnLCAnLW1hJywgJzIwMCcsICctbWV0YWxfYmluZGluZycsICctaW1hZScsICc8aW5maWxlLm1hZT4nLCAnLW9tYWUnLCAnPG91dGZpbGUubWFlPic=

> <r_epik_Ionization_Penalty>
0.0449498

> <r_epik_Ionization_Penalty_Charging>
0

> <r_epik_Ionization_Penalty_Neutral>
0.0449498

> <r_epik_State_Penalty>
0.0380669

> <r_epik_Charging_Adjusted_Penalty>
0.0380669

> <i_epik_Tot_Q>
0

> <i_epik_Tot_abs_Q>
0

> <r_epik_Metal_State_Penalty>
0.0353734

> <b_epik_Metal_Only>
0

> <s_lp_Force_Field>
OPLS_2005

> <r_lp_Energy>
31.2799

> <b_lp_Chiralities_Consistent>
1

> <s_lp_Variant>
AV-unprocessed.smi:3262-1

> <Gold.Version>
5.8.1

> <Gold.Id.Protein>
6NUR|6NUR_protein|mol2

> <Gold.PLP.Fitness>
46.4363

> <Gold.PLP.PLP>
-43.3194

> <Gold.PLP.part.hbond>
0.0000

> <Gold.PLP.part.metal>
0.0000

> <Gold.PLP.part.buried>
-5.5420

> <Gold.PLP.part.nonpolar>
-40.3498

> <Gold.PLP.part.repulsive>
2.3589

> <Gold.PLP.ligand.clash>
0.0000

> <Gold.PLP.ligand.torsion>
0.1409

> <Gold.PLP.Chemscore.Hbond>
0.0000

> <Gold.PLP.Chemscore.CHOScore>
1.1292

> <Gold.PLP.Chemscore.Metal>
0.0000

> <Gold.Chemscore.Hbonds>
donor molecule, donor type, donor heavy atom, donor atom, acceptor molecule, acceptor atom, score
      L1  C    10    27       P1  7948  0.79
      L1  C    10    27       P1  7949  0.33

> <Gold.PLP.Chemscore.Internal.Correction>
0.0111

> <Gold.Rescore>
     Score         DG    S(hbond)    S(metal)    S(lipo)     H(rot)  DE(clash)    DE(int)     intcor
     15.68     -15.87       0.00        0.00     116.69       1.27       0.02       0.17       ----

> <Gold.Chemscore.Fitness>
15.6756

> <Gold.Chemscore.DG>
-15.8722

> <Gold.Chemscore.ZeroCoef>
-5.4800

> <Gold.Chemscore.Hbond>
0.0000

> <Gold.Chemscore.Metal>
0.0000

> <Gold.Chemscore.Lipo>
116.6943

> <Gold.Chemscore.Internal_Hbond>
0.0000

> <Gold.Chemscore.DEClash>
0.0237

> <Gold.Chemscore.DEInternal>
0.1729

> <Gold.Chemscore.Rot>
1.2738

> <Gold.Chemscore.Internal.Correction>
   9.000000E+99

> <Gold.Chemscore.Hbond.Weighted>
-0.0000

> <Gold.Chemscore.Metal.Weighted>
-0.0000

> <Gold.Chemscore.Lipo.Weighted>
-13.6532

> <Gold.Chemscore.Internal_Hbond.Weighted>
0.0000

> <Gold.Chemscore.DEClash.Weighted>
0.0237

> <Gold.Chemscore.DEInternal.Weighted>
0.1729

> <Gold.Chemscore.Rot.Weighted>
3.2610

> <Gold.Chemscore.Internal.Correction.Weighted>
   9.000000E+99

> <Gold.Protein.RotatedTorsions>
[ 6907 6896 6895 6894 ] final -128.37 input  -60.11 | X-H torsion
[ 7974 7965 7964 7962 ] final   92.50 input  175.53 | X-H torsion
[ 8008 7997 7996 7995 ] final   -6.94 input   59.86 | X-H torsion
[ 10167 10162 10161 10158 ] final  -15.72 input  -65.29 | X-H torsion
[ 10718 10713 10712 10709 ] final  177.82 input   66.30 | X-H torsion
[ 10763 10752 10751 10750 ] final -115.54 input  -60.55 | X-H torsion
[ 11005 11000 10999 10996 ] final -118.41 input  -57.11 | X-H torsion

> <Gold.Protein.ActiveResidues>
 VAL166  LYS551  ARG553  GLY616  TRP617  ASP618  TYR619  PRO620  LYS621  CYS622 
 ASP623  PHE694  ASN695  SER759  ASP760  ASP761  ALA762  ILE779  LEU786  VAL792 
 PHE793  MET794  SER795  GLU796  ALA797  LYS798  CYS799  TRP800  GLU811  SER814 

> <Gold.Protein.RotatedAtoms>
  150.9172  133.6925  159.2840 H   0  0  0  0  0  0  0  0  0  0  0  0  # atno 6907 bound_to 6896
  151.4392  135.1017  159.9674 H   0  0  0  0  0  0  0  0  0  0  0  0  # atno 6908 bound_to 6896
  152.4961  133.8584  159.7292 H   0  0  0  0  0  0  0  0  0  0  0  0  # atno 6909 bound_to 6896
  145.4915  139.2276  143.2827 H   0  0  0  0  0  0  0  0  0  0  0  0  # atno 7974 bound_to 7965
  154.5888  140.2420  155.7950 H   0  0  0  0  0  0  0  0  0  0  0  0  # atno 8008 bound_to 7997
  156.2232  140.2991  155.9957 H   0  0  0  0  0  0  0  0  0  0  0  0  # atno 8009 bound_to 7997
  155.2411  140.0407  157.2965 H   0  0  0  0  0  0  0  0  0  0  0  0  # atno 8010 bound_to 7997
  140.7223  143.5189  150.9658 H   0  0  0  0  0  0  0  0  0  0  0  0  # atno 10167 bound_to 10162
  156.8996  130.9874  151.3037 H   0  0  0  0  0  0  0  0  0  0  0  0  # atno 10718 bound_to 10713
  154.8485  135.4378  154.1678 H   0  0  0  0  0  0  0  0  0  0  0  0  # atno 10763 bound_to 10752
  153.2799  135.6952  153.7402 H   0  0  0  0  0  0  0  0  0  0  0  0  # atno 10764 bound_to 10752
  153.6610  135.3435  155.3102 H   0  0  0  0  0  0  0  0  0  0  0  0  # atno 10765 bound_to 10752
  141.0288  134.0013  157.3174 H   0  0  0  0  0  0  0  0  0  0  0  0  # atno 11005 bound_to 11000
  146.2281  140.5709  142.8987 LP  0  0  0  0  0  0  0  0  0  0  0  0  # atno 17320 bound_to 7965
  144.7831  140.5881  143.6592 LP  0  0  0  0  0  0  0  0  0  0  0  0  # atno 17321 bound_to 7965
  139.8906  143.6958  152.3146 LP  0  0  0  0  0  0  0  0  0  0  0  0  # atno 17342 bound_to 10162
  139.7273  144.7590  151.0859 LP  0  0  0  0  0  0  0  0  0  0  0  0  # atno 17343 bound_to 10162
  157.6034  130.8529  149.8837 LP  0  0  0  0  0  0  0  0  0  0  0  0  # atno 17370 bound_to 10713
  156.0588  130.3703  150.1029 LP  0  0  0  0  0  0  0  0  0  0  0  0  # atno 17371 bound_to 10713
  139.9194  135.0199  156.8005 LP  0  0  0  0  0  0  0  0  0  0  0  0  # atno 17394 bound_to 11000
  140.6444  133.9789  155.7723 LP  0  0  0  0  0  0  0  0  0  0  0  0  # atno 17395 bound_to 11000

$$$$
