#       Name:                AV-unprocessed.smi:1466
#       Creating user name   scv26
#       Creation time:       Fri Mar 27 06:04:02 2020


#       File generated by GOLD software.
#

@<TRIPOS>MOLECULE
AV-unprocessed.smi:1466
    53    54     1
SMALL
NO_CHARGES


@<TRIPOS>ATOM
      1 ****        -7.4025   2.5066  -0.0791 C.3            1 S1                 0.0000
      2 ****        -6.2885   3.2952  -0.5908 N.pl3          1 S1                 0.0000
      3 ****        -6.4703   4.7161  -0.8699 C.3            1 S1                 0.0000
      4 ****        -5.0225   2.6965  -0.7851 C.ar           1 S1                 0.0000
      5 ****        -4.8066   1.3204  -0.5253 C.ar           1 S1                 0.0000
      6 ****        -3.5274   0.7694  -0.7344 C.ar           1 S1                 0.0000
      7 ****        -2.4857   1.6078  -1.1934 C.ar           1 S1                 0.0000
      8 ****        -1.1597   1.1729  -1.4630 N.am           1 S1                 0.0000
      9 ****        -0.5306   0.0687  -1.0255 C.2            1 S1                 0.0000
     10 ****        -1.0084  -0.7699  -0.2619 O.2            1 S1                 0.0000
     11 ****         0.7155  -0.0021  -1.5149 N.am           1 S1                 0.0000
     12 ****         1.6688  -1.0667  -1.2260 C.3            1 S1                 0.0000
     13 ****         2.3677  -0.8464   0.1284 C.3            1 S1                 0.0000
     14 ****         3.3973  -1.8630   0.3731 N.am           1 S1                 0.0000
     15 ****         4.7830  -1.4637   0.0803 C.3            1 S1                 0.0000
     16 ****         5.6579  -1.2788   1.3416 C.3            1 S1                 0.0000
     17 ****         5.3007  -2.1624   2.5533 C.3            1 S1                 0.0000
     18 ****         5.1914  -3.6720   2.2526 C.3            1 S1                 0.0000
     19 ****         4.2311  -4.0837   1.1107 C.3            1 S1                 0.0000
     20 ****         3.0849  -3.0917   0.8535 C.2            1 S1                 0.0000
     21 ****         1.9299  -3.4452   1.0920 O.2            1 S1                 0.0000
     22 ****        -2.7981   2.9593  -1.4362 C.ar           1 S1                 0.0000
     23 ****        -4.0215   3.4911  -1.2364 N.ar           1 S1                 0.0000
     24 ****        -7.1615   2.0931   0.9006 H              1 S1                 0.0000
     25 ****        -7.6354   1.6855  -0.7579 H              1 S1                 0.0000
     26 ****        -8.3020   3.1129   0.0287 H              1 S1                 0.0000
     27 ****        -5.8077   5.3172  -0.2465 H              1 S1                 0.0000
     28 ****        -7.4939   5.0333  -0.6712 H              1 S1                 0.0000
     29 ****        -6.2522   4.9313  -1.9165 H              1 S1                 0.0000
     30 ****        -5.5963   0.6737  -0.1746 H              1 S1                 0.0000
     31 ****        -3.3801  -0.2833  -0.5525 H              1 S1                 0.0000
     32 ****        -0.6052   1.8051  -2.0217 H              1 S1                 0.0000
     33 ****         1.0273   0.7331  -2.1325 H              1 S1                 0.0000
     34 ****         1.1671  -2.0355  -1.2538 H              1 S1                 0.0000
     35 ****         2.4088  -1.0785  -2.0266 H              1 S1                 0.0000
     36 ****         2.8091   0.1507   0.1608 H              1 S1                 0.0000
     37 ****         1.6352  -0.8590   0.9377 H              1 S1                 0.0000
     38 ****         5.2368  -2.2063  -0.5761 H              1 S1                 0.0000
     39 ****         4.8076  -0.5466  -0.5096 H              1 S1                 0.0000
     40 ****         6.7026  -1.4345   1.0704 H              1 S1                 0.0000
     41 ****         5.5900  -0.2381   1.6602 H              1 S1                 0.0000
     42 ****         6.0512  -2.0123   3.3299 H              1 S1                 0.0000
     43 ****         4.3662  -1.8113   2.9936 H              1 S1                 0.0000
     44 ****         6.1849  -4.0598   2.0254 H              1 S1                 0.0000
     45 ****         4.8835  -4.1788   3.1679 H              1 S1                 0.0000
     46 ****         4.7893  -4.2251   0.1854 H              1 S1                 0.0000
     47 ****         3.8112  -5.0655   1.3336 H              1 S1                 0.0000
     48 ****        -2.0423   3.6399  -1.8001 H              1 S1                 0.0000
     49 ****        -1.9396  -0.6574   0.0849 LP             1 S1                 0.0000
     50 ****        -0.4655  -1.5638   0.0118 LP             1 S1                 0.0000
     51 ****         1.1707  -2.8143   0.9319 LP             1 S1                 0.0000
     52 ****         1.7509  -4.3632   1.4458 LP             1 S1                 0.0000
     53 ****        -4.1880   4.4601  -1.4190 LP             1 S1                 0.0000
@<TRIPOS>BOND
    1    1    2 1     
    2    1   24 1     
    3    1   25 1     
    4    1   26 1     
    5    2    3 1     
    6    2    4 1     
    7    3   27 1     
    8    3   28 1     
    9    3   29 1     
   10    4   23 ar    
   11    4    5 ar    
   12    5    6 ar    
   13    5   30 1     
   14    6    7 ar    
   15    6   31 1     
   16    7    8 1     
   17    7   22 ar    
   18    8    9 am    
   19    8   32 1     
   20    9   10 2     
   21    9   11 am    
   22   11   12 1     
   23   11   33 1     
   24   12   13 1     
   25   12   34 1     
   26   12   35 1     
   27   13   14 1     
   28   13   36 1     
   29   13   37 1     
   30   14   20 am    
   31   14   15 1     
   32   15   16 1     
   33   15   38 1     
   34   15   39 1     
   35   16   17 1     
   36   16   40 1     
   37   16   41 1     
   38   17   18 1     
   39   17   42 1     
   40   17   43 1     
   41   18   19 1     
   42   18   44 1     
   43   18   45 1     
   44   19   20 1     
   45   19   46 1     
   46   19   47 1     
   47   20   21 2     
   48   22   23 ar    
   49   22   48 1     
   50   10   49 1     
   51   10   50 1     
   52   21   51 1     
   53   21   52 1     
   54   23   53 1     
@<TRIPOS>SUBSTRUCTURE
      1 S1             1
@<TRIPOS>SET
LONE_PAIRS      STATIC     ATOMS    <user>   **** ""
5 49 50 51 52 53
DONOR_HYDROGENS      STATIC     ATOMS    <user>   **** ""
2 32 33
ATOM$BLUE        STATIC     ATOMS    COLORGROUP SYSTEM
5 49 50 51 52 53
ATOM$RED        STATIC     ATOMS    COLORGROUP SYSTEM
2 32 33
