AV-unprocessed.smi:704|AV-procd|sdf|3444|dock4
  -GOLD-   22720 0433D 1   1.00000     0.00000
 Structure written by MMmdl.
 38 39  0  0  0  0  0  0  0  0  1 V2000
  146.0074  142.2087  154.0172 C   0  0  0  0  0  0  0  0  0  0  0  0
  147.2520  142.1762  154.7072 O   0  0  0  0  0  0  0  0  0  0  0  0
  148.0829  141.0884  154.5181 C   0  0  0  0  0  0  0  0  0  0  0  0
  147.6673  140.0943  153.6932 N   0  0  0  0  0  0  0  0  0  0  0  0
  148.4765  139.0308  153.5099 C   0  0  0  0  0  0  0  0  0  0  0  0
  149.7289  138.8984  154.1370 C   0  0  0  0  0  0  0  0  0  0  0  0
  150.1621  139.9278  154.9927 C   0  0  0  0  0  0  0  0  0  0  0  0
  149.3303  141.0573  155.1841 C   0  0  0  0  0  0  0  0  0  0  0  0
  149.6624  142.1396  156.0442 N   0  0  0  0  0  0  0  0  0  0  0  0
  150.7289  142.2668  156.8509 C   0  0  0  0  0  0  0  0  0  0  0  0
  151.6436  141.4499  156.9569 O   0  0  0  0  0  0  0  0  0  0  0  0
  150.6944  143.4286  157.5183 N   0  0  0  0  0  0  0  0  0  0  0  0
  151.7227  143.8911  158.4521 C   0  0  2  0  0  0  0  0  0  0  0  0
  152.2581  142.7306  159.3120 C   0  0  0  0  0  0  0  0  0  0  0  0
  152.4209  143.2721  160.7385 C   0  0  0  0  0  0  0  0  0  0  0  0
  152.1874  144.7826  160.6453 C   0  0  0  0  0  0  0  0  0  0  0  0
  151.2547  144.9902  159.4427 C   0  0  2  0  0  0  0  0  0  0  0  0
  149.7729  144.9001  159.8687 C   0  0  0  0  0  0  0  0  0  0  0  0
  149.0530  143.9053  159.3441 N   0  0  0  0  0  0  0  0  0  0  0  0
  149.2870  145.7054  160.6614 O   0  0  0  0  0  0  0  0  0  0  0  0
  145.4825  143.1309  154.2650 H   0  0  0  0  0  0  0  0  0  0  0  0
  145.3680  141.3749  154.3100 H   0  0  0  0  0  0  0  0  0  0  0  0
  146.1493  142.1898  152.9356 H   0  0  0  0  0  0  0  0  0  0  0  0
  148.1116  138.2591  152.8484 H   0  0  0  0  0  0  0  0  0  0  0  0
  150.3407  138.0244  153.9699 H   0  0  0  0  0  0  0  0  0  0  0  0
  151.1114  139.8244  155.4952 H   0  0  0  0  0  0  0  0  0  0  0  0
  149.0486  142.9393  155.9879 H   0  0  0  0  0  0  0  0  0  0  0  0
  149.9114  144.0462  157.3617 H   0  0  0  0  0  0  0  0  0  0  0  0
  152.5615  144.2900  157.8777 H   0  0  0  0  0  0  0  0  0  0  0  0
  151.5719  141.8822  159.3192 H   0  0  0  0  0  0  0  0  0  0  0  0
  153.2082  142.3700  158.9164 H   0  0  0  0  0  0  0  0  0  0  0  0
  151.6723  142.8208  161.3907 H   0  0  0  0  0  0  0  0  0  0  0  0
  153.3991  143.0385  161.1594 H   0  0  0  0  0  0  0  0  0  0  0  0
  151.7915  145.1924  161.5757 H   0  0  0  0  0  0  0  0  0  0  0  0
  153.1359  145.2861  160.4534 H   0  0  0  0  0  0  0  0  0  0  0  0
  151.4255  145.9761  159.0066 H   0  0  0  0  0  0  0  0  0  0  0  0
  148.0778  143.8058  159.5869 H   0  0  0  0  0  0  0  0  0  0  0  0
  149.4863  143.2582  158.7015 H   0  0  0  0  0  0  0  0  0  0  0  0
  1  2  1  0  0  0  0
  1 21  1  0  0  0  0
  1 22  1  0  0  0  0
  1 23  1  0  0  0  0
  2  3  1  0  0  0  0
  3  8  1  0  0  0  0
  3  4  2  0  0  0  0
  4  5  1  0  0  0  0
  5  6  2  0  0  0  0
  5 24  1  0  0  0  0
  6  7  1  0  0  0  0
  6 25  1  0  0  0  0
  7  8  2  0  0  0  0
  7 26  1  0  0  0  0
  8  9  1  0  0  0  0
  9 10  1  0  0  0  0
  9 27  1  0  0  0  0
 10 11  2  0  0  0  0
 10 12  1  0  0  0  0
 12 13  1  0  0  0  0
 12 28  1  0  0  0  0
 13 17  1  0  0  0  0
 13 14  1  0  0  0  0
 13 29  1  0  0  0  0
 14 15  1  0  0  0  0
 14 30  1  0  0  0  0
 14 31  1  0  0  0  0
 15 16  1  0  0  0  0
 15 32  1  0  0  0  0
 15 33  1  0  0  0  0
 16 17  1  0  0  0  0
 16 34  1  0  0  0  0
 16 35  1  0  0  0  0
 17 18  1  0  0  0  0
 17 36  1  0  0  0  0
 18 19  1  0  0  0  0
 18 20  2  0  0  0  0
 19 37  1  0  0  0  0
 19 38  1  0  0  0  0
M  END
> <s_m_source_file>
AV-unprocessed.smi

> <i_m_source_file_index>
704

> <i_lp_mmshare_version>
43012

> <i_f3d_flags>
0

> <s_epik_input>
W0NIM11PYzFuW2NIXVtjSF1bY0hdYzFbTkhdQyg9TylbTkhdW0NAQEhdMltDSDJdW0NIMl1bQ0gyXVtDQEhdMkMoPU8pW05IMl0=

> <s_epik_cmdline>
J2VwaWtfcHl0aG9uJywgJy1waCcsICc3LjAnLCAnLXRuJywgJzgnLCAnLW1hJywgJzIwMCcsICctbWV0YWxfYmluZGluZycsICctaW1hZScsICc8aW5maWxlLm1hZT4nLCAnLW9tYWUnLCAnPG91dGZpbGUubWFlPic=

> <r_lp_tautomer_probability>
1

> <r_epik_Ionization_Penalty>
9.09123e-05

> <r_epik_Ionization_Penalty_Charging>
0

> <r_epik_Ionization_Penalty_Neutral>
9.09123e-05

> <r_epik_State_Penalty>
-0

> <r_epik_Charging_Adjusted_Penalty>
0

> <i_epik_Tot_Q>
0

> <i_epik_Tot_abs_Q>
0

> <r_epik_Metal_State_Penalty>
-0

> <b_epik_Metal_Only>
0

> <s_lp_Force_Field>
OPLS_2005

> <r_lp_Energy>
16.4905

> <b_lp_Chiralities_Consistent>
1

> <s_lp_Variant>
AV-unprocessed.smi:704-3

> <Gold.Version>
5.8.1

> <Gold.Id.Protein>
6NUR|6NUR_protein|mol2

> <Gold.PLP.Fitness>
48.1572

> <Gold.PLP.PLP>
-40.3083

> <Gold.PLP.part.hbond>
-3.9779

> <Gold.PLP.part.metal>
0.0000

> <Gold.PLP.part.buried>
-1.8489

> <Gold.PLP.part.nonpolar>
-35.9779

> <Gold.PLP.part.repulsive>
1.9691

> <Gold.PLP.ligand.clash>
0.0000

> <Gold.PLP.ligand.torsion>
0.3032

> <Gold.PLP.Chemscore.Hbond>
1.8112

> <Gold.PLP.Chemscore.CHOScore>
1.0000

> <Gold.PLP.Chemscore.Metal>
0.0000

> <Gold.Chemscore.Hbonds>
donor molecule, donor type, donor heavy atom, donor atom, acceptor molecule, acceptor atom, score
      L1  H     9    27       P1  8028  0.96
      L1  H    12    28       P1  8028  0.63
      L1  C     5    24       P1  7948  1.00

> <Gold.PLP.Chemscore.Internal.Correction>
0.0218

> <Gold.Rescore>
     Score         DG    S(hbond)    S(metal)    S(lipo)     H(rot)  DE(clash)    DE(int)     intcor
     11.60     -17.26       1.73        0.00      92.15       1.86       0.60       5.07       ----

> <Gold.Chemscore.Fitness>
11.5963

> <Gold.Chemscore.DG>
-17.2632

> <Gold.Chemscore.ZeroCoef>
-5.4800

> <Gold.Chemscore.Hbond>
1.7293

> <Gold.Chemscore.Metal>
0.0000

> <Gold.Chemscore.Lipo>
92.1469

> <Gold.Chemscore.Internal_Hbond>
0.0000

> <Gold.Chemscore.DEClash>
0.5963

> <Gold.Chemscore.DEInternal>
5.0706

> <Gold.Chemscore.Rot>
1.8648

> <Gold.Chemscore.Internal.Correction>
   9.000000E+99

> <Gold.Chemscore.Hbonds>
donor molecule, donor type, donor heavy atom, donor atom, acceptor molecule, acceptor atom, score
      L1  H     9    27       P1  8028  0.92
      L1  H    12    28       P1  8028  0.40

> <Gold.Chemscore.Hbond.Weighted>
-5.7759

> <Gold.Chemscore.Metal.Weighted>
-0.0000

> <Gold.Chemscore.Lipo.Weighted>
-10.7812

> <Gold.Chemscore.Internal_Hbond.Weighted>
0.0000

> <Gold.Chemscore.DEClash.Weighted>
0.5963

> <Gold.Chemscore.DEInternal.Weighted>
5.0706

> <Gold.Chemscore.Rot.Weighted>
4.7739

> <Gold.Chemscore.Internal.Correction.Weighted>
   9.000000E+99

> <Gold.Protein.RotatedTorsions>
[ 6907 6896 6895 6894 ] final   27.02 input  -60.11 | X-H torsion
[ 7974 7965 7964 7962 ] final  153.81 input  175.53 | X-H torsion
[ 8008 7997 7996 7995 ] final  128.23 input   59.86 | X-H torsion
[ 10167 10162 10161 10158 ] final  160.91 input  -65.29 | X-H torsion
[ 10718 10713 10712 10709 ] final   34.74 input   66.30 | X-H torsion
[ 10763 10752 10751 10750 ] final   73.57 input  -60.55 | X-H torsion
[ 11005 11000 10999 10996 ] final  -74.70 input  -57.11 | X-H torsion

> <Gold.Protein.ActiveResidues>
 VAL166  LYS551  ARG553  GLY616  TRP617  ASP618  TYR619  PRO620  LYS621  CYS622 
 ASP623  PHE694  ASN695  SER759  ASP760  ASP761  ALA762  ILE779  LEU786  VAL792 
 PHE793  MET794  SER795  GLU796  ALA797  LYS798  CYS799  TRP800  GLU811  SER814 

> <Gold.Protein.RotatedAtoms>
  151.9960  134.9954  160.0563 H   0  0  0  0  0  0  0  0  0  0  0  0  # atno 6907 bound_to 6896
  152.1563  133.4549  159.4847 H   0  0  0  0  0  0  0  0  0  0  0  0  # atno 6908 bound_to 6896
  150.6882  134.2044  159.4378 H   0  0  0  0  0  0  0  0  0  0  0  0  # atno 6909 bound_to 6896
  144.8130  139.6850  143.6133 H   0  0  0  0  0  0  0  0  0  0  0  0  # atno 7974 bound_to 7965
  156.2910  140.2650  156.2402 H   0  0  0  0  0  0  0  0  0  0  0  0  # atno 8008 bound_to 7997
  154.9985  140.0388  157.2368 H   0  0  0  0  0  0  0  0  0  0  0  0  # atno 8009 bound_to 7997
  154.7623  140.2763  155.6209 H   0  0  0  0  0  0  0  0  0  0  0  0  # atno 8010 bound_to 7997
  139.4844  144.4588  151.8732 H   0  0  0  0  0  0  0  0  0  0  0  0  # atno 10167 bound_to 10162
  157.3141  130.7414  149.6743 H   0  0  0  0  0  0  0  0  0  0  0  0  # atno 10718 bound_to 10713
  153.0530  135.5058  154.7914 H   0  0  0  0  0  0  0  0  0  0  0  0  # atno 10763 bound_to 10752
  154.6761  135.2960  154.9679 H   0  0  0  0  0  0  0  0  0  0  0  0  # atno 10764 bound_to 10752
  154.0481  135.6708  153.4850 H   0  0  0  0  0  0  0  0  0  0  0  0  # atno 10765 bound_to 10752
  141.1638  133.6920  156.7404 H   0  0  0  0  0  0  0  0  0  0  0  0  # atno 11005 bound_to 11000
  146.2430  139.6040  142.9478 LP  0  0  0  0  0  0  0  0  0  0  0  0  # atno 17320 bound_to 7965
  145.5280  141.0428  143.2398 LP  0  0  0  0  0  0  0  0  0  0  0  0  # atno 17321 bound_to 7965
  140.4049  144.2445  150.5891 LP  0  0  0  0  0  0  0  0  0  0  0  0  # atno 17342 bound_to 10162
  140.5022  143.2314  151.8662 LP  0  0  0  0  0  0  0  0  0  0  0  0  # atno 17343 bound_to 10162
  155.9680  130.4242  150.4600 LP  0  0  0  0  0  0  0  0  0  0  0  0  # atno 17370 bound_to 10713
  157.2604  131.0565  151.2324 LP  0  0  0  0  0  0  0  0  0  0  0  0  # atno 17371 bound_to 10713
  140.2679  134.8415  157.3819 LP  0  0  0  0  0  0  0  0  0  0  0  0  # atno 17394 bound_to 11000
  140.1549  134.4802  155.7935 LP  0  0  0  0  0  0  0  0  0  0  0  0  # atno 17395 bound_to 11000

$$$$
