AV-unprocessed.smi:301|AV-procd|sdf|2270|dock6
  -GOLD-   2262022163D 1   1.00000     0.00000
 Structure written by MMmdl.
 32 33  0  0  0  0  0  0  0  0  1 V2000
  153.2247  142.1550  161.6080 C   0  0  0  0  0  0  0  0  0  0  0  0
  152.5200  143.0276  160.6265 C   0  0  0  0  0  0  0  0  0  0  0  0
  152.3869  142.7261  159.3325 N   0  0  0  0  0  0  0  0  0  0  0  0
  151.6944  143.7091  158.6169 C   0  0  0  0  0  0  0  0  0  0  0  0
  151.4540  143.5352  157.1448 C   0  0  0  0  0  0  0  0  0  0  0  0
  150.8676  142.1513  156.8503 C   0  0  0  0  0  0  0  0  0  0  0  0
  151.4275  141.1375  157.2691 O   0  0  0  0  0  0  0  0  0  0  0  0
  149.7333  142.1217  156.1337 N   0  0  0  0  0  0  0  0  0  0  0  0
  149.0071  140.9122  155.7637 C   0  0  0  0  0  0  0  0  0  0  0  0
  147.6229  141.2390  155.1790 C   0  0  2  0  0  0  0  0  0  0  0  0
  147.6750  141.9262  153.8186 C   0  0  0  0  0  0  0  0  0  0  0  0
  146.3009  142.5566  153.7422 C   0  0  0  0  0  0  0  0  0  0  0  0
  146.0034  142.9116  155.2009 C   0  0  0  0  0  0  0  0  0  0  0  0
  146.9404  142.1844  155.9928 O   0  0  0  0  0  0  0  0  0  0  0  0
  151.2918  144.7630  159.4004 C   0  0  0  0  0  0  0  0  0  0  0  0
  151.7813  144.5641  161.0606 S   0  0  0  0  0  0  0  0  0  0  0  0
  153.4350  141.1778  161.1723 H   0  0  0  0  0  0  0  0  0  0  0  0
  152.6062  142.0153  162.4947 H   0  0  0  0  0  0  0  0  0  0  0  0
  154.1666  142.6161  161.9056 H   0  0  0  0  0  0  0  0  0  0  0  0
  150.7607  144.2902  156.7724 H   0  0  0  0  0  0  0  0  0  0  0  0
  152.3843  143.6744  156.5919 H   0  0  0  0  0  0  0  0  0  0  0  0
  149.3352  143.0007  155.8362 H   0  0  0  0  0  0  0  0  0  0  0  0
  149.6022  140.3613  155.0348 H   0  0  0  0  0  0  0  0  0  0  0  0
  148.9056  140.2625  156.6347 H   0  0  0  0  0  0  0  0  0  0  0  0
  147.0114  140.3380  155.1028 H   0  0  0  0  0  0  0  0  0  0  0  0
  148.4433  142.7009  153.8089 H   0  0  0  0  0  0  0  0  0  0  0  0
  147.8738  141.2347  152.9994 H   0  0  0  0  0  0  0  0  0  0  0  0
  146.2656  143.4207  153.0781 H   0  0  0  0  0  0  0  0  0  0  0  0
  145.5774  141.8235  153.3827 H   0  0  0  0  0  0  0  0  0  0  0  0
  146.1368  143.9780  155.3845 H   0  0  0  0  0  0  0  0  0  0  0  0
  144.9813  142.6468  155.4734 H   0  0  0  0  0  0  0  0  0  0  0  0
  150.7429  145.6435  159.1010 H   0  0  0  0  0  0  0  0  0  0  0  0
  1  2  1  0  0  0  0
  1 17  1  0  0  0  0
  1 18  1  0  0  0  0
  1 19  1  0  0  0  0
  2 16  1  0  0  0  0
  2  3  2  0  0  0  0
  3  4  1  0  0  0  0
  4  5  1  0  0  0  0
  4 15  2  0  0  0  0
  5  6  1  0  0  0  0
  5 20  1  0  0  0  0
  5 21  1  0  0  0  0
  6  7  2  0  0  0  0
  6  8  1  0  0  0  0
  8  9  1  0  0  0  0
  8 22  1  0  0  0  0
  9 10  1  0  0  0  0
  9 23  1  0  0  0  0
  9 24  1  0  0  0  0
 10 14  1  0  0  0  0
 10 11  1  0  0  0  0
 10 25  1  0  0  0  0
 11 12  1  0  0  0  0
 11 26  1  0  0  0  0
 11 27  1  0  0  0  0
 12 13  1  0  0  0  0
 12 28  1  0  0  0  0
 12 29  1  0  0  0  0
 13 14  1  0  0  0  0
 13 30  1  0  0  0  0
 13 31  1  0  0  0  0
 15 16  1  0  0  0  0
 15 32  1  0  0  0  0
M  END
> <s_m_source_file>
AV-unprocessed.smi

> <i_m_source_file_index>
301

> <i_lp_mmshare_version>
43012

> <i_f3d_flags>
0

> <s_epik_input>
W0NIM11jMW5jKFtjSF1zMSlbQ0gyXUMoPU8pW05IXVtDSDJdW0NAQEhdMltDSDJdW0NIMl1bQ0gyXU8y

> <s_epik_cmdline>
J2VwaWtfcHl0aG9uJywgJy1waCcsICc3LjAnLCAnLXRuJywgJzgnLCAnLW1hJywgJzIwMCcsICctbWV0YWxfYmluZGluZycsICctaW1hZScsICc8aW5maWxlLm1hZT4nLCAnLW9tYWUnLCAnPG91dGZpbGUubWFlPic=

> <r_lp_tautomer_probability>
1

> <r_epik_Ionization_Penalty>
6.06873e-05

> <r_epik_Ionization_Penalty_Charging>
0

> <r_epik_Ionization_Penalty_Neutral>
6.06873e-05

> <r_epik_State_Penalty>
-0

> <r_epik_Charging_Adjusted_Penalty>
0

> <i_epik_Tot_Q>
0

> <i_epik_Tot_abs_Q>
0

> <r_epik_Metal_State_Penalty>
-0

> <b_epik_Metal_Only>
0

> <s_lp_Force_Field>
OPLS_2005

> <r_lp_Energy>
15.97

> <b_lp_Chiralities_Consistent>
1

> <s_lp_Variant>
AV-unprocessed.smi:301-1

> <Gold.Version>
5.8.1

> <Gold.Id.Protein>
6NUR|6NUR_protein|mol2

> <Gold.PLP.Fitness>
40.3607

> <Gold.PLP.PLP>
-37.8547

> <Gold.PLP.part.hbond>
-1.0000

> <Gold.PLP.part.metal>
0.0000

> <Gold.PLP.part.buried>
-5.5695

> <Gold.PLP.part.nonpolar>
-30.2259

> <Gold.PLP.part.repulsive>
0.2660

> <Gold.PLP.ligand.clash>
0.0000

> <Gold.PLP.ligand.torsion>
0.2533

> <Gold.PLP.Chemscore.Hbond>
1.0000

> <Gold.PLP.Chemscore.CHOScore>
0.0000

> <Gold.PLP.Chemscore.Metal>
0.0000

> <Gold.Chemscore.Hbonds>
donor molecule, donor type, donor heavy atom, donor atom, acceptor molecule, acceptor atom, score
      L1  H     8    22       P1  8028  1.00

> <Gold.PLP.Chemscore.Internal.Correction>
0.0126

> <Gold.Rescore>
     Score         DG    S(hbond)    S(metal)    S(lipo)     H(rot)  DE(clash)    DE(int)     intcor
     14.50     -16.80       1.00        0.00     101.30       1.51       0.85       1.45       ----

> <Gold.Chemscore.Fitness>
14.4971

> <Gold.Chemscore.DG>
-16.8021

> <Gold.Chemscore.ZeroCoef>
-5.4800

> <Gold.Chemscore.Hbond>
0.9991

> <Gold.Chemscore.Metal>
0.0000

> <Gold.Chemscore.Lipo>
101.3011

> <Gold.Chemscore.Internal_Hbond>
0.0000

> <Gold.Chemscore.DEClash>
0.8545

> <Gold.Chemscore.DEInternal>
1.4506

> <Gold.Chemscore.Rot>
1.5106

> <Gold.Chemscore.Internal.Correction>
   9.000000E+99

> <Gold.Chemscore.Hbonds>
donor molecule, donor type, donor heavy atom, donor atom, acceptor molecule, acceptor atom, score
      L1  H     8    22       P1  8028  1.00

> <Gold.Chemscore.Hbond.Weighted>
-3.3369

> <Gold.Chemscore.Metal.Weighted>
-0.0000

> <Gold.Chemscore.Lipo.Weighted>
-11.8522

> <Gold.Chemscore.Internal_Hbond.Weighted>
0.0000

> <Gold.Chemscore.DEClash.Weighted>
0.8545

> <Gold.Chemscore.DEInternal.Weighted>
1.4506

> <Gold.Chemscore.Rot.Weighted>
3.8670

> <Gold.Chemscore.Internal.Correction.Weighted>
   9.000000E+99

> <Gold.Protein.RotatedTorsions>
[ 6907 6896 6895 6894 ] final  100.04 input  -60.11 | X-H torsion
[ 7974 7965 7964 7962 ] final -125.11 input  175.53 | X-H torsion
[ 8008 7997 7996 7995 ] final    5.63 input   59.86 | X-H torsion
[ 10167 10162 10161 10158 ] final  146.56 input  -65.29 | X-H torsion
[ 10718 10713 10712 10709 ] final  111.83 input   66.30 | X-H torsion
[ 10763 10752 10751 10750 ] final -174.67 input  -60.55 | X-H torsion
[ 11005 11000 10999 10996 ] final  148.41 input  -57.11 | X-H torsion

> <Gold.Protein.ActiveResidues>
 VAL166  LYS551  ARG553  GLY616  TRP617  ASP618  TYR619  PRO620  LYS621  CYS622 
 ASP623  PHE694  ASN695  SER759  ASP760  ASP761  ALA762  ILE779  LEU786  VAL792 
 PHE793  MET794  SER795  GLU796  ALA797  LYS798  CYS799  TRP800  GLU811  SER814 

> <Gold.Protein.RotatedAtoms>
  152.5380  134.0338  159.8036 H   0  0  0  0  0  0  0  0  0  0  0  0  # atno 6907 bound_to 6896
  151.0504  133.5621  159.2650 H   0  0  0  0  0  0  0  0  0  0  0  0  # atno 6908 bound_to 6896
  151.2557  135.0645  159.9133 H   0  0  0  0  0  0  0  0  0  0  0  0  # atno 6909 bound_to 6896
  145.0010  140.7820  143.4496 H   0  0  0  0  0  0  0  0  0  0  0  0  # atno 7974 bound_to 7965
  154.7307  140.2730  155.6458 H   0  0  0  0  0  0  0  0  0  0  0  0  # atno 8008 bound_to 7997
  156.2849  140.2716  156.1932 H   0  0  0  0  0  0  0  0  0  0  0  0  # atno 8009 bound_to 7997
  155.0385  140.0371  157.2490 H   0  0  0  0  0  0  0  0  0  0  0  0  # atno 8010 bound_to 7997
  139.4905  144.5820  151.6853 H   0  0  0  0  0  0  0  0  0  0  0  0  # atno 10167 bound_to 10162
  157.6424  131.0957  150.6806 H   0  0  0  0  0  0  0  0  0  0  0  0  # atno 10718 bound_to 10713
  154.5935  135.2847  155.0610 H   0  0  0  0  0  0  0  0  0  0  0  0  # atno 10763 bound_to 10752
  154.1902  135.6442  153.5061 H   0  0  0  0  0  0  0  0  0  0  0  0  # atno 10764 bound_to 10752
  153.0130  135.5444  154.6629 H   0  0  0  0  0  0  0  0  0  0  0  0  # atno 10765 bound_to 10752
  140.0957  134.9014  157.1720 H   0  0  0  0  0  0  0  0  0  0  0  0  # atno 11005 bound_to 11000
  145.2153  139.2185  143.5122 LP  0  0  0  0  0  0  0  0  0  0  0  0  # atno 17320 bound_to 7965
  146.3452  140.1999  142.8589 LP  0  0  0  0  0  0  0  0  0  0  0  0  # atno 17321 bound_to 7965
  140.5428  144.0551  150.6095 LP  0  0  0  0  0  0  0  0  0  0  0  0  # atno 17342 bound_to 10162
  140.3579  143.2925  152.0416 LP  0  0  0  0  0  0  0  0  0  0  0  0  # atno 17343 bound_to 10162
  156.7128  130.4657  149.5543 LP  0  0  0  0  0  0  0  0  0  0  0  0  # atno 17370 bound_to 10713
  156.1718  130.6442  151.0847 LP  0  0  0  0  0  0  0  0  0  0  0  0  # atno 17371 bound_to 10713
  140.3289  134.2832  155.7232 LP  0  0  0  0  0  0  0  0  0  0  0  0  # atno 17394 bound_to 11000
  141.2091  133.7758  157.0016 LP  0  0  0  0  0  0  0  0  0  0  0  0  # atno 17395 bound_to 11000

$$$$
