#       Name:                AV-unprocessed.smi:1936
#       Creating user name   scv26
#       Creation time:       Fri Mar 27 09:57:50 2020


#       File generated by GOLD software.
#

@<TRIPOS>MOLECULE
AV-unprocessed.smi:1936
    44    45     1
SMALL
NO_CHARGES


@<TRIPOS>ATOM
      1 ****        -1.6722  -1.0592   2.2138 C.3            1 S1                 0.0000
      2 ****        -1.2118  -0.2817   0.9733 C.3            1 S1                 0.0000
      3 ****        -1.7765  -0.9072  -0.3221 C.3            1 S1                 0.0000
      4 ****        -1.3886  -0.1609  -1.5460 N.4            1 S1                 1.0000
      5 ****        -1.3761  -1.0067  -2.7621 C.3            1 S1                 0.0000
      6 ****        -0.8925  -0.1901  -3.9729 C.3            1 S1                 0.0000
      7 ****        -1.7233   0.9518  -4.1436 O.3            1 S1                 0.0000
      8 ****        -1.6837   1.8143  -3.0129 C.3            1 S1                 0.0000
      9 ****        -2.1965   1.0619  -1.7738 C.3            1 S1                 0.0000
     10 ****         0.2506  -0.2426   0.9538 N.am           1 S1                 0.0000
     11 ****         1.0105   0.7838   0.5359 C.2            1 S1                 0.0000
     12 ****         0.5454   1.8146   0.0507 O.2            1 S1                 0.0000
     13 ****         2.5278   0.6170   0.6606 C.3            1 S1                 0.0000
     14 ****         2.9332   0.3231   2.0250 N.pl3          1 S1                 0.0000
     15 ****         3.2844  -0.8939   2.5720 C.2            1 S1                 0.0000
     16 ****         3.5846  -0.6775   3.8863 C.2            1 S1                 0.0000
     17 ****         3.3881   0.7220   4.0522 C.2            1 S1                 0.0000
     18 ****         3.0000   1.3182   2.9364 N.2            1 S1                 0.0000
     19 ****        -2.7602  -1.0737   2.2855 H              1 S1                 0.0000
     20 ****        -1.2896  -0.6035   3.1278 H              1 S1                 0.0000
     21 ****        -1.3276  -2.0936   2.1876 H              1 S1                 0.0000
     22 ****        -1.5957   0.7339   1.0795 H              1 S1                 0.0000
     23 ****        -1.4031  -1.9302  -0.3932 H              1 S1                 0.0000
     24 ****        -2.8637  -0.9857  -0.2715 H              1 S1                 0.0000
     25 ****        -0.7168  -1.8625  -2.6122 H              1 S1                 0.0000
     26 ****        -2.3777  -1.3987  -2.9472 H              1 S1                 0.0000
     27 ****         0.1469   0.1173  -3.8454 H              1 S1                 0.0000
     28 ****        -0.9362  -0.7971  -4.8773 H              1 S1                 0.0000
     29 ****        -0.6684   2.1812  -2.8533 H              1 S1                 0.0000
     30 ****        -2.3099   2.6846  -3.2101 H              1 S1                 0.0000
     31 ****        -3.2446   0.7906  -1.9102 H              1 S1                 0.0000
     32 ****        -2.1472   1.7182  -0.9054 H              1 S1                 0.0000
     33 ****         0.7262  -1.0487   1.3337 H              1 S1                 0.0000
     34 ****         2.8596  -0.1920   0.0088 H              1 S1                 0.0000
     35 ****         3.0355   1.5243   0.3290 H              1 S1                 0.0000
     36 ****         3.2900  -1.8026   1.9878 H              1 S1                 0.0000
     37 ****         3.8975  -1.4071   4.6184 H              1 S1                 0.0000
     38 ****         3.5147   1.3186   4.9439 H              1 S1                 0.0000
     39 ****        -0.4350   0.1410  -1.4030 H              1 S1                 0.0000
     40 ****        -2.6653   0.6473  -4.2844 LP             1 S1                 0.0000
     41 ****        -1.4132   1.4592  -4.9476 LP             1 S1                 0.0000
     42 ****        -0.4442   1.9183  -0.0484 LP             1 S1                 0.0000
     43 ****         1.1571   2.5485  -0.2445 LP             1 S1                 0.0000
     44 ****         2.8008   2.2884   2.7986 LP             1 S1                 0.0000
@<TRIPOS>BOND
    1    1    2 1     
    2    1   19 1     
    3    1   20 1     
    4    1   21 1     
    5    2    3 1     
    6    2   10 1     
    7    2   22 1     
    8    3    4 1     
    9    3   23 1     
   10    3   24 1     
   11    4    9 1     
   12    4    5 1     
   13    4   39 1     
   14    5    6 1     
   15    5   25 1     
   16    5   26 1     
   17    6    7 1     
   18    6   27 1     
   19    6   28 1     
   20    7    8 1     
   21    8    9 1     
   22    8   29 1     
   23    8   30 1     
   24    9   31 1     
   25    9   32 1     
   26   10   11 am    
   27   10   33 1     
   28   11   12 2     
   29   11   13 1     
   30   13   14 1     
   31   13   34 1     
   32   13   35 1     
   33   14   18 1     
   34   14   15 1     
   35   15   16 2     
   36   15   36 1     
   37   16   17 1     
   38   16   37 1     
   39   17   18 2     
   40   17   38 1     
   41    7   40 1     
   42    7   41 1     
   43   12   42 1     
   44   12   43 1     
   45   18   44 1     
@<TRIPOS>SUBSTRUCTURE
      1 S1             1
@<TRIPOS>SET
LONE_PAIRS      STATIC     ATOMS    <user>   **** ""
5 40 41 42 43 44
DONOR_HYDROGENS      STATIC     ATOMS    <user>   **** ""
2 39 33
ATOM$BLUE        STATIC     ATOMS    COLORGROUP SYSTEM
5 40 41 42 43 44
ATOM$RED        STATIC     ATOMS    COLORGROUP SYSTEM
2 39 33
