AV-unprocessed.smi:1022|AV-procd|sdf|4460|dock10
  -GOLD-   22720 2433D 1   1.00000     0.00000
 Structure written by MMmdl.
 32 33  0  0  0  0  0  0  0  0  2 V2000
  146.0726  142.2225  156.3634 C   0  0  0  0  0  0  0  0  0  0  0  0
  146.7143  141.3166  155.4832 O   0  0  0  0  0  0  0  0  0  0  0  0
  146.7661  141.8005  154.1508 C   0  0  0  0  0  0  0  0  0  0  0  0
  147.4817  140.7729  153.2548 C   0  0  2  0  0  0  0  0  0  0  0  0
  146.8388  139.3813  153.3505 C   0  0  0  0  0  0  0  0  0  0  0  0
  148.8915  140.6728  153.6251 N   0  0  0  0  0  0  0  0  0  0  0  0
  149.3781  140.1265  154.7492 C   0  0  0  0  0  0  0  0  0  0  0  0
  148.6075  139.6602  155.5916 O   0  0  0  0  0  0  0  0  0  0  0  0
  150.7285  140.1472  154.8239 N   0  5  0  0  0  0  0  0  0  0  0  0
  151.3323  140.2955  156.0147 C   0  0  0  0  0  0  0  0  0  0  0  0
  152.4585  139.6436  156.3368 N   0  0  0  0  0  0  0  0  0  0  0  0
  152.9116  139.9383  157.6146 N   0  0  0  0  0  0  0  0  0  0  0  0
  152.1150  140.8054  158.2442 C   0  0  0  0  0  0  0  0  0  0  0  0
  152.3890  141.2817  159.6317 C   0  0  0  0  0  0  0  0  0  0  0  0
  152.4451  142.7563  159.9661 C   0  0  0  0  0  0  0  0  0  0  0  0
  153.7078  141.9334  159.9791 C   0  0  0  0  0  0  0  0  0  0  0  0
  150.7245  141.3290  157.3077 S   0  0  0  0  0  0  0  0  0  0  0  0
  146.0604  141.8076  157.3711 H   0  0  0  0  0  0  0  0  0  0  0  0
  145.0401  142.4021  156.0608 H   0  0  0  0  0  0  0  0  0  0  0  0
  146.5987  143.1773  156.3989 H   0  0  0  0  0  0  0  0  0  0  0  0
  145.7490  141.9698  153.7932 H   0  0  0  0  0  0  0  0  0  0  0  0
  147.2857  142.7598  154.1166 H   0  0  0  0  0  0  0  0  0  0  0  0
  147.4153  141.1031  152.2166 H   0  0  0  0  0  0  0  0  0  0  0  0
  145.7943  139.4075  153.0390 H   0  0  0  0  0  0  0  0  0  0  0  0
  146.8716  138.9977  154.3709 H   0  0  0  0  0  0  0  0  0  0  0  0
  147.3536  138.6664  152.7082 H   0  0  0  0  0  0  0  0  0  0  0  0
  149.5612  141.0431  152.9669 H   0  0  0  0  0  0  0  0  0  0  0  0
  151.9425  140.6110  160.3631 H   0  0  0  0  0  0  0  0  0  0  0  0
  152.3285  143.4735  159.1562 H   0  0  0  0  0  0  0  0  0  0  0  0
  152.0391  143.0683  160.9262 H   0  0  0  0  0  0  0  0  0  0  0  0
  154.1449  141.6966  160.9468 H   0  0  0  0  0  0  0  0  0  0  0  0
  154.4197  142.0944  159.1718 H   0  0  0  0  0  0  0  0  0  0  0  0
  1  2  1  0  0  0  0
  1 18  1  0  0  0  0
  1 19  1  0  0  0  0
  1 20  1  0  0  0  0
  2  3  1  0  0  0  0
  3  4  1  0  0  0  0
  3 21  1  0  0  0  0
  3 22  1  0  0  0  0
  4  5  1  0  0  0  0
  4  6  1  0  0  0  0
  4 23  1  0  0  0  0
  5 24  1  0  0  0  0
  5 25  1  0  0  0  0
  5 26  1  0  0  0  0
  6  7  1  0  0  0  0
  6 27  1  0  0  0  0
  7  8  2  0  0  0  0
  7  9  1  0  0  0  0
  9 10  1  0  0  0  0
 10 17  1  0  0  0  0
 10 11  2  0  0  0  0
 11 12  1  0  0  0  0
 12 13  2  0  0  0  0
 13 14  1  0  0  0  0
 13 17  1  0  0  0  0
 14 16  1  0  0  0  0
 14 15  1  0  0  0  0
 14 28  1  0  0  0  0
 15 16  1  0  0  0  0
 15 29  1  0  0  0  0
 15 30  1  0  0  0  0
 16 31  1  0  0  0  0
 16 32  1  0  0  0  0
M  CHG  1   9  -1
M  END
> <s_m_source_file>
AV-unprocessed.smi

> <i_m_source_file_index>
1022

> <i_lp_mmshare_version>
43012

> <i_f3d_flags>
0

> <s_epik_input>
W0NIM11PW0NIMl1bQ0BIXShbQ0gzXSlbTkhdQyg9TylbTkhdYzFubmMoczEpW0NIXTJbQ0gyXVtDSDJdMg==

> <s_epik_cmdline>
J2VwaWtfcHl0aG9uJywgJy1waCcsICc3LjAnLCAnLXRuJywgJzgnLCAnLW1hJywgJzIwMCcsICctbWV0YWxfYmluZGluZycsICctaW1hZScsICc8aW5maWxlLm1hZT4nLCAnLW9tYWUnLCAnPG91dGZpbGUubWFlPic=

> <r_lp_tautomer_probability>
1

> <r_epik_Ionization_Penalty>
3.79487

> <r_epik_Ionization_Penalty_Charging>
3.64217

> <r_epik_Ionization_Penalty_Neutral>
0.152695

> <r_epik_State_Penalty>
3.6409

> <r_epik_Charging_Adjusted_Penalty>
7.28307

> <i_epik_Tot_Q>
-1

> <i_epik_Tot_abs_Q>
1

> <r_epik_Metal_State_Penalty>
0.534129

> <b_epik_Metal_Only>
1

> <s_lp_Force_Field>
OPLS_2005

> <r_lp_Energy>
-0.766609

> <b_lp_Chiralities_Consistent>
1

> <s_lp_Variant>
AV-unprocessed.smi:1022-3

> <Gold.Version>
5.8.1

> <Gold.Id.Protein>
6NUR|6NUR_protein|mol2

> <Gold.PLP.Fitness>
36.3172

> <Gold.PLP.PLP>
-33.5305

> <Gold.PLP.part.hbond>
-4.0000

> <Gold.PLP.part.metal>
0.0000

> <Gold.PLP.part.buried>
-4.2511

> <Gold.PLP.part.nonpolar>
-26.0482

> <Gold.PLP.part.repulsive>
0.3801

> <Gold.PLP.ligand.clash>
0.0000

> <Gold.PLP.ligand.torsion>
0.6765

> <Gold.PLP.Chemscore.Hbond>
1.3200

> <Gold.PLP.Chemscore.CHOScore>
0.0000

> <Gold.PLP.Chemscore.Metal>
0.0000

> <Gold.Chemscore.Hbonds>
donor molecule, donor type, donor heavy atom, donor atom, acceptor molecule, acceptor atom, score
      L1  H     6    27       P1  7957  0.28
      P1  H  7989  7998       L1     9  1.00

> <Gold.PLP.Chemscore.Internal.Correction>
0.1797

> <Gold.Rescore>
     Score         DG    S(hbond)    S(metal)    S(lipo)     H(rot)  DE(clash)    DE(int)     intcor
      9.93     -13.72       1.35        0.00      68.83       1.69       0.03       3.76       ----

> <Gold.Chemscore.Fitness>
9.9305

> <Gold.Chemscore.DG>
-13.7238

> <Gold.Chemscore.ZeroCoef>
-5.4800

> <Gold.Chemscore.Hbond>
1.3540

> <Gold.Chemscore.Metal>
0.0000

> <Gold.Chemscore.Lipo>
68.8311

> <Gold.Chemscore.Internal_Hbond>
0.0000

> <Gold.Chemscore.DEClash>
0.0300

> <Gold.Chemscore.DEInternal>
3.7633

> <Gold.Chemscore.Rot>
1.6921

> <Gold.Chemscore.Internal.Correction>
   9.000000E+99

> <Gold.Chemscore.Hbonds>
donor molecule, donor type, donor heavy atom, donor atom, acceptor molecule, acceptor atom, score
      L1  H     6    27       P1  7957  0.27
      P1  H  7989  7998       L1     9  0.82

> <Gold.Chemscore.Hbond.Weighted>
-4.5222

> <Gold.Chemscore.Metal.Weighted>
-0.0000

> <Gold.Chemscore.Lipo.Weighted>
-8.0532

> <Gold.Chemscore.Internal_Hbond.Weighted>
0.0000

> <Gold.Chemscore.DEClash.Weighted>
0.0300

> <Gold.Chemscore.DEInternal.Weighted>
3.7633

> <Gold.Chemscore.Rot.Weighted>
4.3317

> <Gold.Chemscore.Internal.Correction.Weighted>
   9.000000E+99

> <Gold.Protein.RotatedTorsions>
[ 6907 6896 6895 6894 ] final -163.96 input  -60.11 | X-H torsion
[ 7974 7965 7964 7962 ] final  122.72 input  175.53 | X-H torsion
[ 8008 7997 7996 7995 ] final  -51.75 input   59.86 | X-H torsion
[ 10167 10162 10161 10158 ] final  175.80 input  -65.29 | X-H torsion
[ 10718 10713 10712 10709 ] final  -36.40 input   66.30 | X-H torsion
[ 10763 10752 10751 10750 ] final  -43.62 input  -60.55 | X-H torsion
[ 11005 11000 10999 10996 ] final   61.26 input  -57.11 | X-H torsion

> <Gold.Protein.ActiveResidues>
 VAL166  LYS551  ARG553  GLY616  TRP617  ASP618  TYR619  PRO620  LYS621  CYS622 
 ASP623  PHE694  ASN695  SER759  ASP760  ASP761  ALA762  ILE779  LEU786  VAL792 
 PHE793  MET794  SER795  GLU796  ALA797  LYS798  CYS799  TRP800  GLU811  SER814 

> <Gold.Protein.RotatedAtoms>
  151.4043  133.3747  159.2735 H   0  0  0  0  0  0  0  0  0  0  0  0  # atno 6907 bound_to 6896
  150.9410  134.8820  159.7623 H   0  0  0  0  0  0  0  0  0  0  0  0  # atno 6908 bound_to 6896
  152.5071  134.3994  159.9463 H   0  0  0  0  0  0  0  0  0  0  0  0  # atno 6909 bound_to 6896
  145.1042  139.3497  143.4796 H   0  0  0  0  0  0  0  0  0  0  0  0  # atno 7974 bound_to 7965
  154.4090  140.1240  156.4879 H   0  0  0  0  0  0  0  0  0  0  0  0  # atno 8008 bound_to 7997
  155.7019  140.3494  155.4917 H   0  0  0  0  0  0  0  0  0  0  0  0  # atno 8009 bound_to 7997
  155.9377  140.1081  157.1071 H   0  0  0  0  0  0  0  0  0  0  0  0  # atno 8010 bound_to 7997
  139.5190  144.2990  152.0396 H   0  0  0  0  0  0  0  0  0  0  0  0  # atno 10167 bound_to 10162
  156.3273  130.4274  149.7905 H   0  0  0  0  0  0  0  0  0  0  0  0  # atno 10718 bound_to 10713
  153.9986  135.6696  153.4758 H   0  0  0  0  0  0  0  0  0  0  0  0  # atno 10763 bound_to 10752
  153.0672  135.4994  154.8223 H   0  0  0  0  0  0  0  0  0  0  0  0  # atno 10764 bound_to 10752
  154.7066  135.3089  154.9224 H   0  0  0  0  0  0  0  0  0  0  0  0  # atno 10765 bound_to 10752
  140.0173  134.6205  155.9690 H   0  0  0  0  0  0  0  0  0  0  0  0  # atno 11005 bound_to 11000
  146.3529  140.0933  142.8611 LP  0  0  0  0  0  0  0  0  0  0  0  0  # atno 17320 bound_to 7965
  145.0921  140.9291  143.4763 LP  0  0  0  0  0  0  0  0  0  0  0  0  # atno 17321 bound_to 7965
  140.2438  144.4241  150.6249 LP  0  0  0  0  0  0  0  0  0  0  0  0  # atno 17342 bound_to 10162
  140.6272  143.2183  151.6571 LP  0  0  0  0  0  0  0  0  0  0  0  0  # atno 17343 bound_to 10162
  156.5190  130.8206  151.3197 LP  0  0  0  0  0  0  0  0  0  0  0  0  # atno 17370 bound_to 10713
  157.7423  130.9889  150.2511 LP  0  0  0  0  0  0  0  0  0  0  0  0  # atno 17371 bound_to 10713
  141.1751  133.6540  156.4799 LP  0  0  0  0  0  0  0  0  0  0  0  0  # atno 17394 bound_to 11000
  140.4448  134.6983  157.5010 LP  0  0  0  0  0  0  0  0  0  0  0  0  # atno 17395 bound_to 11000

$$$$
