AV-unprocessed.smi:240|AV-procd|sdf|1839|dock4
  -GOLD-   2262020453D 1   1.00000     0.00000
 Structure written by MMmdl.
 55 59  0  0  0  0  0  0  0  0  1 V2000
  149.4769  140.1408  153.9426 O   0  0  0  0  0  0  0  0  0  0  0  0
  148.7448  141.1394  154.6223 C   0  0  1  0  0  0  0  0  0  0  0  0
  147.2473  141.0205  154.3433 C   0  0  0  0  0  0  0  0  0  0  0  0
  146.5901  141.7794  155.4991 C   0  0  0  0  0  0  0  0  0  0  0  0
  147.5704  141.6926  156.6806 C   0  0  0  0  0  0  0  0  0  0  0  0
  148.8351  140.9893  156.1483 C   0  0  2  0  0  0  0  0  0  0  0  0
  150.1850  141.4214  156.7992 C   0  0  1  0  0  0  0  0  0  0  0  0
  150.0192  142.4344  157.9615 C   0  0  0  0  0  0  0  0  0  0  0  0
  151.2904  142.7931  158.4905 O   0  0  0  0  0  0  0  0  0  0  0  0
  151.9758  141.6714  159.0301 C   0  0  0  0  0  0  0  0  0  0  0  0
  152.2368  140.6613  157.9057 C   0  0  0  0  0  0  0  0  0  0  0  0
  150.9833  140.2786  157.2660 N   0  0  0  0  0  0  0  0  0  0  0  0
  151.1853  139.2702  156.3881 C   0  0  0  0  0  0  0  0  0  0  0  0
  152.2579  139.3770  155.5664 N   0  0  0  0  0  0  0  0  0  0  0  0
  152.5237  138.4070  154.6862 C   0  0  0  0  0  0  0  0  0  0  0  0
  151.8546  137.2735  154.4651 N   0  0  0  0  0  0  0  0  0  0  0  0
  150.7646  137.1720  155.2792 C   0  0  0  0  0  0  0  0  0  0  0  0
  150.3588  138.1170  156.2629 C   0  0  0  0  0  0  0  0  0  0  0  0
  149.2069  137.6723  156.9001 N   0  0  0  0  0  0  0  0  0  0  0  0
  148.9525  136.5250  156.3326 C   0  0  0  0  0  0  0  0  0  0  0  0
  149.8304  136.1519  155.3398 N   0  0  0  0  0  0  0  0  0  0  0  0
  149.7905  134.9279  154.5526 C   0  0  0  0  0  0  0  0  0  0  0  0
  149.8416  133.6246  155.3907 C   0  0  2  0  0  0  0  0  0  0  0  0
  149.7689  132.5064  154.5254 O   0  0  0  0  0  0  0  0  0  0  0  0
  148.7388  133.5129  156.4464 C   0  0  0  0  0  0  0  0  0  0  0  0
  149.4475  133.9174  157.7312 C   0  0  0  0  0  0  0  0  0  0  0  0
  150.7245  133.3274  157.5712 O   0  0  0  0  0  0  0  0  0  0  0  0
  151.1352  133.5427  156.2272 C   0  0  0  0  0  0  0  0  0  0  0  0
  148.9877  139.8779  153.1779 H   0  0  0  0  0  0  0  0  0  0  0  0
  149.0823  142.1219  154.2952 H   0  0  0  0  0  0  0  0  0  0  0  0
  146.9671  141.4156  153.3663 H   0  0  0  0  0  0  0  0  0  0  0  0
  146.9409  139.9737  154.3788 H   0  0  0  0  0  0  0  0  0  0  0  0
  146.4486  142.8242  155.2195 H   0  0  0  0  0  0  0  0  0  0  0  0
  145.6093  141.3715  155.7452 H   0  0  0  0  0  0  0  0  0  0  0  0
  147.7798  142.6934  157.0554 H   0  0  0  0  0  0  0  0  0  0  0  0
  147.1407  141.1298  157.5100 H   0  0  0  0  0  0  0  0  0  0  0  0
  148.6894  139.9246  156.3390 H   0  0  0  0  0  0  0  0  0  0  0  0
  150.7675  141.9291  156.0306 H   0  0  0  0  0  0  0  0  0  0  0  0
  149.5469  143.3526  157.6161 H   0  0  0  0  0  0  0  0  0  0  0  0
  149.3955  142.0388  158.7632 H   0  0  0  0  0  0  0  0  0  0  0  0
  152.9189  142.0048  159.4631 H   0  0  0  0  0  0  0  0  0  0  0  0
  151.3935  141.2216  159.8360 H   0  0  0  0  0  0  0  0  0  0  0  0
  152.9082  141.0983  157.1650 H   0  0  0  0  0  0  0  0  0  0  0  0
  152.7354  139.7796  158.3115 H   0  0  0  0  0  0  0  0  0  0  0  0
  153.3994  138.5595  154.0729 H   0  0  0  0  0  0  0  0  0  0  0  0
  148.1092  135.9162  156.6248 H   0  0  0  0  0  0  0  0  0  0  0  0
  148.8824  134.9462  153.9486 H   0  0  0  0  0  0  0  0  0  0  0  0
  150.6230  134.9519  153.8481 H   0  0  0  0  0  0  0  0  0  0  0  0
  149.6831  132.8191  153.6377 H   0  0  0  0  0  0  0  0  0  0  0  0
  147.8585  134.1215  156.2474 H   0  0  0  0  0  0  0  0  0  0  0  0
  148.4017  132.4799  156.5461 H   0  0  0  0  0  0  0  0  0  0  0  0
  149.5444  135.0018  157.8038 H   0  0  0  0  0  0  0  0  0  0  0  0
  148.9430  133.5516  158.6257 H   0  0  0  0  0  0  0  0  0  0  0  0
  151.8105  132.7495  155.9039 H   0  0  0  0  0  0  0  0  0  0  0  0
  151.6919  134.4802  156.1862 H   0  0  0  0  0  0  0  0  0  0  0  0
  1  2  1  0  0  0  0
  1 29  1  0  0  0  0
  2  6  1  0  0  0  0
  2  3  1  0  0  0  0
  2 30  1  0  0  0  0
  3  4  1  0  0  0  0
  3 31  1  0  0  0  0
  3 32  1  0  0  0  0
  4  5  1  0  0  0  0
  4 33  1  0  0  0  0
  4 34  1  0  0  0  0
  5  6  1  0  0  0  0
  5 35  1  0  0  0  0
  5 36  1  0  0  0  0
  6  7  1  0  0  0  0
  6 37  1  0  0  0  0
  7 12  1  0  0  0  0
  7  8  1  0  0  0  0
  7 38  1  0  0  0  0
  8  9  1  0  0  0  0
  8 39  1  0  0  0  0
  8 40  1  0  0  0  0
  9 10  1  0  0  0  0
 10 11  1  0  0  0  0
 10 41  1  0  0  0  0
 10 42  1  0  0  0  0
 11 12  1  0  0  0  0
 11 43  1  0  0  0  0
 11 44  1  0  0  0  0
 12 13  1  0  0  0  0
 13 18  1  0  0  0  0
 13 14  2  0  0  0  0
 14 15  1  0  0  0  0
 15 16  2  0  0  0  0
 15 45  1  0  0  0  0
 16 17  1  0  0  0  0
 17 21  1  0  0  0  0
 17 18  2  0  0  0  0
 18 19  1  0  0  0  0
 19 20  2  0  0  0  0
 20 21  1  0  0  0  0
 20 46  1  0  0  0  0
 21 22  1  0  0  0  0
 22 23  1  0  0  0  0
 22 47  1  0  0  0  0
 22 48  1  0  0  0  0
 23 28  1  0  0  0  0
 23 24  1  0  0  0  0
 23 25  1  0  0  0  0
 24 49  1  0  0  0  0
 25 26  1  0  0  0  0
 25 50  1  0  0  0  0
 25 51  1  0  0  0  0
 26 27  1  0  0  0  0
 26 52  1  0  0  0  0
 26 53  1  0  0  0  0
 27 28  1  0  0  0  0
 28 54  1  0  0  0  0
 28 55  1  0  0  0  0
M  END
> <s_m_source_file>
AV-unprocessed.smi

> <i_m_source_file_index>
240

> <i_lp_mmshare_version>
43012

> <i_f3d_flags>
0

> <s_epik_input>
W09IXVtDQEBIXTFbQ0gyXVtDSDJdW0NIMl1bQ0BIXTFbQ0BASF0yW0NIMl1PW0NIMl1bQ0gyXU4yYyhuW2NIXW4zKWMoYzM0KW5bY0hdbjRbQ0gyXVtDQEBdNShbT0hdKVtDSDJdW0NIMl1PW0NIMl01

> <s_epik_cmdline>
J2VwaWtfcHl0aG9uJywgJy1waCcsICc3LjAnLCAnLXRuJywgJzgnLCAnLW1hJywgJzIwMCcsICctbWV0YWxfYmluZGluZycsICctaW1hZScsICc8aW5maWxlLm1hZT4nLCAnLW9tYWUnLCAnPG91dGZpbGUubWFlPic=

> <r_lp_tautomer_probability>
1

> <r_epik_Ionization_Penalty>
0.000130618

> <r_epik_Ionization_Penalty_Charging>
0

> <r_epik_Ionization_Penalty_Neutral>
0.000130618

> <r_epik_State_Penalty>
-0

> <r_epik_Charging_Adjusted_Penalty>
0

> <i_epik_Tot_Q>
0

> <i_epik_Tot_abs_Q>
0

> <r_epik_Metal_State_Penalty>
-0

> <b_epik_Metal_Only>
0

> <s_lp_Force_Field>
OPLS_2005

> <r_lp_Energy>
62.6221

> <b_lp_Chiralities_Consistent>
1

> <s_lp_Variant>
AV-unprocessed.smi:240-16

> <Gold.Version>
5.8.1

> <Gold.Id.Protein>
6NUR|6NUR_protein|mol2

> <Gold.PLP.Fitness>
47.3697

> <Gold.PLP.PLP>
-37.4576

> <Gold.PLP.part.hbond>
-4.9512

> <Gold.PLP.part.metal>
0.0000

> <Gold.PLP.part.buried>
-3.5172

> <Gold.PLP.part.nonpolar>
-29.3857

> <Gold.PLP.part.repulsive>
0.1563

> <Gold.PLP.ligand.clash>
0.0000

> <Gold.PLP.ligand.torsion>
1.9994

> <Gold.PLP.Chemscore.Hbond>
4.5673

> <Gold.PLP.Chemscore.CHOScore>
0.0000

> <Gold.PLP.Chemscore.Metal>
0.0000

> <Gold.Chemscore.Hbonds>
donor molecule, donor type, donor heavy atom, donor atom, acceptor molecule, acceptor atom, score
      L1  H     1    29       P1  7957  0.42
      P1  H  6896  6908       L1    27  0.42
      P1  H  7989  7998       L1     1  0.23
      P1  H  7997  8009       L1    14  0.28
      P1  H 10752 10765       L1    16  0.99

> <Gold.PLP.Chemscore.Internal.Correction>
0.2092

> <Gold.Rescore>
     Score         DG    S(hbond)    S(metal)    S(lipo)     H(rot)  DE(clash)    DE(int)     intcor
     15.33     -18.50       3.40        0.00      80.04       3.00       0.10       3.07       ----

> <Gold.Chemscore.Fitness>
15.3334

> <Gold.Chemscore.DG>
-18.5009

> <Gold.Chemscore.ZeroCoef>
-5.4800

> <Gold.Chemscore.Hbond>
3.3971

> <Gold.Chemscore.Metal>
0.0000

> <Gold.Chemscore.Lipo>
80.0383

> <Gold.Chemscore.Internal_Hbond>
0.0000

> <Gold.Chemscore.DEClash>
0.1023

> <Gold.Chemscore.DEInternal>
3.0653

> <Gold.Chemscore.Rot>
3.0039

> <Gold.Chemscore.Internal.Correction>
   9.000000E+99

> <Gold.Chemscore.Hbonds>
donor molecule, donor type, donor heavy atom, donor atom, acceptor molecule, acceptor atom, score
      L1  H     1    29       P1  7957  0.41
      P1  H  6896  6908       L1    27  0.01
      P1  H  7989  7998       L1     1  0.16
      P1  H  7997  8009       L1    14  0.14
      P1  H 10752 10765       L1    16  0.81

> <Gold.Chemscore.Hbond.Weighted>
-11.3464

> <Gold.Chemscore.Metal.Weighted>
-0.0000

> <Gold.Chemscore.Lipo.Weighted>
-9.3645

> <Gold.Chemscore.Internal_Hbond.Weighted>
0.0000

> <Gold.Chemscore.DEClash.Weighted>
0.1023

> <Gold.Chemscore.DEInternal.Weighted>
3.0653

> <Gold.Chemscore.Rot.Weighted>
7.6899

> <Gold.Chemscore.Internal.Correction.Weighted>
   9.000000E+99

> <Gold.Protein.RotatedTorsions>
[ 6907 6896 6895 6894 ] final  102.16 input  -60.11 | X-H torsion
[ 7974 7965 7964 7962 ] final   92.41 input  175.53 | X-H torsion
[ 8008 7997 7996 7995 ] final -158.45 input   59.86 | X-H torsion
[ 10167 10162 10161 10158 ] final  173.45 input  -65.29 | X-H torsion
[ 10718 10713 10712 10709 ] final   99.68 input   66.30 | X-H torsion
[ 10763 10752 10751 10750 ] final  158.22 input  -60.55 | X-H torsion
[ 11005 11000 10999 10996 ] final -113.32 input  -57.11 | X-H torsion

> <Gold.Protein.ActiveResidues>
 VAL166  LYS551  ARG553  GLY616  TRP617  ASP618  TYR619  PRO620  LYS621  CYS622 
 ASP623  PHE694  ASN695  SER759  ASP760  ASP761  ALA762  ILE779  LEU786  VAL792 
 PHE793  MET794  SER795  GLU796  ALA797  LYS798  CYS799  TRP800  GLU811  SER814 

> <Gold.Protein.RotatedAtoms>
  152.5331  134.0017  159.7897 H   0  0  0  0  0  0  0  0  0  0  0  0  # atno 6907 bound_to 6896
  151.0235  133.5847  159.2675 H   0  0  0  0  0  0  0  0  0  0  0  0  # atno 6908 bound_to 6896
  151.2878  135.0740  159.9246 H   0  0  0  0  0  0  0  0  0  0  0  0  # atno 6909 bound_to 6896
  145.4926  139.2276  143.2821 H   0  0  0  0  0  0  0  0  0  0  0  0  # atno 7974 bound_to 7965
  155.7477  140.0822  157.2216 H   0  0  0  0  0  0  0  0  0  0  0  0  # atno 8008 bound_to 7997
  154.4015  140.1566  156.2744 H   0  0  0  0  0  0  0  0  0  0  0  0  # atno 8009 bound_to 7997
  155.8960  140.3412  155.5994 H   0  0  0  0  0  0  0  0  0  0  0  0  # atno 8010 bound_to 7997
  139.5109  144.3260  152.0157 H   0  0  0  0  0  0  0  0  0  0  0  0  # atno 10167 bound_to 10162
  157.6871  131.0676  150.4985 H   0  0  0  0  0  0  0  0  0  0  0  0  # atno 10718 bound_to 10713
  154.2126  135.2785  155.2953 H   0  0  0  0  0  0  0  0  0  0  0  0  # atno 10763 bound_to 10752
  154.5766  135.5602  153.7149 H   0  0  0  0  0  0  0  0  0  0  0  0  # atno 10764 bound_to 10752
  153.0060  135.6334  154.2265 H   0  0  0  0  0  0  0  0  0  0  0  0  # atno 10765 bound_to 10752
  141.0621  133.9518  157.2646 H   0  0  0  0  0  0  0  0  0  0  0  0  # atno 11005 bound_to 11000
  146.2275  140.5721  142.8990 LP  0  0  0  0  0  0  0  0  0  0  0  0  # atno 17320 bound_to 7965
  144.7825  140.5870  143.6596 LP  0  0  0  0  0  0  0  0  0  0  0  0  # atno 17321 bound_to 7965
  140.2700  144.3974  150.6154 LP  0  0  0  0  0  0  0  0  0  0  0  0  # atno 17342 bound_to 10162
  140.6095  143.2169  151.6914 LP  0  0  0  0  0  0  0  0  0  0  0  0  # atno 17343 bound_to 10162
  156.5307  130.4184  149.6203 LP  0  0  0  0  0  0  0  0  0  0  0  0  # atno 17370 bound_to 10713
  156.3071  130.7209  151.2093 LP  0  0  0  0  0  0  0  0  0  0  0  0  # atno 17371 bound_to 10713
  139.9443  135.0186  156.8803 LP  0  0  0  0  0  0  0  0  0  0  0  0  # atno 17394 bound_to 11000
  140.5847  134.0319  155.7477 LP  0  0  0  0  0  0  0  0  0  0  0  0  # atno 17395 bound_to 11000

$$$$
