#       Name:                AV-unprocessed.smi:1793
#       Creating user name   scv26
#       Creation time:       Fri Mar 27 08:47:18 2020


#       File generated by GOLD software.
#

@<TRIPOS>MOLECULE
AV-unprocessed.smi:1793
    52    54     1
SMALL
NO_CHARGES


@<TRIPOS>ATOM
      1 ****        -3.5564  -1.2921  -1.7926 C.3            1 S1                 0.0000
      2 ****        -2.9967  -0.5125  -0.5901 C.3            1 S1                 0.0000
      3 ****        -1.5415  -0.4354  -0.6873 N.am           1 S1                 0.0000
      4 ****        -0.8567   0.4953  -1.3659 C.2            1 S1                 0.0000
      5 ****        -1.3867   1.3880  -2.0270 O.2            1 S1                 0.0000
      6 ****         0.4673   0.3322  -1.2086 N.am           1 S1                 0.0000
      7 ****         1.5181   1.1474  -1.7161 C.ar           1 S1                 0.0000
      8 ****         1.4020   1.7992  -2.9709 C.ar           1 S1                 0.0000
      9 ****         2.4473   2.6178  -3.4377 C.ar           1 S1                 0.0000
     10 ****         3.5973   2.7699  -2.6448 C.ar           1 S1                 0.0000
     11 ****         3.6869   2.1203  -1.4660 N.pl3          1 S1                 1.0000
     12 ****         2.7216   1.3069  -0.9688 C.ar           1 S1                 0.0000
     13 ****         2.9639   0.6842   0.2772 N.3            1 S1                 0.0000
     14 ****         4.1231   1.0597   1.0785 C.3            1 S1                 0.0000
     15 ****         4.2414  -0.0309   2.1395 C.3            1 S1                 0.0000
     16 ****         3.7862  -1.2755   1.3835 C.3            1 S1                 0.0000
     17 ****         2.7154  -0.7466   0.4233 C.3            1 S1                 0.0000
     18 ****        -3.3746  -1.1628   0.7544 C.3            1 S1                 0.0000
     19 ****        -4.8768  -1.2009   1.0500 C.3            1 S1                 0.0000
     20 ****        -4.9600  -1.1344   2.5689 C.3            1 S1                 0.0000
     21 ****        -3.5227  -0.8579   3.0122 C.3            1 S1                 0.0000
     22 ****        -2.8719  -0.3964   1.8391 O.3            1 S1                 0.0000
     23 ****        -4.6453  -1.3369  -1.7641 H              1 S1                 0.0000
     24 ****        -3.1819  -2.3161  -1.8109 H              1 S1                 0.0000
     25 ****        -3.2779  -0.8189  -2.7348 H              1 S1                 0.0000
     26 ****        -3.4087   0.4984  -0.6068 H              1 S1                 0.0000
     27 ****        -1.0203  -1.1270  -0.1687 H              1 S1                 0.0000
     28 ****         0.7486  -0.3874  -0.5592 H              1 S1                 0.0000
     29 ****         0.5247   1.6796  -3.5886 H              1 S1                 0.0000
     30 ****         2.3654   3.1226  -4.3893 H              1 S1                 0.0000
     31 ****         4.4465   3.3794  -2.9184 H              1 S1                 0.0000
     32 ****         5.0241   1.0710   0.4637 H              1 S1                 0.0000
     33 ****         3.9968   2.0466   1.5249 H              1 S1                 0.0000
     34 ****         5.2488  -0.1214   2.5465 H              1 S1                 0.0000
     35 ****         3.5575   0.1735   2.9647 H              1 S1                 0.0000
     36 ****         4.6225  -1.6825   0.8133 H              1 S1                 0.0000
     37 ****         3.4145  -2.0614   2.0416 H              1 S1                 0.0000
     38 ****         1.7252  -0.8869   0.8575 H              1 S1                 0.0000
     39 ****         2.7469  -1.2708  -0.5330 H              1 S1                 0.0000
     40 ****        -2.9603  -2.1710   0.8197 H              1 S1                 0.0000
     41 ****        -5.3733  -0.3291   0.6216 H              1 S1                 0.0000
     42 ****        -5.3554  -2.0912   0.6412 H              1 S1                 0.0000
     43 ****        -5.6270  -0.3282   2.8766 H              1 S1                 0.0000
     44 ****        -5.3338  -2.0628   3.0021 H              1 S1                 0.0000
     45 ****        -3.4633  -0.1240   3.8162 H              1 S1                 0.0000
     46 ****        -3.0413  -1.7762   3.3520 H              1 S1                 0.0000
     47 ****         4.5382   2.2432  -0.9178 H              1 S1                 0.0000
     48 ****        -2.3836   1.4471  -2.0790 LP             1 S1                 0.0000
     49 ****        -0.8204   2.0543  -2.5122 LP             1 S1                 0.0000
     50 ****         2.1854   1.1694   0.6753 LP             1 S1                 0.0000
     51 ****        -3.0705   0.5731   1.6953 LP             1 S1                 0.0000
     52 ****        -1.8837  -0.5255   1.9216 LP             1 S1                 0.0000
@<TRIPOS>BOND
    1    1    2 1     
    2    1   23 1     
    3    1   24 1     
    4    1   25 1     
    5    2    3 1     
    6    2   18 1     
    7    2   26 1     
    8    3    4 am    
    9    3   27 1     
   10    4    5 2     
   11    4    6 am    
   12    6    7 1     
   13    6   28 1     
   14    7   12 ar    
   15    7    8 ar    
   16    8    9 ar    
   17    8   29 1     
   18    9   10 ar    
   19    9   30 1     
   20   10   11 ar    
   21   10   31 1     
   22   11   12 ar    
   23   11   47 1     
   24   12   13 1     
   25   13   17 1     
   26   13   14 1     
   27   14   15 1     
   28   14   32 1     
   29   14   33 1     
   30   15   16 1     
   31   15   34 1     
   32   15   35 1     
   33   16   17 1     
   34   16   36 1     
   35   16   37 1     
   36   17   38 1     
   37   17   39 1     
   38   18   22 1     
   39   18   19 1     
   40   18   40 1     
   41   19   20 1     
   42   19   41 1     
   43   19   42 1     
   44   20   21 1     
   45   20   43 1     
   46   20   44 1     
   47   21   22 1     
   48   21   45 1     
   49   21   46 1     
   50    5   48 1     
   51    5   49 1     
   52   13   50 1     
   53   22   51 1     
   54   22   52 1     
@<TRIPOS>SUBSTRUCTURE
      1 S1             1
@<TRIPOS>SET
LONE_PAIRS      STATIC     ATOMS    <user>   **** ""
5 48 49 50 51 52
DONOR_HYDROGENS      STATIC     ATOMS    <user>   **** ""
3 27 28 47
ATOM$BLUE        STATIC     ATOMS    COLORGROUP SYSTEM
5 48 49 50 51 52
ATOM$RED        STATIC     ATOMS    COLORGROUP SYSTEM
3 27 28 47
