AV-unprocessed.smi:1203|AV-procd|sdf|5036|dock6
  -GOLD-   22720 4 63D 1   1.00000     0.00000
 Structure written by MMmdl.
 40 41  0  0  0  0  0  0  0  0  2 V2000
  150.8619  137.8830  157.2080 C   0  0  0  0  0  0  0  0  0  0  0  0
  151.5071  138.3368  155.5452 S   0  0  0  0  0  0  0  0  0  0  0  0
  152.7296  139.1321  155.7347 O   0  0  0  0  0  0  0  0  0  0  0  0
  151.5360  137.1305  154.7036 O   0  0  0  0  0  0  0  0  0  0  0  0
  150.2878  139.4009  154.9202 N   0  0  0  0  0  0  0  0  0  0  0  0
  150.2099  140.8094  155.2993 C   0  0  0  0  0  0  0  0  0  0  0  0
  149.1709  141.3959  154.3478 C   0  0  0  0  0  0  0  0  0  0  0  0
  148.2194  140.2328  154.0797 C   0  0  0  0  0  0  0  0  0  0  0  0
  149.1030  138.9693  154.1584 C   0  0  2  0  0  0  0  0  0  0  0  0
  148.3411  137.7729  154.7474 C   0  0  0  0  0  0  0  0  0  0  0  0
  148.4147  137.5156  155.9496 O   0  0  0  0  0  0  0  0  0  0  0  0
  147.6093  137.0494  153.8851 N   0  0  0  0  0  0  0  0  0  0  0  0
  146.7956  135.8855  154.2275 C   0  0  0  0  0  0  0  0  0  0  0  0
  145.3599  135.9898  153.6761 C   0  0  0  0  0  0  0  0  0  0  0  0
  145.0871  135.0625  152.5040 C   0  0  0  0  0  0  0  0  0  0  0  0
  146.0918  134.1892  152.0318 C   0  0  0  0  0  0  0  0  0  0  0  0
  145.8025  133.3156  150.9629 C   0  0  0  0  0  0  0  0  0  0  0  0
  144.5153  133.3371  150.3882 C   0  0  0  0  0  0  0  0  0  0  0  0
  143.5808  134.1893  150.8633 N   0  3  0  0  0  0  0  0  0  0  0  0
  143.8181  135.0410  151.8848 C   0  0  0  0  0  0  0  0  0  0  0  0
  151.5992  137.2674  157.7227 H   0  0  0  0  0  0  0  0  0  0  0  0
  149.9360  137.3193  157.1114 H   0  0  0  0  0  0  0  0  0  0  0  0
  150.6805  138.7867  157.7891 H   0  0  0  0  0  0  0  0  0  0  0  0
  149.8809  140.8824  156.3364 H   0  0  0  0  0  0  0  0  0  0  0  0
  151.1794  141.2990  155.2033 H   0  0  0  0  0  0  0  0  0  0  0  0
  148.6665  142.2702  154.7599 H   0  0  0  0  0  0  0  0  0  0  0  0
  149.6550  141.6960  153.4174 H   0  0  0  0  0  0  0  0  0  0  0  0
  147.4360  140.2355  154.8393 H   0  0  0  0  0  0  0  0  0  0  0  0
  147.7287  140.3293  153.1108 H   0  0  0  0  0  0  0  0  0  0  0  0
  149.4434  138.7166  153.1529 H   0  0  0  0  0  0  0  0  0  0  0  0
  147.6244  137.3215  152.9125 H   0  0  0  0  0  0  0  0  0  0  0  0
  147.2805  135.0022  153.8117 H   0  0  0  0  0  0  0  0  0  0  0  0
  146.7752  135.7369  155.3084 H   0  0  0  0  0  0  0  0  0  0  0  0
  144.6460  135.7769  154.4731 H   0  0  0  0  0  0  0  0  0  0  0  0
  145.1630  137.0154  153.3617 H   0  0  0  0  0  0  0  0  0  0  0  0
  147.0699  134.1794  152.4906 H   0  0  0  0  0  0  0  0  0  0  0  0
  146.5564  132.6367  150.5918 H   0  0  0  0  0  0  0  0  0  0  0  0
  144.2075  132.7035  149.5692 H   0  0  0  0  0  0  0  0  0  0  0  0
  142.9878  135.6658  152.1806 H   0  0  0  0  0  0  0  0  0  0  0  0
  142.6555  134.1889  150.4330 H   0  0  0  0  0  0  0  0  0  0  0  0
  1  2  1  0  0  0  0
  1 21  1  0  0  0  0
  1 22  1  0  0  0  0
  1 23  1  0  0  0  0
  2  3  2  0  0  0  0
  2  4  2  0  0  0  0
  2  5  1  0  0  0  0
  5  9  1  0  0  0  0
  5  6  1  0  0  0  0
  6  7  1  0  0  0  0
  6 24  1  0  0  0  0
  6 25  1  0  0  0  0
  7  8  1  0  0  0  0
  7 26  1  0  0  0  0
  7 27  1  0  0  0  0
  8  9  1  0  0  0  0
  8 28  1  0  0  0  0
  8 29  1  0  0  0  0
  9 10  1  0  0  0  0
  9 30  1  0  0  0  0
 10 11  2  0  0  0  0
 10 12  1  0  0  0  0
 12 13  1  0  0  0  0
 12 31  1  0  0  0  0
 13 14  1  0  0  0  0
 13 32  1  0  0  0  0
 13 33  1  0  0  0  0
 14 15  1  0  0  0  0
 14 34  1  0  0  0  0
 14 35  1  0  0  0  0
 15 20  1  0  0  0  0
 15 16  2  0  0  0  0
 16 17  1  0  0  0  0
 16 36  1  0  0  0  0
 17 18  2  0  0  0  0
 17 37  1  0  0  0  0
 18 19  1  0  0  0  0
 18 38  1  0  0  0  0
 19 20  2  0  0  0  0
 19 40  1  0  0  0  0
 20 39  1  0  0  0  0
M  CHG  1  19   1
M  END
> <s_m_source_file>
AV-unprocessed.smi

> <i_m_source_file_index>
1203

> <i_lp_mmshare_version>
43012

> <i_f3d_flags>
0

> <s_epik_input>
W0NIM11TKD1PKSg9TylOMVtDSDJdW0NIMl1bQ0gyXVtDQEhdMUMoPU8pW05IXVtDSDJdW0NIMl1jMltjSF1bY0hdW2NIXW5bY0hdMg==

> <s_epik_cmdline>
J2VwaWtfcHl0aG9uJywgJy1waCcsICc3LjAnLCAnLXRuJywgJzgnLCAnLW1hJywgJzIwMCcsICctbWV0YWxfYmluZGluZycsICctaW1hZScsICc8aW5maWxlLm1hZT4nLCAnLW9tYWUnLCAnPG91dGZpbGUubWFlPic=

> <r_epik_Ionization_Penalty>
2.2835

> <r_epik_Ionization_Penalty_Charging>
2.2835

> <r_epik_Ionization_Penalty_Neutral>
1.4017e-07

> <r_epik_State_Penalty>
2.43297

> <r_epik_Charging_Adjusted_Penalty>
4.71647

> <i_epik_Tot_Q>
1

> <i_epik_Tot_abs_Q>
1

> <r_epik_Metal_State_Penalty>
2.44558

> <b_epik_Metal_Only>
0

> <s_lp_Force_Field>
OPLS_2005

> <r_lp_Energy>
15.5637

> <b_lp_Chiralities_Consistent>
1

> <s_lp_Variant>
AV-unprocessed.smi:1203-4

> <Gold.Version>
5.8.1

> <Gold.Id.Protein>
6NUR|6NUR_protein|mol2

> <Gold.PLP.Fitness>
40.5538

> <Gold.PLP.PLP>
-30.0942

> <Gold.PLP.part.hbond>
-4.0000

> <Gold.PLP.part.metal>
0.0000

> <Gold.PLP.part.buried>
-3.3707

> <Gold.PLP.part.nonpolar>
-22.5383

> <Gold.PLP.part.repulsive>
0.2035

> <Gold.PLP.ligand.clash>
0.0000

> <Gold.PLP.ligand.torsion>
2.0858

> <Gold.PLP.Chemscore.Hbond>
4.1872

> <Gold.PLP.Chemscore.CHOScore>
0.0000

> <Gold.PLP.Chemscore.Metal>
0.0000

> <Gold.Chemscore.Hbonds>
donor molecule, donor type, donor heavy atom, donor atom, acceptor molecule, acceptor atom, score
      L1  H    12    31       P1  7948  0.24
      L1  H    19    40       P1 10186  2.00
      P1  H  7997  8009       L1     3  1.00
      P1  H 10752 10763       L1     4  0.91

> <Gold.PLP.Chemscore.Internal.Correction>
2.0695

> <Gold.Rescore>
     Score         DG    S(hbond)    S(metal)    S(lipo)     H(rot)  DE(clash)    DE(int)     intcor
     15.08     -18.68       3.07        0.00      62.52       1.70       0.06       3.53       ----

> <Gold.Chemscore.Fitness>
15.0842

> <Gold.Chemscore.DG>
-18.6771

> <Gold.Chemscore.ZeroCoef>
-5.4800

> <Gold.Chemscore.Hbond>
3.0651

> <Gold.Chemscore.Metal>
0.0000

> <Gold.Chemscore.Lipo>
62.5203

> <Gold.Chemscore.Internal_Hbond>
0.0000

> <Gold.Chemscore.DEClash>
0.0646

> <Gold.Chemscore.DEInternal>
3.5283

> <Gold.Chemscore.Rot>
1.7012

> <Gold.Chemscore.Internal.Correction>
   9.000000E+99

> <Gold.Chemscore.Hbonds>
donor molecule, donor type, donor heavy atom, donor atom, acceptor molecule, acceptor atom, score
      L1  H    12    31       P1  7948  0.23
      L1  H    19    40       P1 10186  0.78
      P1  H  7997  8009       L1     3  0.97
      P1  H 10752 10763       L1     4  0.86

> <Gold.Chemscore.Hbond.Weighted>
-10.2374

> <Gold.Chemscore.Metal.Weighted>
-0.0000

> <Gold.Chemscore.Lipo.Weighted>
-7.3149

> <Gold.Chemscore.Internal_Hbond.Weighted>
0.0000

> <Gold.Chemscore.DEClash.Weighted>
0.0646

> <Gold.Chemscore.DEInternal.Weighted>
3.5283

> <Gold.Chemscore.Rot.Weighted>
4.3551

> <Gold.Chemscore.Internal.Correction.Weighted>
   9.000000E+99

> <Gold.Protein.RotatedTorsions>
[ 6907 6896 6895 6894 ] final  -57.99 input  -60.11 | X-H torsion
[ 7974 7965 7964 7962 ] final   79.65 input  175.53 | X-H torsion
[ 8008 7997 7996 7995 ] final -164.91 input   59.86 | X-H torsion
[ 10167 10162 10161 10158 ] final   -3.38 input  -65.29 | X-H torsion
[ 10718 10713 10712 10709 ] final  -58.27 input   66.30 | X-H torsion
[ 10763 10752 10751 10750 ] final   44.31 input  -60.55 | X-H torsion
[ 11005 11000 10999 10996 ] final  160.19 input  -57.11 | X-H torsion

> <Gold.Protein.ActiveResidues>
 VAL166  LYS551  ARG553  GLY616  TRP617  ASP618  TYR619  PRO620  LYS621  CYS622 
 ASP623  PHE694  ASN695  SER759  ASP760  ASP761  ALA762  ILE779  LEU786  VAL792 
 PHE793  MET794  SER795  GLU796  ALA797  LYS798  CYS799  TRP800  GLU811  SER814 

> <Gold.Protein.RotatedAtoms>
  150.8042  134.7155  159.6628 H   0  0  0  0  0  0  0  0  0  0  0  0  # atno 6907 bound_to 6896
  152.4160  134.6037  160.0017 H   0  0  0  0  0  0  0  0  0  0  0  0  # atno 6908 bound_to 6896
  151.6266  133.3298  159.3135 H   0  0  0  0  0  0  0  0  0  0  0  0  # atno 6909 bound_to 6896
  145.6614  139.2472  143.1920 H   0  0  0  0  0  0  0  0  0  0  0  0  # atno 7974 bound_to 7965
  155.8423  140.0950  157.1727 H   0  0  0  0  0  0  0  0  0  0  0  0  # atno 8008 bound_to 7997
  154.3982  140.1399  156.3805 H   0  0  0  0  0  0  0  0  0  0  0  0  # atno 8009 bound_to 7997
  155.8051  140.3451  155.5427 H   0  0  0  0  0  0  0  0  0  0  0  0  # atno 8010 bound_to 7997
  140.6888  143.6547  150.8319 H   0  0  0  0  0  0  0  0  0  0  0  0  # atno 10167 bound_to 10162
  156.1148  130.4171  150.0554 H   0  0  0  0  0  0  0  0  0  0  0  0  # atno 10718 bound_to 10713
  152.9843  135.6074  154.3254 H   0  0  0  0  0  0  0  0  0  0  0  0  # atno 10763 bound_to 10752
  154.2961  135.2774  155.2634 H   0  0  0  0  0  0  0  0  0  0  0  0  # atno 10764 bound_to 10752
  154.4908  135.5892  153.6514 H   0  0  0  0  0  0  0  0  0  0  0  0  # atno 10765 bound_to 10752
  140.2035  134.8320  157.3044 H   0  0  0  0  0  0  0  0  0  0  0  0  # atno 11005 bound_to 11000
  146.1122  140.7414  142.9498 LP  0  0  0  0  0  0  0  0  0  0  0  0  # atno 17320 bound_to 7965
  144.7087  140.3957  143.7097 LP  0  0  0  0  0  0  0  0  0  0  0  0  # atno 17321 bound_to 7965
  140.0257  143.5496  152.2781 LP  0  0  0  0  0  0  0  0  0  0  0  0  # atno 17342 bound_to 10162
  139.6270  144.7638  151.2617 LP  0  0  0  0  0  0  0  0  0  0  0  0  # atno 17343 bound_to 10162
  156.8508  130.9458  151.3625 LP  0  0  0  0  0  0  0  0  0  0  0  0  # atno 17370 bound_to 10713
  157.6331  130.8745  149.9309 LP  0  0  0  0  0  0  0  0  0  0  0  0  # atno 17371 bound_to 10713
  140.2028  134.4234  155.7654 LP  0  0  0  0  0  0  0  0  0  0  0  0  # atno 17394 bound_to 11000
  141.2227  133.7080  156.8211 LP  0  0  0  0  0  0  0  0  0  0  0  0  # atno 17395 bound_to 11000

$$$$
