AV-unprocessed.smi:265|AV-procd|sdf|2016|dock6
  -GOLD-   2262021213D 1   1.00000     0.00000
 Structure written by MMmdl.
 52 56  0  0  0  0  0  0  0  0  1 V2000
  155.7441  131.9645  157.0836 C   0  0  0  0  0  0  0  0  0  0  0  0
  155.0307  131.7227  155.7444 C   0  0  1  0  0  0  0  0  0  0  0  0
  155.8306  132.1595  154.6464 O   0  0  0  0  0  0  0  0  0  0  0  0
  155.8404  131.1776  153.6165 C   0  0  0  0  0  0  0  0  0  0  0  0
  154.6502  130.2718  153.9146 C   0  0  0  0  0  0  0  0  0  0  0  0
  154.6141  130.2665  155.4367 C   0  0  1  0  0  0  0  0  0  0  0  0
  155.5996  129.3625  155.9087 O   0  0  0  0  0  0  0  0  0  0  0  0
  153.2754  129.8064  156.0692 C   0  0  0  0  0  0  0  0  0  0  0  0
  152.0942  130.0470  155.2554 N   0  0  0  0  0  0  0  0  0  0  0  0
  151.5892  129.2288  154.2689 C   0  0  0  0  0  0  0  0  0  0  0  0
  150.5178  129.6724  153.6696 N   0  0  0  0  0  0  0  0  0  0  0  0
  150.2782  130.8980  154.2768 C   0  0  0  0  0  0  0  0  0  0  0  0
  149.2966  131.9078  154.1059 C   0  0  0  0  0  0  0  0  0  0  0  0
  148.3069  131.7941  153.1960 N   0  0  0  0  0  0  0  0  0  0  0  0
  147.5919  130.5203  153.2754 C   0  0  0  0  0  0  0  0  0  0  0  0
  146.6324  130.3486  152.0820 C   0  0  0  0  0  0  0  0  0  0  0  0
  145.7012  131.5652  151.9787 C   0  0  2  0  0  0  0  0  0  0  0  0
  144.8772  131.5074  150.8242 O   0  0  0  0  0  0  0  0  0  0  0  0
  143.8908  132.5443  150.7748 C   0  0  0  0  0  0  0  0  0  0  0  0
  144.4678  133.9390  151.1009 C   0  0  0  0  0  0  0  0  0  0  0  0
  143.8029  134.9457  150.8680 O   0  0  0  0  0  0  0  0  0  0  0  0
  145.6799  134.0058  151.6759 N   0  0  0  0  0  0  0  0  0  0  0  0
  146.5424  132.8457  151.8527 C   0  0  1  0  0  0  0  0  0  0  0  0
  147.4660  132.9844  153.0728 C   0  0  0  0  0  0  0  0  0  0  0  0
  149.3716  133.0128  154.8934 N   0  0  0  0  0  0  0  0  0  0  0  0
  150.3544  133.1222  155.7930 C   0  0  0  0  0  0  0  0  0  0  0  0
  151.3413  132.2633  156.0610 N   0  0  0  0  0  0  0  0  0  0  0  0
  151.2617  131.1528  155.2720 C   0  0  0  0  0  0  0  0  0  0  0  0
  145.0730  131.6030  152.8716 H   0  0  0  0  0  0  0  0  0  0  0  0
  147.1614  132.7770  150.9561 H   0  0  0  0  0  0  0  0  0  0  0  0
  155.1322  131.6261  157.9198 H   0  0  0  0  0  0  0  0  0  0  0  0
  155.9434  133.0264  157.2276 H   0  0  0  0  0  0  0  0  0  0  0  0
  156.7006  131.4434  157.1318 H   0  0  0  0  0  0  0  0  0  0  0  0
  154.1502  132.3622  155.7117 H   0  0  0  0  0  0  0  0  0  0  0  0
  155.7828  131.6344  152.6286 H   0  0  0  0  0  0  0  0  0  0  0  0
  156.7736  130.6158  153.6758 H   0  0  0  0  0  0  0  0  0  0  0  0
  153.7546  130.7368  153.5036 H   0  0  0  0  0  0  0  0  0  0  0  0
  154.7437  129.2787  153.4736 H   0  0  0  0  0  0  0  0  0  0  0  0
  156.4202  129.5662  155.4868 H   0  0  0  0  0  0  0  0  0  0  0  0
  153.3168  128.7380  156.2867 H   0  0  0  0  0  0  0  0  0  0  0  0
  153.1284  130.3030  157.0294 H   0  0  0  0  0  0  0  0  0  0  0  0
  152.0417  128.2826  154.0093 H   0  0  0  0  0  0  0  0  0  0  0  0
  148.3055  129.6954  153.2972 H   0  0  0  0  0  0  0  0  0  0  0  0
  147.0303  130.4803  154.2100 H   0  0  0  0  0  0  0  0  0  0  0  0
  147.2076  130.2428  151.1611 H   0  0  0  0  0  0  0  0  0  0  0  0
  146.0505  129.4338  152.1951 H   0  0  0  0  0  0  0  0  0  0  0  0
  143.4386  132.5554  149.7828 H   0  0  0  0  0  0  0  0  0  0  0  0
  143.0971  132.3188  151.4881 H   0  0  0  0  0  0  0  0  0  0  0  0
  146.0519  134.9113  151.9234 H   0  0  0  0  0  0  0  0  0  0  0  0
  146.8742  133.1143  153.9803 H   0  0  0  0  0  0  0  0  0  0  0  0
  148.0958  133.8690  152.9673 H   0  0  0  0  0  0  0  0  0  0  0  0
  150.3503  134.0280  156.3816 H   0  0  0  0  0  0  0  0  0  0  0  0
  1  2  1  0  0  0  0
  1 31  1  0  0  0  0
  1 32  1  0  0  0  0
  1 33  1  0  0  0  0
  2  6  1  0  0  0  0
  2  3  1  0  0  0  0
  2 34  1  0  0  0  0
  3  4  1  0  0  0  0
  4  5  1  0  0  0  0
  4 35  1  0  0  0  0
  4 36  1  0  0  0  0
  5  6  1  0  0  0  0
  5 37  1  0  0  0  0
  5 38  1  0  0  0  0
  6  7  1  0  0  0  0
  6  8  1  0  0  0  0
  7 39  1  0  0  0  0
  8  9  1  0  0  0  0
  8 40  1  0  0  0  0
  8 41  1  0  0  0  0
  9 28  1  0  0  0  0
  9 10  1  0  0  0  0
 10 11  2  0  0  0  0
 10 42  1  0  0  0  0
 11 12  1  0  0  0  0
 12 28  2  0  0  0  0
 12 13  1  0  0  0  0
 13 14  1  0  0  0  0
 13 25  2  0  0  0  0
 14 24  1  0  0  0  0
 14 15  1  0  0  0  0
 15 16  1  0  0  0  0
 15 43  1  0  0  0  0
 15 44  1  0  0  0  0
 16 17  1  0  0  0  0
 16 45  1  0  0  0  0
 16 46  1  0  0  0  0
 17 29  1  0  0  0  0
 17 23  1  0  0  0  0
 17 18  1  0  0  0  0
 18 19  1  0  0  0  0
 19 20  1  0  0  0  0
 19 47  1  0  0  0  0
 19 48  1  0  0  0  0
 20 21  2  0  0  0  0
 20 22  1  0  0  0  0
 22 23  1  0  0  0  0
 22 49  1  0  0  0  0
 23 30  1  0  0  0  0
 23 24  1  0  0  0  0
 24 50  1  0  0  0  0
 24 51  1  0  0  0  0
 25 26  1  0  0  0  0
 26 27  2  0  0  0  0
 26 52  1  0  0  0  0
 27 28  1  0  0  0  0
M  END
> <s_m_source_file>
AV-unprocessed.smi

> <i_m_source_file_index>
265

> <i_lp_mmshare_version>
43012

> <i_f3d_flags>
0

> <s_epik_input>
W0NIMl0xW0NIMl1PW0NAQEhdKFtDSDNdKVtDQEBdMShbT0hdKVtDSDJdbihbY0hdbjIpYyhjMjMpbltjSF1uYzNOKFtDSDJdW0NIMl00KVtDSDJdW0NAQEhdKFtDQEhdNDUpW05IXUMoPU8pW0NIMl1PNQ==

> <s_epik_cmdline>
J2VwaWtfcHl0aG9uJywgJy1waCcsICc3LjAnLCAnLXRuJywgJzgnLCAnLW1hJywgJzIwMCcsICctbWV0YWxfYmluZGluZycsICctaW1hZScsICc8aW5maWxlLm1hZT4nLCAnLW9tYWUnLCAnPG91dGZpbGUubWFlPic=

> <r_lp_tautomer_probability>
1

> <r_epik_Ionization_Penalty>
0.00221504

> <r_epik_Ionization_Penalty_Charging>
0

> <r_epik_Ionization_Penalty_Neutral>
0.00221504

> <r_epik_State_Penalty>
-0

> <r_epik_Charging_Adjusted_Penalty>
0

> <i_epik_Tot_Q>
0

> <i_epik_Tot_abs_Q>
0

> <r_epik_Metal_State_Penalty>
-0

> <b_epik_Metal_Only>
0

> <s_lp_Force_Field>
OPLS_2005

> <r_lp_Energy>
49.8504

> <b_lp_Chiralities_Consistent>
1

> <s_lp_Variant>
AV-unprocessed.smi:265-2

> <Gold.Version>
5.8.1

> <Gold.Id.Protein>
6NUR|6NUR_protein|mol2

> <Gold.PLP.Fitness>
38.5389

> <Gold.PLP.PLP>
-40.4651

> <Gold.PLP.part.hbond>
0.0000

> <Gold.PLP.part.metal>
0.0000

> <Gold.PLP.part.buried>
-7.2795

> <Gold.PLP.part.nonpolar>
-34.3485

> <Gold.PLP.part.repulsive>
0.8794

> <Gold.PLP.ligand.clash>
0.0000

> <Gold.PLP.ligand.torsion>
1.0786

> <Gold.PLP.Chemscore.Hbond>
0.0000

> <Gold.PLP.Chemscore.CHOScore>
0.0000

> <Gold.PLP.Chemscore.Metal>
0.0000

> <Gold.Chemscore.Hbonds>
donor molecule, donor type, donor heavy atom, donor atom, acceptor molecule, acceptor atom, score
      L1  C    10    42       P1 10737  0.73

> <Gold.PLP.Chemscore.Internal.Correction>
0.2310

> <Gold.Rescore>
     Score         DG    S(hbond)    S(metal)    S(lipo)     H(rot)  DE(clash)    DE(int)     intcor
      7.04      -8.66       0.00        0.00      76.34       2.25       0.05       1.57       ----

> <Gold.Chemscore.Fitness>
7.0423

> <Gold.Chemscore.DG>
-8.6638

> <Gold.Chemscore.ZeroCoef>
-5.4800

> <Gold.Chemscore.Hbond>
0.0000

> <Gold.Chemscore.Metal>
0.0000

> <Gold.Chemscore.Lipo>
76.3396

> <Gold.Chemscore.Internal_Hbond>
0.0000

> <Gold.Chemscore.DEClash>
0.0530

> <Gold.Chemscore.DEInternal>
1.5685

> <Gold.Chemscore.Rot>
2.2453

> <Gold.Chemscore.Internal.Correction>
   9.000000E+99

> <Gold.Chemscore.Hbond.Weighted>
-0.0000

> <Gold.Chemscore.Metal.Weighted>
-0.0000

> <Gold.Chemscore.Lipo.Weighted>
-8.9317

> <Gold.Chemscore.Internal_Hbond.Weighted>
0.0000

> <Gold.Chemscore.DEClash.Weighted>
0.0530

> <Gold.Chemscore.DEInternal.Weighted>
1.5685

> <Gold.Chemscore.Rot.Weighted>
5.7479

> <Gold.Chemscore.Internal.Correction.Weighted>
   9.000000E+99

> <Gold.Protein.RotatedTorsions>
[ 6907 6896 6895 6894 ] final   53.66 input  -60.11 | X-H torsion
[ 7974 7965 7964 7962 ] final   86.46 input  175.53 | X-H torsion
[ 8008 7997 7996 7995 ] final   86.31 input   59.86 | X-H torsion
[ 10167 10162 10161 10158 ] final  168.58 input  -65.29 | X-H torsion
[ 10718 10713 10712 10709 ] final  100.81 input   66.30 | X-H torsion
[ 10763 10752 10751 10750 ] final  -46.02 input  -60.55 | X-H torsion
[ 11005 11000 10999 10996 ] final  143.38 input  -57.11 | X-H torsion

> <Gold.Protein.ActiveResidues>
 VAL166  LYS551  ARG553  GLY616  TRP617  ASP618  TYR619  PRO620  LYS621  CYS622 
 ASP623  PHE694  ASN695  SER759  ASP760  ASP761  ALA762  ILE779  LEU786  VAL792 
 PHE793  MET794  SER795  GLU796  ALA797  LYS798  CYS799  TRP800  GLU811  SER814 

> <Gold.Protein.RotatedAtoms>
  152.3360  134.7197  160.0276 H   0  0  0  0  0  0  0  0  0  0  0  0  # atno 6907 bound_to 6896
  151.7598  133.3327  159.3422 H   0  0  0  0  0  0  0  0  0  0  0  0  # atno 6908 bound_to 6896
  150.7451  134.6048  159.6100 H   0  0  0  0  0  0  0  0  0  0  0  0  # atno 6909 bound_to 6896
  145.5720  139.2315  143.2401 H   0  0  0  0  0  0  0  0  0  0  0  0  # atno 7974 bound_to 7965
  155.9612  140.3393  155.6492 H   0  0  0  0  0  0  0  0  0  0  0  0  # atno 8008 bound_to 7997
  155.6795  140.0736  157.2508 H   0  0  0  0  0  0  0  0  0  0  0  0  # atno 8009 bound_to 7997
  154.4143  140.1677  156.1955 H   0  0  0  0  0  0  0  0  0  0  0  0  # atno 8010 bound_to 7997
  139.4971  144.3799  151.9634 H   0  0  0  0  0  0  0  0  0  0  0  0  # atno 10167 bound_to 10162
  157.6845  131.0709  150.5157 H   0  0  0  0  0  0  0  0  0  0  0  0  # atno 10718 bound_to 10713
  154.0381  135.6648  153.4787 H   0  0  0  0  0  0  0  0  0  0  0  0  # atno 10763 bound_to 10752
  153.0513  135.5083  154.7869 H   0  0  0  0  0  0  0  0  0  0  0  0  # atno 10764 bound_to 10752
  154.6836  135.3049  154.9544 H   0  0  0  0  0  0  0  0  0  0  0  0  # atno 10765 bound_to 10752
  140.0549  134.9236  157.1083 H   0  0  0  0  0  0  0  0  0  0  0  0  # atno 11005 bound_to 11000
  146.1777  140.6546  142.9203 LP  0  0  0  0  0  0  0  0  0  0  0  0  # atno 17320 bound_to 7965
  144.7433  140.5001  143.6853 LP  0  0  0  0  0  0  0  0  0  0  0  0  # atno 17321 bound_to 7965
  140.3235  144.3400  150.6004 LP  0  0  0  0  0  0  0  0  0  0  0  0  # atno 17342 bound_to 10162
  140.5703  143.2181  151.7610 LP  0  0  0  0  0  0  0  0  0  0  0  0  # atno 17343 bound_to 10162
  156.5472  130.4223  149.6125 LP  0  0  0  0  0  0  0  0  0  0  0  0  # atno 17370 bound_to 10713
  156.2934  130.7136  151.1991 LP  0  0  0  0  0  0  0  0  0  0  0  0  # atno 17371 bound_to 10713
  140.3859  134.2236  155.7168 LP  0  0  0  0  0  0  0  0  0  0  0  0  # atno 17394 bound_to 11000
  141.1947  133.8121  157.0745 LP  0  0  0  0  0  0  0  0  0  0  0  0  # atno 17395 bound_to 11000

$$$$
