AV-unprocessed.smi:2045|AV-procd|sdf|8310|dock6
  -GOLD-   2272010573D 1   1.00000     0.00000
 Structure written by MMmdl.
 38 39  0  0  0  0  0  0  0  0  3 V2000
  149.1087  141.3648  154.5212 C   0  0  0  0  0  0  0  0  0  0  0  0
  149.5080  139.9307  154.5870 C   0  0  0  0  0  0  0  0  0  0  0  0
  148.7938  138.7662  154.6167 C   0  0  0  0  0  0  0  0  0  0  0  0
  149.8050  137.7704  154.6778 C   0  0  0  0  0  0  0  0  0  0  0  0
  149.4627  136.3928  154.7207 N   0  0  0  0  0  0  0  0  0  0  0  0
  150.2152  135.3485  155.1135 C   0  0  0  0  0  0  0  0  0  0  0  0
  151.3670  135.5289  155.5267 O   0  0  0  0  0  0  0  0  0  0  0  0
  149.5550  134.1642  154.9908 N   0  5  0  0  0  0  0  0  0  0  0  0
  148.5386  133.8799  153.9806 C   0  0  0  0  0  0  0  0  0  0  0  0
  148.9315  132.6135  153.1967 C   0  0  0  0  0  0  0  0  0  0  0  0
  147.8430  132.1556  152.2921 N   0  3  0  0  0  0  0  0  0  0  0  0
  146.9299  131.1802  152.9453 C   0  0  0  0  0  0  0  0  0  0  0  0
  145.9086  130.6132  151.9444 C   0  0  0  0  0  0  0  0  0  0  0  0
  145.1123  131.7379  151.2706 C   0  0  0  0  0  0  0  0  0  0  0  0
  146.0738  132.7463  150.6293 C   0  0  0  0  0  0  0  0  0  0  0  0
  147.0852  133.2735  151.6608 C   0  0  0  0  0  0  0  0  0  0  0  0
  151.0266  138.2830  154.6847 N   0  0  0  0  0  0  0  0  0  0  0  0
  150.8424  139.6695  154.6273 O   0  0  0  0  0  0  0  0  0  0  0  0
  148.0241  141.4694  154.5511 H   0  0  0  0  0  0  0  0  0  0  0  0
  149.4676  141.8233  153.5998 H   0  0  0  0  0  0  0  0  0  0  0  0
  149.5253  141.9202  155.3614 H   0  0  0  0  0  0  0  0  0  0  0  0
  147.7208  138.6471  154.5968 H   0  0  0  0  0  0  0  0  0  0  0  0
  148.5316  136.1659  154.4047 H   0  0  0  0  0  0  0  0  0  0  0  0
  147.5523  133.7266  154.4207 H   0  0  0  0  0  0  0  0  0  0  0  0
  148.4263  134.7088  153.2808 H   0  0  0  0  0  0  0  0  0  0  0  0
  149.8240  132.8445  152.6125 H   0  0  0  0  0  0  0  0  0  0  0  0
  149.2186  131.8067  153.8735 H   0  0  0  0  0  0  0  0  0  0  0  0
  147.5098  130.3568  153.3642 H   0  0  0  0  0  0  0  0  0  0  0  0
  146.4156  131.6636  153.7775 H   0  0  0  0  0  0  0  0  0  0  0  0
  146.4275  130.0259  151.1854 H   0  0  0  0  0  0  0  0  0  0  0  0
  145.2287  129.9291  152.4529 H   0  0  0  0  0  0  0  0  0  0  0  0
  144.4388  131.3265  150.5182 H   0  0  0  0  0  0  0  0  0  0  0  0
  144.4870  132.2414  152.0090 H   0  0  0  0  0  0  0  0  0  0  0  0
  146.6062  132.2731  149.8031 H   0  0  0  0  0  0  0  0  0  0  0  0
  145.5117  133.5765  150.2007 H   0  0  0  0  0  0  0  0  0  0  0  0
  146.5677  133.8452  152.4328 H   0  0  0  0  0  0  0  0  0  0  0  0
  147.7702  133.9633  151.1669 H   0  0  0  0  0  0  0  0  0  0  0  0
  148.3021  131.6519  151.5464 H   0  0  0  0  0  0  0  0  0  0  0  0
  1  2  1  0  0  0  0
  1 19  1  0  0  0  0
  1 20  1  0  0  0  0
  1 21  1  0  0  0  0
  2 18  1  0  0  0  0
  2  3  2  0  0  0  0
  3  4  1  0  0  0  0
  3 22  1  0  0  0  0
  4  5  1  0  0  0  0
  4 17  2  0  0  0  0
  5  6  1  0  0  0  0
  5 23  1  0  0  0  0
  6  7  2  0  0  0  0
  6  8  1  0  0  0  0
  8  9  1  0  0  0  0
  9 10  1  0  0  0  0
  9 24  1  0  0  0  0
  9 25  1  0  0  0  0
 10 11  1  0  0  0  0
 10 26  1  0  0  0  0
 10 27  1  0  0  0  0
 11 16  1  0  0  0  0
 11 12  1  0  0  0  0
 11 38  1  0  0  0  0
 12 13  1  0  0  0  0
 12 28  1  0  0  0  0
 12 29  1  0  0  0  0
 13 14  1  0  0  0  0
 13 30  1  0  0  0  0
 13 31  1  0  0  0  0
 14 15  1  0  0  0  0
 14 32  1  0  0  0  0
 14 33  1  0  0  0  0
 15 16  1  0  0  0  0
 15 34  1  0  0  0  0
 15 35  1  0  0  0  0
 16 36  1  0  0  0  0
 16 37  1  0  0  0  0
 17 18  1  0  0  0  0
M  CHG  1   8  -1
M  CHG  1  11   1
M  END
> <s_m_source_file>
AV-unprocessed.smi

> <i_m_source_file_index>
2045

> <i_lp_mmshare_version>
43012

> <i_f3d_flags>
0

> <s_epik_input>
W0NIM11jMVtjSF1jKG5vMSlbTkhdQyg9TylbTkhdW0NIMl1bQ0gyXU4yW0NIMl1bQ0gyXVtDSDJdW0NIMl1bQ0gyXTI=

> <s_epik_cmdline>
J2VwaWtfcHl0aG9uJywgJy1waCcsICc3LjAnLCAnLXRuJywgJzgnLCAnLW1hJywgJzIwMCcsICctbWV0YWxfYmluZGluZycsICctaW1hZScsICc8aW5maWxlLm1hZT4nLCAnLW9tYWUnLCAnPG91dGZpbGUubWFlPic=

> <r_epik_Ionization_Penalty>
6.7666

> <r_epik_Ionization_Penalty_Charging>
6.7666

> <r_epik_Ionization_Penalty_Neutral>
5.77131e-06

> <r_epik_State_Penalty>
6.79217

> <r_epik_Charging_Adjusted_Penalty>
13.5588

> <i_epik_Tot_Q>
0

> <i_epik_Tot_abs_Q>
2

> <r_epik_Metal_State_Penalty>
2.72569

> <b_epik_Metal_Only>
1

> <s_lp_Force_Field>
OPLS_2005

> <r_lp_Energy>
13.1294

> <b_lp_Chiralities_Consistent>
1

> <s_lp_Variant>
AV-unprocessed.smi:2045-3

> <Gold.Version>
5.8.1

> <Gold.Id.Protein>
6NUR|6NUR_protein|mol2

> <Gold.PLP.Fitness>
41.4976

> <Gold.PLP.PLP>
-33.7072

> <Gold.PLP.part.hbond>
-4.0000

> <Gold.PLP.part.metal>
0.0000

> <Gold.PLP.part.buried>
-4.0828

> <Gold.PLP.part.nonpolar>
-24.9499

> <Gold.PLP.part.repulsive>
0.4355

> <Gold.PLP.ligand.clash>
0.0000

> <Gold.PLP.ligand.torsion>
0.6278

> <Gold.PLP.Chemscore.Hbond>
3.0000

> <Gold.PLP.Chemscore.CHOScore>
0.0000

> <Gold.PLP.Chemscore.Metal>
0.0000

> <Gold.Chemscore.Hbonds>
donor molecule, donor type, donor heavy atom, donor atom, acceptor molecule, acceptor atom, score
      L1  H    11    38       P1 10747  1.00
      P1  H  7989  7998       L1    18  1.00
      P1  H 10752 10765       L1     7  1.00

> <Gold.PLP.Chemscore.Internal.Correction>
0.0460

> <Gold.Rescore>
     Score         DG    S(hbond)    S(metal)    S(lipo)     H(rot)  DE(clash)    DE(int)     intcor
     17.71     -19.58       2.96        0.00      70.04       1.55       0.03       1.84       ----

> <Gold.Chemscore.Fitness>
17.7142

> <Gold.Chemscore.DG>
-19.5790

> <Gold.Chemscore.ZeroCoef>
-5.4800

> <Gold.Chemscore.Hbond>
2.9591

> <Gold.Chemscore.Metal>
0.0000

> <Gold.Chemscore.Lipo>
70.0419

> <Gold.Chemscore.Internal_Hbond>
0.0000

> <Gold.Chemscore.DEClash>
0.0289

> <Gold.Chemscore.DEInternal>
1.8359

> <Gold.Chemscore.Rot>
1.5544

> <Gold.Chemscore.Internal.Correction>
   9.000000E+99

> <Gold.Chemscore.Hbonds>
donor molecule, donor type, donor heavy atom, donor atom, acceptor molecule, acceptor atom, score
      L1  H    11    38       P1 10747  1.00
      P1  H  7989  7998       L1    18  0.55
      P1  H 10752 10765       L1     7  1.00

> <Gold.Chemscore.Hbond.Weighted>
-9.8835

> <Gold.Chemscore.Metal.Weighted>
-0.0000

> <Gold.Chemscore.Lipo.Weighted>
-8.1949

> <Gold.Chemscore.Internal_Hbond.Weighted>
0.0000

> <Gold.Chemscore.DEClash.Weighted>
0.0289

> <Gold.Chemscore.DEInternal.Weighted>
1.8359

> <Gold.Chemscore.Rot.Weighted>
3.9794

> <Gold.Chemscore.Internal.Correction.Weighted>
   9.000000E+99

> <Gold.Protein.RotatedTorsions>
[ 6907 6896 6895 6894 ] final -100.12 input  -60.11 | X-H torsion
[ 7974 7965 7964 7962 ] final   88.74 input  175.53 | X-H torsion
[ 8008 7997 7996 7995 ] final  117.04 input   59.86 | X-H torsion
[ 10167 10162 10161 10158 ] final    7.99 input  -65.29 | X-H torsion
[ 10718 10713 10712 10709 ] final  167.18 input   66.30 | X-H torsion
[ 10763 10752 10751 10750 ] final -166.08 input  -60.55 | X-H torsion
[ 11005 11000 10999 10996 ] final   48.07 input  -57.11 | X-H torsion

> <Gold.Protein.ActiveResidues>
 VAL166  LYS551  ARG553  GLY616  TRP617  ASP618  TYR619  PRO620  LYS621  CYS622 
 ASP623  PHE694  ASN695  SER759  ASP760  ASP761  ALA762  ILE779  LEU786  VAL792 
 PHE793  MET794  SER795  GLU796  ALA797  LYS798  CYS799  TRP800  GLU811  SER814 

> <Gold.Protein.RotatedAtoms>
  150.7104  134.0936  159.3940 H   0  0  0  0  0  0  0  0  0  0  0  0  # atno 6907 bound_to 6896
  151.8922  135.0410  160.0508 H   0  0  0  0  0  0  0  0  0  0  0  0  # atno 6908 bound_to 6896
  152.2482  133.5157  159.5346 H   0  0  0  0  0  0  0  0  0  0  0  0  # atno 6909 bound_to 6896
  145.5417  139.2289  143.2562 H   0  0  0  0  0  0  0  0  0  0  0  0  # atno 7974 bound_to 7965
  156.2472  140.2905  156.0616 H   0  0  0  0  0  0  0  0  0  0  0  0  # atno 8008 bound_to 7997
  155.1769  140.0403  157.2891 H   0  0  0  0  0  0  0  0  0  0  0  0  # atno 8009 bound_to 7997
  154.6287  140.2494  155.7467 H   0  0  0  0  0  0  0  0  0  0  0  0  # atno 8010 bound_to 7997
  140.6340  143.7929  150.7334 H   0  0  0  0  0  0  0  0  0  0  0  0  # atno 10167 bound_to 10162
  157.0552  131.0324  151.2667 H   0  0  0  0  0  0  0  0  0  0  0  0  # atno 10718 bound_to 10713
  154.6869  135.2964  154.9535 H   0  0  0  0  0  0  0  0  0  0  0  0  # atno 10763 bound_to 10752
  154.0511  135.6644  153.4804 H   0  0  0  0  0  0  0  0  0  0  0  0  # atno 10764 bound_to 10752
  153.0585  135.5130  154.7940 H   0  0  0  0  0  0  0  0  0  0  0  0  # atno 10765 bound_to 10752
  140.1223  134.4814  155.8587 H   0  0  0  0  0  0  0  0  0  0  0  0  # atno 11005 bound_to 11000
  146.1977  140.6237  142.9117 LP  0  0  0  0  0  0  0  0  0  0  0  0  # atno 17320 bound_to 7965
  144.7574  140.5340  143.6759 LP  0  0  0  0  0  0  0  0  0  0  0  0  # atno 17321 bound_to 7965
  140.1546  143.4328  152.2108 LP  0  0  0  0  0  0  0  0  0  0  0  0  # atno 17342 bound_to 10162
  139.5552  144.7367  151.4316 LP  0  0  0  0  0  0  0  0  0  0  0  0  # atno 17343 bound_to 10162
  157.4999  130.7873  149.7593 LP  0  0  0  0  0  0  0  0  0  0  0  0  # atno 17370 bound_to 10713
  155.9995  130.3888  150.2661 LP  0  0  0  0  0  0  0  0  0  0  0  0  # atno 17371 bound_to 10713
  141.2154  133.6765  156.6912 LP  0  0  0  0  0  0  0  0  0  0  0  0  # atno 17394 bound_to 11000
  140.2949  134.8210  157.4049 LP  0  0  0  0  0  0  0  0  0  0  0  0  # atno 17395 bound_to 11000

$$$$
