AV-unprocessed.smi:464|AV-procd|sdf|2636|dock3
  -GOLD-   2262023 43D 1   1.00000     0.00000
 Structure written by MMmdl.
 25 26  0  0  0  0  0  0  0  0  1 V2000
  150.1165  140.5241  154.8453 O   0  0  0  0  0  0  0  0  0  0  0  0
  150.6725  141.0463  155.8080 C   0  0  0  0  0  0  0  0  0  0  0  0
  150.4212  142.3704  156.1699 N   0  0  0  0  0  0  0  0  0  0  0  0
  151.0526  142.9439  157.2533 C   0  0  0  0  0  0  0  0  0  0  0  0
  151.9438  142.2688  158.0221 C   0  0  0  0  0  0  0  0  0  0  0  0
  152.5754  142.8538  159.1081 N   0  0  0  0  0  0  0  0  0  0  0  0
  153.1869  142.0861  160.1835 C   0  0  0  0  0  0  0  0  0  0  0  0
  152.4842  142.3931  161.5178 C   0  0  0  0  0  0  0  0  0  0  0  0
  152.5125  143.7973  161.7596 O   0  0  0  0  0  0  0  0  0  0  0  0
  151.8398  144.5327  160.7410 C   0  0  0  0  0  0  0  0  0  0  0  0
  152.5253  144.2822  159.3860 C   0  0  0  0  0  0  0  0  0  0  0  0
  152.2628  140.8685  157.7060 C   0  0  0  0  0  0  0  0  0  0  0  0
  153.0501  140.1550  158.3260 O   0  0  0  0  0  0  0  0  0  0  0  0
  151.5874  140.3469  156.5955 N   0  0  0  0  0  0  0  0  0  0  0  0
  149.7634  142.8986  155.6147 H   0  0  0  0  0  0  0  0  0  0  0  0
  151.7786  139.3876  156.3454 H   0  0  0  0  0  0  0  0  0  0  0  0
  150.8187  143.9730  157.4862 H   0  0  0  0  0  0  0  0  0  0  0  0
  153.1303  141.0187  159.9657 H   0  0  0  0  0  0  0  0  0  0  0  0
  154.2456  142.3412  160.2449 H   0  0  0  0  0  0  0  0  0  0  0  0
  151.4531  142.0365  161.5076 H   0  0  0  0  0  0  0  0  0  0  0  0
  152.9898  141.8808  162.3362 H   0  0  0  0  0  0  0  0  0  0  0  0
  150.7879  144.2450  160.7056 H   0  0  0  0  0  0  0  0  0  0  0  0
  151.8713  145.5937  160.9886 H   0  0  0  0  0  0  0  0  0  0  0  0
  153.5414  144.6786  159.3957 H   0  0  0  0  0  0  0  0  0  0  0  0
  151.9893  144.8035  158.5916 H   0  0  0  0  0  0  0  0  0  0  0  0
  1  2  2  0  0  0  0
  2 14  1  0  0  0  0
  2  3  1  0  0  0  0
  3 15  1  0  0  0  0
  3  4  1  0  0  0  0
  4  5  2  0  0  0  0
  4 17  1  0  0  0  0
  5  6  1  0  0  0  0
  5 12  1  0  0  0  0
  6 11  1  0  0  0  0
  6  7  1  0  0  0  0
  7  8  1  0  0  0  0
  7 18  1  0  0  0  0
  7 19  1  0  0  0  0
  8  9  1  0  0  0  0
  8 20  1  0  0  0  0
  8 21  1  0  0  0  0
  9 10  1  0  0  0  0
 10 11  1  0  0  0  0
 10 22  1  0  0  0  0
 10 23  1  0  0  0  0
 11 24  1  0  0  0  0
 11 25  1  0  0  0  0
 12 13  2  0  0  0  0
 12 14  1  0  0  0  0
 14 16  1  0  0  0  0
M  END
> <s_m_source_file>
AV-unprocessed.smi

> <i_m_source_file_index>
464

> <i_lp_mmshare_version>
43012

> <i_f3d_flags>
0

> <s_epik_input>
Tz1jMVtuSF1bY0hdYyhjKD1PKVtuSF0xKU4yW0NIMl1bQ0gyXU9bQ0gyXVtDSDJdMg==

> <s_epik_cmdline>
J2VwaWtfcHl0aG9uJywgJy1waCcsICc3LjAnLCAnLXRuJywgJzgnLCAnLW1hJywgJzIwMCcsICctbWV0YWxfYmluZGluZycsICctaW1hZScsICc8aW5maWxlLm1hZT4nLCAnLW9tYWUnLCAnPG91dGZpbGUubWFlPic=

> <r_lp_tautomer_probability>
0.999801

> <r_epik_Ionization_Penalty>
0.0101854

> <r_epik_Ionization_Penalty_Charging>
0.0101853

> <r_epik_Ionization_Penalty_Neutral>
7.32569e-08

> <r_epik_State_Penalty>
0.00491364

> <r_epik_Charging_Adjusted_Penalty>
0.015099

> <i_epik_Tot_Q>
0

> <i_epik_Tot_abs_Q>
0

> <r_epik_Metal_State_Penalty>
1.54201

> <b_epik_Metal_Only>
0

> <s_lp_Force_Field>
OPLS_2005

> <r_lp_Energy>
18.7327

> <b_lp_Chiralities_Consistent>
1

> <s_lp_Variant>
AV-unprocessed.smi:464-1

> <Gold.Version>
5.8.1

> <Gold.Id.Protein>
6NUR|6NUR_protein|mol2

> <Gold.PLP.Fitness>
37.8690

> <Gold.PLP.PLP>
-31.6839

> <Gold.PLP.part.hbond>
-3.0000

> <Gold.PLP.part.metal>
0.0000

> <Gold.PLP.part.buried>
-3.0980

> <Gold.PLP.part.nonpolar>
-23.9571

> <Gold.PLP.part.repulsive>
0.4713

> <Gold.PLP.ligand.clash>
2.4113

> <Gold.PLP.ligand.torsion>
0.1156

> <Gold.PLP.Chemscore.Hbond>
2.5003

> <Gold.PLP.Chemscore.CHOScore>
0.2672

> <Gold.PLP.Chemscore.Metal>
0.0000

> <Gold.Chemscore.Hbonds>
donor molecule, donor type, donor heavy atom, donor atom, acceptor molecule, acceptor atom, score
      L1  H     3    15       P1  8028  0.77
      P1  H  7989  7998       L1     1  0.70
      P1  H  7997  8010       L1    13  0.99
      L1  C     4    17       P1  8028  0.26

> <Gold.PLP.Chemscore.Internal.Correction>
0.5253

> <Gold.Rescore>
     Score         DG    S(hbond)    S(metal)    S(lipo)     H(rot)  DE(clash)    DE(int)     intcor
     17.30     -19.15       1.82        0.00      65.02       0.00       0.19       1.66       ----

> <Gold.Chemscore.Fitness>
17.3028

> <Gold.Chemscore.DG>
-19.1521

> <Gold.Chemscore.ZeroCoef>
-5.4800

> <Gold.Chemscore.Hbond>
1.8158

> <Gold.Chemscore.Metal>
0.0000

> <Gold.Chemscore.Lipo>
65.0195

> <Gold.Chemscore.Internal_Hbond>
0.0000

> <Gold.Chemscore.DEClash>
0.1934

> <Gold.Chemscore.DEInternal>
1.6559

> <Gold.Chemscore.Rot>
0.0000

> <Gold.Chemscore.Internal.Correction>
   9.000000E+99

> <Gold.Chemscore.Hbonds>
donor molecule, donor type, donor heavy atom, donor atom, acceptor molecule, acceptor atom, score
      L1  H     3    15       P1  8028  0.72
      P1  H  7989  7998       L1     1  0.10
      P1  H  7997  8010       L1    13  0.27

> <Gold.Chemscore.Hbond.Weighted>
-6.0649

> <Gold.Chemscore.Metal.Weighted>
-0.0000

> <Gold.Chemscore.Lipo.Weighted>
-7.6073

> <Gold.Chemscore.Internal_Hbond.Weighted>
0.0000

> <Gold.Chemscore.DEClash.Weighted>
0.1934

> <Gold.Chemscore.DEInternal.Weighted>
1.6559

> <Gold.Chemscore.Rot.Weighted>
0.0000

> <Gold.Chemscore.Internal.Correction.Weighted>
   9.000000E+99

> <Gold.Protein.RotatedTorsions>
[ 6907 6896 6895 6894 ] final  161.30 input  -60.11 | X-H torsion
[ 7974 7965 7964 7962 ] final -158.02 input  175.53 | X-H torsion
[ 8008 7997 7996 7995 ] final   34.27 input   59.86 | X-H torsion
[ 10167 10162 10161 10158 ] final  -20.78 input  -65.29 | X-H torsion
[ 10718 10713 10712 10709 ] final   89.40 input   66.30 | X-H torsion
[ 10763 10752 10751 10750 ] final  -65.36 input  -60.55 | X-H torsion
[ 11005 11000 10999 10996 ] final   55.33 input  -57.11 | X-H torsion

> <Gold.Protein.ActiveResidues>
 VAL166  LYS551  ARG553  GLY616  TRP617  ASP618  TYR619  PRO620  LYS621  CYS622 
 ASP623  PHE694  ASN695  SER759  ASP760  ASP761  ALA762  ILE779  LEU786  VAL792 
 PHE793  MET794  SER795  GLU796  ALA797  LYS798  CYS799  TRP800  GLU811  SER814 

> <Gold.Protein.RotatedAtoms>
  151.9577  133.3685  159.4023 H   0  0  0  0  0  0  0  0  0  0  0  0  # atno 6907 bound_to 6896
  150.6969  134.4273  159.5241 H   0  0  0  0  0  0  0  0  0  0  0  0  # atno 6908 bound_to 6896
  152.1957  134.8633  160.0564 H   0  0  0  0  0  0  0  0  0  0  0  0  # atno 6909 bound_to 6896
  144.7523  140.3886  143.6038 H   0  0  0  0  0  0  0  0  0  0  0  0  # atno 7974 bound_to 7965
  155.1521  140.3276  155.4429 H   0  0  0  0  0  0  0  0  0  0  0  0  # atno 8008 bound_to 7997
  156.2570  140.1975  156.6583 H   0  0  0  0  0  0  0  0  0  0  0  0  # atno 8009 bound_to 7997
  154.6465  140.0563  156.9893 H   0  0  0  0  0  0  0  0  0  0  0  0  # atno 8010 bound_to 7997
  140.7278  143.4690  151.0273 H   0  0  0  0  0  0  0  0  0  0  0  0  # atno 10167 bound_to 10162
  157.6955  131.0332  150.3420 H   0  0  0  0  0  0  0  0  0  0  0  0  # atno 10718 bound_to 10713
  154.3438  135.6151  153.5609 H   0  0  0  0  0  0  0  0  0  0  0  0  # atno 10763 bound_to 10752
  152.9802  135.5776  154.4822 H   0  0  0  0  0  0  0  0  0  0  0  0  # atno 10764 bound_to 10752
  154.4531  135.2853  155.1744 H   0  0  0  0  0  0  0  0  0  0  0  0  # atno 10765 bound_to 10752
  140.0615  134.5596  155.9147 H   0  0  0  0  0  0  0  0  0  0  0  0  # atno 11005 bound_to 11000
  145.6900  139.1637  143.2652 LP  0  0  0  0  0  0  0  0  0  0  0  0  # atno 17320 bound_to 7965
  146.1489  140.6953  142.9331 LP  0  0  0  0  0  0  0  0  0  0  0  0  # atno 17321 bound_to 7965
  139.8380  143.7601  152.3180 LP  0  0  0  0  0  0  0  0  0  0  0  0  # atno 17342 bound_to 10162
  139.7740  144.7467  151.0183 LP  0  0  0  0  0  0  0  0  0  0  0  0  # atno 17343 bound_to 10162
  156.3880  130.3892  149.7051 LP  0  0  0  0  0  0  0  0  0  0  0  0  # atno 17370 bound_to 10713
  156.4411  130.7861  151.2882 LP  0  0  0  0  0  0  0  0  0  0  0  0  # atno 17371 bound_to 10713
  141.1975  133.6597  156.5745 LP  0  0  0  0  0  0  0  0  0  0  0  0  # atno 17394 bound_to 11000
  140.3763  134.7562  157.4632 LP  0  0  0  0  0  0  0  0  0  0  0  0  # atno 17395 bound_to 11000

$$$$
