AV-unprocessed.smi:25|AV-procd|sdf|179|dock5
  -GOLD-   2262015443D 1   1.00000     0.00000
 Structure written by MMmdl.
 47 50  0  0  0  0  0  0  0  0  1 V2000
  150.7493  129.8281  154.4165 C   0  0  0  0  0  0  0  0  0  0  0  0
  149.4278  130.4735  154.8796 C   0  0  2  0  0  0  0  0  0  0  0  0
  148.2035  129.7429  154.2835 C   0  0  0  0  0  0  0  0  0  0  0  0
  147.5838  130.7804  153.3993 C   0  0  0  0  0  0  0  0  0  0  0  0
  146.4832  130.5880  152.5465 C   0  0  0  0  0  0  0  0  0  0  0  0
  146.0490  131.6733  151.7594 C   0  0  0  0  0  0  0  0  0  0  0  0
  146.7206  132.9133  151.8306 C   0  0  0  0  0  0  0  0  0  0  0  0
  147.8252  133.0879  152.6929 C   0  0  0  0  0  0  0  0  0  0  0  0
  148.2480  132.0020  153.4975 C   0  0  0  0  0  0  0  0  0  0  0  0
  149.3145  131.8838  154.4403 N   0  0  0  0  0  0  0  0  0  0  0  0
  150.0561  132.8554  155.0410 C   0  0  0  0  0  0  0  0  0  0  0  0
  150.8584  132.5781  155.9361 O   0  0  0  0  0  0  0  0  0  0  0  0
  149.9029  134.3377  154.6480 C   0  0  0  0  0  0  0  0  0  0  0  0
  150.0425  135.2763  155.7861 N   0  0  0  0  0  0  0  0  0  0  0  0
  149.3040  135.0242  156.9698 C   0  0  0  0  0  0  0  0  0  0  0  0
  148.5508  134.0533  157.0584 O   0  0  0  0  0  0  0  0  0  0  0  0
  149.5095  135.9758  158.0562 C   0  0  0  0  0  0  0  0  0  0  0  0
  148.8562  135.8105  159.2188 F   0  0  0  0  0  0  0  0  0  0  0  0
  150.3507  137.0204  157.9144 C   0  0  0  0  0  0  0  0  0  0  0  0
  151.0608  137.2572  156.7522 N   0  0  0  0  0  0  0  0  0  0  0  0
  152.0068  138.4309  156.6414 C   0  0  2  0  0  0  0  0  0  0  0  0
  151.9735  139.2637  157.9286 C   0  0  0  0  0  0  0  0  0  0  0  0
  151.0313  140.3878  157.5545 C   0  0  0  0  0  0  0  0  0  0  0  0
  151.3432  140.5681  156.0741 C   0  0  0  0  0  0  0  0  0  0  0  0
  151.5879  139.2522  155.5892 O   0  0  0  0  0  0  0  0  0  0  0  0
  150.9334  136.3700  155.6618 C   0  0  0  0  0  0  0  0  0  0  0  0
  151.5923  136.5383  154.6334 O   0  0  0  0  0  0  0  0  0  0  0  0
  150.7868  128.7756  154.6985 H   0  0  0  0  0  0  0  0  0  0  0  0
  151.6188  130.3106  154.8622 H   0  0  0  0  0  0  0  0  0  0  0  0
  150.8571  129.8850  153.3327 H   0  0  0  0  0  0  0  0  0  0  0  0
  149.3670  130.4179  155.9682 H   0  0  0  0  0  0  0  0  0  0  0  0
  148.4740  128.8571  153.7074 H   0  0  0  0  0  0  0  0  0  0  0  0
  147.4955  129.4495  155.0592 H   0  0  0  0  0  0  0  0  0  0  0  0
  145.9851  129.6311  152.4911 H   0  0  0  0  0  0  0  0  0  0  0  0
  145.2071  131.5538  151.0935 H   0  0  0  0  0  0  0  0  0  0  0  0
  146.3886  133.7361  151.2146 H   0  0  0  0  0  0  0  0  0  0  0  0
  148.3068  134.0486  152.6869 H   0  0  0  0  0  0  0  0  0  0  0  0
  150.6488  134.5700  153.8883 H   0  0  0  0  0  0  0  0  0  0  0  0
  148.9337  134.4804  154.1693 H   0  0  0  0  0  0  0  0  0  0  0  0
  150.4702  137.6897  158.7532 H   0  0  0  0  0  0  0  0  0  0  0  0
  152.9898  138.0190  156.4086 H   0  0  0  0  0  0  0  0  0  0  0  0
  151.6511  138.6822  158.7934 H   0  0  0  0  0  0  0  0  0  0  0  0
  152.9751  139.6519  158.1172 H   0  0  0  0  0  0  0  0  0  0  0  0
  149.9955  140.0738  157.6879 H   0  0  0  0  0  0  0  0  0  0  0  0
  151.1921  141.2944  158.1382 H   0  0  0  0  0  0  0  0  0  0  0  0
  150.5342  141.0531  155.5278 H   0  0  0  0  0  0  0  0  0  0  0  0
  152.2475  141.1644  155.9460 H   0  0  0  0  0  0  0  0  0  0  0  0
  1  2  1  0  0  0  0
  1 28  1  0  0  0  0
  1 29  1  0  0  0  0
  1 30  1  0  0  0  0
  2 10  1  0  0  0  0
  2  3  1  0  0  0  0
  2 31  1  0  0  0  0
  3  4  1  0  0  0  0
  3 32  1  0  0  0  0
  3 33  1  0  0  0  0
  4  9  2  0  0  0  0
  4  5  1  0  0  0  0
  5  6  2  0  0  0  0
  5 34  1  0  0  0  0
  6  7  1  0  0  0  0
  6 35  1  0  0  0  0
  7  8  2  0  0  0  0
  7 36  1  0  0  0  0
  8  9  1  0  0  0  0
  8 37  1  0  0  0  0
  9 10  1  0  0  0  0
 10 11  1  0  0  0  0
 11 12  2  0  0  0  0
 11 13  1  0  0  0  0
 13 14  1  0  0  0  0
 13 38  1  0  0  0  0
 13 39  1  0  0  0  0
 14 26  1  0  0  0  0
 14 15  1  0  0  0  0
 15 16  2  0  0  0  0
 15 17  1  0  0  0  0
 17 18  1  0  0  0  0
 17 19  2  0  0  0  0
 19 20  1  0  0  0  0
 19 40  1  0  0  0  0
 20 21  1  0  0  0  0
 20 26  1  0  0  0  0
 21 25  1  0  0  0  0
 21 22  1  0  0  0  0
 21 41  1  0  0  0  0
 22 23  1  0  0  0  0
 22 42  1  0  0  0  0
 22 43  1  0  0  0  0
 23 24  1  0  0  0  0
 23 44  1  0  0  0  0
 23 45  1  0  0  0  0
 24 25  1  0  0  0  0
 24 46  1  0  0  0  0
 24 47  1  0  0  0  0
 26 27  2  0  0  0  0
M  END
> <s_m_source_file>
AV-unprocessed.smi

> <i_m_source_file_index>
25

> <i_lp_mmshare_version>
43012

> <i_f3d_flags>
0

> <s_epik_input>
W2NIXTFbY0hdW2NIXVtjSF1jKGMxMilOKFtDQEhdKFtDSDNdKVtDSDJdMilDKD1PKVtDSDJdbjNjKD1PKWMoRilbY0hdbihjMz1PKVtDQEBIXTRbQ0gyXVtDSDJdW0NIMl1PNA==

> <s_epik_cmdline>
J2VwaWtfcHl0aG9uJywgJy1waCcsICc3LjAnLCAnLXRuJywgJzgnLCAnLW1hJywgJzIwMCcsICctbWV0YWxfYmluZGluZycsICctaW1hZScsICc8aW5maWxlLm1hZT4nLCAnLW9tYWUnLCAnPG91dGZpbGUubWFlPic=

> <r_lp_tautomer_probability>
1

> <r_epik_Ionization_Penalty>
1.67943e-06

> <r_epik_Ionization_Penalty_Charging>
3.79603e-09

> <r_epik_Ionization_Penalty_Neutral>
1.67563e-06

> <r_epik_State_Penalty>
-0

> <r_epik_Charging_Adjusted_Penalty>
3.79603e-09

> <i_epik_Tot_Q>
0

> <i_epik_Tot_abs_Q>
0

> <r_epik_Metal_State_Penalty>
-0

> <b_epik_Metal_Only>
0

> <s_epik_Chemistry_Notes>
This compound contains an acetal/aminal-like group ( X-CH(R)-Y where X, Y are N, S, or O) that may be acid/base labile, releasing an aldehyde.

> <s_lp_Force_Field>
OPLS_2005

> <r_lp_Energy>
56.1974

> <b_lp_Chiralities_Consistent>
1

> <s_lp_Variant>
AV-unprocessed.smi:25-1

> <Gold.Version>
5.8.1

> <Gold.Id.Protein>
6NUR|6NUR_protein|mol2

> <Gold.PLP.Fitness>
43.9897

> <Gold.PLP.PLP>
-41.8736

> <Gold.PLP.part.hbond>
-1.0215

> <Gold.PLP.part.metal>
0.0000

> <Gold.PLP.part.buried>
-5.4735

> <Gold.PLP.part.nonpolar>
-34.9104

> <Gold.PLP.part.repulsive>
0.1641

> <Gold.PLP.ligand.clash>
0.0000

> <Gold.PLP.ligand.torsion>
0.4584

> <Gold.PLP.Chemscore.Hbond>
1.0000

> <Gold.PLP.Chemscore.CHOScore>
0.0000

> <Gold.PLP.Chemscore.Metal>
0.0000

> <Gold.Chemscore.Hbonds>
donor molecule, donor type, donor heavy atom, donor atom, acceptor molecule, acceptor atom, score
      P1  H 10752 10764       L1    27  1.00

> <Gold.PLP.Chemscore.Internal.Correction>
0.0329

> <Gold.Rescore>
     Score         DG    S(hbond)    S(metal)    S(lipo)     H(rot)  DE(clash)    DE(int)     intcor
     11.42     -13.95       0.99        0.00      78.11       1.55       0.00       2.53       ----

> <Gold.Chemscore.Fitness>
11.4227

> <Gold.Chemscore.DG>
-13.9518

> <Gold.Chemscore.ZeroCoef>
-5.4800

> <Gold.Chemscore.Hbond>
0.9876

> <Gold.Chemscore.Metal>
0.0000

> <Gold.Chemscore.Lipo>
78.1063

> <Gold.Chemscore.Internal_Hbond>
0.0000

> <Gold.Chemscore.DEClash>
0.0000

> <Gold.Chemscore.DEInternal>
2.5291

> <Gold.Chemscore.Rot>
1.5489

> <Gold.Chemscore.Internal.Correction>
   9.000000E+99

> <Gold.Chemscore.Hbonds>
donor molecule, donor type, donor heavy atom, donor atom, acceptor molecule, acceptor atom, score
      P1  H 10752 10764       L1    27  0.95

> <Gold.Chemscore.Hbond.Weighted>
-3.2985

> <Gold.Chemscore.Metal.Weighted>
-0.0000

> <Gold.Chemscore.Lipo.Weighted>
-9.1384

> <Gold.Chemscore.Internal_Hbond.Weighted>
0.0000

> <Gold.Chemscore.DEClash.Weighted>
0.0000

> <Gold.Chemscore.DEInternal.Weighted>
2.5291

> <Gold.Chemscore.Rot.Weighted>
3.9651

> <Gold.Chemscore.Internal.Correction.Weighted>
   9.000000E+99

> <Gold.Protein.RotatedTorsions>
[ 6907 6896 6895 6894 ] final   37.81 input  -60.11 | X-H torsion
[ 7974 7965 7964 7962 ] final -122.88 input  175.53 | X-H torsion
[ 8008 7997 7996 7995 ] final   64.18 input   59.86 | X-H torsion
[ 10167 10162 10161 10158 ] final   19.82 input  -65.29 | X-H torsion
[ 10718 10713 10712 10709 ] final  -47.41 input   66.30 | X-H torsion
[ 10763 10752 10751 10750 ] final  -69.96 input  -60.55 | X-H torsion
[ 11005 11000 10999 10996 ] final   69.52 input  -57.11 | X-H torsion

> <Gold.Protein.ActiveResidues>
 VAL166  LYS551  ARG553  GLY616  TRP617  ASP618  TYR619  PRO620  LYS621  CYS622 
 ASP623  PHE694  ASN695  SER759  ASP760  ASP761  ALA762  ILE779  LEU786  VAL792 
 PHE793  MET794  SER795  GLU796  ALA797  LYS798  CYS799  TRP800  GLU811  SER814 

> <Gold.Protein.RotatedAtoms>
  152.1482  134.9009  160.0549 H   0  0  0  0  0  0  0  0  0  0  0  0  # atno 6907 bound_to 6896
  152.0051  133.3835  159.4205 H   0  0  0  0  0  0  0  0  0  0  0  0  # atno 6908 bound_to 6896
  150.6872  134.3713  159.5037 H   0  0  0  0  0  0  0  0  0  0  0  0  # atno 6909 bound_to 6896
  145.0247  140.8017  143.4360 H   0  0  0  0  0  0  0  0  0  0  0  0  # atno 7974 bound_to 7965
  155.6419  140.3497  155.4718 H   0  0  0  0  0  0  0  0  0  0  0  0  # atno 8008 bound_to 7997
  155.9919  140.1195  157.0654 H   0  0  0  0  0  0  0  0  0  0  0  0  # atno 8009 bound_to 7997
  154.4221  140.1118  156.5563 H   0  0  0  0  0  0  0  0  0  0  0  0  # atno 8010 bound_to 7997
  140.5550  143.9441  150.6603 H   0  0  0  0  0  0  0  0  0  0  0  0  # atno 10167 bound_to 10162
  156.2087  130.4159  149.9143 H   0  0  0  0  0  0  0  0  0  0  0  0  # atno 10718 bound_to 10713
  154.4109  135.6009  153.5952 H   0  0  0  0  0  0  0  0  0  0  0  0  # atno 10763 bound_to 10752
  152.9790  135.5929  154.4071 H   0  0  0  0  0  0  0  0  0  0  0  0  # atno 10764 bound_to 10752
  154.3883  135.2841  155.2148 H   0  0  0  0  0  0  0  0  0  0  0  0  # atno 10765 bound_to 10752
  139.9649  134.6998  156.0566 H   0  0  0  0  0  0  0  0  0  0  0  0  # atno 11005 bound_to 11000
  145.1850  139.2331  143.5273 LP  0  0  0  0  0  0  0  0  0  0  0  0  # atno 17320 bound_to 7965
  146.3490  140.1632  142.8590 LP  0  0  0  0  0  0  0  0  0  0  0  0  # atno 17321 bound_to 7965
  140.2876  143.3346  152.1092 LP  0  0  0  0  0  0  0  0  0  0  0  0  # atno 17342 bound_to 10162
  139.5044  144.6774  151.6093 LP  0  0  0  0  0  0  0  0  0  0  0  0  # atno 17343 bound_to 10162
  156.6828  130.8865  151.3578 LP  0  0  0  0  0  0  0  0  0  0  0  0  # atno 17370 bound_to 10713
  157.7027  130.9350  150.0833 LP  0  0  0  0  0  0  0  0  0  0  0  0  # atno 17371 bound_to 10713
  141.1328  133.6582  156.3512 LP  0  0  0  0  0  0  0  0  0  0  0  0  # atno 17394 bound_to 11000
  140.5418  134.6113  157.5382 LP  0  0  0  0  0  0  0  0  0  0  0  0  # atno 17395 bound_to 11000

$$$$
