AV-unprocessed.smi:1675|AV-procd|sdf|6716|dock9
  -GOLD-   22720 7463D 1   1.00000     0.00000
 Structure written by MMmdl.
 40 42  0  0  0  0  0  0  0  0  1 V2000
  154.9475  133.5120  158.3532 N   0  0  0  0  0  0  0  0  0  0  0  0
  154.2857  134.6602  158.5177 C   0  0  0  0  0  0  0  0  0  0  0  0
  153.4415  135.0498  157.7127 O   0  0  0  0  0  0  0  0  0  0  0  0
  154.6282  135.4858  159.7622 C   0  0  0  0  0  0  0  0  0  0  0  0
  153.8099  136.6830  159.8612 N   0  0  0  0  0  0  0  0  0  0  0  0
  154.2224  138.0018  159.8646 C   0  0  0  0  0  0  0  0  0  0  0  0
  153.0824  138.7466  159.9747 C   0  0  0  0  0  0  0  0  0  0  0  0
  152.9280  140.1550  160.0304 N   0  0  0  0  0  0  0  0  0  0  0  0
  153.8274  141.0627  160.4496 C   0  0  0  0  0  0  0  0  0  0  0  0
  154.9487  140.7846  160.8738 O   0  0  0  0  0  0  0  0  0  0  0  0
  153.3743  142.5256  160.4020 C   0  0  0  0  0  0  0  0  0  0  0  0
  152.7127  142.9199  159.0614 C   0  0  1  0  0  0  0  0  0  0  0  0
  151.2218  142.5300  158.9599 C   0  0  0  0  0  0  0  0  0  0  0  0
  150.5565  143.8283  158.4653 C   0  0  1  0  0  0  0  0  0  0  0  0
  150.5057  144.8410  159.6234 C   0  0  0  0  0  0  0  0  0  0  0  0
  151.9774  145.2717  159.7588 C   0  0  0  0  0  0  0  0  0  0  0  0
  152.6845  144.4228  158.6821 C   0  0  2  0  0  0  0  0  0  0  0  0
  151.6380  144.4255  157.5722 C   0  0  0  0  0  0  0  0  0  0  0  0
  152.0147  137.8135  160.0286 C   0  0  0  0  0  0  0  0  0  0  0  0
  152.4611  136.5689  159.9561 N   0  0  0  0  0  0  0  0  0  0  0  0
  154.7558  132.9359  157.5462 H   0  0  0  0  0  0  0  0  0  0  0  0
  155.6368  133.2239  159.0321 H   0  0  0  0  0  0  0  0  0  0  0  0
  154.4812  134.8944  160.6669 H   0  0  0  0  0  0  0  0  0  0  0  0
  155.6824  135.7647  159.7278 H   0  0  0  0  0  0  0  0  0  0  0  0
  155.2647  138.2757  159.7938 H   0  0  0  0  0  0  0  0  0  0  0  0
  152.0384  140.5129  159.7138 H   0  0  0  0  0  0  0  0  0  0  0  0
  152.6694  142.7100  161.2141 H   0  0  0  0  0  0  0  0  0  0  0  0
  154.2333  143.1618  160.6142 H   0  0  0  0  0  0  0  0  0  0  0  0
  153.2463  142.3917  158.2688 H   0  0  0  0  0  0  0  0  0  0  0  0
  151.0864  141.7231  158.2386 H   0  0  0  0  0  0  0  0  0  0  0  0
  150.8022  142.1964  159.9097 H   0  0  0  0  0  0  0  0  0  0  0  0
  149.5926  143.6695  157.9812 H   0  0  0  0  0  0  0  0  0  0  0  0
  149.8782  145.6955  159.3669 H   0  0  0  0  0  0  0  0  0  0  0  0
  150.1142  144.4015  160.5416 H   0  0  0  0  0  0  0  0  0  0  0  0
  152.0810  146.3332  159.5317 H   0  0  0  0  0  0  0  0  0  0  0  0
  152.3731  145.1172  160.7618 H   0  0  0  0  0  0  0  0  0  0  0  0
  153.6554  144.8182  158.3824 H   0  0  0  0  0  0  0  0  0  0  0  0
  151.8999  143.7893  156.7248 H   0  0  0  0  0  0  0  0  0  0  0  0
  151.3947  145.4250  157.2069 H   0  0  0  0  0  0  0  0  0  0  0  0
  150.9533  137.9931  160.1155 H   0  0  0  0  0  0  0  0  0  0  0  0
  1  2  1  0  0  0  0
  1 21  1  0  0  0  0
  1 22  1  0  0  0  0
  2  3  2  0  0  0  0
  2  4  1  0  0  0  0
  4  5  1  0  0  0  0
  4 23  1  0  0  0  0
  4 24  1  0  0  0  0
  5 20  1  0  0  0  0
  5  6  1  0  0  0  0
  6  7  2  0  0  0  0
  6 25  1  0  0  0  0
  7  8  1  0  0  0  0
  7 19  1  0  0  0  0
  8  9  1  0  0  0  0
  8 26  1  0  0  0  0
  9 10  2  0  0  0  0
  9 11  1  0  0  0  0
 11 12  1  0  0  0  0
 11 27  1  0  0  0  0
 11 28  1  0  0  0  0
 12 17  1  0  0  0  0
 12 13  1  0  0  0  0
 12 29  1  0  0  0  0
 13 14  1  0  0  0  0
 13 30  1  0  0  0  0
 13 31  1  0  0  0  0
 14 18  1  0  0  0  0
 14 15  1  0  0  0  0
 14 32  1  0  0  0  0
 15 16  1  0  0  0  0
 15 33  1  0  0  0  0
 15 34  1  0  0  0  0
 16 17  1  0  0  0  0
 16 35  1  0  0  0  0
 16 36  1  0  0  0  0
 17 18  1  0  0  0  0
 17 37  1  0  0  0  0
 18 38  1  0  0  0  0
 18 39  1  0  0  0  0
 19 20  2  0  0  0  0
 19 40  1  0  0  0  0
M  END
> <s_m_source_file>
AV-unprocessed.smi

> <i_m_source_file_index>
1675

> <i_lp_mmshare_version>
43012

> <i_f3d_flags>
0

> <s_epik_input>
W05IMl1DKD1PKVtDSDJdbjFbY0hdYyhbY0hdbjEpW05IXUMoPU8pW0NIMl1bQ0BIXShbQ0gyXVtDQEBIXTIzKVtDQEBIXShbQ0gyXTMpW0NIMl1bQ0gyXTI=

> <s_epik_cmdline>
J2VwaWtfcHl0aG9uJywgJy1waCcsICc3LjAnLCAnLXRuJywgJzgnLCAnLW1hJywgJzIwMCcsICctbWV0YWxfYmluZGluZycsICctaW1hZScsICc8aW5maWxlLm1hZT4nLCAnLW9tYWUnLCAnPG91dGZpbGUubWFlPic=

> <r_lp_tautomer_probability>
1

> <r_epik_Ionization_Penalty>
2.17494e-05

> <r_epik_Ionization_Penalty_Charging>
0

> <r_epik_Ionization_Penalty_Neutral>
2.17494e-05

> <r_epik_State_Penalty>
-0

> <r_epik_Charging_Adjusted_Penalty>
0

> <i_epik_Tot_Q>
0

> <i_epik_Tot_abs_Q>
0

> <r_epik_Metal_State_Penalty>
-0

> <b_epik_Metal_Only>
0

> <s_lp_Force_Field>
OPLS_2005

> <r_lp_Energy>
53.8381

> <b_lp_Chiralities_Consistent>
1

> <s_lp_Variant>
AV-unprocessed.smi:1675-2

> <Gold.Version>
5.8.1

> <Gold.Id.Protein>
6NUR|6NUR_protein|mol2

> <Gold.PLP.Fitness>
46.3565

> <Gold.PLP.PLP>
-41.3796

> <Gold.PLP.part.hbond>
-2.9595

> <Gold.PLP.part.metal>
0.0000

> <Gold.PLP.part.buried>
-6.0995

> <Gold.PLP.part.nonpolar>
-32.4370

> <Gold.PLP.part.repulsive>
0.1630

> <Gold.PLP.ligand.clash>
0.0000

> <Gold.PLP.ligand.torsion>
0.5143

> <Gold.PLP.Chemscore.Hbond>
1.9913

> <Gold.PLP.Chemscore.CHOScore>
0.0000

> <Gold.PLP.Chemscore.Metal>
0.0000

> <Gold.Chemscore.Hbonds>
donor molecule, donor type, donor heavy atom, donor atom, acceptor molecule, acceptor atom, score
      P1  H  6896  6909       L1    20  1.00

> <Gold.PLP.Chemscore.Internal.Correction>
0.0318

> <Gold.Rescore>
     Score         DG    S(hbond)    S(metal)    S(lipo)     H(rot)  DE(clash)    DE(int)     intcor
     18.56     -19.58       1.98        0.00     110.96       2.15       0.05       0.97       ----

> <Gold.Chemscore.Fitness>
18.5610

> <Gold.Chemscore.DG>
-19.5832

> <Gold.Chemscore.ZeroCoef>
-5.4800

> <Gold.Chemscore.Hbond>
1.9824

> <Gold.Chemscore.Metal>
0.0000

> <Gold.Chemscore.Lipo>
110.9603

> <Gold.Chemscore.Internal_Hbond>
0.0000

> <Gold.Chemscore.DEClash>
0.0515

> <Gold.Chemscore.DEInternal>
0.9707

> <Gold.Chemscore.Rot>
2.1486

> <Gold.Chemscore.Internal.Correction>
   9.000000E+99

> <Gold.Chemscore.Hbonds>
donor molecule, donor type, donor heavy atom, donor atom, acceptor molecule, acceptor atom, score
      P1  H  6896  6909       L1    20  0.83
      P1  H 10752 10763       L1     3  0.01

> <Gold.Chemscore.Hbond.Weighted>
-6.6212

> <Gold.Chemscore.Metal.Weighted>
-0.0000

> <Gold.Chemscore.Lipo.Weighted>
-12.9824

> <Gold.Chemscore.Internal_Hbond.Weighted>
0.0000

> <Gold.Chemscore.DEClash.Weighted>
0.0515

> <Gold.Chemscore.DEInternal.Weighted>
0.9707

> <Gold.Chemscore.Rot.Weighted>
5.5004

> <Gold.Chemscore.Internal.Correction.Weighted>
   9.000000E+99

> <Gold.Protein.RotatedTorsions>
[ 6907 6896 6895 6894 ] final  144.83 input  -60.11 | X-H torsion
[ 7974 7965 7964 7962 ] final -103.50 input  175.53 | X-H torsion
[ 8008 7997 7996 7995 ] final  129.53 input   59.86 | X-H torsion
[ 10167 10162 10161 10158 ] final  178.46 input  -65.29 | X-H torsion
[ 10718 10713 10712 10709 ] final  113.00 input   66.30 | X-H torsion
[ 10763 10752 10751 10750 ] final  161.04 input  -60.55 | X-H torsion
[ 11005 11000 10999 10996 ] final -143.66 input  -57.11 | X-H torsion

> <Gold.Protein.ActiveResidues>
 VAL166  LYS551  ARG553  GLY616  TRP617  ASP618  TYR619  PRO620  LYS621  CYS622 
 ASP623  PHE694  ASN695  SER759  ASP760  ASP761  ALA762  ILE779  LEU786  VAL792 
 PHE793  MET794  SER795  GLU796  ALA797  LYS798  CYS799  TRP800  GLU811  SER814 

> <Gold.Protein.RotatedAtoms>
  152.1887  133.4757  159.4995 H   0  0  0  0  0  0  0  0  0  0  0  0  # atno 6907 bound_to 6896
  150.6947  134.1741  159.4232 H   0  0  0  0  0  0  0  0  0  0  0  0  # atno 6908 bound_to 6896
  151.9655  135.0102  160.0600 H   0  0  0  0  0  0  0  0  0  0  0  0  # atno 6909 bound_to 6896
  145.2552  140.9251  143.3072 H   0  0  0  0  0  0  0  0  0  0  0  0  # atno 7974 bound_to 7965
  156.2938  140.2618  156.2614 H   0  0  0  0  0  0  0  0  0  0  0  0  # atno 8008 bound_to 7997
  154.9785  140.0390  157.2285 H   0  0  0  0  0  0  0  0  0  0  0  0  # atno 8009 bound_to 7997
  154.7794  140.2792  155.6080 H   0  0  0  0  0  0  0  0  0  0  0  0  # atno 8010 bound_to 7997
  139.5295  144.2677  152.0654 H   0  0  0  0  0  0  0  0  0  0  0  0  # atno 10167 bound_to 10162
  157.6362  131.0976  150.6977 H   0  0  0  0  0  0  0  0  0  0  0  0  # atno 10718 bound_to 10713
  154.2568  135.2769  155.2794 H   0  0  0  0  0  0  0  0  0  0  0  0  # atno 10763 bound_to 10752
  154.5418  135.5700  153.6849 H   0  0  0  0  0  0  0  0  0  0  0  0  # atno 10764 bound_to 10752
  152.9970  135.6253  154.2717 H   0  0  0  0  0  0  0  0  0  0  0  0  # atno 10765 bound_to 10752
  140.8103  134.2752  157.4943 H   0  0  0  0  0  0  0  0  0  0  0  0  # atno 11005 bound_to 11000
  144.9468  139.4127  143.6422 LP  0  0  0  0  0  0  0  0  0  0  0  0  # atno 17320 bound_to 7965
  146.3291  139.8455  142.8882 LP  0  0  0  0  0  0  0  0  0  0  0  0  # atno 17321 bound_to 7965
  140.2139  144.4535  150.6373 LP  0  0  0  0  0  0  0  0  0  0  0  0  # atno 17342 bound_to 10162
  140.6463  143.2214  151.6179 LP  0  0  0  0  0  0  0  0  0  0  0  0  # atno 17343 bound_to 10162
  156.7308  130.4709  149.5500 LP  0  0  0  0  0  0  0  0  0  0  0  0  # atno 17370 bound_to 10713
  156.1604  130.6370  151.0711 LP  0  0  0  0  0  0  0  0  0  0  0  0  # atno 17371 bound_to 10713
  139.8714  134.9479  156.3981 LP  0  0  0  0  0  0  0  0  0  0  0  0  # atno 17394 bound_to 11000
  140.9204  133.7649  155.9900 LP  0  0  0  0  0  0  0  0  0  0  0  0  # atno 17395 bound_to 11000

$$$$
