AV-unprocessed.smi:2949|AV-procd|sdf|11285|dock4
  -GOLD-   2272016173D 1   1.00000     0.00000
 Structure written by MMmdl.
 35 36  0  0  0  0  0  0  0  0  2 V2000
  148.1872  138.8624  152.6330 N   0  0  0  0  0  0  0  0  0  0  0  0
  147.2627  139.1868  153.5401 C   0  0  0  0  0  0  0  0  0  0  0  0
  145.9276  138.1713  153.9955 S   0  0  0  0  0  0  0  0  0  0  0  0
  145.3856  139.3747  155.1260 C   0  0  0  0  0  0  0  0  0  0  0  0
  146.2069  140.4710  155.1237 C   0  0  0  0  0  0  0  0  0  0  0  0
  147.2626  140.3518  154.2217 N   0  3  0  0  0  0  0  0  0  0  0  0
  148.2876  141.4007  154.0458 C   0  0  0  0  0  0  0  0  0  0  0  0
  149.5446  141.1696  154.8966 C   0  0  0  0  0  0  0  0  0  0  0  0
  150.2240  140.1531  154.7295 O   0  0  0  0  0  0  0  0  0  0  0  0
  149.8037  142.1515  155.7903 N   0  0  0  0  0  0  0  0  0  0  0  0
  150.7992  142.2895  156.6986 C   0  0  0  0  0  0  0  0  0  0  0  0
  151.4756  141.3197  157.0367 O   0  0  0  0  0  0  0  0  0  0  0  0
  151.0055  143.5210  157.2021 N   0  0  0  0  0  0  0  0  0  0  0  0
  152.1077  143.9029  158.0800 C   0  0  0  0  0  0  0  0  0  0  0  0
  152.3168  142.8793  159.2160 C   0  0  0  0  0  0  0  0  0  0  0  0
  152.3544  143.6872  160.5147 C   0  0  0  0  0  0  0  0  0  0  0  0
  151.4901  144.9099  160.2241 C   0  0  0  0  0  0  0  0  0  0  0  0
  151.8042  145.2467  158.7666 C   0  0  0  0  0  0  0  0  0  0  0  0
  148.9535  139.4766  152.3978 H   0  0  0  0  0  0  0  0  0  0  0  0
  144.5019  139.2015  155.7226 H   0  0  0  0  0  0  0  0  0  0  0  0
  146.1325  141.3708  155.7177 H   0  0  0  0  0  0  0  0  0  0  0  0
  148.5518  141.4693  152.9895 H   0  0  0  0  0  0  0  0  0  0  0  0
  147.8409  142.3577  154.3192 H   0  0  0  0  0  0  0  0  0  0  0  0
  149.1415  142.9138  155.7837 H   0  0  0  0  0  0  0  0  0  0  0  0
  150.3527  144.2495  156.9493 H   0  0  0  0  0  0  0  0  0  0  0  0
  153.0200  144.0062  157.4896 H   0  0  0  0  0  0  0  0  0  0  0  0
  151.4840  142.1755  159.2602 H   0  0  0  0  0  0  0  0  0  0  0  0
  153.2255  142.2927  159.0767 H   0  0  0  0  0  0  0  0  0  0  0  0
  152.0019  143.1170  161.3747 H   0  0  0  0  0  0  0  0  0  0  0  0
  153.3777  144.0035  160.7213 H   0  0  0  0  0  0  0  0  0  0  0  0
  150.4361  144.6467  160.3224 H   0  0  0  0  0  0  0  0  0  0  0  0
  151.6926  145.7401  160.9010 H   0  0  0  0  0  0  0  0  0  0  0  0
  152.6943  145.8766  158.7299 H   0  0  0  0  0  0  0  0  0  0  0  0
  150.9975  145.8061  158.2905 H   0  0  0  0  0  0  0  0  0  0  0  0
  148.1830  137.9749  152.1508 H   0  0  0  0  0  0  0  0  0  0  0  0
  1  2  1  0  0  0  0
  1 19  1  0  0  0  0
  1 35  1  0  0  0  0
  2  6  2  0  0  0  0
  2  3  1  0  0  0  0
  3  4  1  0  0  0  0
  4  5  2  0  0  0  0
  4 20  1  0  0  0  0
  5  6  1  0  0  0  0
  5 21  1  0  0  0  0
  6  7  1  0  0  0  0
  7  8  1  0  0  0  0
  7 22  1  0  0  0  0
  7 23  1  0  0  0  0
  8  9  2  0  0  0  0
  8 10  1  0  0  0  0
 10 11  1  0  0  0  0
 10 24  1  0  0  0  0
 11 12  2  0  0  0  0
 11 13  1  0  0  0  0
 13 14  1  0  0  0  0
 13 25  1  0  0  0  0
 14 18  1  0  0  0  0
 14 15  1  0  0  0  0
 14 26  1  0  0  0  0
 15 16  1  0  0  0  0
 15 27  1  0  0  0  0
 15 28  1  0  0  0  0
 16 17  1  0  0  0  0
 16 29  1  0  0  0  0
 16 30  1  0  0  0  0
 17 18  1  0  0  0  0
 17 31  1  0  0  0  0
 17 32  1  0  0  0  0
 18 33  1  0  0  0  0
 18 34  1  0  0  0  0
M  CHG  1   6   1
M  END
> <s_m_source_file>
AV-unprocessed.smi

> <i_m_source_file_index>
2949

> <i_lp_mmshare_version>
43012

> <i_f3d_flags>
0

> <s_epik_input>
W0hdL049YzFcc1tjSF1bY0hdbjFbQ0gyXUMoPU8pW05IXUMoPU8pW05IXVtDSF0yW0NIMl1bQ0gyXVtDSDJdW0NIMl0y

> <s_epik_cmdline>
J2VwaWtfcHl0aG9uJywgJy1waCcsICc3LjAnLCAnLXRuJywgJzgnLCAnLW1hJywgJzIwMCcsICctbWV0YWxfYmluZGluZycsICctaW1hZScsICc8aW5maWxlLm1hZT4nLCAnLW9tYWUnLCAnPG91dGZpbGUubWFlPic=

> <r_lp_tautomer_probability>
1

> <r_epik_Ionization_Penalty>
0.019454

> <r_epik_Ionization_Penalty_Charging>
0

> <r_epik_Ionization_Penalty_Neutral>
0.019454

> <r_epik_State_Penalty>
0.0306361

> <r_epik_Charging_Adjusted_Penalty>
0.0306361

> <i_epik_Tot_Q>
1

> <i_epik_Tot_abs_Q>
1

> <r_epik_Metal_State_Penalty>
0.0306361

> <b_epik_Metal_Only>
0

> <s_lp_Force_Field>
OPLS_2005

> <r_lp_Energy>
26.5716

> <b_lp_Chiralities_Consistent>
1

> <s_lp_Variant>
AV-unprocessed.smi:2949-1

> <Gold.Version>
5.8.1

> <Gold.Id.Protein>
6NUR|6NUR_protein|mol2

> <Gold.PLP.Fitness>
55.5228

> <Gold.PLP.PLP>
-39.8345

> <Gold.PLP.part.hbond>
-4.5032

> <Gold.PLP.part.metal>
0.0000

> <Gold.PLP.part.buried>
-5.3612

> <Gold.PLP.part.nonpolar>
-29.8488

> <Gold.PLP.part.repulsive>
0.3372

> <Gold.PLP.ligand.clash>
0.0000

> <Gold.PLP.ligand.torsion>
0.6165

> <Gold.PLP.Chemscore.Hbond>
5.6331

> <Gold.PLP.Chemscore.CHOScore>
0.0000

> <Gold.PLP.Chemscore.Metal>
0.0000

> <Gold.Chemscore.Hbonds>
donor molecule, donor type, donor heavy atom, donor atom, acceptor molecule, acceptor atom, score
      L1  H     1    19       P1  7957  0.70
      L1  H     1    35       P1  7948  2.00
      L1  H    10    24       P1  8028  0.94
      L1  H    13    25       P1  8028  0.90
      P1  H  7989  7998       L1     9  1.00

> <Gold.PLP.Chemscore.Internal.Correction>
0.0219

> <Gold.Rescore>
     Score         DG    S(hbond)    S(metal)    S(lipo)     H(rot)  DE(clash)    DE(int)     intcor
     18.90     -22.30       3.69        0.00      76.17       1.73       0.08       3.32       ----

> <Gold.Chemscore.Fitness>
18.9029

> <Gold.Chemscore.DG>
-22.2981

> <Gold.Chemscore.ZeroCoef>
-5.4800

> <Gold.Chemscore.Hbond>
3.6924

> <Gold.Chemscore.Metal>
0.0000

> <Gold.Chemscore.Lipo>
76.1705

> <Gold.Chemscore.Internal_Hbond>
0.0000

> <Gold.Chemscore.DEClash>
0.0766

> <Gold.Chemscore.DEInternal>
3.3186

> <Gold.Chemscore.Rot>
1.7291

> <Gold.Chemscore.Internal.Correction>
   9.000000E+99

> <Gold.Chemscore.Hbonds>
donor molecule, donor type, donor heavy atom, donor atom, acceptor molecule, acceptor atom, score
      L1  H     1    19       P1  7957  0.65
      L1  H     1    35       P1  7948  0.94
      L1  H    10    24       P1  8028  0.91
      L1  H    13    25       P1  8028  0.81
      P1  H  7989  7998       L1     9  0.24

> <Gold.Chemscore.Hbond.Weighted>
-12.3327

> <Gold.Chemscore.Metal.Weighted>
-0.0000

> <Gold.Chemscore.Lipo.Weighted>
-8.9119

> <Gold.Chemscore.Internal_Hbond.Weighted>
0.0000

> <Gold.Chemscore.DEClash.Weighted>
0.0766

> <Gold.Chemscore.DEInternal.Weighted>
3.3186

> <Gold.Chemscore.Rot.Weighted>
4.4265

> <Gold.Chemscore.Internal.Correction.Weighted>
   9.000000E+99

> <Gold.Protein.RotatedTorsions>
[ 6907 6896 6895 6894 ] final  -42.34 input  -60.11 | X-H torsion
[ 7974 7965 7964 7962 ] final -141.27 input  175.53 | X-H torsion
[ 8008 7997 7996 7995 ] final  166.15 input   59.86 | X-H torsion
[ 10167 10162 10161 10158 ] final   12.64 input  -65.29 | X-H torsion
[ 10718 10713 10712 10709 ] final   57.41 input   66.30 | X-H torsion
[ 10763 10752 10751 10750 ] final  147.88 input  -60.55 | X-H torsion
[ 11005 11000 10999 10996 ] final -172.67 input  -57.11 | X-H torsion

> <Gold.Protein.ActiveResidues>
 VAL166  LYS551  ARG553  GLY616  TRP617  ASP618  TYR619  PRO620  LYS621  CYS622 
 ASP623  PHE694  ASN695  SER759  ASP760  ASP761  ALA762  ILE779  LEU786  VAL792 
 PHE793  MET794  SER795  GLU796  ALA797  LYS798  CYS799  TRP800  GLU811  SER814 

> <Gold.Protein.RotatedAtoms>
  150.9563  134.8957  159.7702 H   0  0  0  0  0  0  0  0  0  0  0  0  # atno 6907 bound_to 6896
  152.5139  134.3735  159.9336 H   0  0  0  0  0  0  0  0  0  0  0  0  # atno 6908 bound_to 6896
  151.3749  133.3801  159.2738 H   0  0  0  0  0  0  0  0  0  0  0  0  # atno 6909 bound_to 6896
  144.8532  140.6100  143.5376 H   0  0  0  0  0  0  0  0  0  0  0  0  # atno 7974 bound_to 7965
  156.1742  140.1651  156.8393 H   0  0  0  0  0  0  0  0  0  0  0  0  # atno 8008 bound_to 7997
  154.5289  140.0761  156.8342 H   0  0  0  0  0  0  0  0  0  0  0  0  # atno 8009 bound_to 7997
  155.3449  140.3387  155.4241 H   0  0  0  0  0  0  0  0  0  0  0  0  # atno 8010 bound_to 7997
  140.6055  143.8517  150.7009 H   0  0  0  0  0  0  0  0  0  0  0  0  # atno 10167 bound_to 10162
  157.5512  130.8767  149.8966 H   0  0  0  0  0  0  0  0  0  0  0  0  # atno 10718 bound_to 10713
  154.0455  135.2886  155.3348 H   0  0  0  0  0  0  0  0  0  0  0  0  # atno 10763 bound_to 10752
  154.6902  135.5229  153.8385 H   0  0  0  0  0  0  0  0  0  0  0  0  # atno 10764 bound_to 10752
  153.0582  135.6603  154.0656 H   0  0  0  0  0  0  0  0  0  0  0  0  # atno 10765 bound_to 10752
  140.4943  134.5954  157.4966 H   0  0  0  0  0  0  0  0  0  0  0  0  # atno 11005 bound_to 11000
  145.4457  139.1530  143.3946 LP  0  0  0  0  0  0  0  0  0  0  0  0  # atno 17320 bound_to 7965
  146.2802  140.4581  142.8779 LP  0  0  0  0  0  0  0  0  0  0  0  0  # atno 17321 bound_to 7965
  140.2073  143.3911  152.1745 LP  0  0  0  0  0  0  0  0  0  0  0  0  # atno 17342 bound_to 10162
  139.5322  144.7171  151.5018 LP  0  0  0  0  0  0  0  0  0  0  0  0  # atno 17343 bound_to 10162
  156.0578  130.3705  150.1050 LP  0  0  0  0  0  0  0  0  0  0  0  0  # atno 17370 bound_to 10713
  156.9223  130.9687  151.3546 LP  0  0  0  0  0  0  0  0  0  0  0  0  # atno 17371 bound_to 10713
  139.9750  134.7230  155.9967 LP  0  0  0  0  0  0  0  0  0  0  0  0  # atno 17394 bound_to 11000
  141.1468  133.6554  156.3891 LP  0  0  0  0  0  0  0  0  0  0  0  0  # atno 17395 bound_to 11000

$$$$
