AV-unprocessed.smi:68|AV-procd|sdf|640|dock1
  -GOLD-   2262016533D 1   1.00000     0.00000
 Structure written by MMmdl.
 23 24  0  0  0  0  0  0  0  0  1 V2000
  150.5680  139.1122  154.6863 O   0  0  0  0  0  0  0  0  0  0  0  0
  150.7856  139.8960  155.6080 C   0  0  0  0  0  0  0  0  0  0  0  0
  151.4733  139.4680  156.7473 N   0  0  0  0  0  0  0  0  0  0  0  0
  151.7798  140.2598  157.8556 C   0  0  0  0  0  0  0  0  0  0  0  0
  152.4079  139.7785  158.7977 O   0  0  0  0  0  0  0  0  0  0  0  0
  151.3471  141.6044  157.8270 N   0  0  0  0  0  0  0  0  0  0  0  0
  151.6587  142.5063  158.9999 C   0  0  1  0  0  0  0  0  0  0  0  0
  152.4044  143.7626  158.5348 C   0  0  0  0  0  0  0  0  0  0  0  0
  151.7581  144.8361  159.3833 C   0  0  0  0  0  0  0  0  0  0  0  0
  150.3251  144.3286  159.4810 C   0  0  0  0  0  0  0  0  0  0  0  0
  150.4624  142.9159  159.5996 O   0  0  0  0  0  0  0  0  0  0  0  0
  150.6732  142.0771  156.7085 C   0  0  0  0  0  0  0  0  0  0  0  0
  150.3858  141.2998  155.6378 C   0  0  0  0  0  0  0  0  0  0  0  0
  149.7311  141.8289  154.5902 F   0  0  0  0  0  0  0  0  0  0  0  0
  151.7775  138.5056  156.7686 H   0  0  0  0  0  0  0  0  0  0  0  0
  152.2095  141.9189  159.7363 H   0  0  0  0  0  0  0  0  0  0  0  0
  153.4797  143.6651  158.6871 H   0  0  0  0  0  0  0  0  0  0  0  0
  152.2071  143.9458  157.4772 H   0  0  0  0  0  0  0  0  0  0  0  0
  152.2166  144.8616  160.3728 H   0  0  0  0  0  0  0  0  0  0  0  0
  151.8305  145.8314  158.9442 H   0  0  0  0  0  0  0  0  0  0  0  0
  149.7870  144.7489  160.3307 H   0  0  0  0  0  0  0  0  0  0  0  0
  149.7704  144.5709  158.5741 H   0  0  0  0  0  0  0  0  0  0  0  0
  150.3609  143.1093  156.6725 H   0  0  0  0  0  0  0  0  0  0  0  0
  1  2  2  0  0  0  0
  2 13  1  0  0  0  0
  2  3  1  0  0  0  0
  3 15  1  0  0  0  0
  3  4  1  0  0  0  0
  4  5  2  0  0  0  0
  4  6  1  0  0  0  0
  6  7  1  0  0  0  0
  6 12  1  0  0  0  0
  7 11  1  0  0  0  0
  7  8  1  0  0  0  0
  7 16  1  0  0  0  0
  8  9  1  0  0  0  0
  8 17  1  0  0  0  0
  8 18  1  0  0  0  0
  9 10  1  0  0  0  0
  9 19  1  0  0  0  0
  9 20  1  0  0  0  0
 10 11  1  0  0  0  0
 10 21  1  0  0  0  0
 10 22  1  0  0  0  0
 12 13  2  0  0  0  0
 12 23  1  0  0  0  0
 13 14  1  0  0  0  0
M  END
> <s_m_source_file>
AV-unprocessed.smi

> <i_m_source_file_index>
68

> <i_lp_mmshare_version>
43012

> <i_f3d_flags>
0

> <s_epik_input>
Tz1jMVtuSF1jKD1PKW4oW2NIXWMxRilbQ0BASF0yW0NIMl1bQ0gyXVtDSDJdTzI=

> <s_epik_cmdline>
J2VwaWtfcHl0aG9uJywgJy1waCcsICc3LjAnLCAnLXRuJywgJzgnLCAnLW1hJywgJzIwMCcsICctbWV0YWxfYmluZGluZycsICctaW1hZScsICc8aW5maWxlLm1hZT4nLCAnLW9tYWUnLCAnPG91dGZpbGUubWFlPic=

> <r_lp_tautomer_probability>
0.999537

> <r_epik_Ionization_Penalty>
0.0350763

> <r_epik_Ionization_Penalty_Charging>
0.0350763

> <r_epik_Ionization_Penalty_Neutral>
6.20402e-12

> <r_epik_State_Penalty>
0.0292209

> <r_epik_Charging_Adjusted_Penalty>
0.0642972

> <i_epik_Tot_Q>
0

> <i_epik_Tot_abs_Q>
0

> <r_epik_Metal_State_Penalty>
2.33597

> <b_epik_Metal_Only>
0

> <s_epik_Chemistry_Notes>
This compound contains an acetal/aminal-like group ( X-CH(R)-Y where X, Y are N, S, or O) that may be acid/base labile, releasing an aldehyde.

> <s_lp_Force_Field>
OPLS_2005

> <r_lp_Energy>
24.1423

> <b_lp_Chiralities_Consistent>
1

> <s_lp_Variant>
AV-unprocessed.smi:68-2

> <Gold.Version>
5.8.1

> <Gold.Id.Protein>
6NUR|6NUR_protein|mol2

> <Gold.PLP.Fitness>
36.4472

> <Gold.PLP.PLP>
-30.6556

> <Gold.PLP.part.hbond>
-1.3979

> <Gold.PLP.part.metal>
0.0000

> <Gold.PLP.part.buried>
-2.3903

> <Gold.PLP.part.nonpolar>
-25.5354

> <Gold.PLP.part.repulsive>
0.2662

> <Gold.PLP.ligand.clash>
0.0000

> <Gold.PLP.ligand.torsion>
0.0464

> <Gold.PLP.Chemscore.Hbond>
0.9600

> <Gold.PLP.Chemscore.CHOScore>
1.0000

> <Gold.PLP.Chemscore.Metal>
0.0000

> <Gold.Chemscore.Hbonds>
donor molecule, donor type, donor heavy atom, donor atom, acceptor molecule, acceptor atom, score
      L1  C    12    23       P1  8028  1.00

> <Gold.PLP.Chemscore.Internal.Correction>
0.0045

> <Gold.Rescore>
     Score         DG    S(hbond)    S(metal)    S(lipo)     H(rot)  DE(clash)    DE(int)     intcor
     11.16     -11.59       0.88        0.00      49.13       1.00       0.01       0.42       ----

> <Gold.Chemscore.Fitness>
11.1626

> <Gold.Chemscore.DG>
-11.5916

> <Gold.Chemscore.ZeroCoef>
-5.4800

> <Gold.Chemscore.Hbond>
0.8752

> <Gold.Chemscore.Metal>
0.0000

> <Gold.Chemscore.Lipo>
49.1332

> <Gold.Chemscore.Internal_Hbond>
0.0000

> <Gold.Chemscore.DEClash>
0.0074

> <Gold.Chemscore.DEInternal>
0.4216

> <Gold.Chemscore.Rot>
1.0000

> <Gold.Chemscore.Internal.Correction>
   9.000000E+99

> <Gold.Chemscore.Hbond.Weighted>
-2.9230

> <Gold.Chemscore.Metal.Weighted>
-0.0000

> <Gold.Chemscore.Lipo.Weighted>
-5.7486

> <Gold.Chemscore.Internal_Hbond.Weighted>
0.0000

> <Gold.Chemscore.DEClash.Weighted>
0.0074

> <Gold.Chemscore.DEInternal.Weighted>
0.4216

> <Gold.Chemscore.Rot.Weighted>
2.5600

> <Gold.Chemscore.Internal.Correction.Weighted>
   9.000000E+99

> <Gold.Protein.RotatedTorsions>
[ 6907 6896 6895 6894 ] final  -57.27 input  -60.11 | X-H torsion
[ 7974 7965 7964 7962 ] final   26.30 input  175.53 | X-H torsion
[ 8008 7997 7996 7995 ] final   27.21 input   59.86 | X-H torsion
[ 10167 10162 10161 10158 ] final -149.00 input  -65.29 | X-H torsion
[ 10718 10713 10712 10709 ] final  132.38 input   66.30 | X-H torsion
[ 10763 10752 10751 10750 ] final   21.96 input  -60.55 | X-H torsion
[ 11005 11000 10999 10996 ] final  -51.86 input  -57.11 | X-H torsion

> <Gold.Protein.ActiveResidues>
 VAL166  LYS551  ARG553  GLY616  TRP617  ASP618  TYR619  PRO620  LYS621  CYS622 
 ASP623  PHE694  ASN695  SER759  ASP760  ASP761  ALA762  ILE779  LEU786  VAL792 
 PHE793  MET794  SER795  GLU796  ALA797  LYS798  CYS799  TRP800  GLU811  SER814 

> <Gold.Protein.RotatedAtoms>
  150.8099  134.7248  159.6678 H   0  0  0  0  0  0  0  0  0  0  0  0  # atno 6907 bound_to 6896
  152.4219  134.5936  159.9990 H   0  0  0  0  0  0  0  0  0  0  0  0  # atno 6908 bound_to 6896
  151.6148  133.3307  159.3111 H   0  0  0  0  0  0  0  0  0  0  0  0  # atno 6909 bound_to 6896
  146.1844  139.7347  142.8877 H   0  0  0  0  0  0  0  0  0  0  0  0  # atno 7974 bound_to 7965
  155.0394  140.3167  155.4730 H   0  0  0  0  0  0  0  0  0  0  0  0  # atno 8008 bound_to 7997
  156.2858  140.2166  156.5460 H   0  0  0  0  0  0  0  0  0  0  0  0  # atno 8009 bound_to 7997
  154.7303  140.0482  157.0708 H   0  0  0  0  0  0  0  0  0  0  0  0  # atno 8010 bound_to 7997
  139.7481  143.8559  152.2580 H   0  0  0  0  0  0  0  0  0  0  0  0  # atno 10167 bound_to 10162
  157.4877  131.1089  150.9598 H   0  0  0  0  0  0  0  0  0  0  0  0  # atno 10718 bound_to 10713
  153.0954  135.6658  153.9774 H   0  0  0  0  0  0  0  0  0  0  0  0  # atno 10763 bound_to 10752
  153.9360  135.2999  155.3445 H   0  0  0  0  0  0  0  0  0  0  0  0  # atno 10764 bound_to 10752
  154.7372  135.5096  153.9135 H   0  0  0  0  0  0  0  0  0  0  0  0  # atno 10765 bound_to 10752
  141.0894  133.6636  156.3939 H   0  0  0  0  0  0  0  0  0  0  0  0  # atno 11005 bound_to 11000
  145.3980  141.0381  143.3086 LP  0  0  0  0  0  0  0  0  0  0  0  0  # atno 17320 bound_to 7965
  144.8372  139.5531  143.6917 LP  0  0  0  0  0  0  0  0  0  0  0  0  # atno 17321 bound_to 7965
  139.8529  144.7155  150.9192 LP  0  0  0  0  0  0  0  0  0  0  0  0  # atno 17342 bound_to 10162
  140.7794  143.3883  151.1354 LP  0  0  0  0  0  0  0  0  0  0  0  0  # atno 17343 bound_to 10162
  157.0310  130.5711  149.5343 LP  0  0  0  0  0  0  0  0  0  0  0  0  # atno 17370 bound_to 10713
  156.0156  130.5250  150.8123 LP  0  0  0  0  0  0  0  0  0  0  0  0  # atno 17371 bound_to 10713
  140.5288  134.6233  157.5343 LP  0  0  0  0  0  0  0  0  0  0  0  0  # atno 17394 bound_to 11000
  139.9717  134.7282  156.0029 LP  0  0  0  0  0  0  0  0  0  0  0  0  # atno 17395 bound_to 11000

$$$$
