AV-unprocessed.smi:33|AV-procd|sdf|201|dock5
  -GOLD-   2262015473D 1   1.00000     0.00000
 Structure written by MMmdl.
 67 72  0  0  0  0  0  0  0  0  1 V2000
  152.7834  140.0469  158.7073 O   0  0  0  0  0  0  0  0  0  0  0  0
  151.9833  140.9340  158.4030 C   0  0  0  0  0  0  0  0  0  0  0  0
  151.0665  140.8069  157.4240 O   0  0  0  0  0  0  0  0  0  0  0  0
  151.2132  139.7931  156.4433 C   0  0  0  0  0  0  0  0  0  0  0  0
  149.9404  139.7283  155.5906 C   0  0  2  0  0  0  0  0  0  0  0  0
  148.8543  139.2060  156.3390 O   0  0  0  0  0  0  0  0  0  0  0  0
  147.8783  138.7608  155.4504 C   0  0  2  0  0  0  0  0  0  0  0  0
  147.2292  137.5542  156.0435 N   0  0  0  0  0  0  0  0  0  0  0  0
  147.7250  136.7344  157.0329 C   0  0  0  0  0  0  0  0  0  0  0  0
  146.9513  135.7399  157.3754 N   0  0  0  0  0  0  0  0  0  0  0  0
  145.8394  135.8824  156.5552 C   0  0  0  0  0  0  0  0  0  0  0  0
  144.6294  135.1542  156.3946 C   0  0  0  0  0  0  0  0  0  0  0  0
  144.3352  134.0460  157.1148 N   0  0  0  0  0  0  0  0  0  0  0  0
  145.3797  133.0158  157.2150 C   0  0  0  0  0  0  0  0  0  0  0  0
  145.3809  132.2413  158.1738 O   0  0  0  0  0  0  0  0  0  0  0  0
  146.4694  132.9325  156.1836 C   0  0  0  0  0  0  0  0  0  0  0  0
  147.7919  132.6307  156.5762 C   0  0  0  0  0  0  0  0  0  0  0  0
  148.8143  132.5346  155.6124 C   0  0  0  0  0  0  0  0  0  0  0  0
  148.5176  132.7211  154.2488 C   0  0  0  0  0  0  0  0  0  0  0  0
  147.1959  132.9943  153.8477 C   0  0  0  0  0  0  0  0  0  0  0  0
  146.1730  133.0910  154.8109 C   0  0  0  0  0  0  0  0  0  0  0  0
  142.9977  133.9684  157.7209 C   0  0  0  0  0  0  0  0  0  0  0  0
  142.3892  135.0071  157.9857 O   0  0  0  0  0  0  0  0  0  0  0  0
  142.3970  132.6364  158.0718 C   0  0  0  0  0  0  0  0  0  0  0  0
  141.3598  132.5579  159.0271 C   0  0  0  0  0  0  0  0  0  0  0  0
  140.7873  131.3130  159.3526 C   0  0  0  0  0  0  0  0  0  0  0  0
  141.2337  130.1420  158.7106 C   0  0  0  0  0  0  0  0  0  0  0  0
  142.2472  130.2171  157.7365 C   0  0  0  0  0  0  0  0  0  0  0  0
  142.8215  131.4611  157.4117 C   0  0  0  0  0  0  0  0  0  0  0  0
  143.7369  135.5970  155.4710 N   0  0  0  0  0  0  0  0  0  0  0  0
  144.0144  136.6859  154.7482 C   0  0  0  0  0  0  0  0  0  0  0  0
  145.1005  137.4605  154.7896 N   0  0  0  0  0  0  0  0  0  0  0  0
  145.9997  137.0196  155.7169 C   0  0  0  0  0  0  0  0  0  0  0  0
  148.5740  138.4158  154.1215 C   0  0  1  0  0  0  0  0  0  0  0  0
  148.0777  139.1931  153.0505 O   0  0  0  0  0  0  0  0  0  0  0  0
  150.0289  138.7779  154.3946 C   0  0  2  0  0  0  0  0  0  0  0  0
  150.7082  137.6746  154.7120 F   0  0  0  0  0  0  0  0  0  0  0  0
  151.9286  142.2611  159.0814 C   0  0  0  0  0  0  0  0  0  0  0  0
  151.6782  143.4222  158.3131 C   0  0  0  0  0  0  0  0  0  0  0  0
  151.6248  144.6898  158.9250 C   0  0  0  0  0  0  0  0  0  0  0  0
  151.8216  144.8120  160.3128 C   0  0  0  0  0  0  0  0  0  0  0  0
  152.0722  143.6649  161.0882 C   0  0  0  0  0  0  0  0  0  0  0  0
  152.1256  142.3964  160.4782 C   0  0  0  0  0  0  0  0  0  0  0  0
  152.0702  140.0307  155.8116 H   0  0  0  0  0  0  0  0  0  0  0  0
  151.4076  138.8292  156.9163 H   0  0  0  0  0  0  0  0  0  0  0  0
  149.6726  140.7248  155.2345 H   0  0  0  0  0  0  0  0  0  0  0  0
  147.0787  139.4969  155.3522 H   0  0  0  0  0  0  0  0  0  0  0  0
  148.6857  136.8996  157.4988 H   0  0  0  0  0  0  0  0  0  0  0  0
  148.0311  132.4848  157.6198 H   0  0  0  0  0  0  0  0  0  0  0  0
  149.8263  132.3161  155.9196 H   0  0  0  0  0  0  0  0  0  0  0  0
  149.3021  132.6472  153.5101 H   0  0  0  0  0  0  0  0  0  0  0  0
  146.9662  133.1277  152.8009 H   0  0  0  0  0  0  0  0  0  0  0  0
  145.1611  133.2954  154.4911 H   0  0  0  0  0  0  0  0  0  0  0  0
  141.0096  133.4495  159.5267 H   0  0  0  0  0  0  0  0  0  0  0  0
  140.0051  131.2568  160.0952 H   0  0  0  0  0  0  0  0  0  0  0  0
  140.7944  129.1876  158.9606 H   0  0  0  0  0  0  0  0  0  0  0  0
  142.5843  129.3205  157.2377 H   0  0  0  0  0  0  0  0  0  0  0  0
  143.5961  131.5071  156.6597 H   0  0  0  0  0  0  0  0  0  0  0  0
  143.2588  136.9780  154.0339 H   0  0  0  0  0  0  0  0  0  0  0  0
  148.4600  137.3585  153.8759 H   0  0  0  0  0  0  0  0  0  0  0  0
  148.7104  139.1775  152.3489 H   0  0  0  0  0  0  0  0  0  0  0  0
  150.5398  139.2207  153.5386 H   0  0  0  0  0  0  0  0  0  0  0  0
  151.5252  143.3537  157.2456 H   0  0  0  0  0  0  0  0  0  0  0  0
  151.4334  145.5694  158.3278 H   0  0  0  0  0  0  0  0  0  0  0  0
  151.7805  145.7839  160.7817 H   0  0  0  0  0  0  0  0  0  0  0  0
  152.2244  143.7572  162.1535 H   0  0  0  0  0  0  0  0  0  0  0  0
  152.3219  141.5369  161.1024 H   0  0  0  0  0  0  0  0  0  0  0  0
  1  2  2  0  0  0  0
  2  3  1  0  0  0  0
  2 38  1  0  0  0  0
  3  4  1  0  0  0  0
  4  5  1  0  0  0  0
  4 44  1  0  0  0  0
  4 45  1  0  0  0  0
  5 36  1  0  0  0  0
  5  6  1  0  0  0  0
  5 46  1  0  0  0  0
  6  7  1  0  0  0  0
  7  8  1  0  0  0  0
  7 34  1  0  0  0  0
  7 47  1  0  0  0  0
  8 33  1  0  0  0  0
  8  9  1  0  0  0  0
  9 10  2  0  0  0  0
  9 48  1  0  0  0  0
 10 11  1  0  0  0  0
 11 33  2  0  0  0  0
 11 12  1  0  0  0  0
 12 13  1  0  0  0  0
 12 30  2  0  0  0  0
 13 14  1  0  0  0  0
 13 22  1  0  0  0  0
 14 15  2  0  0  0  0
 14 16  1  0  0  0  0
 16 21  1  0  0  0  0
 16 17  2  0  0  0  0
 17 18  1  0  0  0  0
 17 49  1  0  0  0  0
 18 19  2  0  0  0  0
 18 50  1  0  0  0  0
 19 20  1  0  0  0  0
 19 51  1  0  0  0  0
 20 21  2  0  0  0  0
 20 52  1  0  0  0  0
 21 53  1  0  0  0  0
 22 23  2  0  0  0  0
 22 24  1  0  0  0  0
 24 29  1  0  0  0  0
 24 25  2  0  0  0  0
 25 26  1  0  0  0  0
 25 54  1  0  0  0  0
 26 27  2  0  0  0  0
 26 55  1  0  0  0  0
 27 28  1  0  0  0  0
 27 56  1  0  0  0  0
 28 29  2  0  0  0  0
 28 57  1  0  0  0  0
 29 58  1  0  0  0  0
 30 31  1  0  0  0  0
 31 32  2  0  0  0  0
 31 59  1  0  0  0  0
 32 33  1  0  0  0  0
 34 35  1  0  0  0  0
 34 36  1  0  0  0  0
 34 60  1  0  0  0  0
 35 61  1  0  0  0  0
 36 37  1  0  0  0  0
 36 62  1  0  0  0  0
 38 43  1  0  0  0  0
 38 39  2  0  0  0  0
 39 40  1  0  0  0  0
 39 63  1  0  0  0  0
 40 41  2  0  0  0  0
 40 64  1  0  0  0  0
 41 42  1  0  0  0  0
 41 65  1  0  0  0  0
 42 43  2  0  0  0  0
 42 66  1  0  0  0  0
 43 67  1  0  0  0  0
M  END
> <s_m_source_file>
AV-unprocessed.smi

> <i_m_source_file_index>
33

> <i_lp_mmshare_version>
43012

> <i_f3d_flags>
0

> <s_epik_input>
W2NIXTFbY0hdW2NIXVtjSF1bY0hdYzFDKD1PKU9bQ0gyXVtDQEBIXTJPW0NASF0oW0NAQEhdKFtPSF0pW0NAQEhdMkYpbihbY0hdbjMpYyhjMzQpbltjSF1uYzROKEMoPU8pYzVbY0hdW2NIXVtjSF1bY0hdW2NIXTUpQyg9TyljNltjSF1bY0hdW2NIXVtjSF1bY0hdNg==

> <s_epik_cmdline>
J2VwaWtfcHl0aG9uJywgJy1waCcsICc3LjAnLCAnLXRuJywgJzgnLCAnLW1hJywgJzIwMCcsICctbWV0YWxfYmluZGluZycsICctaW1hZScsICc8aW5maWxlLm1hZT4nLCAnLW9tYWUnLCAnPG91dGZpbGUubWFlPic=

> <r_lp_tautomer_probability>
1

> <r_epik_Ionization_Penalty>
0.00067664

> <r_epik_Ionization_Penalty_Charging>
0

> <r_epik_Ionization_Penalty_Neutral>
0.00067664

> <r_epik_State_Penalty>
0.000428095

> <r_epik_Charging_Adjusted_Penalty>
0.000428095

> <i_epik_Tot_Q>
0

> <i_epik_Tot_abs_Q>
0

> <r_epik_Metal_State_Penalty>
-0

> <b_epik_Metal_Only>
0

> <s_epik_Chemistry_Notes>
This compound has an ester and may undergo hydrolysis at high or low pH. This compound contains an acetal/aminal-like group ( X-CH(R)-Y where X, Y are N, S, or O) that may be acid/base labile, releasing an aldehyde.

> <s_lp_Force_Field>
OPLS_2005

> <r_lp_Energy>
66.4626

> <b_lp_Chiralities_Consistent>
1

> <s_lp_Variant>
AV-unprocessed.smi:33-3

> <Gold.Version>
5.8.1

> <Gold.Id.Protein>
6NUR|6NUR_protein|mol2

> <Gold.PLP.Fitness>
59.5333

> <Gold.PLP.PLP>
-56.1597

> <Gold.PLP.part.hbond>
-3.2265

> <Gold.PLP.part.metal>
0.0000

> <Gold.PLP.part.buried>
-5.0642

> <Gold.PLP.part.nonpolar>
-47.2378

> <Gold.PLP.part.repulsive>
0.1226

> <Gold.PLP.ligand.clash>
0.0000

> <Gold.PLP.ligand.torsion>
3.5898

> <Gold.PLP.Chemscore.Hbond>
1.9760

> <Gold.PLP.Chemscore.CHOScore>
0.0000

> <Gold.PLP.Chemscore.Metal>
0.0000

> <Gold.Chemscore.Hbonds>
donor molecule, donor type, donor heavy atom, donor atom, acceptor molecule, acceptor atom, score
      L1  H    35    61       P1  7957  0.99

> <Gold.PLP.Chemscore.Internal.Correction>
4.6253

> <Gold.Rescore>
     Score         DG    S(hbond)    S(metal)    S(lipo)     H(rot)  DE(clash)    DE(int)     intcor
     14.20     -21.70       1.88        0.00     140.30       2.52       0.09       7.41       ----

> <Gold.Chemscore.Fitness>
14.2006

> <Gold.Chemscore.DG>
-21.6965

> <Gold.Chemscore.ZeroCoef>
-5.4800

> <Gold.Chemscore.Hbond>
1.8757

> <Gold.Chemscore.Metal>
0.0000

> <Gold.Chemscore.Lipo>
140.2977

> <Gold.Chemscore.Internal_Hbond>
0.0000

> <Gold.Chemscore.DEClash>
0.0884

> <Gold.Chemscore.DEInternal>
7.4075

> <Gold.Chemscore.Rot>
2.5247

> <Gold.Chemscore.Internal.Correction>
   9.000000E+99

> <Gold.Chemscore.Hbonds>
donor molecule, donor type, donor heavy atom, donor atom, acceptor molecule, acceptor atom, score
      L1  H    35    61       P1  7957  0.93
      P1  H  7997  8008       L1     1  0.02

> <Gold.Chemscore.Hbond.Weighted>
-6.2649

> <Gold.Chemscore.Metal.Weighted>
-0.0000

> <Gold.Chemscore.Lipo.Weighted>
-16.4148

> <Gold.Chemscore.Internal_Hbond.Weighted>
0.0000

> <Gold.Chemscore.DEClash.Weighted>
0.0884

> <Gold.Chemscore.DEInternal.Weighted>
7.4075

> <Gold.Chemscore.Rot.Weighted>
6.4633

> <Gold.Chemscore.Internal.Correction.Weighted>
   9.000000E+99

> <Gold.Protein.RotatedTorsions>
[ 6907 6896 6895 6894 ] final    5.06 input  -60.11 | X-H torsion
[ 7974 7965 7964 7962 ] final  -34.77 input  175.53 | X-H torsion
[ 8008 7997 7996 7995 ] final  -85.10 input   59.86 | X-H torsion
[ 10167 10162 10161 10158 ] final  -52.30 input  -65.29 | X-H torsion
[ 10718 10713 10712 10709 ] final -127.07 input   66.30 | X-H torsion
[ 10763 10752 10751 10750 ] final -117.36 input  -60.55 | X-H torsion
[ 11005 11000 10999 10996 ] final   26.18 input  -57.11 | X-H torsion

> <Gold.Protein.ActiveResidues>
 VAL166  LYS551  ARG553  GLY616  TRP617  ASP618  TYR619  PRO620  LYS621  CYS622 
 ASP623  PHE694  ASN695  SER759  ASP760  ASP761  ALA762  ILE779  LEU786  VAL792 
 PHE793  MET794  SER795  GLU796  ALA797  LYS798  CYS799  TRP800  GLU811  SER814 

> <Gold.Protein.RotatedAtoms>
  151.6513  135.1001  160.0160 H   0  0  0  0  0  0  0  0  0  0  0  0  # atno 6907 bound_to 6896
  152.3999  133.6798  159.6316 H   0  0  0  0  0  0  0  0  0  0  0  0  # atno 6908 bound_to 6896
  150.7900  133.8726  159.3304 H   0  0  0  0  0  0  0  0  0  0  0  0  # atno 6909 bound_to 6896
  146.0802  140.6079  142.8912 H   0  0  0  0  0  0  0  0  0  0  0  0  # atno 7974 bound_to 7965
  154.6371  140.0596  156.9801 H   0  0  0  0  0  0  0  0  0  0  0  0  # atno 8008 bound_to 7997
  155.1575  140.3279  155.4400 H   0  0  0  0  0  0  0  0  0  0  0  0  # atno 8009 bound_to 7997
  156.2512  140.1936  156.6684 H   0  0  0  0  0  0  0  0  0  0  0  0  # atno 8010 bound_to 7997
  140.6544  143.2589  151.4627 H   0  0  0  0  0  0  0  0  0  0  0  0  # atno 10167 bound_to 10162
  156.1823  130.6740  151.0320 H   0  0  0  0  0  0  0  0  0  0  0  0  # atno 10718 bound_to 10713
  154.8552  135.4312  154.1967 H   0  0  0  0  0  0  0  0  0  0  0  0  # atno 10763 bound_to 10752
  153.3023  135.6970  153.7197 H   0  0  0  0  0  0  0  0  0  0  0  0  # atno 10764 bound_to 10752
  153.6322  135.3483  155.3019 H   0  0  0  0  0  0  0  0  0  0  0  0  # atno 10765 bound_to 10752
  140.3398  134.2346  155.7691 H   0  0  0  0  0  0  0  0  0  0  0  0  # atno 11005 bound_to 11000
  144.7288  140.4608  143.6953 LP  0  0  0  0  0  0  0  0  0  0  0  0  # atno 17320 bound_to 7965
  145.6232  139.1527  143.3011 LP  0  0  0  0  0  0  0  0  0  0  0  0  # atno 17321 bound_to 7965
  139.5765  144.1808  152.1910 LP  0  0  0  0  0  0  0  0  0  0  0  0  # atno 17342 bound_to 10162
  140.1120  144.5449  150.6919 LP  0  0  0  0  0  0  0  0  0  0  0  0  # atno 17343 bound_to 10162
  157.6876  131.0820  150.7199 LP  0  0  0  0  0  0  0  0  0  0  0  0  # atno 17370 bound_to 10713
  156.7256  130.4694  149.5512 LP  0  0  0  0  0  0  0  0  0  0  0  0  # atno 17371 bound_to 10713
  141.2041  133.7894  157.0302 LP  0  0  0  0  0  0  0  0  0  0  0  0  # atno 17394 bound_to 11000
  140.0791  134.9659  157.1594 LP  0  0  0  0  0  0  0  0  0  0  0  0  # atno 17395 bound_to 11000

$$$$
