AV-unprocessed.smi:287|AV-procd|sdf|2179|dock1
  -GOLD-   2262021543D 1   1.00000     0.00000
 Structure written by MMmdl.
 55 58  0  0  0  0  0  0  0  0  1 V2000
  151.9989  141.5350  159.0306 C   0  0  0  0  0  0  0  0  0  0  0  0
  151.5197  140.9618  157.7412 C   0  0  0  0  0  0  0  0  0  0  0  0
  150.3101  140.9368  157.1107 C   0  0  0  0  0  0  0  0  0  0  0  0
  150.4814  140.2227  155.8872 C   0  0  0  0  0  0  0  0  0  0  0  0
  149.4028  139.9496  154.8478 C   0  0  1  0  0  0  0  0  0  0  0  0
  148.7101  141.2670  154.4632 C   0  0  0  0  0  0  0  0  0  0  0  0
  149.9254  139.4304  153.6402 O   0  0  0  0  0  0  0  0  0  0  0  0
  148.3573  138.9200  155.3331 C   0  0  0  0  0  0  0  0  0  0  0  0
  147.5386  138.3885  154.2480 N   0  0  0  0  0  0  0  0  0  0  0  0
  147.2040  137.0816  154.2275 C   0  0  0  0  0  0  0  0  0  0  0  0
  147.6311  136.2332  155.1995 N   0  0  0  0  0  0  0  0  0  0  0  0
  147.2927  134.9406  155.1535 C   0  0  0  0  0  0  0  0  0  0  0  0
  146.5523  134.3029  154.2435 N   0  0  0  0  0  0  0  0  0  0  0  0
  146.1207  135.1545  153.2685 C   0  0  0  0  0  0  0  0  0  0  0  0
  146.3990  136.5463  153.1895 C   0  0  0  0  0  0  0  0  0  0  0  0
  145.7914  137.0835  152.0621 N   0  0  0  0  0  0  0  0  0  0  0  0
  145.1925  136.0628  151.5085 C   0  0  0  0  0  0  0  0  0  0  0  0
  145.3508  134.8598  152.1654 N   0  0  0  0  0  0  0  0  0  0  0  0
  144.8254  133.5010  151.8120 C   0  0  1  0  0  0  0  0  0  0  0  0
  144.0226  133.6214  150.6756 O   0  0  0  0  0  0  0  0  0  0  0  0
  144.7377  133.1736  149.5290 C   0  0  2  0  0  0  0  0  0  0  0  0
  143.7513  132.7996  148.4125 C   0  0  0  0  0  0  0  0  0  0  0  0
  142.6505  132.1043  148.9574 O   0  0  0  0  0  0  0  0  0  0  0  0
  145.5039  131.9821  150.1027 C   0  0  1  0  0  0  0  0  0  0  0  0
  146.5729  131.5640  149.2741 O   0  0  0  0  0  0  0  0  0  0  0  0
  145.9554  132.5000  151.4666 C   0  0  1  0  0  0  0  0  0  0  0  0
  147.2500  133.0835  151.4196 O   0  0  0  0  0  0  0  0  0  0  0  0
  151.8116  139.8781  155.8663 C   0  0  0  0  0  0  0  0  0  0  0  0
  152.6781  139.1484  154.8932 C   0  0  0  0  0  0  0  0  0  0  0  0
  152.4467  140.3175  156.9886 O   0  0  0  0  0  0  0  0  0  0  0  0
  144.2212  133.2054  152.6707 H   0  0  0  0  0  0  0  0  0  0  0  0
  145.4407  133.9399  149.1971 H   0  0  0  0  0  0  0  0  0  0  0  0
  144.8194  131.1446  150.2472 H   0  0  0  0  0  0  0  0  0  0  0  0
  145.9681  131.6984  152.2058 H   0  0  0  0  0  0  0  0  0  0  0  0
  151.1653  141.9173  159.6202 H   0  0  0  0  0  0  0  0  0  0  0  0
  152.6929  142.3567  158.8537 H   0  0  0  0  0  0  0  0  0  0  0  0
  152.5125  140.7783  159.6237 H   0  0  0  0  0  0  0  0  0  0  0  0
  149.3994  141.3789  157.4871 H   0  0  0  0  0  0  0  0  0  0  0  0
  148.2409  141.7338  155.3302 H   0  0  0  0  0  0  0  0  0  0  0  0
  147.9315  141.1077  153.7162 H   0  0  0  0  0  0  0  0  0  0  0  0
  149.4219  141.9835  154.0510 H   0  0  0  0  0  0  0  0  0  0  0  0
  149.3875  139.7354  152.9260 H   0  0  0  0  0  0  0  0  0  0  0  0
  148.8814  138.0780  155.7876 H   0  0  0  0  0  0  0  0  0  0  0  0
  147.7219  139.3488  156.1098 H   0  0  0  0  0  0  0  0  0  0  0  0
  147.2524  139.0500  153.5402 H   0  0  0  0  0  0  0  0  0  0  0  0
  147.6712  134.3297  155.9595 H   0  0  0  0  0  0  0  0  0  0  0  0
  144.6203  136.1671  150.5984 H   0  0  0  0  0  0  0  0  0  0  0  0
  143.3647  133.7003  147.9350 H   0  0  0  0  0  0  0  0  0  0  0  0
  144.2338  132.2030  147.6378 H   0  0  0  0  0  0  0  0  0  0  0  0
  141.9445  132.7178  149.0928 H   0  0  0  0  0  0  0  0  0  0  0  0
  147.3304  131.4088  149.8175 H   0  0  0  0  0  0  0  0  0  0  0  0
  147.8416  132.4650  151.0184 H   0  0  0  0  0  0  0  0  0  0  0  0
  152.5559  139.5515  153.8877 H   0  0  0  0  0  0  0  0  0  0  0  0
  152.4214  138.0892  154.8676 H   0  0  0  0  0  0  0  0  0  0  0  0
  153.7317  139.2331  155.1610 H   0  0  0  0  0  0  0  0  0  0  0  0
  1  2  1  0  0  0  0
  1 35  1  0  0  0  0
  1 36  1  0  0  0  0
  1 37  1  0  0  0  0
  2 30  1  0  0  0  0
  2  3  2  0  0  0  0
  3  4  1  0  0  0  0
  3 38  1  0  0  0  0
  4  5  1  0  0  0  0
  4 28  2  0  0  0  0
  5  6  1  0  0  0  0
  5  7  1  0  0  0  0
  5  8  1  0  0  0  0
  6 39  1  0  0  0  0
  6 40  1  0  0  0  0
  6 41  1  0  0  0  0
  7 42  1  0  0  0  0
  8  9  1  0  0  0  0
  8 43  1  0  0  0  0
  8 44  1  0  0  0  0
  9 10  1  0  0  0  0
  9 45  1  0  0  0  0
 10 15  1  0  0  0  0
 10 11  2  0  0  0  0
 11 12  1  0  0  0  0
 12 13  2  0  0  0  0
 12 46  1  0  0  0  0
 13 14  1  0  0  0  0
 14 18  1  0  0  0  0
 14 15  2  0  0  0  0
 15 16  1  0  0  0  0
 16 17  2  0  0  0  0
 17 18  1  0  0  0  0
 17 47  1  0  0  0  0
 18 19  1  0  0  0  0
 19 31  1  0  0  0  0
 19 26  1  0  0  0  0
 19 20  1  0  0  0  0
 20 21  1  0  0  0  0
 21 32  1  0  0  0  0
 21 22  1  0  0  0  0
 21 24  1  0  0  0  0
 22 23  1  0  0  0  0
 22 48  1  0  0  0  0
 22 49  1  0  0  0  0
 23 50  1  0  0  0  0
 24 33  1  0  0  0  0
 24 25  1  0  0  0  0
 24 26  1  0  0  0  0
 25 51  1  0  0  0  0
 26 34  1  0  0  0  0
 26 27  1  0  0  0  0
 27 52  1  0  0  0  0
 28 29  1  0  0  0  0
 28 30  1  0  0  0  0
 29 53  1  0  0  0  0
 29 54  1  0  0  0  0
 29 55  1  0  0  0  0
M  END
> <s_m_source_file>
AV-unprocessed.smi

> <i_m_source_file_index>
287

> <i_lp_mmshare_version>
43012

> <i_f3d_flags>
0

> <s_epik_input>
W0NIM11jMVtjSF1jKGMobzEpW0NIM10pW0NAQF0oW0NIM10pKFtPSF0pW0NIMl1bTkhdYyhuW2NIXW4yKWMoYzIzKW5bY0hdbjNbQ0BASF00T1tDQEhdKFtDSDJdW09IXSlbQ0BASF0oW09IXSlbQ0BIXTRbT0hd

> <s_epik_cmdline>
J2VwaWtfcHl0aG9uJywgJy1waCcsICc3LjAnLCAnLXRuJywgJzgnLCAnLW1hJywgJzIwMCcsICctbWV0YWxfYmluZGluZycsICctaW1hZScsICc8aW5maWxlLm1hZT4nLCAnLW9tYWUnLCAnPG91dGZpbGUubWFlPic=

> <r_lp_tautomer_probability>
1

> <r_epik_Ionization_Penalty>
0.000992612

> <r_epik_Ionization_Penalty_Charging>
0

> <r_epik_Ionization_Penalty_Neutral>
0.000992612

> <r_epik_State_Penalty>
-0

> <r_epik_Charging_Adjusted_Penalty>
0

> <i_epik_Tot_Q>
0

> <i_epik_Tot_abs_Q>
0

> <r_epik_Metal_State_Penalty>
-0

> <b_epik_Metal_Only>
0

> <s_epik_Chemistry_Notes>
This compound contains an acetal/aminal-like group ( X-CH(R)-Y where X, Y are N, S, or O) that may be acid/base labile, releasing an aldehyde.

> <s_lp_Force_Field>
OPLS_2005

> <r_lp_Energy>
45.8532

> <b_lp_Chiralities_Consistent>
1

> <s_lp_Variant>
AV-unprocessed.smi:287-3

> <Gold.Version>
5.8.1

> <Gold.Id.Protein>
6NUR|6NUR_protein|mol2

> <Gold.PLP.Fitness>
64.3651

> <Gold.PLP.PLP>
-45.8607

> <Gold.PLP.part.hbond>
-7.8693

> <Gold.PLP.part.metal>
0.0000

> <Gold.PLP.part.buried>
-0.2495

> <Gold.PLP.part.nonpolar>
-37.2580

> <Gold.PLP.part.repulsive>
0.5735

> <Gold.PLP.ligand.clash>
0.0948

> <Gold.PLP.ligand.torsion>
0.7211

> <Gold.PLP.Chemscore.Hbond>
6.0816

> <Gold.PLP.Chemscore.CHOScore>
0.5150

> <Gold.PLP.Chemscore.Metal>
0.0000

> <Gold.Chemscore.Hbonds>
donor molecule, donor type, donor heavy atom, donor atom, acceptor molecule, acceptor atom, score
      L1  H     7    42       P1  7957  0.72
      L1  H    23    50       P1 10186  1.00
      L1  H    25    51       P1 10747  1.00
      L1  H    27    52       P1 10747  0.83
      P1  H  7989  7998       L1     7  0.36
      P1  H  7997  8008       L1    30  0.96
      P1  H 10785 10796       L1    23  0.98
      L1  C    17    47       P1 10171  0.58

> <Gold.PLP.Chemscore.Internal.Correction>
0.2514

> <Gold.Rescore>
     Score         DG    S(hbond)    S(metal)    S(lipo)     H(rot)  DE(clash)    DE(int)     intcor
     13.82     -19.29       4.60        0.00     101.87       5.27       2.67       2.80       ----

> <Gold.Chemscore.Fitness>
13.8172

> <Gold.Chemscore.DG>
-19.2866

> <Gold.Chemscore.ZeroCoef>
-5.4800

> <Gold.Chemscore.Hbond>
4.6022

> <Gold.Chemscore.Metal>
0.0000

> <Gold.Chemscore.Lipo>
101.8739

> <Gold.Chemscore.Internal_Hbond>
0.0000

> <Gold.Chemscore.DEClash>
2.6732

> <Gold.Chemscore.DEInternal>
2.7962

> <Gold.Chemscore.Rot>
5.2672

> <Gold.Chemscore.Internal.Correction>
   9.000000E+99

> <Gold.Chemscore.Hbonds>
donor molecule, donor type, donor heavy atom, donor atom, acceptor molecule, acceptor atom, score
      L1  H     7    42       P1  7957  0.72
      L1  H    23    50       P1 10186  0.98
      L1  H    25    51       P1 10747  0.99
      L1  H    27    52       P1 10747  0.82
      P1  H  7989  7998       L1     7  0.01
      P1  H  7997  8008       L1    30  0.54
      P1  H 10785 10796       L1    23  0.36

> <Gold.Chemscore.Hbond.Weighted>
-15.3713

> <Gold.Chemscore.Metal.Weighted>
-0.0000

> <Gold.Chemscore.Lipo.Weighted>
-11.9192

> <Gold.Chemscore.Internal_Hbond.Weighted>
0.0000

> <Gold.Chemscore.DEClash.Weighted>
2.6732

> <Gold.Chemscore.DEInternal.Weighted>
2.7962

> <Gold.Chemscore.Rot.Weighted>
13.4839

> <Gold.Chemscore.Internal.Correction.Weighted>
   9.000000E+99

> <Gold.Protein.RotatedTorsions>
[ 6907 6896 6895 6894 ] final  126.10 input  -60.11 | X-H torsion
[ 7974 7965 7964 7962 ] final   79.70 input  175.53 | X-H torsion
[ 8008 7997 7996 7995 ] final  -63.88 input   59.86 | X-H torsion
[ 10167 10162 10161 10158 ] final  -37.66 input  -65.29 | X-H torsion
[ 10718 10713 10712 10709 ] final  129.44 input   66.30 | X-H torsion
[ 10763 10752 10751 10750 ] final  161.82 input  -60.55 | X-H torsion
[ 11005 11000 10999 10996 ] final -109.62 input  -57.11 | X-H torsion

> <Gold.Protein.ActiveResidues>
 VAL166  LYS551  ARG553  GLY616  TRP617  ASP618  TYR619  PRO620  LYS621  CYS622 
 ASP623  PHE694  ASN695  SER759  ASP760  ASP761  ALA762  ILE779  LEU786  VAL792 
 PHE793  MET794  SER795  GLU796  ALA797  LYS798  CYS799  TRP800  GLU811  SER814 

> <Gold.Protein.RotatedAtoms>
  152.3933  133.6710  159.6255 H   0  0  0  0  0  0  0  0  0  0  0  0  # atno 6907 bound_to 6896
  150.7837  133.8917  159.3324 H   0  0  0  0  0  0  0  0  0  0  0  0  # atno 6908 bound_to 6896
  151.6699  135.0979  160.0247 H   0  0  0  0  0  0  0  0  0  0  0  0  # atno 6909 bound_to 6896
  145.6608  139.2471  143.1923 H   0  0  0  0  0  0  0  0  0  0  0  0  # atno 7974 bound_to 7965
  154.4579  140.0965  156.6811 H   0  0  0  0  0  0  0  0  0  0  0  0  # atno 8008 bound_to 7997
  155.5081  140.3475  155.4365 H   0  0  0  0  0  0  0  0  0  0  0  0  # atno 8009 bound_to 7997
  156.0814  140.1374  156.9696 H   0  0  0  0  0  0  0  0  0  0  0  0  # atno 8010 bound_to 7997
  140.7112  143.3327  151.2532 H   0  0  0  0  0  0  0  0  0  0  0  0  # atno 10167 bound_to 10162
  157.5154  131.1097  150.9232 H   0  0  0  0  0  0  0  0  0  0  0  0  # atno 10718 bound_to 10713
  154.2689  135.2766  155.2746 H   0  0  0  0  0  0  0  0  0  0  0  0  # atno 10763 bound_to 10752
  154.5319  135.5727  153.6769 H   0  0  0  0  0  0  0  0  0  0  0  0  # atno 10764 bound_to 10752
  152.9948  135.6230  154.2843 H   0  0  0  0  0  0  0  0  0  0  0  0  # atno 10765 bound_to 10752
  141.0837  133.9175  157.2232 H   0  0  0  0  0  0  0  0  0  0  0  0  # atno 11005 bound_to 11000
  146.1126  140.7409  142.9496 LP  0  0  0  0  0  0  0  0  0  0  0  0  # atno 17320 bound_to 7965
  144.7089  140.3964  143.7096 LP  0  0  0  0  0  0  0  0  0  0  0  0  # atno 17321 bound_to 7965
  139.6813  143.9849  152.2810 LP  0  0  0  0  0  0  0  0  0  0  0  0  # atno 17342 bound_to 10162
  139.9480  144.6639  150.8200 LP  0  0  0  0  0  0  0  0  0  0  0  0  # atno 17343 bound_to 10162
  156.9859  130.5545  149.5299 LP  0  0  0  0  0  0  0  0  0  0  0  0  # atno 17370 bound_to 10713
  156.0317  130.5407  150.8550 LP  0  0  0  0  0  0  0  0  0  0  0  0  # atno 17371 bound_to 10713
  139.9653  135.0143  156.9371 LP  0  0  0  0  0  0  0  0  0  0  0  0  # atno 17394 bound_to 11000
  140.5411  134.0719  155.7342 LP  0  0  0  0  0  0  0  0  0  0  0  0  # atno 17395 bound_to 11000

$$$$
