AV-unprocessed.smi:3330|AV-procd|sdf|12811|dock5
  -GOLD-   2272019183D 1   1.00000     0.00000
 Structure written by MMmdl.
 38 39  0  0  0  0  0  0  0  0  3 V2000
  151.7347  144.6430  156.9620 C   0  0  0  0  0  0  0  0  0  0  0  0
  151.9278  143.6771  158.1456 C   0  0  2  0  0  0  0  0  0  0  0  0
  150.6287  143.0368  158.4517 N   0  3  0  0  0  0  0  0  0  0  0  0
  150.3790  141.7656  157.7440 C   0  0  0  0  0  0  0  0  0  0  0  0
  150.7032  141.8999  156.2496 C   0  0  0  0  0  0  0  0  0  0  0  0
  150.7034  140.5913  155.5908 N   0  0  0  0  0  0  0  0  0  0  0  0
  149.8239  140.2166  154.6573 C   0  0  0  0  0  0  0  0  0  0  0  0
  148.8833  140.8673  154.2018 O   0  0  0  0  0  0  0  0  0  0  0  0
  150.1909  138.8168  154.2226 C   0  0  0  0  0  0  0  0  0  0  0  0
  151.3578  138.5398  155.0299 N   0  5  0  0  0  0  0  0  0  0  0  0
  151.6093  139.6189  155.8064 C   0  0  0  0  0  0  0  0  0  0  0  0
  152.5317  139.7503  156.6105 O   0  0  0  0  0  0  0  0  0  0  0  0
  152.5054  144.3729  159.4088 C   0  0  1  0  0  0  0  0  0  0  0  0
  151.5931  145.4872  159.9564 C   0  0  0  0  0  0  0  0  0  0  0  0
  152.8143  143.4191  160.4670 N   0  0  0  0  0  0  0  0  0  0  0  0
  153.5839  142.2764  160.3882 C   0  0  0  0  0  0  0  0  0  0  0  0
  153.5918  141.7028  161.6272 C   0  0  0  0  0  0  0  0  0  0  0  0
  152.7920  142.5799  162.4113 C   0  0  0  0  0  0  0  0  0  0  0  0
  152.3293  143.6058  161.7156 N   0  0  0  0  0  0  0  0  0  0  0  0
  152.6822  145.0570  156.6167 H   0  0  0  0  0  0  0  0  0  0  0  0
  151.0855  145.4766  157.2317 H   0  0  0  0  0  0  0  0  0  0  0  0
  151.2834  144.1321  156.1109 H   0  0  0  0  0  0  0  0  0  0  0  0
  152.6315  142.9102  157.8162 H   0  0  0  0  0  0  0  0  0  0  0  0
  150.5789  142.8711  159.4467 H   0  0  0  0  0  0  0  0  0  0  0  0
  150.9914  140.9817  158.1920 H   0  0  0  0  0  0  0  0  0  0  0  0
  149.3369  141.4727  157.8751 H   0  0  0  0  0  0  0  0  0  0  0  0
  149.9780  142.5566  155.7655 H   0  0  0  0  0  0  0  0  0  0  0  0
  151.6729  142.3839  156.1204 H   0  0  0  0  0  0  0  0  0  0  0  0
  149.3605  138.1375  154.4175 H   0  0  0  0  0  0  0  0  0  0  0  0
  150.3949  138.8016  153.1514 H   0  0  0  0  0  0  0  0  0  0  0  0
  153.4517  144.8378  159.1279 H   0  0  0  0  0  0  0  0  0  0  0  0
  151.4843  146.3028  159.2416 H   0  0  0  0  0  0  0  0  0  0  0  0
  152.0052  145.9166  160.8702 H   0  0  0  0  0  0  0  0  0  0  0  0
  150.5956  145.1115  160.1871 H   0  0  0  0  0  0  0  0  0  0  0  0
  154.0560  141.9683  159.4668 H   0  0  0  0  0  0  0  0  0  0  0  0
  154.0942  140.7953  161.9281 H   0  0  0  0  0  0  0  0  0  0  0  0
  152.5360  142.5024  163.4577 H   0  0  0  0  0  0  0  0  0  0  0  0
  149.8920  143.6787  158.1963 H   0  0  0  0  0  0  0  0  0  0  0  0
  1  2  1  0  0  0  0
  1 20  1  0  0  0  0
  1 21  1  0  0  0  0
  1 22  1  0  0  0  0
  2  3  1  0  0  0  0
  2 13  1  0  0  0  0
  2 23  1  0  0  0  0
  3  4  1  0  0  0  0
  3 24  1  0  0  0  0
  3 38  1  0  0  0  0
  4  5  1  0  0  0  0
  4 25  1  0  0  0  0
  4 26  1  0  0  0  0
  5  6  1  0  0  0  0
  5 27  1  0  0  0  0
  5 28  1  0  0  0  0
  6 11  1  0  0  0  0
  6  7  1  0  0  0  0
  7  8  2  0  0  0  0
  7  9  1  0  0  0  0
  9 10  1  0  0  0  0
  9 29  1  0  0  0  0
  9 30  1  0  0  0  0
 10 11  1  0  0  0  0
 11 12  2  0  0  0  0
 13 14  1  0  0  0  0
 13 15  1  0  0  0  0
 13 31  1  0  0  0  0
 14 32  1  0  0  0  0
 14 33  1  0  0  0  0
 14 34  1  0  0  0  0
 15 19  1  0  0  0  0
 15 16  1  0  0  0  0
 16 17  2  0  0  0  0
 16 35  1  0  0  0  0
 17 18  1  0  0  0  0
 17 36  1  0  0  0  0
 18 19  2  0  0  0  0
 18 37  1  0  0  0  0
M  CHG  1   3   1
M  CHG  1  10  -1
M  END
> <s_m_source_file>
AV-unprocessed.smi

> <i_m_source_file_index>
3330

> <i_lp_mmshare_version>
43012

> <i_f3d_flags>
0

> <s_epik_input>
bjFbY0hdW2NIXVtjSF1uMVtDQEBIXShbQ0gzXSlbQ0BIXShbQ0gzXSlbTkhdW0NIMl1bQ0gyXU4yQyg9TylbQ0gyXVtOSF1DMj1P

> <s_epik_cmdline>
J2VwaWtfcHl0aG9uJywgJy1waCcsICc3LjAnLCAnLXRuJywgJzgnLCAnLW1hJywgJzIwMCcsICctbWV0YWxfYmluZGluZycsICctaW1hZScsICc8aW5maWxlLm1hZT4nLCAnLW9tYWUnLCAnPG91dGZpbGUubWFlPic=

> <r_lp_tautomer_probability>
1

> <r_epik_Ionization_Penalty>
5.18149

> <r_epik_Ionization_Penalty_Charging>
5.18148

> <r_epik_Ionization_Penalty_Neutral>
9.83265e-06

> <r_epik_State_Penalty>
5.18201

> <r_epik_Charging_Adjusted_Penalty>
10.3635

> <i_epik_Tot_Q>
0

> <i_epik_Tot_abs_Q>
2

> <r_epik_Metal_State_Penalty>
1.25422

> <b_epik_Metal_Only>
1

> <s_lp_Force_Field>
OPLS_2005

> <r_lp_Energy>
16.3237

> <b_lp_Chiralities_Consistent>
1

> <s_lp_Variant>
AV-unprocessed.smi:3330-11

> <Gold.Version>
5.8.1

> <Gold.Id.Protein>
6NUR|6NUR_protein|mol2

> <Gold.PLP.Fitness>
50.8328

> <Gold.PLP.PLP>
-48.9435

> <Gold.PLP.part.hbond>
-1.0000

> <Gold.PLP.part.metal>
0.0000

> <Gold.PLP.part.buried>
-5.4078

> <Gold.PLP.part.nonpolar>
-43.0150

> <Gold.PLP.part.repulsive>
0.4209

> <Gold.PLP.ligand.clash>
0.0000

> <Gold.PLP.ligand.torsion>
0.6313

> <Gold.PLP.Chemscore.Hbond>
1.0000

> <Gold.PLP.Chemscore.CHOScore>
0.0000

> <Gold.PLP.Chemscore.Metal>
0.0000

> <Gold.Chemscore.Hbonds>
donor molecule, donor type, donor heavy atom, donor atom, acceptor molecule, acceptor atom, score
      P1  H  7997  8009       L1    12  1.00

> <Gold.PLP.Chemscore.Internal.Correction>
0.1518

> <Gold.Rescore>
     Score         DG    S(hbond)    S(metal)    S(lipo)     H(rot)  DE(clash)    DE(int)     intcor
     12.51     -14.47       0.99        0.00     105.32       2.59       0.35       1.61       ----

> <Gold.Chemscore.Fitness>
12.5107

> <Gold.Chemscore.DG>
-14.4656

> <Gold.Chemscore.ZeroCoef>
-5.4800

> <Gold.Chemscore.Hbond>
0.9863

> <Gold.Chemscore.Metal>
0.0000

> <Gold.Chemscore.Lipo>
105.3187

> <Gold.Chemscore.Internal_Hbond>
0.0000

> <Gold.Chemscore.DEClash>
0.3498

> <Gold.Chemscore.DEInternal>
1.6051

> <Gold.Chemscore.Rot>
2.5903

> <Gold.Chemscore.Internal.Correction>
   9.000000E+99

> <Gold.Chemscore.Hbonds>
donor molecule, donor type, donor heavy atom, donor atom, acceptor molecule, acceptor atom, score
      P1  H  7997  8009       L1    12  1.00

> <Gold.Chemscore.Hbond.Weighted>
-3.2944

> <Gold.Chemscore.Metal.Weighted>
-0.0000

> <Gold.Chemscore.Lipo.Weighted>
-12.3223

> <Gold.Chemscore.Internal_Hbond.Weighted>
0.0000

> <Gold.Chemscore.DEClash.Weighted>
0.3498

> <Gold.Chemscore.DEInternal.Weighted>
1.6051

> <Gold.Chemscore.Rot.Weighted>
6.6311

> <Gold.Chemscore.Internal.Correction.Weighted>
   9.000000E+99

> <Gold.Protein.RotatedTorsions>
[ 6907 6896 6895 6894 ] final   77.32 input  -60.11 | X-H torsion
[ 7974 7965 7964 7962 ] final   68.29 input  175.53 | X-H torsion
[ 8008 7997 7996 7995 ] final -177.12 input   59.86 | X-H torsion
[ 10167 10162 10161 10158 ] final  -32.86 input  -65.29 | X-H torsion
[ 10718 10713 10712 10709 ] final  109.38 input   66.30 | X-H torsion
[ 10763 10752 10751 10750 ] final  -34.51 input  -60.55 | X-H torsion
[ 11005 11000 10999 10996 ] final  147.03 input  -57.11 | X-H torsion

> <Gold.Protein.ActiveResidues>
 VAL166  LYS551  ARG553  GLY616  TRP617  ASP618  TYR619  PRO620  LYS621  CYS622 
 ASP623  PHE694  ASN695  SER759  ASP760  ASP761  ALA762  ILE779  LEU786  VAL792 
 PHE793  MET794  SER795  GLU796  ALA797  LYS798  CYS799  TRP800  GLU811  SER814 

> <Gold.Protein.RotatedAtoms>
  152.5112  134.3835  159.9359 H   0  0  0  0  0  0  0  0  0  0  0  0  # atno 6907 bound_to 6896
  151.3792  133.3821  159.2716 H   0  0  0  0  0  0  0  0  0  0  0  0  # atno 6908 bound_to 6896
  150.9517  134.8937  159.7735 H   0  0  0  0  0  0  0  0  0  0  0  0  # atno 6909 bound_to 6896
  145.8044  139.2999  143.1136 H   0  0  0  0  0  0  0  0  0  0  0  0  # atno 7974 bound_to 7965
  156.0031  140.1225  157.0528 H   0  0  0  0  0  0  0  0  0  0  0  0  # atno 8008 bound_to 7997
  154.4249  140.1103  156.5794 H   0  0  0  0  0  0  0  0  0  0  0  0  # atno 8009 bound_to 7997
  155.6185  140.3472  155.4646 H   0  0  0  0  0  0  0  0  0  0  0  0  # atno 8010 bound_to 7997
  140.7214  143.3663  151.1864 H   0  0  0  0  0  0  0  0  0  0  0  0  # atno 10167 bound_to 10162
  157.6544  131.0912  150.6446 H   0  0  0  0  0  0  0  0  0  0  0  0  # atno 10718 bound_to 10713
  153.8479  135.6851  153.4795 H   0  0  0  0  0  0  0  0  0  0  0  0  # atno 10763 bound_to 10752
  153.1415  135.4655  154.9500 H   0  0  0  0  0  0  0  0  0  0  0  0  # atno 10764 bound_to 10752
  154.7815  135.3270  154.7926 H   0  0  0  0  0  0  0  0  0  0  0  0  # atno 10765 bound_to 10752
  140.0842  134.9079  157.1549 H   0  0  0  0  0  0  0  0  0  0  0  0  # atno 11005 bound_to 11000
  145.9844  140.8656  143.0098 LP  0  0  0  0  0  0  0  0  0  0  0  0  # atno 17320 bound_to 7965
  144.6765  140.2126  143.7375 LP  0  0  0  0  0  0  0  0  0  0  0  0  # atno 17321 bound_to 7965
  139.7225  143.9200  152.2991 LP  0  0  0  0  0  0  0  0  0  0  0  0  # atno 17342 bound_to 10162
  139.8962  144.6938  150.8715 LP  0  0  0  0  0  0  0  0  0  0  0  0  # atno 17343 bound_to 10162
  156.6754  130.4551  149.5644 LP  0  0  0  0  0  0  0  0  0  0  0  0  # atno 17370 bound_to 10713
  156.1968  130.6594  151.1123 LP  0  0  0  0  0  0  0  0  0  0  0  0  # atno 17371 bound_to 10713
  140.3444  134.2668  155.7207 LP  0  0  0  0  0  0  0  0  0  0  0  0  # atno 17394 bound_to 11000
  141.2057  133.7853  157.0218 LP  0  0  0  0  0  0  0  0  0  0  0  0  # atno 17395 bound_to 11000

$$$$
