AV-unprocessed.smi:2069|AV-procd|sdf|8434|dock3
  -GOLD-   2272011133D 1   1.00000     0.00000
 Structure written by MMmdl.
 39 40  0  0  0  0  0  0  0  0  2 V2000
  137.7861  147.0425  156.0545 C   0  0  0  0  0  0  0  0  0  0  0  0
  138.8192  146.2627  155.3156 C   0  0  0  0  0  0  0  0  0  0  0  0
  138.6027  145.7456  154.1001 N   0  0  0  0  0  0  0  0  0  0  0  0
  139.7107  145.0670  153.6121 N   0  0  0  0  0  0  0  0  0  0  0  0
  140.7340  145.0942  154.4767 C   0  0  0  0  0  0  0  0  0  0  0  0
  141.9921  144.4840  154.2293 N   0  0  0  0  0  0  0  0  0  0  0  0
  143.0826  144.4766  155.0157 C   0  0  0  0  0  0  0  0  0  0  0  0
  143.1791  145.0356  156.1087 O   0  0  0  0  0  0  0  0  0  0  0  0
  144.0782  143.7702  154.4615 N   0  0  0  0  0  0  0  0  0  0  0  0
  145.3878  143.5604  155.0717 C   0  0  0  0  0  0  0  0  0  0  0  0
  146.2872  142.5879  154.2627 C   0  0  1  0  0  0  0  0  0  0  0  0
  146.4864  143.1212  152.8229 C   0  0  0  0  0  0  0  0  0  0  0  0
  147.5731  142.3424  154.9939 N   0  3  0  0  0  0  0  0  0  0  0  0
  147.3770  141.5523  156.2403 C   0  0  0  0  0  0  0  0  0  0  0  0
  148.6962  141.4045  157.0151 C   0  0  0  0  0  0  0  0  0  0  0  0
  149.6638  140.7805  156.1845 O   0  0  0  0  0  0  0  0  0  0  0  0
  149.9438  141.5621  155.0327 C   0  0  0  0  0  0  0  0  0  0  0  0
  148.6680  141.7326  154.1896 C   0  0  0  0  0  0  0  0  0  0  0  0
  140.4232  145.9591  155.9720 S   0  0  0  0  0  0  0  0  0  0  0  0
  136.7870  146.6876  155.7998 H   0  0  0  0  0  0  0  0  0  0  0  0
  137.8612  148.0984  155.7946 H   0  0  0  0  0  0  0  0  0  0  0  0
  137.9298  146.9344  157.1296 H   0  0  0  0  0  0  0  0  0  0  0  0
  142.0661  143.9871  153.3538 H   0  0  0  0  0  0  0  0  0  0  0  0
  143.9193  143.3446  153.5599 H   0  0  0  0  0  0  0  0  0  0  0  0
  145.8772  144.5315  155.1521 H   0  0  0  0  0  0  0  0  0  0  0  0
  145.2311  143.2192  156.0943 H   0  0  0  0  0  0  0  0  0  0  0  0
  145.7776  141.6272  154.1714 H   0  0  0  0  0  0  0  0  0  0  0  0
  145.5347  143.3157  152.3289 H   0  0  0  0  0  0  0  0  0  0  0  0
  147.0040  142.4021  152.1881 H   0  0  0  0  0  0  0  0  0  0  0  0
  147.0524  144.0533  152.8173 H   0  0  0  0  0  0  0  0  0  0  0  0
  146.6428  142.0189  156.8943 H   0  0  0  0  0  0  0  0  0  0  0  0
  146.9879  140.5646  155.9877 H   0  0  0  0  0  0  0  0  0  0  0  0
  149.0596  142.3740  157.3601 H   0  0  0  0  0  0  0  0  0  0  0  0
  148.5433  140.7882  157.9014 H   0  0  0  0  0  0  0  0  0  0  0  0
  150.3477  142.5325  155.3265 H   0  0  0  0  0  0  0  0  0  0  0  0
  150.7155  141.0620  154.4472 H   0  0  0  0  0  0  0  0  0  0  0  0
  148.3437  140.7663  153.8000 H   0  0  0  0  0  0  0  0  0  0  0  0
  148.9228  142.3619  153.3376 H   0  0  0  0  0  0  0  0  0  0  0  0
  147.9146  143.2510  155.2726 H   0  0  0  0  0  0  0  0  0  0  0  0
  1  2  1  0  0  0  0
  1 20  1  0  0  0  0
  1 21  1  0  0  0  0
  1 22  1  0  0  0  0
  2 19  1  0  0  0  0
  2  3  2  0  0  0  0
  3  4  1  0  0  0  0
  4  5  2  0  0  0  0
  5  6  1  0  0  0  0
  5 19  1  0  0  0  0
  6  7  1  0  0  0  0
  6 23  1  0  0  0  0
  7  8  2  0  0  0  0
  7  9  1  0  0  0  0
  9 10  1  0  0  0  0
  9 24  1  0  0  0  0
 10 11  1  0  0  0  0
 10 25  1  0  0  0  0
 10 26  1  0  0  0  0
 11 12  1  0  0  0  0
 11 13  1  0  0  0  0
 11 27  1  0  0  0  0
 12 28  1  0  0  0  0
 12 29  1  0  0  0  0
 12 30  1  0  0  0  0
 13 18  1  0  0  0  0
 13 14  1  0  0  0  0
 13 39  1  0  0  0  0
 14 15  1  0  0  0  0
 14 31  1  0  0  0  0
 14 32  1  0  0  0  0
 15 16  1  0  0  0  0
 15 33  1  0  0  0  0
 15 34  1  0  0  0  0
 16 17  1  0  0  0  0
 17 18  1  0  0  0  0
 17 35  1  0  0  0  0
 17 36  1  0  0  0  0
 18 37  1  0  0  0  0
 18 38  1  0  0  0  0
M  CHG  1  13   1
M  END
> <s_m_source_file>
AV-unprocessed.smi

> <i_m_source_file_index>
2069

> <i_lp_mmshare_version>
43012

> <i_f3d_flags>
0

> <s_epik_input>
W0NIM11jMW5uYyhzMSlbTkhdQyg9TylbTkhdW0NIMl1bQ0BIXShbQ0gzXSlOMltDSDJdW0NIMl1PW0NIMl1bQ0gyXTI=

> <s_epik_cmdline>
J2VwaWtfcHl0aG9uJywgJy1waCcsICc3LjAnLCAnLXRuJywgJzgnLCAnLW1hJywgJzIwMCcsICctbWV0YWxfYmluZGluZycsICctaW1hZScsICc8aW5maWxlLm1hZT4nLCAnLW9tYWUnLCAnPG91dGZpbGUubWFlPic=

> <r_lp_tautomer_probability>
1

> <r_epik_Ionization_Penalty>
0.70016

> <r_epik_Ionization_Penalty_Charging>
0.695697

> <r_epik_Ionization_Penalty_Neutral>
0.00446266

> <r_epik_State_Penalty>
0.717972

> <r_epik_Charging_Adjusted_Penalty>
1.41367

> <i_epik_Tot_Q>
1

> <i_epik_Tot_abs_Q>
1

> <r_epik_Metal_State_Penalty>
1.06969

> <b_epik_Metal_Only>
0

> <s_lp_Force_Field>
OPLS_2005

> <r_lp_Energy>
18.8851

> <b_lp_Chiralities_Consistent>
1

> <s_lp_Variant>
AV-unprocessed.smi:2069-4

> <Gold.Version>
5.8.1

> <Gold.Id.Protein>
6NUR|6NUR_protein|mol2

> <Gold.PLP.Fitness>
43.7330

> <Gold.PLP.PLP>
-29.1603

> <Gold.PLP.part.hbond>
-4.1172

> <Gold.PLP.part.metal>
0.0000

> <Gold.PLP.part.buried>
-7.7769

> <Gold.PLP.part.nonpolar>
-18.9283

> <Gold.PLP.part.repulsive>
0.4276

> <Gold.PLP.ligand.clash>
0.0000

> <Gold.PLP.ligand.torsion>
0.2298

> <Gold.PLP.Chemscore.Hbond>
4.9920

> <Gold.PLP.Chemscore.CHOScore>
0.0000

> <Gold.PLP.Chemscore.Metal>
0.0000

> <Gold.Chemscore.Hbonds>
donor molecule, donor type, donor heavy atom, donor atom, acceptor molecule, acceptor atom, score
      L1  H     6    23       P1 10174  1.00
      L1  H     9    24       P1 10174  0.89
      L1  H    13    39       P1  8028  2.00
      P1  H 10162 10167       L1     4  0.99

> <Gold.PLP.Chemscore.Internal.Correction>
0.0563

> <Gold.Rescore>
     Score         DG    S(hbond)    S(metal)    S(lipo)     H(rot)  DE(clash)    DE(int)     intcor
     14.32     -17.03       2.81        0.00      54.43       1.65       1.21       1.50       ----

> <Gold.Chemscore.Fitness>
14.3176

> <Gold.Chemscore.DG>
-17.0301

> <Gold.Chemscore.ZeroCoef>
-5.4800

> <Gold.Chemscore.Hbond>
2.8144

> <Gold.Chemscore.Metal>
0.0000

> <Gold.Chemscore.Lipo>
54.4257

> <Gold.Chemscore.Internal_Hbond>
0.0000

> <Gold.Chemscore.DEClash>
1.2100

> <Gold.Chemscore.DEInternal>
1.5025

> <Gold.Chemscore.Rot>
1.6476

> <Gold.Chemscore.Internal.Correction>
   9.000000E+99

> <Gold.Chemscore.Hbonds>
donor molecule, donor type, donor heavy atom, donor atom, acceptor molecule, acceptor atom, score
      L1  H     6    23       P1 10174  0.95
      L1  H     9    24       P1 10174  0.29
      L1  H    13    39       P1  8028  0.65
      P1  H 10162 10167       L1     4  0.87

> <Gold.Chemscore.Hbond.Weighted>
-9.4002

> <Gold.Chemscore.Metal.Weighted>
-0.0000

> <Gold.Chemscore.Lipo.Weighted>
-6.3678

> <Gold.Chemscore.Internal_Hbond.Weighted>
0.0000

> <Gold.Chemscore.DEClash.Weighted>
1.2100

> <Gold.Chemscore.DEInternal.Weighted>
1.5025

> <Gold.Chemscore.Rot.Weighted>
4.2179

> <Gold.Chemscore.Internal.Correction.Weighted>
   9.000000E+99

> <Gold.Protein.RotatedTorsions>
[ 6907 6896 6895 6894 ] final -179.64 input  -60.11 | X-H torsion
[ 7974 7965 7964 7962 ] final   31.42 input  175.53 | X-H torsion
[ 8008 7997 7996 7995 ] final  125.14 input   59.86 | X-H torsion
[ 10167 10162 10161 10158 ] final  176.07 input  -65.29 | X-H torsion
[ 10718 10713 10712 10709 ] final   68.60 input   66.30 | X-H torsion
[ 10763 10752 10751 10750 ] final   69.97 input  -60.55 | X-H torsion
[ 11005 11000 10999 10996 ] final  172.00 input  -57.11 | X-H torsion

> <Gold.Protein.ActiveResidues>
 VAL166  LYS551  ARG553  GLY616  TRP617  ASP618  TYR619  PRO620  LYS621  CYS622 
 ASP623  PHE694  ASN695  SER759  ASP760  ASP761  ALA762  ILE779  LEU786  VAL792 
 PHE793  MET794  SER795  GLU796  ALA797  LYS798  CYS799  TRP800  GLU811  SER814 

> <Gold.Protein.RotatedAtoms>
  151.6567  133.3318  159.3164 H   0  0  0  0  0  0  0  0  0  0  0  0  # atno 6907 bound_to 6896
  150.7933  134.6978  159.6542 H   0  0  0  0  0  0  0  0  0  0  0  0  # atno 6908 bound_to 6896
  152.4017  134.6279  160.0119 H   0  0  0  0  0  0  0  0  0  0  0  0  # atno 6909 bound_to 6896
  146.1551  139.6658  142.9072 H   0  0  0  0  0  0  0  0  0  0  0  0  # atno 7974 bound_to 7965
  156.2824  140.2723  156.1901 H   0  0  0  0  0  0  0  0  0  0  0  0  # atno 8008 bound_to 7997
  155.0467  140.0386  157.2547 H   0  0  0  0  0  0  0  0  0  0  0  0  # atno 8009 bound_to 7997
  154.7229  140.2691  155.6530 H   0  0  0  0  0  0  0  0  0  0  0  0  # atno 8010 bound_to 7997
  139.5200  144.2958  152.0423 H   0  0  0  0  0  0  0  0  0  0  0  0  # atno 10167 bound_to 10162
  157.6299  130.9382  150.0400 H   0  0  0  0  0  0  0  0  0  0  0  0  # atno 10718 bound_to 10713
  153.0316  135.5191  154.7370 H   0  0  0  0  0  0  0  0  0  0  0  0  # atno 10763 bound_to 10752
  154.6381  135.2909  155.0139 H   0  0  0  0  0  0  0  0  0  0  0  0  # atno 10764 bound_to 10752
  154.1067  135.6628  153.4930 H   0  0  0  0  0  0  0  0  0  0  0  0  # atno 10765 bound_to 10752
  140.3251  134.7405  157.4093 H   0  0  0  0  0  0  0  0  0  0  0  0  # atno 11005 bound_to 11000
  145.4729  141.0436  143.2689 LP  0  0  0  0  0  0  0  0  0  0  0  0  # atno 17320 bound_to 7965
  144.7953  139.6247  143.7095 LP  0  0  0  0  0  0  0  0  0  0  0  0  # atno 17321 bound_to 7965
  140.2408  144.4272  150.6261 LP  0  0  0  0  0  0  0  0  0  0  0  0  # atno 17342 bound_to 10162
  140.6292  143.2185  151.6532 LP  0  0  0  0  0  0  0  0  0  0  0  0  # atno 17343 bound_to 10162
  156.1495  130.3642  149.9460 LP  0  0  0  0  0  0  0  0  0  0  0  0  # atno 17370 bound_to 10713
  156.7483  130.9105  151.3636 LP  0  0  0  0  0  0  0  0  0  0  0  0  # atno 17371 bound_to 10713
  140.0909  134.5603  155.8445 LP  0  0  0  0  0  0  0  0  0  0  0  0  # atno 17394 bound_to 11000
  141.2077  133.6667  156.6324 LP  0  0  0  0  0  0  0  0  0  0  0  0  # atno 17395 bound_to 11000

$$$$
