AV-unprocessed.smi:2931|AV-procd|sdf|11244|dock8
  -GOLD-   2272016143D 1   1.00000     0.00000
 Structure written by MMmdl.
 42 43  0  0  0  0  0  0  0  0  2 V2000
  146.6225  133.0311  151.6622 C   0  0  0  0  0  0  0  0  0  0  0  0
  146.4716  134.4531  152.0369 N   0  3  1  0  0  0  0  0  0  0  0  0
  145.5299  135.1768  151.1460 C   0  0  0  0  0  0  0  0  0  0  0  0
  145.4843  136.6776  151.4841 C   0  0  0  0  0  0  0  0  0  0  0  0
  145.1687  136.9102  152.9724 C   0  0  0  0  0  0  0  0  0  0  0  0
  146.1373  136.1203  153.8710 C   0  0  2  0  0  0  0  0  0  0  0  0
  147.4806  136.6897  153.7672 N   0  0  0  0  0  0  0  0  0  0  0  0
  148.2120  137.1460  154.7926 C   0  0  0  0  0  0  0  0  0  0  0  0
  147.8169  137.1899  155.9572 O   0  0  0  0  0  0  0  0  0  0  0  0
  149.4424  137.5015  154.4002 N   0  0  0  0  0  0  0  0  0  0  0  0
  150.5259  137.9022  155.2926 C   0  0  0  0  0  0  0  0  0  0  0  0
  151.1822  139.2392  154.8858 C   0  0  0  0  0  0  0  0  0  0  0  0
  151.3038  140.2359  156.0274 C   0  0  0  0  0  0  0  0  0  0  0  0
  150.7022  141.5094  155.9407 C   0  0  0  0  0  0  0  0  0  0  0  0
  150.8356  142.3909  157.0318 C   0  0  0  0  0  0  0  0  0  0  0  0
  151.5026  142.0765  158.1623 N   0  0  0  0  0  0  0  0  0  0  0  0
  152.0782  140.8570  158.2375 C   0  0  0  0  0  0  0  0  0  0  0  0
  152.0087  139.9031  157.2022 C   0  0  0  0  0  0  0  0  0  0  0  0
  146.1169  134.6278  153.4678 C   0  0  0  0  0  0  0  0  0  0  0  0
  145.6762  132.4976  151.7599 H   0  0  0  0  0  0  0  0  0  0  0  0
  147.3597  132.5409  152.2988 H   0  0  0  0  0  0  0  0  0  0  0  0
  146.9629  132.9403  150.6302 H   0  0  0  0  0  0  0  0  0  0  0  0
  145.8367  135.0469  150.1075 H   0  0  0  0  0  0  0  0  0  0  0  0
  144.5333  134.7421  151.2390 H   0  0  0  0  0  0  0  0  0  0  0  0
  146.4413  137.1365  151.2325 H   0  0  0  0  0  0  0  0  0  0  0  0
  144.7372  137.1750  150.8649 H   0  0  0  0  0  0  0  0  0  0  0  0
  145.2106  137.9749  153.2060 H   0  0  0  0  0  0  0  0  0  0  0  0
  144.1454  136.5925  153.1775 H   0  0  0  0  0  0  0  0  0  0  0  0
  145.8068  136.2162  154.9067 H   0  0  0  0  0  0  0  0  0  0  0  0
  147.8959  136.7068  152.8471 H   0  0  0  0  0  0  0  0  0  0  0  0
  149.6679  137.4339  153.4185 H   0  0  0  0  0  0  0  0  0  0  0  0
  150.0944  138.0037  156.2888 H   0  0  0  0  0  0  0  0  0  0  0  0
  151.2750  137.1121  155.3602 H   0  0  0  0  0  0  0  0  0  0  0  0
  152.1746  139.0514  154.4747 H   0  0  0  0  0  0  0  0  0  0  0  0
  150.6076  139.6957  154.0789 H   0  0  0  0  0  0  0  0  0  0  0  0
  150.1503  141.8060  155.0606 H   0  0  0  0  0  0  0  0  0  0  0  0
  150.3894  143.3737  156.9980 H   0  0  0  0  0  0  0  0  0  0  0  0
  152.6083  140.6334  159.1515 H   0  0  0  0  0  0  0  0  0  0  0  0
  152.4830  138.9387  157.3114 H   0  0  0  0  0  0  0  0  0  0  0  0
  145.1268  134.2063  153.6489 H   0  0  0  0  0  0  0  0  0  0  0  0
  146.8097  134.0581  154.0884 H   0  0  0  0  0  0  0  0  0  0  0  0
  147.3784  134.8803  151.9124 H   0  0  0  0  0  0  0  0  0  0  0  0
  1  2  1  0  0  0  0
  1 20  1  0  0  0  0
  1 21  1  0  0  0  0
  1 22  1  0  0  0  0
  2 19  1  0  0  0  0
  2  3  1  0  0  0  0
  2 42  1  0  0  0  0
  3  4  1  0  0  0  0
  3 23  1  0  0  0  0
  3 24  1  0  0  0  0
  4  5  1  0  0  0  0
  4 25  1  0  0  0  0
  4 26  1  0  0  0  0
  5  6  1  0  0  0  0
  5 27  1  0  0  0  0
  5 28  1  0  0  0  0
  6  7  1  0  0  0  0
  6 19  1  0  0  0  0
  6 29  1  0  0  0  0
  7  8  1  0  0  0  0
  7 30  1  0  0  0  0
  8  9  2  0  0  0  0
  8 10  1  0  0  0  0
 10 11  1  0  0  0  0
 10 31  1  0  0  0  0
 11 12  1  0  0  0  0
 11 32  1  0  0  0  0
 11 33  1  0  0  0  0
 12 13  1  0  0  0  0
 12 34  1  0  0  0  0
 12 35  1  0  0  0  0
 13 18  1  0  0  0  0
 13 14  2  0  0  0  0
 14 15  1  0  0  0  0
 14 36  1  0  0  0  0
 15 16  2  0  0  0  0
 15 37  1  0  0  0  0
 16 17  1  0  0  0  0
 17 18  2  0  0  0  0
 17 38  1  0  0  0  0
 18 39  1  0  0  0  0
 19 40  1  0  0  0  0
 19 41  1  0  0  0  0
M  CHG  1   2   1
M  END
> <s_m_source_file>
AV-unprocessed.smi

> <i_m_source_file_index>
2931

> <i_lp_mmshare_version>
43012

> <i_f3d_flags>
0

> <s_epik_input>
W0NIM11OMVtDSDJdW0NIMl1bQ0gyXVtDQEhdKFtDSDJdMSlbTkhdQyg9TylbTkhdW0NIMl1bQ0gyXWMyW2NIXVtjSF1uW2NIXVtjSF0y

> <s_epik_cmdline>
J2VwaWtfcHl0aG9uJywgJy1waCcsICc3LjAnLCAnLXRuJywgJzgnLCAnLW1hJywgJzIwMCcsICctbWV0YWxfYmluZGluZycsICctaW1hZScsICc8aW5maWxlLm1hZT4nLCAnLW9tYWUnLCAnPG91dGZpbGUubWFlPic=

> <r_epik_Ionization_Penalty>
0.0573876

> <r_epik_Ionization_Penalty_Charging>
0.00229982

> <r_epik_Ionization_Penalty_Neutral>
0.0550878

> <r_epik_State_Penalty>
0.0473925

> <r_epik_Charging_Adjusted_Penalty>
0.0496923

> <i_epik_Tot_Q>
1

> <i_epik_Tot_abs_Q>
1

> <r_epik_Metal_State_Penalty>
0.0433388

> <b_epik_Metal_Only>
0

> <s_lp_Force_Field>
OPLS_2005

> <r_lp_Energy>
20.0995

> <b_lp_Chiralities_Consistent>
1

> <s_lp_Variant>
AV-unprocessed.smi:2931-3

> <Gold.Version>
5.8.1

> <Gold.Id.Protein>
6NUR|6NUR_protein|mol2

> <Gold.PLP.Fitness>
40.9125

> <Gold.PLP.PLP>
-27.7913

> <Gold.PLP.part.hbond>
-2.7323

> <Gold.PLP.part.metal>
0.0000

> <Gold.PLP.part.buried>
-1.8493

> <Gold.PLP.part.nonpolar>
-24.2052

> <Gold.PLP.part.repulsive>
0.0793

> <Gold.PLP.ligand.clash>
0.0000

> <Gold.PLP.ligand.torsion>
0.4085

> <Gold.PLP.Chemscore.Hbond>
3.6397

> <Gold.PLP.Chemscore.CHOScore>
1.0000

> <Gold.PLP.Chemscore.Metal>
0.0000

> <Gold.Chemscore.Hbonds>
donor molecule, donor type, donor heavy atom, donor atom, acceptor molecule, acceptor atom, score
      L1  H     2    42       P1  7948  1.98
      L1  H     7    30       P1  7948  0.98
      L1  H    10    31       P1  7948  0.64
      L1  C    15    37       P1  8028  1.00

> <Gold.PLP.Chemscore.Internal.Correction>
0.0191

> <Gold.Rescore>
     Score         DG    S(hbond)    S(metal)    S(lipo)     H(rot)  DE(clash)    DE(int)     intcor
     16.90     -17.57       2.24        0.00      73.51       1.56       0.31       0.37       ----

> <Gold.Chemscore.Fitness>
16.9009

> <Gold.Chemscore.DG>
-17.5729

> <Gold.Chemscore.ZeroCoef>
-5.4800

> <Gold.Chemscore.Hbond>
2.2406

> <Gold.Chemscore.Metal>
0.0000

> <Gold.Chemscore.Lipo>
73.5127

> <Gold.Chemscore.Internal_Hbond>
0.0000

> <Gold.Chemscore.DEClash>
0.3051

> <Gold.Chemscore.DEInternal>
0.3670

> <Gold.Chemscore.Rot>
1.5592

> <Gold.Chemscore.Internal.Correction>
   9.000000E+99

> <Gold.Chemscore.Hbonds>
donor molecule, donor type, donor heavy atom, donor atom, acceptor molecule, acceptor atom, score
      L1  H     2    42       P1  7948  0.80
      L1  H     7    30       P1  7948  0.87
      L1  H    10    31       P1  7948  0.49

> <Gold.Chemscore.Hbond.Weighted>
-7.4834

> <Gold.Chemscore.Metal.Weighted>
-0.0000

> <Gold.Chemscore.Lipo.Weighted>
-8.6010

> <Gold.Chemscore.Internal_Hbond.Weighted>
0.0000

> <Gold.Chemscore.DEClash.Weighted>
0.3051

> <Gold.Chemscore.DEInternal.Weighted>
0.3670

> <Gold.Chemscore.Rot.Weighted>
3.9915

> <Gold.Chemscore.Internal.Correction.Weighted>
   9.000000E+99

> <Gold.Protein.RotatedTorsions>
[ 6907 6896 6895 6894 ] final   25.43 input  -60.11 | X-H torsion
[ 7974 7965 7964 7962 ] final   15.51 input  175.53 | X-H torsion
[ 8008 7997 7996 7995 ] final    7.81 input   59.86 | X-H torsion
[ 10167 10162 10161 10158 ] final   95.71 input  -65.29 | X-H torsion
[ 10718 10713 10712 10709 ] final  156.67 input   66.30 | X-H torsion
[ 10763 10752 10751 10750 ] final -157.70 input  -60.55 | X-H torsion
[ 11005 11000 10999 10996 ] final  129.81 input  -57.11 | X-H torsion

> <Gold.Protein.ActiveResidues>
 VAL166  LYS551  ARG553  GLY616  TRP617  ASP618  TYR619  PRO620  LYS621  CYS622 
 ASP623  PHE694  ASN695  SER759  ASP760  ASP761  ALA762  ILE779  LEU786  VAL792 
 PHE793  MET794  SER795  GLU796  ALA797  LYS798  CYS799  TRP800  GLU811  SER814 

> <Gold.Protein.RotatedAtoms>
  151.9725  135.0069  160.0553 H   0  0  0  0  0  0  0  0  0  0  0  0  # atno 6907 bound_to 6896
  152.1770  133.4677  159.4947 H   0  0  0  0  0  0  0  0  0  0  0  0  # atno 6908 bound_to 6896
  150.6911  134.1799  159.4287 H   0  0  0  0  0  0  0  0  0  0  0  0  # atno 6909 bound_to 6896
  146.2276  139.8884  142.8559 H   0  0  0  0  0  0  0  0  0  0  0  0  # atno 7974 bound_to 7965
  154.7586  140.2780  155.6232 H   0  0  0  0  0  0  0  0  0  0  0  0  # atno 8008 bound_to 7997
  156.2911  140.2664  156.2286 H   0  0  0  0  0  0  0  0  0  0  0  0  # atno 8009 bound_to 7997
  155.0045  140.0372  157.2364 H   0  0  0  0  0  0  0  0  0  0  0  0  # atno 8010 bound_to 7997
  139.7963  144.6832  150.9824 H   0  0  0  0  0  0  0  0  0  0  0  0  # atno 10167 bound_to 10162
  157.2019  131.0678  151.2020 H   0  0  0  0  0  0  0  0  0  0  0  0  # atno 10718 bound_to 10713
  154.7616  135.3119  154.8368 H   0  0  0  0  0  0  0  0  0  0  0  0  # atno 10763 bound_to 10752
  153.9127  135.6804  153.4754 H   0  0  0  0  0  0  0  0  0  0  0  0  # atno 10764 bound_to 10752
  153.1217  135.4819  154.9138 H   0  0  0  0  0  0  0  0  0  0  0  0  # atno 10765 bound_to 10752
  139.9636  134.9596  156.9203 H   0  0  0  0  0  0  0  0  0  0  0  0  # atno 11005 bound_to 11000
  145.2443  141.0020  143.3918 LP  0  0  0  0  0  0  0  0  0  0  0  0  # atno 17320 bound_to 7965
  144.9426  139.4171  143.6441 LP  0  0  0  0  0  0  0  0  0  0  0  0  # atno 17321 bound_to 7965
  140.7820  143.4328  151.0669 LP  0  0  0  0  0  0  0  0  0  0  0  0  # atno 17342 bound_to 10162
  139.8002  143.8094  152.3162 LP  0  0  0  0  0  0  0  0  0  0  0  0  # atno 17343 bound_to 10162
  157.3759  130.7205  149.6596 LP  0  0  0  0  0  0  0  0  0  0  0  0  # atno 17370 bound_to 10713
  155.9699  130.4186  150.4334 LP  0  0  0  0  0  0  0  0  0  0  0  0  # atno 17371 bound_to 10713
  140.5445  134.0688  155.7351 LP  0  0  0  0  0  0  0  0  0  0  0  0  # atno 17394 bound_to 11000
  141.1315  133.9294  157.2525 LP  0  0  0  0  0  0  0  0  0  0  0  0  # atno 17395 bound_to 11000

$$$$
