#       Name:                AV-unprocessed.smi:2273
#       Creating user name   scv26
#       Creation time:       Fri Mar 27 12:37:38 2020


#       File generated by GOLD software.
#

@<TRIPOS>MOLECULE
AV-unprocessed.smi:2273
    59    60     1
SMALL
NO_CHARGES


@<TRIPOS>ATOM
      1 ****         6.3385  -0.7606  -0.2592 C.3            1 S1                 0.0000
      2 ****         6.5221  -0.9943  -1.7635 C.3            1 S1                 0.0000
      3 ****         5.6556  -2.1182  -2.3939 C.3            1 S1                 0.0000
      4 ****         6.0063  -2.2780  -3.8978 C.3            1 S1                 0.0000
      5 ****         7.4664  -2.6569  -4.1923 C.3            1 S1                 0.0000
      6 ****         4.1315  -1.8713  -2.1744 C.3            1 S1                 0.0000
      7 ****         3.5829  -2.5409  -0.8888 C.3            1 S1                 0.0000
      8 ****         2.0807  -2.2600  -0.6960 C.3            1 S1                 0.0000
      9 ****         1.8382  -0.8527  -0.3609 N.am           1 S1                 0.0000
     10 ****         1.9503  -0.2428   0.8328 C.2            1 S1                 0.0000
     11 ****         2.2871  -0.8651   1.8388 O.2            1 S1                 0.0000
     12 ****         1.6553   1.0732   0.8169 N.am           1 S1                 0.0000
     13 ****         1.6724   1.9515   1.9125 C.2            1 S1                 0.0000
     14 ****         0.5805   2.7260   2.1476 C.2            1 S1                 0.0000
     15 ****        -0.6683   2.6343   1.2857 C.3            1 S1                 0.0000
     16 ****         0.5946   3.6437   3.2677 C.2            1 S1                 0.0000
     17 ****         1.6834   3.7191   4.0443 C.2            1 S1                 0.0000
     18 ****         2.8235   2.9438   3.7906 N.am           1 S1                 0.0000
     19 ****         3.9698   3.1109   4.6877 C.3            1 S1                 0.0000
     20 ****         2.9021   2.0865   2.7323 C.2            1 S1                 0.0000
     21 ****         3.9512   1.4879   2.4839 O.2            1 S1                 0.0000
     22 ****         1.3245  -2.6409  -1.9769 C.3            1 S1                 0.0000
     23 ****         1.9886  -2.0299  -3.2210 C.3            1 S1                 0.0000
     24 ****         3.3647  -2.3931  -3.2609 O.3            1 S1                 0.0000
     25 ****         7.0757  -0.0473   0.1098 H              1 S1                 0.0000
     26 ****         6.4665  -1.6859   0.3028 H              1 S1                 0.0000
     27 ****         5.3562  -0.3462  -0.0331 H              1 S1                 0.0000
     28 ****         6.3441  -0.0562  -2.2905 H              1 S1                 0.0000
     29 ****         7.5762  -1.2241  -1.9112 H              1 S1                 0.0000
     30 ****         5.9168  -3.0621  -1.9131 H              1 S1                 0.0000
     31 ****         5.3953  -3.0692  -4.3323 H              1 S1                 0.0000
     32 ****         5.7516  -1.3655  -4.4381 H              1 S1                 0.0000
     33 ****         7.5931  -2.8938  -5.2487 H              1 S1                 0.0000
     34 ****         7.7711  -3.5329  -3.6191 H              1 S1                 0.0000
     35 ****         8.1549  -1.8434  -3.9657 H              1 S1                 0.0000
     36 ****         3.9642  -0.7933  -2.1401 H              1 S1                 0.0000
     37 ****         3.7321  -3.6190  -0.9622 H              1 S1                 0.0000
     38 ****         4.1312  -2.2321  -0.0024 H              1 S1                 0.0000
     39 ****         1.6976  -2.8876   0.1099 H              1 S1                 0.0000
     40 ****         1.5956  -0.2584  -1.1406 H              1 S1                 0.0000
     41 ****         1.2757   1.4482  -0.0399 H              1 S1                 0.0000
     42 ****        -1.4080   3.3788   1.5812 H              1 S1                 0.0000
     43 ****        -1.1232   1.6499   1.3889 H              1 S1                 0.0000
     44 ****        -0.4291   2.7998   0.2347 H              1 S1                 0.0000
     45 ****        -0.2664   4.2583   3.4863 H              1 S1                 0.0000
     46 ****         1.7516   4.3817   4.8947 H              1 S1                 0.0000
     47 ****         4.3007   2.1463   5.0761 H              1 S1                 0.0000
     48 ****         3.7424   3.7413   5.5481 H              1 S1                 0.0000
     49 ****         4.8053   3.5683   4.1561 H              1 S1                 0.0000
     50 ****         1.3229  -3.7269  -2.0790 H              1 S1                 0.0000
     51 ****         0.2788  -2.3375  -1.9134 H              1 S1                 0.0000
     52 ****         1.5015  -2.4007  -4.1227 H              1 S1                 0.0000
     53 ****         1.8840  -0.9439  -3.2305 H              1 S1                 0.0000
     54 ****         2.4837  -1.8438   1.7789 LP             1 S1                 0.0000
     55 ****         2.3644  -0.3924   2.7166 LP             1 S1                 0.0000
     56 ****         4.0023   0.8744   1.6958 LP             1 S1                 0.0000
     57 ****         4.7509   1.6160   3.0705 LP             1 S1                 0.0000
     58 ****         3.4279  -3.3909  -3.2408 LP             1 S1                 0.0000
     59 ****         3.7561  -2.0515  -4.1154 LP             1 S1                 0.0000
@<TRIPOS>BOND
    1    1    2 1     
    2    1   25 1     
    3    1   26 1     
    4    1   27 1     
    5    2    3 1     
    6    2   28 1     
    7    2   29 1     
    8    3    4 1     
    9    3    6 1     
   10    3   30 1     
   11    4    5 1     
   12    4   31 1     
   13    4   32 1     
   14    5   33 1     
   15    5   34 1     
   16    5   35 1     
   17    6   24 1     
   18    6    7 1     
   19    6   36 1     
   20    7    8 1     
   21    7   37 1     
   22    7   38 1     
   23    8    9 1     
   24    8   22 1     
   25    8   39 1     
   26    9   10 am    
   27    9   40 1     
   28   10   11 2     
   29   10   12 am    
   30   12   13 1     
   31   12   41 1     
   32   13   20 1     
   33   13   14 2     
   34   14   15 1     
   35   14   16 1     
   36   15   42 1     
   37   15   43 1     
   38   15   44 1     
   39   16   17 2     
   40   16   45 1     
   41   17   18 1     
   42   17   46 1     
   43   18   19 1     
   44   18   20 am    
   45   19   47 1     
   46   19   48 1     
   47   19   49 1     
   48   20   21 2     
   49   22   23 1     
   50   22   50 1     
   51   22   51 1     
   52   23   24 1     
   53   23   52 1     
   54   23   53 1     
   55   11   54 1     
   56   11   55 1     
   57   21   56 1     
   58   21   57 1     
   59   24   58 1     
   60   24   59 1     
@<TRIPOS>SUBSTRUCTURE
      1 S1             1
@<TRIPOS>SET
LONE_PAIRS      STATIC     ATOMS    <user>   **** ""
6 54 55 56 57 58 59
DONOR_HYDROGENS      STATIC     ATOMS    <user>   **** ""
2 40 41
ATOM$BLUE        STATIC     ATOMS    COLORGROUP SYSTEM
6 54 55 56 57 58 59
ATOM$RED        STATIC     ATOMS    COLORGROUP SYSTEM
2 40 41
