AV-unprocessed.smi:1487|AV-procd|sdf|6014|dock1
  -GOLD-   22720 6113D 1   1.00000     0.00000
 Structure written by MMmdl.
 48 50  0  0  0  0  0  0  0  0  2 V2000
  153.2585  142.7147  160.6546 C   0  0  0  0  0  0  0  0  0  0  0  0
  152.4640  142.4422  159.3895 C   0  0  0  0  0  0  0  0  0  0  0  0
  152.5710  141.1764  158.7704 C   0  0  0  0  0  0  0  0  0  0  0  0
  151.8500  140.8833  157.5923 C   0  0  0  0  0  0  0  0  0  0  0  0
  151.8029  139.7283  156.8304 N   0  0  0  0  0  0  0  0  0  0  0  0
  150.9575  140.0774  155.8655 C   0  0  0  0  0  0  0  0  0  0  0  0
  150.4455  141.3221  155.9147 N   0  0  0  0  0  0  0  0  0  0  0  0
  149.5084  141.9199  154.9799 C   0  0  0  0  0  0  0  0  0  0  0  0
  148.0635  141.4304  155.1956 C   0  0  1  0  0  0  0  0  0  0  0  0
  147.4707  142.1630  156.2509 O   0  0  0  0  0  0  0  0  0  0  0  0
  147.2062  141.6172  153.9282 C   0  0  0  0  0  0  0  0  0  0  0  0
  146.5008  140.3727  153.5277 N   0  3  2  0  0  0  0  0  0  0  0  0
  146.1184  139.5170  154.6833 C   0  0  0  0  0  0  0  0  0  0  0  0
  145.2797  138.3101  154.2293 C   0  0  0  0  0  0  0  0  0  0  0  0
  146.0278  137.4891  153.1712 C   0  0  0  0  0  0  0  0  0  0  0  0
  146.4366  138.3971  152.0024 C   0  0  2  0  0  0  0  0  0  0  0  0
  147.2094  137.6591  151.0804 O   0  0  0  0  0  0  0  0  0  0  0  0
  147.2527  139.6035  152.5024 C   0  0  0  0  0  0  0  0  0  0  0  0
  151.0121  141.8993  157.0463 C   0  0  0  0  0  0  0  0  0  0  0  0
  150.8961  143.1620  157.6538 C   0  0  0  0  0  0  0  0  0  0  0  0
  151.6243  143.4385  158.8297 C   0  0  0  0  0  0  0  0  0  0  0  0
  151.4922  144.8052  159.4782 C   0  0  0  0  0  0  0  0  0  0  0  0
  153.8017  141.8277  160.9823 H   0  0  0  0  0  0  0  0  0  0  0  0
  152.5967  143.0183  161.4659 H   0  0  0  0  0  0  0  0  0  0  0  0
  153.9855  143.5089  160.4838 H   0  0  0  0  0  0  0  0  0  0  0  0
  153.2102  140.4175  159.1971 H   0  0  0  0  0  0  0  0  0  0  0  0
  150.6920  139.3871  155.0781 H   0  0  0  0  0  0  0  0  0  0  0  0
  149.5646  143.0048  155.0758 H   0  0  0  0  0  0  0  0  0  0  0  0
  149.8386  141.6808  153.9682 H   0  0  0  0  0  0  0  0  0  0  0  0
  148.0944  140.3805  155.4862 H   0  0  0  0  0  0  0  0  0  0  0  0
  147.6490  143.0821  156.1161 H   0  0  0  0  0  0  0  0  0  0  0  0
  146.4811  142.4101  154.1197 H   0  0  0  0  0  0  0  0  0  0  0  0
  147.8205  141.9659  153.0967 H   0  0  0  0  0  0  0  0  0  0  0  0
  147.0184  139.1732  155.1953 H   0  0  0  0  0  0  0  0  0  0  0  0
  145.5448  140.0922  155.4092 H   0  0  0  0  0  0  0  0  0  0  0  0
  145.0389  137.6798  155.0860 H   0  0  0  0  0  0  0  0  0  0  0  0
  144.3288  138.6560  153.8223 H   0  0  0  0  0  0  0  0  0  0  0  0
  146.9126  137.0349  153.6202 H   0  0  0  0  0  0  0  0  0  0  0  0
  145.3995  136.6706  152.8178 H   0  0  0  0  0  0  0  0  0  0  0  0
  145.5430  138.7517  151.4867 H   0  0  0  0  0  0  0  0  0  0  0  0
  147.7244  137.0244  151.5556 H   0  0  0  0  0  0  0  0  0  0  0  0
  147.4874  140.2523  151.6574 H   0  0  0  0  0  0  0  0  0  0  0  0
  148.2038  139.2736  152.9245 H   0  0  0  0  0  0  0  0  0  0  0  0
  150.2513  143.9116  157.2193 H   0  0  0  0  0  0  0  0  0  0  0  0
  150.8399  145.4595  158.8990 H   0  0  0  0  0  0  0  0  0  0  0  0
  152.4663  145.2886  159.5564 H   0  0  0  0  0  0  0  0  0  0  0  0
  151.0696  144.7123  160.4790 H   0  0  0  0  0  0  0  0  0  0  0  0
  145.6448  140.6693  153.0804 H   0  0  0  0  0  0  0  0  0  0  0  0
  1  2  1  0  0  0  0
  1 23  1  0  0  0  0
  1 24  1  0  0  0  0
  1 25  1  0  0  0  0
  2 21  1  0  0  0  0
  2  3  2  0  0  0  0
  3  4  1  0  0  0  0
  3 26  1  0  0  0  0
  4 19  2  0  0  0  0
  4  5  1  0  0  0  0
  5  6  2  0  0  0  0
  6  7  1  0  0  0  0
  6 27  1  0  0  0  0
  7  8  1  0  0  0  0
  7 19  1  0  0  0  0
  8  9  1  0  0  0  0
  8 28  1  0  0  0  0
  8 29  1  0  0  0  0
  9 10  1  0  0  0  0
  9 11  1  0  0  0  0
  9 30  1  0  0  0  0
 10 31  1  0  0  0  0
 11 12  1  0  0  0  0
 11 32  1  0  0  0  0
 11 33  1  0  0  0  0
 12 18  1  0  0  0  0
 12 13  1  0  0  0  0
 12 48  1  0  0  0  0
 13 14  1  0  0  0  0
 13 34  1  0  0  0  0
 13 35  1  0  0  0  0
 14 15  1  0  0  0  0
 14 36  1  0  0  0  0
 14 37  1  0  0  0  0
 15 16  1  0  0  0  0
 15 38  1  0  0  0  0
 15 39  1  0  0  0  0
 16 17  1  0  0  0  0
 16 18  1  0  0  0  0
 16 40  1  0  0  0  0
 17 41  1  0  0  0  0
 18 42  1  0  0  0  0
 18 43  1  0  0  0  0
 19 20  1  0  0  0  0
 20 21  2  0  0  0  0
 20 44  1  0  0  0  0
 21 22  1  0  0  0  0
 22 45  1  0  0  0  0
 22 46  1  0  0  0  0
 22 47  1  0  0  0  0
M  CHG  1  12   1
M  END
> <s_m_source_file>
AV-unprocessed.smi

> <i_m_source_file_index>
1487

> <i_lp_mmshare_version>
43012

> <i_f3d_flags>
0

> <s_epik_input>
W0NIM11jKFtjSF0xKWMoW0NIM10pW2NIXWMoYzEyKW4oW2NIXW4yKVtDSDJdW0NASF0oW09IXSlbQ0gyXU4zW0NIMl1bQ0gyXVtDSDJdW0NAQEhdKFtPSF0pW0NIMl0z

> <s_epik_cmdline>
J2VwaWtfcHl0aG9uJywgJy1waCcsICc3LjAnLCAnLXRuJywgJzgnLCAnLW1hJywgJzIwMCcsICctbWV0YWxfYmluZGluZycsICctaW1hZScsICc8aW5maWxlLm1hZT4nLCAnLW9tYWUnLCAnPG91dGZpbGUubWFlPic=

> <r_epik_Ionization_Penalty>
0.0940186

> <r_epik_Ionization_Penalty_Charging>
0.00679686

> <r_epik_Ionization_Penalty_Neutral>
0.0872218

> <r_epik_State_Penalty>
0.0799311

> <r_epik_Charging_Adjusted_Penalty>
0.086728

> <i_epik_Tot_Q>
1

> <i_epik_Tot_abs_Q>
1

> <r_epik_Metal_State_Penalty>
7.95545e-05

> <b_epik_Metal_Only>
0

> <s_lp_Force_Field>
OPLS_2005

> <r_lp_Energy>
21.0759

> <b_lp_Chiralities_Consistent>
1

> <s_lp_Variant>
AV-unprocessed.smi:1487-8

> <Gold.Version>
5.8.1

> <Gold.Id.Protein>
6NUR|6NUR_protein|mol2

> <Gold.PLP.Fitness>
56.2112

> <Gold.PLP.PLP>
-44.8059

> <Gold.PLP.part.hbond>
-3.5417

> <Gold.PLP.part.metal>
0.0000

> <Gold.PLP.part.buried>
-1.8289

> <Gold.PLP.part.nonpolar>
-41.0418

> <Gold.PLP.part.repulsive>
0.0013

> <Gold.PLP.ligand.clash>
0.0000

> <Gold.PLP.ligand.torsion>
1.5658

> <Gold.PLP.Chemscore.Hbond>
4.8160

> <Gold.PLP.Chemscore.CHOScore>
0.0000

> <Gold.PLP.Chemscore.Metal>
0.0000

> <Gold.Chemscore.Hbonds>
donor molecule, donor type, donor heavy atom, donor atom, acceptor molecule, acceptor atom, score
      L1  H    10    31       P1  8028  0.76
      L1  H    12    48       P1 10175  1.89
      L1  H    17    41       P1  7948  0.81
      P1  H  7954  7966       L1    17  0.90

> <Gold.PLP.Chemscore.Internal.Correction>
0.0890

> <Gold.Rescore>
     Score         DG    S(hbond)    S(metal)    S(lipo)     H(rot)  DE(clash)    DE(int)     intcor
     17.52     -19.42       1.95        0.00     121.88       2.67       0.36       1.54       ----

> <Gold.Chemscore.Fitness>
17.5184

> <Gold.Chemscore.DG>
-19.4219

> <Gold.Chemscore.ZeroCoef>
-5.4800

> <Gold.Chemscore.Hbond>
1.9522

> <Gold.Chemscore.Metal>
0.0000

> <Gold.Chemscore.Lipo>
121.8784

> <Gold.Chemscore.Internal_Hbond>
0.0000

> <Gold.Chemscore.DEClash>
0.3623

> <Gold.Chemscore.DEInternal>
1.5412

> <Gold.Chemscore.Rot>
2.6712

> <Gold.Chemscore.Internal.Correction>
   9.000000E+99

> <Gold.Chemscore.Hbonds>
donor molecule, donor type, donor heavy atom, donor atom, acceptor molecule, acceptor atom, score
      L1  H    10    31       P1  8028  0.12
      L1  H    12    48       P1 10175  0.66
      L1  H    17    41       P1  7948  0.78
      P1  H  7954  7966       L1    17  0.17

> <Gold.Chemscore.Hbond.Weighted>
-6.5204

> <Gold.Chemscore.Metal.Weighted>
-0.0000

> <Gold.Chemscore.Lipo.Weighted>
-14.2598

> <Gold.Chemscore.Internal_Hbond.Weighted>
0.0000

> <Gold.Chemscore.DEClash.Weighted>
0.3623

> <Gold.Chemscore.DEInternal.Weighted>
1.5412

> <Gold.Chemscore.Rot.Weighted>
6.8383

> <Gold.Chemscore.Internal.Correction.Weighted>
   9.000000E+99

> <Gold.Protein.RotatedTorsions>
[ 6907 6896 6895 6894 ] final  -53.40 input  -60.11 | X-H torsion
[ 7974 7965 7964 7962 ] final  -46.66 input  175.53 | X-H torsion
[ 8008 7997 7996 7995 ] final   54.64 input   59.86 | X-H torsion
[ 10167 10162 10161 10158 ] final  140.99 input  -65.29 | X-H torsion
[ 10718 10713 10712 10709 ] final -179.26 input   66.30 | X-H torsion
[ 10763 10752 10751 10750 ] final  -47.98 input  -60.55 | X-H torsion
[ 11005 11000 10999 10996 ] final -161.15 input  -57.11 | X-H torsion

> <Gold.Protein.ActiveResidues>
 VAL166  LYS551  ARG553  GLY616  TRP617  ASP618  TYR619  PRO620  LYS621  CYS622 
 ASP623  PHE694  ASN695  SER759  ASP760  ASP761  ALA762  ILE779  LEU786  VAL792 
 PHE793  MET794  SER795  GLU796  ALA797  LYS798  CYS799  TRP800  GLU811  SER814 

> <Gold.Protein.RotatedAtoms>
  150.8430  134.7729  159.6947 H   0  0  0  0  0  0  0  0  0  0  0  0  # atno 6907 bound_to 6896
  152.4513  134.5383  159.9841 H   0  0  0  0  0  0  0  0  0  0  0  0  # atno 6908 bound_to 6896
  151.5519  133.3378  159.2990 H   0  0  0  0  0  0  0  0  0  0  0  0  # atno 6909 bound_to 6896
  145.9696  140.7397  142.9417 H   0  0  0  0  0  0  0  0  0  0  0  0  # atno 7974 bound_to 7965
  155.4881  140.3470  155.4350 H   0  0  0  0  0  0  0  0  0  0  0  0  # atno 8008 bound_to 7997
  156.0995  140.1431  156.9515 H   0  0  0  0  0  0  0  0  0  0  0  0  # atno 8009 bound_to 7997
  154.4684  140.0909  156.7060 H   0  0  0  0  0  0  0  0  0  0  0  0  # atno 8010 bound_to 7997
  139.5033  144.6200  151.6074 H   0  0  0  0  0  0  0  0  0  0  0  0  # atno 10167 bound_to 10162
  156.8564  130.9736  151.3087 H   0  0  0  0  0  0  0  0  0  0  0  0  # atno 10718 bound_to 10713
  154.0702  135.6605  153.4823 H   0  0  0  0  0  0  0  0  0  0  0  0  # atno 10763 bound_to 10752
  153.0393  135.5155  154.7574 H   0  0  0  0  0  0  0  0  0  0  0  0  # atno 10764 bound_to 10752
  154.6637  135.3019  154.9800 H   0  0  0  0  0  0  0  0  0  0  0  0  # atno 10765 bound_to 10752
  140.6236  134.4725  157.5225 H   0  0  0  0  0  0  0  0  0  0  0  0  # atno 11005 bound_to 11000
  144.6834  140.2726  143.7303 LP  0  0  0  0  0  0  0  0  0  0  0  0  # atno 17320 bound_to 7965
  145.7925  139.1932  143.2095 LP  0  0  0  0  0  0  0  0  0  0  0  0  # atno 17321 bound_to 7965
  140.5899  143.9798  150.6318 LP  0  0  0  0  0  0  0  0  0  0  0  0  # atno 17342 bound_to 10162
  140.2975  143.3283  152.1003 LP  0  0  0  0  0  0  0  0  0  0  0  0  # atno 17343 bound_to 10162
  157.6275  130.8703  149.9214 LP  0  0  0  0  0  0  0  0  0  0  0  0  # atno 17370 bound_to 10713
  156.0800  130.3674  150.0599 LP  0  0  0  0  0  0  0  0  0  0  0  0  # atno 17371 bound_to 10713
  139.9144  134.8278  156.1417 LP  0  0  0  0  0  0  0  0  0  0  0  0  # atno 17394 bound_to 11000
  141.0725  133.6790  156.2170 LP  0  0  0  0  0  0  0  0  0  0  0  0  # atno 17395 bound_to 11000

$$$$
