AV-unprocessed.smi:1055|AV-procd|sdf|4627|dock1
  -GOLD-   22720 3133D 1   1.00000     0.00000
 Structure written by MMmdl.
 51 52  0  0  0  0  0  0  0  0  2 V2000
  151.0692  142.1254  157.0016 C   0  0  0  0  0  0  0  0  0  0  0  0
  149.9564  142.4348  157.6876 C   0  0  0  0  0  0  0  0  0  0  0  0
  149.9636  143.4484  158.8167 C   0  0  0  0  0  0  0  0  0  0  0  0
  148.6144  141.7873  157.3849 C   0  0  0  0  0  0  0  0  0  0  0  0
  148.3476  141.7376  155.9259 N   0  3  2  0  0  0  0  0  0  0  0  0
  146.8968  141.6541  155.6215 C   0  0  0  0  0  0  0  0  0  0  0  0
  146.6386  141.7574  154.1070 C   0  0  0  0  0  0  0  0  0  0  0  0
  147.4236  140.6988  153.3132 C   0  0  2  0  0  0  0  0  0  0  0  0
  146.8519  139.3701  153.5306 N   0  0  0  0  0  0  0  0  0  0  0  0
  146.5787  138.4768  152.5686 C   0  0  0  0  0  0  0  0  0  0  0  0
  146.7999  138.6774  151.3749 O   0  0  0  0  0  0  0  0  0  0  0  0
  146.0226  137.3657  153.0806 N   0  0  0  0  0  0  0  0  0  0  0  0
  145.6179  136.1891  152.3948 C   0  0  0  0  0  0  0  0  0  0  0  0
  145.5441  134.9866  153.1232 C   0  0  0  0  0  0  0  0  0  0  0  0
  145.1643  133.8024  152.4637 C   0  0  0  0  0  0  0  0  0  0  0  0
  144.8746  133.8449  151.0773 C   0  0  0  0  0  0  0  0  0  0  0  0
  144.4867  132.6848  150.3684 N   0  0  0  0  0  0  0  0  0  0  0  0
  144.5052  131.3832  151.0242 C   0  0  0  0  0  0  0  0  0  0  0  0
  144.0945  132.7879  148.9664 C   0  0  0  0  0  0  0  0  0  0  0  0
  144.9628  135.0020  150.3763 N   0  0  0  0  0  0  0  0  0  0  0  0
  145.3244  136.1357  151.0124 C   0  0  0  0  0  0  0  0  0  0  0  0
  148.9146  140.7571  153.7024 C   0  0  0  0  0  0  0  0  0  0  0  0
  149.1183  140.6762  155.2253 C   0  0  0  0  0  0  0  0  0  0  0  0
  152.0166  142.5922  157.2298 H   0  0  0  0  0  0  0  0  0  0  0  0
  151.0518  141.4012  156.2003 H   0  0  0  0  0  0  0  0  0  0  0  0
  149.6242  142.9851  159.7435 H   0  0  0  0  0  0  0  0  0  0  0  0
  149.3015  144.2840  158.5879 H   0  0  0  0  0  0  0  0  0  0  0  0
  150.9641  143.8484  158.9851 H   0  0  0  0  0  0  0  0  0  0  0  0
  148.5650  140.7811  157.8046 H   0  0  0  0  0  0  0  0  0  0  0  0
  147.8452  142.3750  157.8879 H   0  0  0  0  0  0  0  0  0  0  0  0
  146.4936  140.7195  156.0148 H   0  0  0  0  0  0  0  0  0  0  0  0
  146.3688  142.4629  156.1283 H   0  0  0  0  0  0  0  0  0  0  0  0
  145.5709  141.6713  153.9010 H   0  0  0  0  0  0  0  0  0  0  0  0
  146.9328  142.7505  153.7643 H   0  0  0  0  0  0  0  0  0  0  0  0
  147.3284  140.9335  152.2513 H   0  0  0  0  0  0  0  0  0  0  0  0
  146.6267  139.1206  154.4825 H   0  0  0  0  0  0  0  0  0  0  0  0
  145.8144  137.3839  154.0683 H   0  0  0  0  0  0  0  0  0  0  0  0
  145.7703  134.9683  154.1794 H   0  0  0  0  0  0  0  0  0  0  0  0
  145.1030  132.8883  153.0344 H   0  0  0  0  0  0  0  0  0  0  0  0
  145.5101  131.1439  151.3733 H   0  0  0  0  0  0  0  0  0  0  0  0
  144.1928  130.5911  150.3433 H   0  0  0  0  0  0  0  0  0  0  0  0
  143.8267  131.3737  151.8776 H   0  0  0  0  0  0  0  0  0  0  0  0
  144.9244  133.1576  148.3633 H   0  0  0  0  0  0  0  0  0  0  0  0
  143.2522  133.4714  148.8525 H   0  0  0  0  0  0  0  0  0  0  0  0
  143.7943  131.8204  148.5641 H   0  0  0  0  0  0  0  0  0  0  0  0
  145.3961  137.0059  150.3787 H   0  0  0  0  0  0  0  0  0  0  0  0
  149.4750  139.9630  153.2076 H   0  0  0  0  0  0  0  0  0  0  0  0
  149.3404  141.6932  153.3384 H   0  0  0  0  0  0  0  0  0  0  0  0
  150.1815  140.7768  155.4439 H   0  0  0  0  0  0  0  0  0  0  0  0
  148.8137  139.6963  155.5964 H   0  0  0  0  0  0  0  0  0  0  0  0
  148.6624  142.6219  155.5527 H   0  0  0  0  0  0  0  0  0  0  0  0
  1  2  2  0  0  0  0
  1 24  1  0  0  0  0
  1 25  1  0  0  0  0
  2  3  1  0  0  0  0
  2  4  1  0  0  0  0
  3 26  1  0  0  0  0
  3 27  1  0  0  0  0
  3 28  1  0  0  0  0
  4  5  1  0  0  0  0
  4 29  1  0  0  0  0
  4 30  1  0  0  0  0
  5 23  1  0  0  0  0
  5  6  1  0  0  0  0
  5 51  1  0  0  0  0
  6  7  1  0  0  0  0
  6 31  1  0  0  0  0
  6 32  1  0  0  0  0
  7  8  1  0  0  0  0
  7 33  1  0  0  0  0
  7 34  1  0  0  0  0
  8  9  1  0  0  0  0
  8 22  1  0  0  0  0
  8 35  1  0  0  0  0
  9 10  1  0  0  0  0
  9 36  1  0  0  0  0
 10 11  2  0  0  0  0
 10 12  1  0  0  0  0
 12 13  1  0  0  0  0
 12 37  1  0  0  0  0
 13 21  1  0  0  0  0
 13 14  2  0  0  0  0
 14 15  1  0  0  0  0
 14 38  1  0  0  0  0
 15 16  2  0  0  0  0
 15 39  1  0  0  0  0
 16 17  1  0  0  0  0
 16 20  1  0  0  0  0
 17 18  1  0  0  0  0
 17 19  1  0  0  0  0
 18 40  1  0  0  0  0
 18 41  1  0  0  0  0
 18 42  1  0  0  0  0
 19 43  1  0  0  0  0
 19 44  1  0  0  0  0
 19 45  1  0  0  0  0
 20 21  2  0  0  0  0
 21 46  1  0  0  0  0
 22 23  1  0  0  0  0
 22 47  1  0  0  0  0
 22 48  1  0  0  0  0
 23 49  1  0  0  0  0
 23 50  1  0  0  0  0
M  CHG  1   5   1
M  END
> <s_m_source_file>
AV-unprocessed.smi

> <i_m_source_file_index>
1055

> <i_lp_mmshare_version>
43012

> <i_f3d_flags>
0

> <s_epik_input>
W0NIMl09QyhbQ0gzXSlbQ0gyXU4xW0NIMl1bQ0gyXVtDSF0oW0NIMl1bQ0gyXTEpW05IXUMoPU8pW05IXWMyW2NIXVtjSF1jKE4oW0NIM10pW0NIM10pbltjSF0y

> <s_epik_cmdline>
J2VwaWtfcHl0aG9uJywgJy1waCcsICc3LjAnLCAnLXRuJywgJzgnLCAnLW1hJywgJzIwMCcsICctbWV0YWxfYmluZGluZycsICctaW1hZScsICc8aW5maWxlLm1hZT4nLCAnLW9tYWUnLCAnPG91dGZpbGUubWFlPic=

> <r_lp_tautomer_probability>
1

> <r_epik_Ionization_Penalty>
0.534133

> <r_epik_Ionization_Penalty_Charging>
0.0193505

> <r_epik_Ionization_Penalty_Neutral>
0.514782

> <r_epik_State_Penalty>
0.557749

> <r_epik_Charging_Adjusted_Penalty>
0.5771

> <i_epik_Tot_Q>
1

> <i_epik_Tot_abs_Q>
1

> <r_epik_Metal_State_Penalty>
0.306227

> <b_epik_Metal_Only>
0

> <s_lp_Force_Field>
OPLS_2005

> <r_lp_Energy>
19.9376

> <b_lp_Chiralities_Consistent>
1

> <s_lp_Variant>
AV-unprocessed.smi:1055-4

> <Gold.Version>
5.8.1

> <Gold.Id.Protein>
6NUR|6NUR_protein|mol2

> <Gold.PLP.Fitness>
47.7891

> <Gold.PLP.PLP>
-37.8356

> <Gold.PLP.part.hbond>
-1.8310

> <Gold.PLP.part.metal>
0.0000

> <Gold.PLP.part.buried>
-0.8661

> <Gold.PLP.part.nonpolar>
-36.1854

> <Gold.PLP.part.repulsive>
1.8808

> <Gold.PLP.ligand.clash>
0.0000

> <Gold.PLP.ligand.torsion>
0.6869

> <Gold.PLP.Chemscore.Hbond>
2.6988

> <Gold.PLP.Chemscore.CHOScore>
1.0000

> <Gold.PLP.Chemscore.Metal>
0.0000

> <Gold.Chemscore.Hbonds>
donor molecule, donor type, donor heavy atom, donor atom, acceptor molecule, acceptor atom, score
      L1  H     5    51       P1  8028  1.62
      P1  H  7954  7966       L1    11  0.67
      L1  C    21    46       P1 10171  1.00

> <Gold.PLP.Chemscore.Internal.Correction>
0.2311

> <Gold.Rescore>
     Score         DG    S(hbond)    S(metal)    S(lipo)     H(rot)  DE(clash)    DE(int)     intcor
     12.71     -16.04       1.00        0.00      90.86       1.33       0.46       2.86       ----

> <Gold.Chemscore.Fitness>
12.7141

> <Gold.Chemscore.DG>
-16.0391

> <Gold.Chemscore.ZeroCoef>
-5.4800

> <Gold.Chemscore.Hbond>
0.9953

> <Gold.Chemscore.Metal>
0.0000

> <Gold.Chemscore.Lipo>
90.8616

> <Gold.Chemscore.Internal_Hbond>
0.0000

> <Gold.Chemscore.DEClash>
0.4605

> <Gold.Chemscore.DEInternal>
2.8645

> <Gold.Chemscore.Rot>
1.3266

> <Gold.Chemscore.Internal.Correction>
   9.000000E+99

> <Gold.Chemscore.Hbonds>
donor molecule, donor type, donor heavy atom, donor atom, acceptor molecule, acceptor atom, score
      L1  H     5    51       P1  8028  0.77
      P1  H  7954  7966       L1    11  0.65

> <Gold.Chemscore.Hbond.Weighted>
-3.3245

> <Gold.Chemscore.Metal.Weighted>
-0.0000

> <Gold.Chemscore.Lipo.Weighted>
-10.6308

> <Gold.Chemscore.Internal_Hbond.Weighted>
0.0000

> <Gold.Chemscore.DEClash.Weighted>
0.4605

> <Gold.Chemscore.DEInternal.Weighted>
2.8645

> <Gold.Chemscore.Rot.Weighted>
3.3962

> <Gold.Chemscore.Internal.Correction.Weighted>
   9.000000E+99

> <Gold.Protein.RotatedTorsions>
[ 6907 6896 6895 6894 ] final  156.96 input  -60.11 | X-H torsion
[ 7974 7965 7964 7962 ] final  102.44 input  175.53 | X-H torsion
[ 8008 7997 7996 7995 ] final -124.64 input   59.86 | X-H torsion
[ 10167 10162 10161 10158 ] final -135.47 input  -65.29 | X-H torsion
[ 10718 10713 10712 10709 ] final -146.63 input   66.30 | X-H torsion
[ 10763 10752 10751 10750 ] final   65.48 input  -60.55 | X-H torsion
[ 11005 11000 10999 10996 ] final  130.70 input  -57.11 | X-H torsion

> <Gold.Protein.ActiveResidues>
 VAL166  LYS551  ARG553  GLY616  TRP617  ASP618  TYR619  PRO620  LYS621  CYS622 
 ASP623  PHE694  ASN695  SER759  ASP760  ASP761  ALA762  ILE779  LEU786  VAL792 
 PHE793  MET794  SER795  GLU796  ALA797  LYS798  CYS799  TRP800  GLU811  SER814 

> <Gold.Protein.RotatedAtoms>
  152.0220  133.3902  159.4261 H   0  0  0  0  0  0  0  0  0  0  0  0  # atno 6907 bound_to 6896
  150.6889  134.3615  159.4962 H   0  0  0  0  0  0  0  0  0  0  0  0  # atno 6908 bound_to 6896
  152.1390  134.9077  160.0605 H   0  0  0  0  0  0  0  0  0  0  0  0  # atno 6909 bound_to 6896
  145.3591  139.2422  143.3516 H   0  0  0  0  0  0  0  0  0  0  0  0  # atno 7974 bound_to 7965
  155.2002  140.0415  157.2916 H   0  0  0  0  0  0  0  0  0  0  0  0  # atno 8008 bound_to 7997
  154.6080  140.2469  155.7678 H   0  0  0  0  0  0  0  0  0  0  0  0  # atno 8009 bound_to 7997
  156.2362  140.2921  156.0327 H   0  0  0  0  0  0  0  0  0  0  0  0  # atno 8010 bound_to 7997
  139.8776  143.6879  152.2631 H   0  0  0  0  0  0  0  0  0  0  0  0  # atno 10167 bound_to 10162
  156.3973  130.7916  151.2124 H   0  0  0  0  0  0  0  0  0  0  0  0  # atno 10718 bound_to 10713
  153.0098  135.5355  154.6674 H   0  0  0  0  0  0  0  0  0  0  0  0  # atno 10763 bound_to 10752
  154.5868  135.2855  155.0679 H   0  0  0  0  0  0  0  0  0  0  0  0  # atno 10764 bound_to 10752
  154.1787  135.6520  153.5081 H   0  0  0  0  0  0  0  0  0  0  0  0  # atno 10765 bound_to 10752
  139.9687  134.9583  156.9331 H   0  0  0  0  0  0  0  0  0  0  0  0  # atno 11005 bound_to 11000
  146.2935  140.4222  142.8730 LP  0  0  0  0  0  0  0  0  0  0  0  0  # atno 17320 bound_to 7965
  144.8660  140.7206  143.6077 LP  0  0  0  0  0  0  0  0  0  0  0  0  # atno 17321 bound_to 7965
  139.7226  144.7599  151.0931 LP  0  0  0  0  0  0  0  0  0  0  0  0  # atno 17342 bound_to 10162
  140.7750  143.5188  150.9561 LP  0  0  0  0  0  0  0  0  0  0  0  0  # atno 17343 bound_to 10162
  157.7502  131.0297  150.4106 LP  0  0  0  0  0  0  0  0  0  0  0  0  # atno 17370 bound_to 10713
  156.4379  130.3985  149.6717 LP  0  0  0  0  0  0  0  0  0  0  0  0  # atno 17371 bound_to 10713
  140.5340  134.0785  155.7323 LP  0  0  0  0  0  0  0  0  0  0  0  0  # atno 17394 bound_to 11000
  141.1367  133.9210  157.2418 LP  0  0  0  0  0  0  0  0  0  0  0  0  # atno 17395 bound_to 11000

$$$$
