AV-unprocessed.smi:3250|AV-procd|sdf|12433|dock3
  -GOLD-   2272018323D 1   1.00000     0.00000
 Structure written by MMmdl.
 40 41  0  0  0  0  0  0  0  0  3 V2000
  143.7722  132.7166  148.8452 C   0  0  0  0  0  0  0  0  0  0  0  0
  144.4730  133.9089  149.5115 C   0  0  0  0  0  0  0  0  0  0  0  0
  143.7773  134.3657  150.7443 N   0  3  1  0  0  0  0  0  0  0  0  0
  144.0336  133.4997  151.9210 C   0  0  0  0  0  0  0  0  0  0  0  0
  145.4173  133.7863  152.5310 C   0  0  0  0  0  0  0  0  0  0  0  0
  145.5095  135.1651  152.8687 O   0  0  0  0  0  0  0  0  0  0  0  0
  145.3854  136.0187  151.7348 C   0  0  2  0  0  0  0  0  0  0  0  0
  145.5605  137.4680  152.2107 C   0  0  0  0  0  0  0  0  0  0  0  0
  146.9080  137.7133  152.7025 N   0  0  0  0  0  0  0  0  0  0  0  0
  147.3202  138.9107  153.2571 C   0  0  0  0  0  0  0  0  0  0  0  0
  146.4165  139.8981  153.3426 N   0  3  0  0  0  0  0  0  0  0  0  0
  146.7711  141.0911  153.8802 C   0  0  0  0  0  0  0  0  0  0  0  0
  148.0813  141.2984  154.3475 C   0  0  0  0  0  0  0  0  0  0  0  0
  148.9782  140.2244  154.2255 C   0  0  0  0  0  0  0  0  0  0  0  0
  150.2790  140.3725  154.6608 O   0  0  0  0  0  0  0  0  0  0  0  0
  150.5327  141.2662  155.7393 C   0  0  0  0  0  0  0  0  0  0  0  0
  148.5838  139.0468  153.6844 N   0  0  0  0  0  0  0  0  0  0  0  0
  143.9965  135.7927  151.0967 C   0  0  0  0  0  0  0  0  0  0  0  0
  144.3671  132.3418  148.0120 H   0  0  0  0  0  0  0  0  0  0  0  0
  142.7945  132.9848  148.4457 H   0  0  0  0  0  0  0  0  0  0  0  0
  143.6367  131.8945  149.5489 H   0  0  0  0  0  0  0  0  0  0  0  0
  145.4821  133.5900  149.7754 H   0  0  0  0  0  0  0  0  0  0  0  0
  144.5895  134.7265  148.8001 H   0  0  0  0  0  0  0  0  0  0  0  0
  143.2636  133.6984  152.6676 H   0  0  0  0  0  0  0  0  0  0  0  0
  143.9364  132.4464  151.6551 H   0  0  0  0  0  0  0  0  0  0  0  0
  145.5563  133.1941  153.4356 H   0  0  0  0  0  0  0  0  0  0  0  0
  146.2196  133.5095  151.8458 H   0  0  0  0  0  0  0  0  0  0  0  0
  146.1693  135.7883  151.0116 H   0  0  0  0  0  0  0  0  0  0  0  0
  145.3718  138.1522  151.3826 H   0  0  0  0  0  0  0  0  0  0  0  0
  144.8347  137.7008  152.9910 H   0  0  0  0  0  0  0  0  0  0  0  0
  147.5906  136.9734  152.6241 H   0  0  0  0  0  0  0  0  0  0  0  0
  145.9944  141.8409  153.9183 H   0  0  0  0  0  0  0  0  0  0  0  0
  148.3846  142.2415  154.7786 H   0  0  0  0  0  0  0  0  0  0  0  0
  151.5980  141.2595  155.9705 H   0  0  0  0  0  0  0  0  0  0  0  0
  149.9976  140.9646  156.6410 H   0  0  0  0  0  0  0  0  0  0  0  0
  150.2559  142.2900  155.4838 H   0  0  0  0  0  0  0  0  0  0  0  0
  143.8606  136.4352  150.2278 H   0  0  0  0  0  0  0  0  0  0  0  0
  143.2221  136.0840  151.8079 H   0  0  0  0  0  0  0  0  0  0  0  0
  142.7927  134.2664  150.5401 H   0  0  0  0  0  0  0  0  0  0  0  0
  145.4617  139.7658  153.0081 H   0  0  0  0  0  0  0  0  0  0  0  0
  1  2  1  0  0  0  0
  1 19  1  0  0  0  0
  1 20  1  0  0  0  0
  1 21  1  0  0  0  0
  2  3  1  0  0  0  0
  2 22  1  0  0  0  0
  2 23  1  0  0  0  0
  3 18  1  0  0  0  0
  3  4  1  0  0  0  0
  3 39  1  0  0  0  0
  4  5  1  0  0  0  0
  4 24  1  0  0  0  0
  4 25  1  0  0  0  0
  5  6  1  0  0  0  0
  5 26  1  0  0  0  0
  5 27  1  0  0  0  0
  6  7  1  0  0  0  0
  7  8  1  0  0  0  0
  7 18  1  0  0  0  0
  7 28  1  0  0  0  0
  8  9  1  0  0  0  0
  8 29  1  0  0  0  0
  8 30  1  0  0  0  0
  9 10  1  0  0  0  0
  9 31  1  0  0  0  0
 10 17  1  0  0  0  0
 10 11  2  0  0  0  0
 11 12  1  0  0  0  0
 11 40  1  0  0  0  0
 12 13  2  0  0  0  0
 12 32  1  0  0  0  0
 13 14  1  0  0  0  0
 13 33  1  0  0  0  0
 14 15  1  0  0  0  0
 14 17  2  0  0  0  0
 15 16  1  0  0  0  0
 16 34  1  0  0  0  0
 16 35  1  0  0  0  0
 16 36  1  0  0  0  0
 18 37  1  0  0  0  0
 18 38  1  0  0  0  0
M  CHG  1   3   1
M  CHG  1  11   1
M  END
> <s_m_source_file>
AV-unprocessed.smi

> <i_m_source_file_index>
3250

> <i_lp_mmshare_version>
43012

> <i_f3d_flags>
0

> <s_epik_input>
W0NIM11bQ0gyXU4xW0NIMl1bQ0gyXU9bQ0BIXShbQ0gyXTEpW0NIMl1bTkhdYzJuW2NIXVtjSF1jKG4yKU9bQ0gzXQ==

> <s_epik_cmdline>
J2VwaWtfcHl0aG9uJywgJy1waCcsICc3LjAnLCAnLXRuJywgJzgnLCAnLW1hJywgJzIwMCcsICctbWV0YWxfYmluZGluZycsICctaW1hZScsICc8aW5maWxlLm1hZT4nLCAnLW9tYWUnLCAnPG91dGZpbGUubWFlPic=

> <r_lp_tautomer_probability>
0.999985

> <r_epik_Ionization_Penalty>
2.24691

> <r_epik_Ionization_Penalty_Charging>
2.24686

> <r_epik_Ionization_Penalty_Neutral>
4.52111e-05

> <r_epik_State_Penalty>
2.24709

> <r_epik_Charging_Adjusted_Penalty>
4.49395

> <i_epik_Tot_Q>
2

> <i_epik_Tot_abs_Q>
2

> <r_epik_Metal_State_Penalty>
2.26327

> <b_epik_Metal_Only>
0

> <s_lp_Force_Field>
OPLS_2005

> <r_lp_Energy>
20.5595

> <b_lp_Chiralities_Consistent>
1

> <s_lp_Variant>
AV-unprocessed.smi:3250-9

> <Gold.Version>
5.8.1

> <Gold.Id.Protein>
6NUR|6NUR_protein|mol2

> <Gold.PLP.Fitness>
49.4525

> <Gold.PLP.PLP>
-29.7669

> <Gold.PLP.part.hbond>
-4.0000

> <Gold.PLP.part.metal>
0.0000

> <Gold.PLP.part.buried>
-0.2612

> <Gold.PLP.part.nonpolar>
-27.1545

> <Gold.PLP.part.repulsive>
1.7127

> <Gold.PLP.ligand.clash>
0.0000

> <Gold.PLP.ligand.torsion>
0.6166

> <Gold.PLP.Chemscore.Hbond>
6.9665

> <Gold.PLP.Chemscore.CHOScore>
0.0000

> <Gold.PLP.Chemscore.Metal>
0.0000

> <Gold.Chemscore.Hbonds>
donor molecule, donor type, donor heavy atom, donor atom, acceptor molecule, acceptor atom, score
      L1  H     3    39       P1 10186  1.95
      L1  H     9    31       P1  7948  2.00
      L1  H    11    40       P1 10175  2.00
      P1  H  7989  7998       L1    15  1.00

> <Gold.PLP.Chemscore.Internal.Correction>
0.0192

> <Gold.Rescore>
     Score         DG    S(hbond)    S(metal)    S(lipo)     H(rot)  DE(clash)    DE(int)     intcor
     16.77     -19.20       3.05        0.00      68.65       1.75       1.89       0.54       ----

> <Gold.Chemscore.Fitness>
16.7684

> <Gold.Chemscore.DG>
-19.1964

> <Gold.Chemscore.ZeroCoef>
-5.4800

> <Gold.Chemscore.Hbond>
3.0456

> <Gold.Chemscore.Metal>
0.0000

> <Gold.Chemscore.Lipo>
68.6464

> <Gold.Chemscore.Internal_Hbond>
0.0000

> <Gold.Chemscore.DEClash>
1.8882

> <Gold.Chemscore.DEInternal>
0.5397

> <Gold.Chemscore.Rot>
1.7530

> <Gold.Chemscore.Internal.Correction>
   9.000000E+99

> <Gold.Chemscore.Hbonds>
donor molecule, donor type, donor heavy atom, donor atom, acceptor molecule, acceptor atom, score
      L1  H     3    39       P1 10186  0.64
      L1  H     9    31       P1  7948  0.95
      L1  H    11    40       P1 10175  0.94
      P1  H  7989  7998       L1    15  0.24

> <Gold.Chemscore.Hbond.Weighted>
-10.1724

> <Gold.Chemscore.Metal.Weighted>
-0.0000

> <Gold.Chemscore.Lipo.Weighted>
-8.0316

> <Gold.Chemscore.Internal_Hbond.Weighted>
0.0000

> <Gold.Chemscore.DEClash.Weighted>
1.8882

> <Gold.Chemscore.DEInternal.Weighted>
0.5397

> <Gold.Chemscore.Rot.Weighted>
4.4876

> <Gold.Chemscore.Internal.Correction.Weighted>
   9.000000E+99

> <Gold.Protein.RotatedTorsions>
[ 6907 6896 6895 6894 ] final -123.67 input  -60.11 | X-H torsion
[ 7974 7965 7964 7962 ] final  131.52 input  175.53 | X-H torsion
[ 8008 7997 7996 7995 ] final  167.71 input   59.86 | X-H torsion
[ 10167 10162 10161 10158 ] final   58.76 input  -65.29 | X-H torsion
[ 10718 10713 10712 10709 ] final -164.50 input   66.30 | X-H torsion
[ 10763 10752 10751 10750 ] final  143.31 input  -60.55 | X-H torsion
[ 11005 11000 10999 10996 ] final    2.96 input  -57.11 | X-H torsion

> <Gold.Protein.ActiveResidues>
 VAL166  LYS551  ARG553  GLY616  TRP617  ASP618  TYR619  PRO620  LYS621  CYS622 
 ASP623  PHE694  ASN695  SER759  ASP760  ASP761  ALA762  ILE779  LEU786  VAL792 
 PHE793  MET794  SER795  GLU796  ALA797  LYS798  CYS799  TRP800  GLU811  SER814 

> <Gold.Protein.RotatedAtoms>
  150.8693  133.7529  159.2966 H   0  0  0  0  0  0  0  0  0  0  0  0  # atno 6907 bound_to 6896
  151.5146  135.1064  159.9872 H   0  0  0  0  0  0  0  0  0  0  0  0  # atno 6908 bound_to 6896
  152.4684  133.7929  159.6967 H   0  0  0  0  0  0  0  0  0  0  0  0  # atno 6909 bound_to 6896
  145.0064  139.4262  143.5266 H   0  0  0  0  0  0  0  0  0  0  0  0  # atno 7974 bound_to 7965
  156.1610  140.1610  156.8612 H   0  0  0  0  0  0  0  0  0  0  0  0  # atno 8008 bound_to 7997
  154.5161  140.0789  156.8119 H   0  0  0  0  0  0  0  0  0  0  0  0  # atno 8009 bound_to 7997
  155.3707  140.3400  155.4245 H   0  0  0  0  0  0  0  0  0  0  0  0  # atno 8010 bound_to 7997
  140.1837  144.4155  150.6603 H   0  0  0  0  0  0  0  0  0  0  0  0  # atno 10167 bound_to 10162
  156.6399  130.8964  151.2994 H   0  0  0  0  0  0  0  0  0  0  0  0  # atno 10718 bound_to 10713
  153.9702  135.2951  155.3428 H   0  0  0  0  0  0  0  0  0  0  0  0  # atno 10763 bound_to 10752
  154.7327  135.5060  153.8993 H   0  0  0  0  0  0  0  0  0  0  0  0  # atno 10764 bound_to 10752
  153.0904  135.6706  153.9978 H   0  0  0  0  0  0  0  0  0  0  0  0  # atno 10765 bound_to 10752
  140.5984  133.9859  155.8120 H   0  0  0  0  0  0  0  0  0  0  0  0  # atno 11005 bound_to 11000
  146.3462  139.9482  142.8732 LP  0  0  0  0  0  0  0  0  0  0  0  0  # atno 17320 bound_to 7965
  145.2083  140.9884  143.4116 LP  0  0  0  0  0  0  0  0  0  0  0  0  # atno 17321 bound_to 7965
  140.6502  143.2223  151.6094 LP  0  0  0  0  0  0  0  0  0  0  0  0  # atno 17342 bound_to 10162
  139.5285  144.2987  152.1092 LP  0  0  0  0  0  0  0  0  0  0  0  0  # atno 17343 bound_to 10162
  157.7174  130.9514  150.1307 LP  0  0  0  0  0  0  0  0  0  0  0  0  # atno 17370 bound_to 10713
  156.2167  130.3671  149.8605 LP  0  0  0  0  0  0  0  0  0  0  0  0  # atno 17371 bound_to 10713
  141.0888  133.9948  157.3270 LP  0  0  0  0  0  0  0  0  0  0  0  0  # atno 17394 bound_to 11000
  139.9243  135.0201  156.8178 LP  0  0  0  0  0  0  0  0  0  0  0  0  # atno 17395 bound_to 11000

$$$$
