AV-unprocessed.smi:2243|AV-procd|sdf|9064|dock4
  -GOLD-   2272012273D 1   1.00000     0.00000
 Structure written by MMmdl.
 35 36  0  0  0  0  0  0  0  0  2 V2000
  146.4208  141.4090  154.3536 C   0  0  0  0  0  0  0  0  0  0  0  0
  147.6216  140.9135  153.5293 C   0  0  2  0  0  0  0  0  0  0  0  0
  147.1295  139.9350  152.5582 N   0  0  0  0  0  0  0  0  0  0  0  0
  146.6215  138.7262  152.8461 C   0  0  0  0  0  0  0  0  0  0  0  0
  146.4970  138.2869  153.9897 O   0  0  0  0  0  0  0  0  0  0  0  0
  146.2666  138.0636  151.7346 N   0  0  0  0  0  0  0  0  0  0  0  0
  145.6995  136.7690  151.6921 C   0  0  0  0  0  0  0  0  0  0  0  0
  146.4115  135.6453  151.6208 N   0  3  0  0  0  0  0  0  0  0  0  0
  145.5487  134.5776  151.5970 C   0  0  0  0  0  0  0  0  0  0  0  0
  144.2858  135.1164  151.6577 C   0  0  0  0  0  0  0  0  0  0  0  0
  144.3643  136.4934  151.7180 O   0  0  0  0  0  0  0  0  0  0  0  0
  148.7520  140.2995  154.3982 C   0  0  0  0  0  0  0  0  0  0  0  0
  149.6825  141.3718  155.0017 C   0  0  0  0  0  0  0  0  0  0  0  0
  150.8384  140.7338  155.7894 C   0  0  0  0  0  0  0  0  0  0  0  0
  151.5712  139.8502  154.9505 O   0  0  0  0  0  0  0  0  0  0  0  0
  150.7827  138.7664  154.4761 C   0  0  0  0  0  0  0  0  0  0  0  0
  149.6251  139.2958  153.6145 C   0  0  0  0  0  0  0  0  0  0  0  0
  146.6928  142.2376  155.0068 H   0  0  0  0  0  0  0  0  0  0  0  0
  146.0077  140.6135  154.9746 H   0  0  0  0  0  0  0  0  0  0  0  0
  145.6229  141.7705  153.7037 H   0  0  0  0  0  0  0  0  0  0  0  0
  148.0339  141.7778  153.0057 H   0  0  0  0  0  0  0  0  0  0  0  0
  147.1888  140.2045  151.5870 H   0  0  0  0  0  0  0  0  0  0  0  0
  147.4189  135.5500  151.5879 H   0  0  0  0  0  0  0  0  0  0  0  0
  145.9115  133.5613  151.5407 H   0  0  0  0  0  0  0  0  0  0  0  0
  143.2925  134.6917  151.6668 H   0  0  0  0  0  0  0  0  0  0  0  0
  148.2874  139.7585  155.2241 H   0  0  0  0  0  0  0  0  0  0  0  0
  150.0906  141.9971  154.2066 H   0  0  0  0  0  0  0  0  0  0  0  0
  149.1306  142.0336  155.6684 H   0  0  0  0  0  0  0  0  0  0  0  0
  151.5124  141.5086  156.1553 H   0  0  0  0  0  0  0  0  0  0  0  0
  150.4651  140.1985  156.6638 H   0  0  0  0  0  0  0  0  0  0  0  0
  151.4161  138.1043  153.8853 H   0  0  0  0  0  0  0  0  0  0  0  0
  150.4063  138.1801  155.3161 H   0  0  0  0  0  0  0  0  0  0  0  0
  149.0303  138.4506  153.2683 H   0  0  0  0  0  0  0  0  0  0  0  0
  150.0291  139.7776  152.7231 H   0  0  0  0  0  0  0  0  0  0  0  0
  146.4143  138.5217  150.8475 H   0  0  0  0  0  0  0  0  0  0  0  0
  1  2  1  0  0  0  0
  1 18  1  0  0  0  0
  1 19  1  0  0  0  0
  1 20  1  0  0  0  0
  2  3  1  0  0  0  0
  2 12  1  0  0  0  0
  2 21  1  0  0  0  0
  3 22  1  0  0  0  0
  3  4  1  0  0  0  0
  4  6  1  0  0  0  0
  4  5  2  0  0  0  0
  6  7  1  0  0  0  0
  6 35  1  0  0  0  0
  7 11  1  0  0  0  0
  7  8  2  0  0  0  0
  8 23  1  0  0  0  0
  8  9  1  0  0  0  0
  9 24  1  0  0  0  0
  9 10  2  0  0  0  0
 10 25  1  0  0  0  0
 10 11  1  0  0  0  0
 12 17  1  0  0  0  0
 12 13  1  0  0  0  0
 12 26  1  0  0  0  0
 13 14  1  0  0  0  0
 13 27  1  0  0  0  0
 13 28  1  0  0  0  0
 14 15  1  0  0  0  0
 14 29  1  0  0  0  0
 14 30  1  0  0  0  0
 15 16  1  0  0  0  0
 16 17  1  0  0  0  0
 16 31  1  0  0  0  0
 16 32  1  0  0  0  0
 17 33  1  0  0  0  0
 17 34  1  0  0  0  0
M  CHG  1   8   1
M  END
> <s_m_source_file>
AV-unprocessed.smi

> <i_m_source_file_index>
2243

> <i_lp_mmshare_version>
43012

> <i_f3d_flags>
0

> <s_epik_input>
W0NIMl0xW0NIMl1PW0NIMl1bQ0gyXVtDSF0xW0NASF0oW0NIM10pW05IXUMoPU8pW05IXWMybltjSF1bY0hdbzI=

> <s_epik_cmdline>
J2VwaWtfcHl0aG9uJywgJy1waCcsICc3LjAnLCAnLXRuJywgJzgnLCAnLW1hJywgJzIwMCcsICctbWV0YWxfYmluZGluZycsICctaW1hZScsICc8aW5maWxlLm1hZT4nLCAnLW9tYWUnLCAnPG91dGZpbGUubWFlPic=

> <r_epik_Ionization_Penalty>
6.61405

> <r_epik_Ionization_Penalty_Charging>
6.55981

> <r_epik_Ionization_Penalty_Neutral>
0.0542461

> <r_epik_State_Penalty>
1.79186

> <r_epik_Charging_Adjusted_Penalty>
8.35167

> <i_epik_Tot_Q>
1

> <i_epik_Tot_abs_Q>
1

> <r_epik_Metal_State_Penalty>
1.80655

> <b_epik_Metal_Only>
0

> <s_lp_Force_Field>
OPLS_2005

> <r_lp_Energy>
19.6033

> <b_lp_Chiralities_Consistent>
1

> <s_lp_Variant>
AV-unprocessed.smi:2243-3

> <Gold.Version>
5.8.1

> <Gold.Id.Protein>
6NUR|6NUR_protein|mol2

> <Gold.PLP.Fitness>
36.1253

> <Gold.PLP.PLP>
-29.7399

> <Gold.PLP.part.hbond>
-4.0510

> <Gold.PLP.part.metal>
0.0000

> <Gold.PLP.part.buried>
-0.8997

> <Gold.PLP.part.nonpolar>
-26.8387

> <Gold.PLP.part.repulsive>
1.9070

> <Gold.PLP.ligand.clash>
0.0000

> <Gold.PLP.ligand.torsion>
1.3029

> <Gold.PLP.Chemscore.Hbond>
2.9918

> <Gold.PLP.Chemscore.CHOScore>
0.0000

> <Gold.PLP.Chemscore.Metal>
0.0000

> <Gold.Chemscore.Hbonds>
donor molecule, donor type, donor heavy atom, donor atom, acceptor molecule, acceptor atom, score
      L1  H     8    23       P1  7948  2.00
      P1  H  7989  7998       L1    15  0.95

> <Gold.PLP.Chemscore.Internal.Correction>
0.0157

> <Gold.Rescore>
     Score         DG    S(hbond)    S(metal)    S(lipo)     H(rot)  DE(clash)    DE(int)     intcor
      9.39     -11.51       0.92        0.00      54.29       1.33       0.14       1.98       ----

> <Gold.Chemscore.Fitness>
9.3927

> <Gold.Chemscore.DG>
-11.5110

> <Gold.Chemscore.ZeroCoef>
-5.4800

> <Gold.Chemscore.Hbond>
0.9249

> <Gold.Chemscore.Metal>
0.0000

> <Gold.Chemscore.Lipo>
54.2914

> <Gold.Chemscore.Internal_Hbond>
0.0000

> <Gold.Chemscore.DEClash>
0.1351

> <Gold.Chemscore.DEInternal>
1.9832

> <Gold.Chemscore.Rot>
1.3321

> <Gold.Chemscore.Internal.Correction>
   9.000000E+99

> <Gold.Chemscore.Hbonds>
donor molecule, donor type, donor heavy atom, donor atom, acceptor molecule, acceptor atom, score
      L1  H     3    22       P1  7957  0.01
      L1  H     8    23       P1  7948  0.92
      P1  H  7989  7998       L1    15  0.06

> <Gold.Chemscore.Hbond.Weighted>
-3.0892

> <Gold.Chemscore.Metal.Weighted>
-0.0000

> <Gold.Chemscore.Lipo.Weighted>
-6.3521

> <Gold.Chemscore.Internal_Hbond.Weighted>
0.0000

> <Gold.Chemscore.DEClash.Weighted>
0.1351

> <Gold.Chemscore.DEInternal.Weighted>
1.9832

> <Gold.Chemscore.Rot.Weighted>
3.4103

> <Gold.Chemscore.Internal.Correction.Weighted>
   9.000000E+99

> <Gold.Protein.RotatedTorsions>
[ 6907 6896 6895 6894 ] final   39.07 input  -60.11 | X-H torsion
[ 7974 7965 7964 7962 ] final   20.96 input  175.53 | X-H torsion
[ 8008 7997 7996 7995 ] final -131.85 input   59.86 | X-H torsion
[ 10167 10162 10161 10158 ] final  -97.04 input  -65.29 | X-H torsion
[ 10718 10713 10712 10709 ] final   13.41 input   66.30 | X-H torsion
[ 10763 10752 10751 10750 ] final    2.92 input  -60.55 | X-H torsion
[ 11005 11000 10999 10996 ] final   56.33 input  -57.11 | X-H torsion

> <Gold.Protein.ActiveResidues>
 VAL166  LYS551  ARG553  GLY616  TRP617  ASP618  TYR619  PRO620  LYS621  CYS622 
 ASP623  PHE694  ASN695  SER759  ASP760  ASP761  ALA762  ILE779  LEU786  VAL792 
 PHE793  MET794  SER795  GLU796  ALA797  LYS798  CYS799  TRP800  GLU811  SER814 

> <Gold.Protein.RotatedAtoms>
  152.1648  134.8883  160.0538 H   0  0  0  0  0  0  0  0  0  0  0  0  # atno 6907 bound_to 6896
  151.9865  133.3771  159.4136 H   0  0  0  0  0  0  0  0  0  0  0  0  # atno 6908 bound_to 6896
  150.6893  134.3905  159.5118 H   0  0  0  0  0  0  0  0  0  0  0  0  # atno 6909 bound_to 6896
  146.2091  139.8095  142.8703 H   0  0  0  0  0  0  0  0  0  0  0  0  # atno 7974 bound_to 7965
  155.3192  140.0461  157.3038 H   0  0  0  0  0  0  0  0  0  0  0  0  # atno 8008 bound_to 7997
  154.5390  140.2281  155.8640 H   0  0  0  0  0  0  0  0  0  0  0  0  # atno 8009 bound_to 7997
  156.1862  140.3062  155.9250 H   0  0  0  0  0  0  0  0  0  0  0  0  # atno 8010 bound_to 7997
  140.2875  143.3242  152.0379 H   0  0  0  0  0  0  0  0  0  0  0  0  # atno 10167 bound_to 10162
  157.0242  130.6167  149.5725 H   0  0  0  0  0  0  0  0  0  0  0  0  # atno 10718 bound_to 10713
  153.2896  135.6947  153.7306 H   0  0  0  0  0  0  0  0  0  0  0  0  # atno 10763 bound_to 10752
  153.6261  135.3418  155.3027 H   0  0  0  0  0  0  0  0  0  0  0  0  # atno 10764 bound_to 10752
  154.8520  135.4398  154.1975 H   0  0  0  0  0  0  0  0  0  0  0  0  # atno 10765 bound_to 10752
  140.0537  134.5700  155.9233 H   0  0  0  0  0  0  0  0  0  0  0  0  # atno 11005 bound_to 11000
  145.3211  141.0244  143.3500 LP  0  0  0  0  0  0  0  0  0  0  0  0  # atno 17320 bound_to 7965
  144.8866  139.4831  143.6697 LP  0  0  0  0  0  0  0  0  0  0  0  0  # atno 17321 bound_to 7965
  139.4946  144.6548  151.6596 LP  0  0  0  0  0  0  0  0  0  0  0  0  # atno 17342 bound_to 10162
  140.5760  144.0028  150.6242 LP  0  0  0  0  0  0  0  0  0  0  0  0  # atno 17343 bound_to 10162
  156.0092  130.5182  150.7931 LP  0  0  0  0  0  0  0  0  0  0  0  0  # atno 17370 bound_to 10713
  157.5227  131.0932  151.0058 LP  0  0  0  0  0  0  0  0  0  0  0  0  # atno 17371 bound_to 10713
  141.1942  133.6582  156.5584 LP  0  0  0  0  0  0  0  0  0  0  0  0  # atno 17394 bound_to 11000
  140.3877  134.7467  157.4702 LP  0  0  0  0  0  0  0  0  0  0  0  0  # atno 17395 bound_to 11000

$$$$
