AV-unprocessed.smi:2448|AV-procd|sdf|9654|dock10
  -GOLD-   2272013283D 1   1.00000     0.00000
 Structure written by MMmdl.
 37 38  0  0  0  0  0  0  0  0  1 V2000
  145.2722  133.2267  153.9154 O   0  0  0  0  0  0  0  0  0  0  0  0
  146.3879  133.6849  153.1720 C   0  0  2  0  0  0  0  0  0  0  0  0
  147.4610  134.1822  154.1612 C   0  0  0  0  0  0  0  0  0  0  0  0
  148.8041  134.1595  153.5745 N   0  0  0  0  0  0  0  0  0  0  0  0
  149.9205  134.2836  154.5228 C   0  0  1  0  0  0  0  0  0  0  0  0
  149.6727  135.3860  155.5849 C   0  0  0  0  0  0  0  0  0  0  0  0
  149.8507  136.8109  155.0919 C   0  0  0  0  0  0  0  0  0  0  0  0
  148.7343  137.6491  154.8933 C   0  0  0  0  0  0  0  0  0  0  0  0
  148.9546  138.9665  154.4435 C   0  0  0  0  0  0  0  0  0  0  0  0
  150.1825  139.4685  154.1912 N   0  0  0  0  0  0  0  0  0  0  0  0
  151.2467  138.6583  154.3771 C   0  0  0  0  0  0  0  0  0  0  0  0
  151.1364  137.3256  154.8215 C   0  0  0  0  0  0  0  0  0  0  0  0
  150.1743  132.9197  155.1990 C   0  0  0  0  0  0  0  0  0  0  0  0
  151.3251  132.9556  155.8719 F   0  0  0  0  0  0  0  0  0  0  0  0
  149.1984  132.6432  156.0641 F   0  0  0  0  0  0  0  0  0  0  0  0
  150.2374  131.9446  154.2912 F   0  0  0  0  0  0  0  0  0  0  0  0
  145.9391  134.7504  152.1557 C   0  0  0  0  0  0  0  0  0  0  0  0
  145.1693  134.0402  151.0380 C   0  0  0  0  0  0  0  0  0  0  0  0
  145.9081  132.4028  150.8167 S   0  0  0  0  0  0  0  0  0  0  0  0
  146.9043  132.5066  152.3280 C   0  0  0  0  0  0  0  0  0  0  0  0
  145.0505  133.8834  154.5576 H   0  0  0  0  0  0  0  0  0  0  0  0
  147.2160  135.1919  154.4935 H   0  0  0  0  0  0  0  0  0  0  0  0
  147.4202  133.5552  155.0474 H   0  0  0  0  0  0  0  0  0  0  0  0
  148.8740  134.8993  152.8828 H   0  0  0  0  0  0  0  0  0  0  0  0
  150.8314  134.5252  153.9730 H   0  0  0  0  0  0  0  0  0  0  0  0
  148.6765  135.2699  156.0141 H   0  0  0  0  0  0  0  0  0  0  0  0
  150.3668  135.2569  156.4153 H   0  0  0  0  0  0  0  0  0  0  0  0
  147.7317  137.2948  155.0833 H   0  0  0  0  0  0  0  0  0  0  0  0
  148.1216  139.6349  154.2832 H   0  0  0  0  0  0  0  0  0  0  0  0
  152.2162  139.0848  154.1668 H   0  0  0  0  0  0  0  0  0  0  0  0
  152.0202  136.7204  154.9600 H   0  0  0  0  0  0  0  0  0  0  0  0
  145.3400  135.5385  152.6134 H   0  0  0  0  0  0  0  0  0  0  0  0
  146.8203  135.2308  151.7276 H   0  0  0  0  0  0  0  0  0  0  0  0
  144.1273  133.9050  151.3289 H   0  0  0  0  0  0  0  0  0  0  0  0
  145.1829  134.6059  150.1063 H   0  0  0  0  0  0  0  0  0  0  0  0
  147.9333  132.6916  152.0170 H   0  0  0  0  0  0  0  0  0  0  0  0
  146.8975  131.5608  152.8712 H   0  0  0  0  0  0  0  0  0  0  0  0
  1  2  1  0  0  0  0
  1 21  1  0  0  0  0
  2 20  1  0  0  0  0
  2  3  1  0  0  0  0
  2 17  1  0  0  0  0
  3  4  1  0  0  0  0
  3 22  1  0  0  0  0
  3 23  1  0  0  0  0
  4  5  1  0  0  0  0
  4 24  1  0  0  0  0
  5  6  1  0  0  0  0
  5 13  1  0  0  0  0
  5 25  1  0  0  0  0
  6  7  1  0  0  0  0
  6 26  1  0  0  0  0
  6 27  1  0  0  0  0
  7 12  1  0  0  0  0
  7  8  2  0  0  0  0
  8  9  1  0  0  0  0
  8 28  1  0  0  0  0
  9 10  2  0  0  0  0
  9 29  1  0  0  0  0
 10 11  1  0  0  0  0
 11 12  2  0  0  0  0
 11 30  1  0  0  0  0
 12 31  1  0  0  0  0
 13 14  1  0  0  0  0
 13 15  1  0  0  0  0
 13 16  1  0  0  0  0
 17 18  1  0  0  0  0
 17 32  1  0  0  0  0
 17 33  1  0  0  0  0
 18 19  1  0  0  0  0
 18 34  1  0  0  0  0
 18 35  1  0  0  0  0
 19 20  1  0  0  0  0
 20 36  1  0  0  0  0
 20 37  1  0  0  0  0
M  END
> <s_m_source_file>
AV-unprocessed.smi

> <i_m_source_file_index>
2448

> <i_lp_mmshare_version>
43012

> <i_f3d_flags>
0

> <s_epik_input>
W0NIMl0xU1tDSDJdW0NIMl1bQ0BAXTEoW09IXSlbQ0gyXVtOSF1bQ0BASF0oQyhGKShGKUYpW0NIMl1jMltjSF1bY0hdbltjSF1bY0hdMg==

> <s_epik_cmdline>
J2VwaWtfcHl0aG9uJywgJy1waCcsICc3LjAnLCAnLXRuJywgJzgnLCAnLW1hJywgJzIwMCcsICctbWV0YWxfYmluZGluZycsICctaW1hZScsICc8aW5maWxlLm1hZT4nLCAnLW9tYWUnLCAnPG91dGZpbGUubWFlPic=

> <r_epik_Ionization_Penalty>
0.187708

> <r_epik_Ionization_Penalty_Charging>
0

> <r_epik_Ionization_Penalty_Neutral>
0.187708

> <r_epik_State_Penalty>
0.22769

> <r_epik_Charging_Adjusted_Penalty>
0.22769

> <i_epik_Tot_Q>
0

> <i_epik_Tot_abs_Q>
0

> <r_epik_Metal_State_Penalty>
0.176206

> <b_epik_Metal_Only>
0

> <s_lp_Force_Field>
OPLS_2005

> <r_lp_Energy>
32.1686

> <b_lp_Chiralities_Consistent>
1

> <s_lp_Variant>
AV-unprocessed.smi:2448-4

> <Gold.Version>
5.8.1

> <Gold.Id.Protein>
6NUR|6NUR_protein|mol2

> <Gold.PLP.Fitness>
36.8878

> <Gold.PLP.PLP>
-32.2343

> <Gold.PLP.part.hbond>
-2.3610

> <Gold.PLP.part.metal>
0.0000

> <Gold.PLP.part.buried>
-3.1997

> <Gold.PLP.part.nonpolar>
-25.4671

> <Gold.PLP.part.repulsive>
0.1743

> <Gold.PLP.ligand.clash>
0.0000

> <Gold.PLP.ligand.torsion>
0.9549

> <Gold.PLP.Chemscore.Hbond>
2.0000

> <Gold.PLP.Chemscore.CHOScore>
0.0000

> <Gold.PLP.Chemscore.Metal>
0.0000

> <Gold.Chemscore.Hbonds>
donor molecule, donor type, donor heavy atom, donor atom, acceptor molecule, acceptor atom, score
      L1  H     4    24       P1  7948  0.80
      P1  H  7989  7998       L1    10  0.19

> <Gold.PLP.Chemscore.Internal.Correction>
0.5633

> <Gold.Rescore>
     Score         DG    S(hbond)    S(metal)    S(lipo)     H(rot)  DE(clash)    DE(int)     intcor
     10.58     -11.82       1.26        0.00      68.81       2.31       0.20       1.05       ----

> <Gold.Chemscore.Fitness>
10.5753

> <Gold.Chemscore.DG>
-11.8237

> <Gold.Chemscore.ZeroCoef>
-5.4800

> <Gold.Chemscore.Hbond>
1.2603

> <Gold.Chemscore.Metal>
0.0000

> <Gold.Chemscore.Lipo>
68.8080

> <Gold.Chemscore.Internal_Hbond>
0.0000

> <Gold.Chemscore.DEClash>
0.2027

> <Gold.Chemscore.DEInternal>
1.0457

> <Gold.Chemscore.Rot>
2.3111

> <Gold.Chemscore.Internal.Correction>
   9.000000E+99

> <Gold.Chemscore.Hbonds>
donor molecule, donor type, donor heavy atom, donor atom, acceptor molecule, acceptor atom, score
      L1  H     4    24       P1  7948  0.12

> <Gold.Chemscore.Hbond.Weighted>
-4.2095

> <Gold.Chemscore.Metal.Weighted>
-0.0000

> <Gold.Chemscore.Lipo.Weighted>
-8.0505

> <Gold.Chemscore.Internal_Hbond.Weighted>
0.0000

> <Gold.Chemscore.DEClash.Weighted>
0.2027

> <Gold.Chemscore.DEInternal.Weighted>
1.0457

> <Gold.Chemscore.Rot.Weighted>
5.9164

> <Gold.Chemscore.Internal.Correction.Weighted>
   9.000000E+99

> <Gold.Protein.RotatedTorsions>
[ 6907 6896 6895 6894 ] final -160.74 input  -60.11 | X-H torsion
[ 7974 7965 7964 7962 ] final   -5.98 input  175.53 | X-H torsion
[ 8008 7997 7996 7995 ] final  -64.15 input   59.86 | X-H torsion
[ 10167 10162 10161 10158 ] final   65.33 input  -65.29 | X-H torsion
[ 10718 10713 10712 10709 ] final   50.54 input   66.30 | X-H torsion
[ 10763 10752 10751 10750 ] final   76.70 input  -60.55 | X-H torsion
[ 11005 11000 10999 10996 ] final  -69.51 input  -57.11 | X-H torsion

> <Gold.Protein.ActiveResidues>
 VAL166  LYS551  ARG553  GLY616  TRP617  ASP618  TYR619  PRO620  LYS621  CYS622 
 ASP623  PHE694  ASN695  SER759  ASP760  ASP761  ALA762  ILE779  LEU786  VAL792 
 PHE793  MET794  SER795  GLU796  ALA797  LYS798  CYS799  TRP800  GLU811  SER814 

> <Gold.Protein.RotatedAtoms>
  151.3537  133.3915  159.2682 H   0  0  0  0  0  0  0  0  0  0  0  0  # atno 6907 bound_to 6896
  150.9780  134.9142  159.7838 H   0  0  0  0  0  0  0  0  0  0  0  0  # atno 6908 bound_to 6896
  152.5207  134.3501  159.9300 H   0  0  0  0  0  0  0  0  0  0  0  0  # atno 6909 bound_to 6896
  146.2341  140.2103  142.8335 H   0  0  0  0  0  0  0  0  0  0  0  0  # atno 7974 bound_to 7965
  154.4595  140.0960  156.6852 H   0  0  0  0  0  0  0  0  0  0  0  0  # atno 8008 bound_to 7997
  155.5037  140.3474  155.4357 H   0  0  0  0  0  0  0  0  0  0  0  0  # atno 8009 bound_to 7997
  156.0843  140.1381  156.9662 H   0  0  0  0  0  0  0  0  0  0  0  0  # atno 8010 bound_to 7997
  140.1125  144.4805  150.6969 H   0  0  0  0  0  0  0  0  0  0  0  0  # atno 10167 bound_to 10162
  157.4894  130.8366  149.8185 H   0  0  0  0  0  0  0  0  0  0  0  0  # atno 10718 bound_to 10713
  153.0744  135.4941  154.8374 H   0  0  0  0  0  0  0  0  0  0  0  0  # atno 10763 bound_to 10752
  154.7067  135.3012  154.9261 H   0  0  0  0  0  0  0  0  0  0  0  0  # atno 10764 bound_to 10752
  153.9968  135.6771  153.4810 H   0  0  0  0  0  0  0  0  0  0  0  0  # atno 10765 bound_to 10752
  141.1555  133.6766  156.6611 H   0  0  0  0  0  0  0  0  0  0  0  0  # atno 11005 bound_to 11000
  144.9712  140.8370  143.5454 LP  0  0  0  0  0  0  0  0  0  0  0  0  # atno 17320 bound_to 7965
  145.2084  139.2217  143.5156 LP  0  0  0  0  0  0  0  0  0  0  0  0  # atno 17321 bound_to 7965
  140.6918  143.2380  151.5111 LP  0  0  0  0  0  0  0  0  0  0  0  0  # atno 17342 bound_to 10162
  139.5612  144.2153  152.1693 LP  0  0  0  0  0  0  0  0  0  0  0  0  # atno 17343 bound_to 10162
  156.0165  130.3812  150.2095 LP  0  0  0  0  0  0  0  0  0  0  0  0  # atno 17370 bound_to 10713
  157.0283  131.0000  151.3319 LP  0  0  0  0  0  0  0  0  0  0  0  0  # atno 17371 bound_to 10713
  140.3247  134.7979  157.4280 LP  0  0  0  0  0  0  0  0  0  0  0  0  # atno 17394 bound_to 11000
  140.1067  134.5400  155.8303 LP  0  0  0  0  0  0  0  0  0  0  0  0  # atno 17395 bound_to 11000

$$$$
