AV-unprocessed.smi:1852|AV-procd|sdf|7525|dock1
  -GOLD-   22720 9233D 1   1.00000     0.00000
 Structure written by MMmdl.
 45 47  0  0  0  0  0  0  0  0  1 V2000
  146.4815  143.1066  153.6001 C   0  0  0  0  0  0  0  0  0  0  0  0
  147.4114  141.9153  153.7060 C   0  0  0  0  0  0  0  0  0  0  0  0
  147.0194  140.6594  153.2032 C   0  0  0  0  0  0  0  0  0  0  0  0
  147.8899  139.5593  153.3055 C   0  0  0  0  0  0  0  0  0  0  0  0
  149.1558  139.7071  153.9091 C   0  0  0  0  0  0  0  0  0  0  0  0
  150.0843  138.5112  154.0072 C   0  0  0  0  0  0  0  0  0  0  0  0
  149.5622  140.9628  154.4167 C   0  0  0  0  0  0  0  0  0  0  0  0
  150.8116  141.0378  154.9955 O   0  0  0  0  0  0  0  0  0  0  0  0
  151.0248  141.9787  156.0390 C   0  0  0  0  0  0  0  0  0  0  0  0
  150.4876  141.4018  157.3569 C   0  0  0  0  0  0  0  0  0  0  0  0
  151.5479  141.1758  158.3292 N   0  0  0  0  0  0  0  0  0  0  0  0
  152.4504  140.1631  158.3704 C   0  0  0  0  0  0  0  0  0  0  0  0
  152.4825  139.0732  157.3384 C   0  0  0  0  0  0  0  0  0  0  0  0
  152.5916  137.7799  158.0062 N   0  0  0  0  0  0  0  0  0  0  0  0
  152.6346  136.5921  157.3862 C   0  0  0  0  0  0  0  0  0  0  0  0
  152.5951  136.4408  156.1663 O   0  0  0  0  0  0  0  0  0  0  0  0
  153.3106  140.1946  159.3890 N   0  0  0  0  0  0  0  0  0  0  0  0
  152.9344  141.3350  160.0707 C   0  0  0  0  0  0  0  0  0  0  0  0
  153.4601  141.9181  161.2457 C   0  0  0  0  0  0  0  0  0  0  0  0
  152.8995  143.1024  161.7673 C   0  0  0  0  0  0  0  0  0  0  0  0
  151.8083  143.7199  161.1225 C   0  0  0  0  0  0  0  0  0  0  0  0
  151.2718  143.1569  159.9488 C   0  0  0  0  0  0  0  0  0  0  0  0
  151.8338  141.9737  159.4330 C   0  0  0  0  0  0  0  0  0  0  0  0
  148.6767  142.0653  154.3086 C   0  0  0  0  0  0  0  0  0  0  0  0
  145.5036  142.8157  153.2155 H   0  0  0  0  0  0  0  0  0  0  0  0
  146.9037  143.8551  152.9293 H   0  0  0  0  0  0  0  0  0  0  0  0
  146.3375  143.5646  154.5791 H   0  0  0  0  0  0  0  0  0  0  0  0
  146.0526  140.5343  152.7379 H   0  0  0  0  0  0  0  0  0  0  0  0
  147.5807  138.6002  152.9163 H   0  0  0  0  0  0  0  0  0  0  0  0
  150.3342  138.3094  155.0492 H   0  0  0  0  0  0  0  0  0  0  0  0
  151.0092  138.7052  153.4630 H   0  0  0  0  0  0  0  0  0  0  0  0
  149.6270  137.6141  153.5893 H   0  0  0  0  0  0  0  0  0  0  0  0
  152.0897  142.1939  156.1383 H   0  0  0  0  0  0  0  0  0  0  0  0
  150.5099  142.9141  155.8159 H   0  0  0  0  0  0  0  0  0  0  0  0
  149.7354  142.0645  157.7840 H   0  0  0  0  0  0  0  0  0  0  0  0
  149.9846  140.4530  157.1685 H   0  0  0  0  0  0  0  0  0  0  0  0
  151.5843  139.1194  156.7202 H   0  0  0  0  0  0  0  0  0  0  0  0
  153.3318  139.2137  156.6706 H   0  0  0  0  0  0  0  0  0  0  0  0
  152.6302  137.7891  159.0148 H   0  0  0  0  0  0  0  0  0  0  0  0
  152.7096  135.7717  158.1165 H   0  0  0  0  0  0  0  0  0  0  0  0
  154.2954  141.4522  161.7471 H   0  0  0  0  0  0  0  0  0  0  0  0
  153.3084  143.5389  162.6668 H   0  0  0  0  0  0  0  0  0  0  0  0
  151.3828  144.6253  161.5294 H   0  0  0  0  0  0  0  0  0  0  0  0
  150.4337  143.6251  159.4546 H   0  0  0  0  0  0  0  0  0  0  0  0
  148.9471  143.0405  154.6844 H   0  0  0  0  0  0  0  0  0  0  0  0
  1  2  1  0  0  0  0
  1 25  1  0  0  0  0
  1 26  1  0  0  0  0
  1 27  1  0  0  0  0
  2 24  1  0  0  0  0
  2  3  2  0  0  0  0
  3  4  1  0  0  0  0
  3 28  1  0  0  0  0
  4  5  2  0  0  0  0
  4 29  1  0  0  0  0
  5  6  1  0  0  0  0
  5  7  1  0  0  0  0
  6 30  1  0  0  0  0
  6 31  1  0  0  0  0
  6 32  1  0  0  0  0
  7  8  1  0  0  0  0
  7 24  2  0  0  0  0
  8  9  1  0  0  0  0
  9 10  1  0  0  0  0
  9 33  1  0  0  0  0
  9 34  1  0  0  0  0
 10 11  1  0  0  0  0
 10 35  1  0  0  0  0
 10 36  1  0  0  0  0
 11 23  1  0  0  0  0
 11 12  1  0  0  0  0
 12 13  1  0  0  0  0
 12 17  2  0  0  0  0
 13 14  1  0  0  0  0
 13 37  1  0  0  0  0
 13 38  1  0  0  0  0
 14 15  1  0  0  0  0
 14 39  1  0  0  0  0
 15 16  2  0  0  0  0
 15 40  1  0  0  0  0
 17 18  1  0  0  0  0
 18 23  2  0  0  0  0
 18 19  1  0  0  0  0
 19 20  2  0  0  0  0
 19 41  1  0  0  0  0
 20 21  1  0  0  0  0
 20 42  1  0  0  0  0
 21 22  2  0  0  0  0
 21 43  1  0  0  0  0
 22 23  1  0  0  0  0
 22 44  1  0  0  0  0
 24 45  1  0  0  0  0
M  END
> <s_m_source_file>
AV-unprocessed.smi

> <i_m_source_file_index>
1852

> <i_lp_mmshare_version>
43012

> <i_f3d_flags>
0

> <s_epik_input>
W0NIM11jMVtjSF1bY0hdYyhbQ0gzXSljKFtjSF0xKU9bQ0gyXVtDSDJdbihjKG4yKVtDSDJdW05IXVtDSF09TyljKGMyMylbY0hdW2NIXVtjSF1bY0hdMw==

> <s_epik_cmdline>
J2VwaWtfcHl0aG9uJywgJy1waCcsICc3LjAnLCAnLXRuJywgJzgnLCAnLW1hJywgJzIwMCcsICctbWV0YWxfYmluZGluZycsICctaW1hZScsICc8aW5maWxlLm1hZT4nLCAnLW9tYWUnLCAnPG91dGZpbGUubWFlPic=

> <r_lp_tautomer_probability>
1

> <r_epik_Ionization_Penalty>
0.0587233

> <r_epik_Ionization_Penalty_Charging>
0

> <r_epik_Ionization_Penalty_Neutral>
0.0587233

> <r_epik_State_Penalty>
0.0508012

> <r_epik_Charging_Adjusted_Penalty>
0.0508012

> <i_epik_Tot_Q>
0

> <i_epik_Tot_abs_Q>
0

> <r_epik_Metal_State_Penalty>
0.0461886

> <b_epik_Metal_Only>
0

> <s_lp_Force_Field>
OPLS_2005

> <r_lp_Energy>
11.3216

> <b_lp_Chiralities_Consistent>
1

> <s_lp_Variant>
AV-unprocessed.smi:1852-1

> <Gold.Version>
5.8.1

> <Gold.Id.Protein>
6NUR|6NUR_protein|mol2

> <Gold.PLP.Fitness>
50.5818

> <Gold.PLP.PLP>
-47.5829

> <Gold.PLP.part.hbond>
-2.0000

> <Gold.PLP.part.metal>
0.0000

> <Gold.PLP.part.buried>
-3.8140

> <Gold.PLP.part.nonpolar>
-42.1167

> <Gold.PLP.part.repulsive>
0.1711

> <Gold.PLP.ligand.clash>
0.0000

> <Gold.PLP.ligand.torsion>
1.2305

> <Gold.PLP.Chemscore.Hbond>
1.7776

> <Gold.PLP.Chemscore.CHOScore>
0.0000

> <Gold.PLP.Chemscore.Metal>
0.0000

> <Gold.Chemscore.Hbonds>
donor molecule, donor type, donor heavy atom, donor atom, acceptor molecule, acceptor atom, score
      P1  H  7989  7998       L1     8  0.48
      P1  H 10752 10764       L1    16  0.91

> <Gold.PLP.Chemscore.Internal.Correction>
0.1271

> <Gold.Rescore>
     Score         DG    S(hbond)    S(metal)    S(lipo)     H(rot)  DE(clash)    DE(int)     intcor
     17.27     -19.19       1.16        0.00     136.04       2.38       0.74       1.19       ----

> <Gold.Chemscore.Fitness>
17.2661

> <Gold.Chemscore.DG>
-19.1918

> <Gold.Chemscore.ZeroCoef>
-5.4800

> <Gold.Chemscore.Hbond>
1.1634

> <Gold.Chemscore.Metal>
0.0000

> <Gold.Chemscore.Lipo>
136.0396

> <Gold.Chemscore.Internal_Hbond>
0.0000

> <Gold.Chemscore.DEClash>
0.7378

> <Gold.Chemscore.DEInternal>
1.1878

> <Gold.Chemscore.Rot>
2.3791

> <Gold.Chemscore.Internal.Correction>
   9.000000E+99

> <Gold.Chemscore.Hbonds>
donor molecule, donor type, donor heavy atom, donor atom, acceptor molecule, acceptor atom, score
      P1  H  7989  7998       L1     8  0.05
      P1  H 10752 10764       L1    16  0.89

> <Gold.Chemscore.Hbond.Weighted>
-3.8858

> <Gold.Chemscore.Metal.Weighted>
-0.0000

> <Gold.Chemscore.Lipo.Weighted>
-15.9166

> <Gold.Chemscore.Internal_Hbond.Weighted>
0.0000

> <Gold.Chemscore.DEClash.Weighted>
0.7378

> <Gold.Chemscore.DEInternal.Weighted>
1.1878

> <Gold.Chemscore.Rot.Weighted>
6.0906

> <Gold.Chemscore.Internal.Correction.Weighted>
   9.000000E+99

> <Gold.Protein.RotatedTorsions>
[ 6907 6896 6895 6894 ] final  -55.40 input  -60.11 | X-H torsion
[ 7974 7965 7964 7962 ] final   69.71 input  175.53 | X-H torsion
[ 8008 7997 7996 7995 ] final  137.36 input   59.86 | X-H torsion
[ 10167 10162 10161 10158 ] final   44.98 input  -65.29 | X-H torsion
[ 10718 10713 10712 10709 ] final -152.79 input   66.30 | X-H torsion
[ 10763 10752 10751 10750 ] final   -5.33 input  -60.55 | X-H torsion
[ 11005 11000 10999 10996 ] final  -97.05 input  -57.11 | X-H torsion

> <Gold.Protein.ActiveResidues>
 VAL166  LYS551  ARG553  GLY616  TRP617  ASP618  TYR619  PRO620  LYS621  CYS622 
 ASP623  PHE694  ASN695  SER759  ASP760  ASP761  ALA762  ILE779  LEU786  VAL792 
 PHE793  MET794  SER795  GLU796  ALA797  LYS798  CYS799  TRP800  GLU811  SER814 

> <Gold.Protein.RotatedAtoms>
  150.8254  134.7483  159.6808 H   0  0  0  0  0  0  0  0  0  0  0  0  # atno 6907 bound_to 6896
  152.4366  134.5671  159.9920 H   0  0  0  0  0  0  0  0  0  0  0  0  # atno 6908 bound_to 6896
  151.5845  133.3336  159.3051 H   0  0  0  0  0  0  0  0  0  0  0  0  # atno 6909 bound_to 6896
  145.7870  139.2915  143.1232 H   0  0  0  0  0  0  0  0  0  0  0  0  # atno 7974 bound_to 7965
  156.3002  140.2421  156.3897 H   0  0  0  0  0  0  0  0  0  0  0  0  # atno 8008 bound_to 7997
  154.8625  140.0419  157.1694 H   0  0  0  0  0  0  0  0  0  0  0  0  # atno 8009 bound_to 7997
  154.8881  140.2959  155.5390 H   0  0  0  0  0  0  0  0  0  0  0  0  # atno 8010 bound_to 7997
  140.3288  144.2614  150.6171 H   0  0  0  0  0  0  0  0  0  0  0  0  # atno 10167 bound_to 10162
  156.4771  130.8286  151.2514 H   0  0  0  0  0  0  0  0  0  0  0  0  # atno 10718 bound_to 10713
  153.3971  135.7004  153.6453 H   0  0  0  0  0  0  0  0  0  0  0  0  # atno 10763 bound_to 10752
  153.5001  135.3654  155.2536 H   0  0  0  0  0  0  0  0  0  0  0  0  # atno 10764 bound_to 10752
  154.8707  135.4110  154.3299 H   0  0  0  0  0  0  0  0  0  0  0  0  # atno 10765 bound_to 10752
  141.1392  133.8142  157.0654 H   0  0  0  0  0  0  0  0  0  0  0  0  # atno 11005 bound_to 11000
  146.0015  140.8516  143.0016 LP  0  0  0  0  0  0  0  0  0  0  0  0  # atno 17320 bound_to 7965
  144.6787  140.2359  143.7349 LP  0  0  0  0  0  0  0  0  0  0  0  0  # atno 17321 bound_to 7965
  140.5416  143.2222  151.8075 LP  0  0  0  0  0  0  0  0  0  0  0  0  # atno 17342 bound_to 10162
  139.4860  144.4593  151.9561 LP  0  0  0  0  0  0  0  0  0  0  0  0  # atno 17343 bound_to 10162
  157.7486  131.0057  150.3124 LP  0  0  0  0  0  0  0  0  0  0  0  0  # atno 17370 bound_to 10713
  156.3559  130.3839  149.7291 LP  0  0  0  0  0  0  0  0  0  0  0  0  # atno 17371 bound_to 10713
  140.0545  134.9788  157.1195 LP  0  0  0  0  0  0  0  0  0  0  0  0  # atno 17394 bound_to 11000
  140.3940  134.2154  155.7165 LP  0  0  0  0  0  0  0  0  0  0  0  0  # atno 17395 bound_to 11000

$$$$
