AV-unprocessed.smi:45|AV-procd|sdf|418|dock6
  -GOLD-   2262016293D 1   1.00000     0.00000
 Structure written by MMmdl.
 60 63  0  0  0  0  0  0  0  0  3 V2000
  151.1384  142.1508  157.5556 C   0  0  0  0  0  0  0  0  0  0  0  0
  150.4192  141.8045  156.3812 O   0  0  0  0  0  0  0  0  0  0  0  0
  150.4896  140.5019  155.9317 C   0  0  0  0  0  0  0  0  0  0  0  0
  151.4046  139.5417  156.4340 C   0  0  0  0  0  0  0  0  0  0  0  0
  151.4159  138.2287  155.9248 C   0  0  0  0  0  0  0  0  0  0  0  0
  150.5150  137.8526  154.9091 C   0  0  0  0  0  0  0  0  0  0  0  0
  150.5274  136.4395  154.3624 C   0  0  0  0  0  0  0  0  0  0  0  0
  150.0602  135.4527  155.3241 N   0  0  0  0  0  0  0  0  0  0  0  0
  148.9328  134.6555  155.0660 C   0  0  0  0  0  0  0  0  0  0  0  0
  148.2927  134.8155  153.8761 N   0  3  0  0  0  0  0  0  0  0  0  0
  147.2175  134.0730  153.5649 C   0  0  0  0  0  0  0  0  0  0  0  0
  146.6074  134.2714  152.3271 N   0  0  0  0  0  0  0  0  0  0  0  0
  146.7856  133.3254  151.2309 C   0  0  0  0  0  0  0  0  0  0  0  0
  145.4818  133.3539  150.4350 C   0  0  0  0  0  0  0  0  0  0  0  0
  144.9735  134.7708  150.6659 C   0  0  0  0  0  0  0  0  0  0  0  0
  145.4032  135.0750  152.1088 C   0  0  2  0  0  0  0  0  0  0  0  0
  145.6230  136.5826  152.3553 C   0  0  0  0  0  0  0  0  0  0  0  0
  146.1891  137.1812  151.2092 O   0  0  0  0  0  0  0  0  0  0  0  0
  146.7285  133.1472  154.3985 N   0  0  0  0  0  0  0  0  0  0  0  0
  147.3254  132.9497  155.5890 C   0  0  0  0  0  0  0  0  0  0  0  0
  148.4581  133.6870  155.9879 C   0  0  0  0  0  0  0  0  0  0  0  0
  149.0806  133.4648  157.3422 C   0  0  0  0  0  0  0  0  0  0  0  0
  150.2998  133.2728  157.4056 O   0  0  0  0  0  0  0  0  0  0  0  0
  148.1490  133.4955  158.3352 N   0  5  0  0  0  0  0  0  0  0  0  0
  148.3501  132.9199  159.6657 C   0  0  0  0  0  0  0  0  0  0  0  0
  147.9526  133.8898  160.7722 C   0  0  0  0  0  0  0  0  0  0  0  0
  147.1891  133.4052  161.7592 N   0  0  0  0  0  0  0  0  0  0  0  0
  146.8588  134.2569  162.7540 C   0  0  0  0  0  0  0  0  0  0  0  0
  147.2933  135.5977  162.7583 C   0  0  0  0  0  0  0  0  0  0  0  0
  148.0913  135.9969  161.6674 C   0  0  0  0  0  0  0  0  0  0  0  0
  148.4201  135.1409  160.6757 N   0  0  0  0  0  0  0  0  0  0  0  0
  149.6048  138.8011  154.4036 C   0  0  0  0  0  0  0  0  0  0  0  0
  149.5927  140.1153  154.9108 C   0  0  0  0  0  0  0  0  0  0  0  0
  148.4627  141.2538  154.2694 Cl  0  0  0  0  0  0  0  0  0  0  0  0
  144.6370  134.7023  152.7905 H   0  0  0  0  0  0  0  0  0  0  0  0
  150.9726  143.2046  157.7793 H   0  0  0  0  0  0  0  0  0  0  0  0
  152.2116  142.0072  157.4238 H   0  0  0  0  0  0  0  0  0  0  0  0
  150.7981  141.5739  158.4166 H   0  0  0  0  0  0  0  0  0  0  0  0
  152.1110  139.7877  157.2122 H   0  0  0  0  0  0  0  0  0  0  0  0
  152.1201  137.5092  156.3166 H   0  0  0  0  0  0  0  0  0  0  0  0
  149.8932  136.4049  153.4755 H   0  0  0  0  0  0  0  0  0  0  0  0
  151.5386  136.1826  154.0438 H   0  0  0  0  0  0  0  0  0  0  0  0
  150.5964  135.2998  156.1673 H   0  0  0  0  0  0  0  0  0  0  0  0
  147.6210  133.6596  150.6148 H   0  0  0  0  0  0  0  0  0  0  0  0
  147.0054  132.3167  151.5833 H   0  0  0  0  0  0  0  0  0  0  0  0
  145.6212  133.1148  149.3804 H   0  0  0  0  0  0  0  0  0  0  0  0
  144.7752  132.6365  150.8547 H   0  0  0  0  0  0  0  0  0  0  0  0
  145.4680  135.4488  149.9684 H   0  0  0  0  0  0  0  0  0  0  0  0
  143.8973  134.8651  150.5172 H   0  0  0  0  0  0  0  0  0  0  0  0
  144.6880  137.0979  152.5706 H   0  0  0  0  0  0  0  0  0  0  0  0
  146.2806  136.7464  153.2100 H   0  0  0  0  0  0  0  0  0  0  0  0
  147.0888  136.9008  151.1360 H   0  0  0  0  0  0  0  0  0  0  0  0
  146.8815  132.2004  156.2287 H   0  0  0  0  0  0  0  0  0  0  0  0
  147.7608  132.0101  159.7870 H   0  0  0  0  0  0  0  0  0  0  0  0
  149.3822  132.6025  159.8264 H   0  0  0  0  0  0  0  0  0  0  0  0
  146.2445  133.8662  163.5516 H   0  0  0  0  0  0  0  0  0  0  0  0
  147.0304  136.2803  163.5525 H   0  0  0  0  0  0  0  0  0  0  0  0
  148.4669  137.0065  161.5898 H   0  0  0  0  0  0  0  0  0  0  0  0
  148.9124  138.5238  153.6222 H   0  0  0  0  0  0  0  0  0  0  0  0
  148.6443  135.5100  153.2184 H   0  0  0  0  0  0  0  0  0  0  0  0
  1  2  1  0  0  0  0
  1 36  1  0  0  0  0
  1 37  1  0  0  0  0
  1 38  1  0  0  0  0
  2  3  1  0  0  0  0
  3 33  1  0  0  0  0
  3  4  2  0  0  0  0
  4  5  1  0  0  0  0
  4 39  1  0  0  0  0
  5  6  2  0  0  0  0
  5 40  1  0  0  0  0
  6  7  1  0  0  0  0
  6 32  1  0  0  0  0
  7  8  1  0  0  0  0
  7 41  1  0  0  0  0
  7 42  1  0  0  0  0
  8  9  1  0  0  0  0
  8 43  1  0  0  0  0
  9 21  1  0  0  0  0
  9 10  2  0  0  0  0
 10 11  1  0  0  0  0
 10 60  1  0  0  0  0
 11 12  1  0  0  0  0
 11 19  2  0  0  0  0
 12 16  1  0  0  0  0
 12 13  1  0  0  0  0
 13 14  1  0  0  0  0
 13 44  1  0  0  0  0
 13 45  1  0  0  0  0
 14 15  1  0  0  0  0
 14 46  1  0  0  0  0
 14 47  1  0  0  0  0
 15 16  1  0  0  0  0
 15 48  1  0  0  0  0
 15 49  1  0  0  0  0
 16 35  1  0  0  0  0
 16 17  1  0  0  0  0
 17 18  1  0  0  0  0
 17 50  1  0  0  0  0
 17 51  1  0  0  0  0
 18 52  1  0  0  0  0
 19 20  1  0  0  0  0
 20 21  2  0  0  0  0
 20 53  1  0  0  0  0
 21 22  1  0  0  0  0
 22 23  2  0  0  0  0
 22 24  1  0  0  0  0
 24 25  1  0  0  0  0
 25 26  1  0  0  0  0
 25 54  1  0  0  0  0
 25 55  1  0  0  0  0
 26 31  1  0  0  0  0
 26 27  2  0  0  0  0
 27 28  1  0  0  0  0
 28 29  2  0  0  0  0
 28 56  1  0  0  0  0
 29 30  1  0  0  0  0
 29 57  1  0  0  0  0
 30 31  2  0  0  0  0
 30 58  1  0  0  0  0
 32 33  2  0  0  0  0
 32 59  1  0  0  0  0
 33 34  1  0  0  0  0
M  CHG  1  10   1
M  CHG  1  24  -1
M  END
> <s_m_source_file>
AV-unprocessed.smi

> <i_m_source_file_index>
45

> <i_lp_mmshare_version>
43012

> <i_f3d_flags>
0

> <s_epik_input>
W0NIM11PYzFbY0hdW2NIXWMoW2NIXWMxQ2wpW0NIMl1bTkhdYzJuYyhOM1tDSDJdW0NIMl1bQ0gyXVtDQEhdM1tDSDJdW09IXSluW2NIXWMyQyg9TylbTkhdW0NIMl1jNG5bY0hdW2NIXVtjSF1uNA==

> <s_epik_cmdline>
J2VwaWtfcHl0aG9uJywgJy1waCcsICc3LjAnLCAnLXRuJywgJzgnLCAnLW1hJywgJzIwMCcsICctbWV0YWxfYmluZGluZycsICctaW1hZScsICc8aW5maWxlLm1hZT4nLCAnLW9tYWUnLCAnPG91dGZpbGUubWFlPic=

> <r_lp_tautomer_probability>
0.424989

> <r_epik_Ionization_Penalty>
7.51351

> <r_epik_Ionization_Penalty_Charging>
7.51312

> <r_epik_Ionization_Penalty_Neutral>
0.00038389

> <r_epik_State_Penalty>
8.64696

> <r_epik_Charging_Adjusted_Penalty>
16.1601

> <i_epik_Tot_Q>
0

> <i_epik_Tot_abs_Q>
2

> <r_epik_Metal_State_Penalty>
4.61083

> <b_epik_Metal_Only>
1

> <s_epik_Chemistry_Notes>
This compound contains an electron-poor aromatic ring that is susceptible to covalent hydrolysis at low pH, typically resulting in measured values for nitrogen ring protonation that are around two units higher than predicted values.

> <s_lp_Force_Field>
OPLS_2005

> <r_lp_Energy>
41.8384

> <b_lp_Chiralities_Consistent>
1

> <s_lp_Variant>
AV-unprocessed.smi:45-12

> <Gold.Version>
5.8.1

> <Gold.Id.Protein>
6NUR|6NUR_protein|mol2

> <Gold.PLP.Fitness>
58.1529

> <Gold.PLP.PLP>
-49.9902

> <Gold.PLP.part.hbond>
-3.9479

> <Gold.PLP.part.metal>
0.0000

> <Gold.PLP.part.buried>
-2.2972

> <Gold.PLP.part.nonpolar>
-44.2340

> <Gold.PLP.part.repulsive>
0.1993

> <Gold.PLP.ligand.clash>
0.0000

> <Gold.PLP.ligand.torsion>
3.0429

> <Gold.PLP.Chemscore.Hbond>
3.9913

> <Gold.PLP.Chemscore.CHOScore>
0.0000

> <Gold.PLP.Chemscore.Metal>
0.0000

> <Gold.Chemscore.Hbonds>
donor molecule, donor type, donor heavy atom, donor atom, acceptor molecule, acceptor atom, score
      L1  H    10    60       P1  7948  2.00
      L1  H    18    52       P1  7948  0.91
      P1  H  6896  6909       L1    23  1.00

> <Gold.PLP.Chemscore.Internal.Correction>
2.2748

> <Gold.Rescore>
     Score         DG    S(hbond)    S(metal)    S(lipo)     H(rot)  DE(clash)    DE(int)     intcor
     18.48     -22.37       2.94        0.00     123.95       2.90       0.10       3.79       ----

> <Gold.Chemscore.Fitness>
18.4768

> <Gold.Chemscore.DG>
-22.3675

> <Gold.Chemscore.ZeroCoef>
-5.4800

> <Gold.Chemscore.Hbond>
2.9358

> <Gold.Chemscore.Metal>
0.0000

> <Gold.Chemscore.Lipo>
123.9549

> <Gold.Chemscore.Internal_Hbond>
0.0000

> <Gold.Chemscore.DEClash>
0.0979

> <Gold.Chemscore.DEInternal>
3.7927

> <Gold.Chemscore.Rot>
2.8988

> <Gold.Chemscore.Internal.Correction>
   9.000000E+99

> <Gold.Chemscore.Hbonds>
donor molecule, donor type, donor heavy atom, donor atom, acceptor molecule, acceptor atom, score
      L1  H    10    60       P1  7948  0.90
      L1  H    18    52       P1  7948  0.86
      P1  H  6896  6909       L1    23  0.84

> <Gold.Chemscore.Hbond.Weighted>
-9.8056

> <Gold.Chemscore.Metal.Weighted>
-0.0000

> <Gold.Chemscore.Lipo.Weighted>
-14.5027

> <Gold.Chemscore.Internal_Hbond.Weighted>
0.0000

> <Gold.Chemscore.DEClash.Weighted>
0.0979

> <Gold.Chemscore.DEInternal.Weighted>
3.7927

> <Gold.Chemscore.Rot.Weighted>
7.4209

> <Gold.Chemscore.Internal.Correction.Weighted>
   9.000000E+99

> <Gold.Protein.RotatedTorsions>
[ 6907 6896 6895 6894 ] final  -21.46 input  -60.11 | X-H torsion
[ 7974 7965 7964 7962 ] final  -51.99 input  175.53 | X-H torsion
[ 8008 7997 7996 7995 ] final  156.19 input   59.86 | X-H torsion
[ 10167 10162 10161 10158 ] final  -14.48 input  -65.29 | X-H torsion
[ 10718 10713 10712 10709 ] final  154.72 input   66.30 | X-H torsion
[ 10763 10752 10751 10750 ] final -111.97 input  -60.55 | X-H torsion
[ 11005 11000 10999 10996 ] final   28.26 input  -57.11 | X-H torsion

> <Gold.Protein.ActiveResidues>
 VAL166  LYS551  ARG553  GLY616  TRP617  ASP618  TYR619  PRO620  LYS621  CYS622 
 ASP623  PHE694  ASN695  SER759  ASP760  ASP761  ALA762  ILE779  LEU786  VAL792 
 PHE793  MET794  SER795  GLU796  ALA797  LYS798  CYS799  TRP800  GLU811  SER814 

> <Gold.Protein.RotatedAtoms>
  151.2330  135.0561  159.8994 H   0  0  0  0  0  0  0  0  0  0  0  0  # atno 6907 bound_to 6896
  152.5402  134.0517  159.8123 H   0  0  0  0  0  0  0  0  0  0  0  0  # atno 6908 bound_to 6896
  151.0699  133.5426  159.2659 H   0  0  0  0  0  0  0  0  0  0  0  0  # atno 6909 bound_to 6896
  145.9129  140.7899  142.9686 H   0  0  0  0  0  0  0  0  0  0  0  0  # atno 7974 bound_to 7965
  156.2436  140.1919  156.6917 H   0  0  0  0  0  0  0  0  0  0  0  0  # atno 8008 bound_to 7997
  154.6246  140.0604  156.9684 H   0  0  0  0  0  0  0  0  0  0  0  0  # atno 8009 bound_to 7997
  155.1806  140.3276  155.4378 H   0  0  0  0  0  0  0  0  0  0  0  0  # atno 8010 bound_to 7997
  140.7202  143.5317  150.9512 H   0  0  0  0  0  0  0  0  0  0  0  0  # atno 10167 bound_to 10162
  157.2278  131.0732  151.1872 H   0  0  0  0  0  0  0  0  0  0  0  0  # atno 10718 bound_to 10713
  154.8327  135.4508  154.1121 H   0  0  0  0  0  0  0  0  0  0  0  0  # atno 10763 bound_to 10752
  153.2381  135.6913  153.7820 H   0  0  0  0  0  0  0  0  0  0  0  0  # atno 10764 bound_to 10752
  153.7178  135.3346  155.3236 H   0  0  0  0  0  0  0  0  0  0  0  0  # atno 10765 bound_to 10752
  140.3175  134.2581  155.7723 H   0  0  0  0  0  0  0  0  0  0  0  0  # atno 11005 bound_to 11000
  144.6745  140.1855  143.7402 LP  0  0  0  0  0  0  0  0  0  0  0  0  # atno 17320 bound_to 7965
  145.8648  139.2241  143.1695 LP  0  0  0  0  0  0  0  0  0  0  0  0  # atno 17321 bound_to 7965
  139.9037  143.6804  152.3127 LP  0  0  0  0  0  0  0  0  0  0  0  0  # atno 17342 bound_to 10162
  139.7163  144.7611  151.1029 LP  0  0  0  0  0  0  0  0  0  0  0  0  # atno 17343 bound_to 10162
  157.3509  130.7081  149.6440 LP  0  0  0  0  0  0  0  0  0  0  0  0  # atno 17370 bound_to 10713
  155.9677  130.4253  150.4646 LP  0  0  0  0  0  0  0  0  0  0  0  0  # atno 17371 bound_to 10713
  141.2094  133.7749  156.9997 LP  0  0  0  0  0  0  0  0  0  0  0  0  # atno 17394 bound_to 11000
  140.0971  134.9558  157.1866 LP  0  0  0  0  0  0  0  0  0  0  0  0  # atno 17395 bound_to 11000

$$$$
