AV-unprocessed.smi:895|AV-procd|sdf|4073|dock7
  -GOLD-   22720 1563D 1   1.00000     0.00000
 Structure written by MMmdl.
 44 45  0  0  0  0  0  0  0  0  1 V2000
  151.7450  137.3393  156.2213 C   0  0  0  0  0  0  0  0  0  0  0  0
  150.9740  136.8938  154.9671 C   0  0  0  0  0  0  0  0  0  0  0  0
  149.7975  137.8515  154.6934 C   0  0  0  0  0  0  0  0  0  0  0  0
  151.8963  136.9980  153.9006 O   0  0  0  0  0  0  0  0  0  0  0  0
  150.5570  135.4066  155.1041 C   0  0  0  0  0  0  0  0  0  0  0  0
  149.5234  134.9924  154.1592 N   0  0  0  0  0  0  0  0  0  0  0  0
  148.7700  133.8908  154.2747 C   0  0  0  0  0  0  0  0  0  0  0  0
  148.8645  133.0860  155.2008 O   0  0  0  0  0  0  0  0  0  0  0  0
  147.9012  133.7778  153.2599 N   0  0  0  0  0  0  0  0  0  0  0  0
  146.9251  132.7021  153.0848 C   0  0  2  0  0  0  0  0  0  0  0  0
  147.6659  131.3534  153.1810 C   0  0  0  0  0  0  0  0  0  0  0  0
  146.7336  130.1636  152.9096 C   0  0  0  0  0  0  0  0  0  0  0  0
  146.0481  130.3022  151.5436 C   0  0  0  0  0  0  0  0  0  0  0  0
  145.2758  131.6258  151.4527 C   0  0  0  0  0  0  0  0  0  0  0  0
  146.1912  132.8404  151.7236 C   0  0  1  0  0  0  0  0  0  0  0  0
  145.4449  134.0898  151.6282 N   0  0  0  0  0  0  0  0  0  0  0  0
  145.9426  135.3760  151.5910 C   0  0  0  0  0  0  0  0  0  0  0  0
  144.8762  136.2268  151.5366 C   0  0  0  0  0  0  0  0  0  0  0  0
  143.7502  135.3576  151.5485 C   0  0  0  0  0  0  0  0  0  0  0  0
  144.0926  134.0815  151.6042 N   0  0  0  0  0  0  0  0  0  0  0  0
  151.1098  137.3054  157.1068 H   0  0  0  0  0  0  0  0  0  0  0  0
  152.1137  138.3611  156.1221 H   0  0  0  0  0  0  0  0  0  0  0  0
  152.6053  136.6956  156.4092 H   0  0  0  0  0  0  0  0  0  0  0  0
  149.0436  137.7798  155.4780 H   0  0  0  0  0  0  0  0  0  0  0  0
  149.3091  137.6389  153.7418 H   0  0  0  0  0  0  0  0  0  0  0  0
  150.1333  138.8884  154.6550 H   0  0  0  0  0  0  0  0  0  0  0  0
  151.4589  136.7479  153.1003 H   0  0  0  0  0  0  0  0  0  0  0  0
  151.4237  134.7447  155.0490 H   0  0  0  0  0  0  0  0  0  0  0  0
  150.1287  135.2484  156.0944 H   0  0  0  0  0  0  0  0  0  0  0  0
  149.3719  135.5913  153.3611 H   0  0  0  0  0  0  0  0  0  0  0  0
  147.9101  134.4962  152.5512 H   0  0  0  0  0  0  0  0  0  0  0  0
  146.1879  132.7305  153.8897 H   0  0  0  0  0  0  0  0  0  0  0  0
  148.4884  131.3320  152.4642 H   0  0  0  0  0  0  0  0  0  0  0  0
  148.1161  131.2458  154.1685 H   0  0  0  0  0  0  0  0  0  0  0  0
  147.2990  129.2322  152.9488 H   0  0  0  0  0  0  0  0  0  0  0  0
  145.9788  130.1019  153.6945 H   0  0  0  0  0  0  0  0  0  0  0  0
  146.7948  130.2558  150.7499 H   0  0  0  0  0  0  0  0  0  0  0  0
  145.3697  129.4641  151.3814 H   0  0  0  0  0  0  0  0  0  0  0  0
  144.8194  131.7167  150.4665 H   0  0  0  0  0  0  0  0  0  0  0  0
  144.4554  131.6047  152.1712 H   0  0  0  0  0  0  0  0  0  0  0  0
  146.9454  132.8605  150.9350 H   0  0  0  0  0  0  0  0  0  0  0  0
  147.0034  135.5773  151.6121 H   0  0  0  0  0  0  0  0  0  0  0  0
  144.8967  137.3057  151.4987 H   0  0  0  0  0  0  0  0  0  0  0  0
  142.7015  135.6141  151.5205 H   0  0  0  0  0  0  0  0  0  0  0  0
  1  2  1  0  0  0  0
  1 21  1  0  0  0  0
  1 22  1  0  0  0  0
  1 23  1  0  0  0  0
  2  3  1  0  0  0  0
  2  4  1  0  0  0  0
  2  5  1  0  0  0  0
  3 24  1  0  0  0  0
  3 25  1  0  0  0  0
  3 26  1  0  0  0  0
  4 27  1  0  0  0  0
  5  6  1  0  0  0  0
  5 28  1  0  0  0  0
  5 29  1  0  0  0  0
  6  7  1  0  0  0  0
  6 30  1  0  0  0  0
  7  8  2  0  0  0  0
  7  9  1  0  0  0  0
  9 10  1  0  0  0  0
  9 31  1  0  0  0  0
 10 15  1  0  0  0  0
 10 11  1  0  0  0  0
 10 32  1  0  0  0  0
 11 12  1  0  0  0  0
 11 33  1  0  0  0  0
 11 34  1  0  0  0  0
 12 13  1  0  0  0  0
 12 35  1  0  0  0  0
 12 36  1  0  0  0  0
 13 14  1  0  0  0  0
 13 37  1  0  0  0  0
 13 38  1  0  0  0  0
 14 15  1  0  0  0  0
 14 39  1  0  0  0  0
 14 40  1  0  0  0  0
 15 16  1  0  0  0  0
 15 41  1  0  0  0  0
 16 20  1  0  0  0  0
 16 17  1  0  0  0  0
 17 18  2  0  0  0  0
 17 42  1  0  0  0  0
 18 19  1  0  0  0  0
 18 43  1  0  0  0  0
 19 20  2  0  0  0  0
 19 44  1  0  0  0  0
M  END
> <s_m_source_file>
AV-unprocessed.smi

> <i_m_source_file_index>
895

> <i_lp_mmshare_version>
43012

> <i_f3d_flags>
0

> <s_epik_input>
W0NIM11DKFtDSDNdKShbT0hdKVtDSDJdW05IXUMoPU8pW05IXVtDQEBIXTFbQ0gyXVtDSDJdW0NIMl1bQ0gyXVtDQEhdMW4yW2NIXVtjSF1bY0hdbjI=

> <s_epik_cmdline>
J2VwaWtfcHl0aG9uJywgJy1waCcsICc3LjAnLCAnLXRuJywgJzgnLCAnLW1hJywgJzIwMCcsICctbWV0YWxfYmluZGluZycsICctaW1hZScsICc8aW5maWxlLm1hZT4nLCAnLW9tYWUnLCAnPG91dGZpbGUubWFlPic=

> <r_lp_tautomer_probability>
1

> <r_epik_Ionization_Penalty>
0.000440451

> <r_epik_Ionization_Penalty_Charging>
0

> <r_epik_Ionization_Penalty_Neutral>
0.000440451

> <r_epik_State_Penalty>
-0

> <r_epik_Charging_Adjusted_Penalty>
0

> <i_epik_Tot_Q>
0

> <i_epik_Tot_abs_Q>
0

> <r_epik_Metal_State_Penalty>
-0

> <b_epik_Metal_Only>
0

> <s_lp_Force_Field>
OPLS_2005

> <r_lp_Energy>
10.7008

> <b_lp_Chiralities_Consistent>
1

> <s_lp_Variant>
AV-unprocessed.smi:895-1

> <Gold.Version>
5.8.1

> <Gold.Id.Protein>
6NUR|6NUR_protein|mol2

> <Gold.PLP.Fitness>
44.9544

> <Gold.PLP.PLP>
-31.8915

> <Gold.PLP.part.hbond>
-4.2442

> <Gold.PLP.part.metal>
0.0000

> <Gold.PLP.part.buried>
-2.1551

> <Gold.PLP.part.nonpolar>
-25.6675

> <Gold.PLP.part.repulsive>
0.1931

> <Gold.PLP.ligand.clash>
0.0000

> <Gold.PLP.ligand.torsion>
0.6064

> <Gold.PLP.Chemscore.Hbond>
3.7436

> <Gold.PLP.Chemscore.CHOScore>
1.0000

> <Gold.PLP.Chemscore.Metal>
0.0000

> <Gold.Chemscore.Hbonds>
donor molecule, donor type, donor heavy atom, donor atom, acceptor molecule, acceptor atom, score
      L1  H     4    27       P1  7949  1.00
      L1  H     6    30       P1  7948  1.00
      L1  H     9    31       P1  7948  0.74
      P1  H 10752 10763       L1     4  1.00
      L1  C    17    42       P1  7948  1.00

> <Gold.PLP.Chemscore.Internal.Correction>
0.0449

> <Gold.Rescore>
     Score         DG    S(hbond)    S(metal)    S(lipo)     H(rot)  DE(clash)    DE(int)     intcor
     14.31     -16.46       2.24        0.00      77.82       2.19       0.21       1.94       ----

> <Gold.Chemscore.Fitness>
14.3139

> <Gold.Chemscore.DG>
-16.4626

> <Gold.Chemscore.ZeroCoef>
-5.4800

> <Gold.Chemscore.Hbond>
2.2421

> <Gold.Chemscore.Metal>
0.0000

> <Gold.Chemscore.Lipo>
77.8237

> <Gold.Chemscore.Internal_Hbond>
0.0000

> <Gold.Chemscore.DEClash>
0.2063

> <Gold.Chemscore.DEInternal>
1.9425

> <Gold.Chemscore.Rot>
2.1919

> <Gold.Chemscore.Internal.Correction>
   9.000000E+99

> <Gold.Chemscore.Hbonds>
donor molecule, donor type, donor heavy atom, donor atom, acceptor molecule, acceptor atom, score
      L1  H     4    27       P1  7949  0.88
      L1  H     6    30       P1  7948  0.25
      L1  H     9    31       P1  7948  0.39
      P1  H 10752 10763       L1     4  0.18

> <Gold.Chemscore.Hbond.Weighted>
-7.4885

> <Gold.Chemscore.Metal.Weighted>
-0.0000

> <Gold.Chemscore.Lipo.Weighted>
-9.1054

> <Gold.Chemscore.Internal_Hbond.Weighted>
0.0000

> <Gold.Chemscore.DEClash.Weighted>
0.2063

> <Gold.Chemscore.DEInternal.Weighted>
1.9425

> <Gold.Chemscore.Rot.Weighted>
5.6113

> <Gold.Chemscore.Internal.Correction.Weighted>
   9.000000E+99

> <Gold.Protein.RotatedTorsions>
[ 6907 6896 6895 6894 ] final  -40.01 input  -60.11 | X-H torsion
[ 7974 7965 7964 7962 ] final   31.72 input  175.53 | X-H torsion
[ 8008 7997 7996 7995 ] final -123.88 input   59.86 | X-H torsion
[ 10167 10162 10161 10158 ] final  -60.37 input  -65.29 | X-H torsion
[ 10718 10713 10712 10709 ] final  -25.71 input   66.30 | X-H torsion
[ 10763 10752 10751 10750 ] final   34.91 input  -60.55 | X-H torsion
[ 11005 11000 10999 10996 ] final  118.63 input  -57.11 | X-H torsion

> <Gold.Protein.ActiveResidues>
 VAL166  LYS551  ARG553  GLY616  TRP617  ASP618  TYR619  PRO620  LYS621  CYS622 
 ASP623  PHE694  ASN695  SER759  ASP760  ASP761  ALA762  ILE779  LEU786  VAL792 
 PHE793  MET794  SER795  GLU796  ALA797  LYS798  CYS799  TRP800  GLU811  SER814 

> <Gold.Protein.RotatedAtoms>
  150.9835  134.9185  159.7857 H   0  0  0  0  0  0  0  0  0  0  0  0  # atno 6907 bound_to 6896
  152.5229  134.3378  159.9216 H   0  0  0  0  0  0  0  0  0  0  0  0  # atno 6908 bound_to 6896
  151.3384  133.3931  159.2703 H   0  0  0  0  0  0  0  0  0  0  0  0  # atno 6909 bound_to 6896
  146.1532  139.6619  142.9084 H   0  0  0  0  0  0  0  0  0  0  0  0  # atno 7974 bound_to 7965
  155.1877  140.0412  157.2894 H   0  0  0  0  0  0  0  0  0  0  0  0  # atno 8008 bound_to 7997
  154.6160  140.2489  155.7581 H   0  0  0  0  0  0  0  0  0  0  0  0  # atno 8009 bound_to 7997
  156.2406  140.2905  156.0445 H   0  0  0  0  0  0  0  0  0  0  0  0  # atno 8010 bound_to 7997
  140.6076  143.2378  151.5786 H   0  0  0  0  0  0  0  0  0  0  0  0  # atno 10167 bound_to 10162
  156.4608  130.4503  149.6930 H   0  0  0  0  0  0  0  0  0  0  0  0  # atno 10718 bound_to 10713
  153.0143  135.6348  154.1743 H   0  0  0  0  0  0  0  0  0  0  0  0  # atno 10763 bound_to 10752
  154.1483  135.2830  155.3144 H   0  0  0  0  0  0  0  0  0  0  0  0  # atno 10764 bound_to 10752
  154.6073  135.5568  153.7497 H   0  0  0  0  0  0  0  0  0  0  0  0  # atno 10765 bound_to 10752
  139.9116  134.9622  156.7532 H   0  0  0  0  0  0  0  0  0  0  0  0  # atno 11005 bound_to 11000
  145.4773  141.0437  143.2665 LP  0  0  0  0  0  0  0  0  0  0  0  0  # atno 17320 bound_to 7965
  144.7930  139.6290  143.7105 LP  0  0  0  0  0  0  0  0  0  0  0  0  # atno 17321 bound_to 7965
  139.5336  144.2844  152.1203 LP  0  0  0  0  0  0  0  0  0  0  0  0  # atno 17342 bound_to 10162
  140.2037  144.4632  150.6419 LP  0  0  0  0  0  0  0  0  0  0  0  0  # atno 17343 bound_to 10162
  156.3718  130.7534  151.2518 LP  0  0  0  0  0  0  0  0  0  0  0  0  # atno 17370 bound_to 10713
  157.7498  131.0321  150.4210 LP  0  0  0  0  0  0  0  0  0  0  0  0  # atno 17371 bound_to 10713
  140.6756  133.9520  155.7881 LP  0  0  0  0  0  0  0  0  0  0  0  0  # atno 17394 bound_to 11000
  141.0546  134.0435  157.3739 LP  0  0  0  0  0  0  0  0  0  0  0  0  # atno 17395 bound_to 11000

$$$$
