AV-unprocessed.smi:2784|AV-procd|sdf|10743|dock3
  -GOLD-   2272015183D 1   1.00000     0.00000
 Structure written by MMmdl.
 30 31  0  0  0  0  0  0  0  0  2 V2000
  150.9074  142.0221  156.8916 C   0  0  0  0  0  0  0  0  0  0  0  0
  150.3450  142.9611  157.7933 O   0  0  0  0  0  0  0  0  0  0  0  0
  151.0699  143.0908  159.0131 C   0  0  1  0  0  0  0  0  0  0  0  0
  152.5152  143.4821  158.6874 C   0  0  0  0  0  0  0  0  0  0  0  0
  152.4496  144.9898  158.4602 C   0  0  0  0  0  0  0  0  0  0  0  0
  151.4184  145.4934  159.4738 C   0  0  0  0  0  0  0  0  0  0  0  0
  150.5286  144.2862  159.8309 C   0  0  1  0  0  0  0  0  0  0  0  0
  149.1180  144.5707  159.5715 N   0  0  0  0  0  0  0  0  0  0  0  0
  148.1241  144.4774  160.4665 C   0  0  0  0  0  0  0  0  0  0  0  0
  148.3703  144.1277  161.6234 O   0  0  0  0  0  0  0  0  0  0  0  0
  146.9079  144.7899  159.9650 N   0  5  0  0  0  0  0  0  0  0  0  0
  145.7984  144.4388  160.6348 C   0  0  0  0  0  0  0  0  0  0  0  0
  144.5397  144.6286  160.2351 N   0  0  0  0  0  0  0  0  0  0  0  0
  143.7403  144.1022  161.2378 C   0  0  0  0  0  0  0  0  0  0  0  0
  144.5618  143.6031  162.2112 C   0  0  0  0  0  0  0  0  0  0  0  0
  145.8623  143.8066  161.8409 O   0  0  0  0  0  0  0  0  0  0  0  0
  150.3105  141.9901  155.9804 H   0  0  0  0  0  0  0  0  0  0  0  0
  150.9112  141.0203  157.3230 H   0  0  0  0  0  0  0  0  0  0  0  0
  151.9278  142.2881  156.6159 H   0  0  0  0  0  0  0  0  0  0  0  0
  151.0121  142.1710  159.5983 H   0  0  0  0  0  0  0  0  0  0  0  0
  153.1520  143.2722  159.5478 H   0  0  0  0  0  0  0  0  0  0  0  0
  152.9305  142.9474  157.8334 H   0  0  0  0  0  0  0  0  0  0  0  0
  153.4197  145.4741  158.5730 H   0  0  0  0  0  0  0  0  0  0  0  0
  152.0948  145.1894  157.4480 H   0  0  0  0  0  0  0  0  0  0  0  0
  151.9235  145.8516  160.3715 H   0  0  0  0  0  0  0  0  0  0  0  0
  150.8527  146.3344  159.0698 H   0  0  0  0  0  0  0  0  0  0  0  0
  150.6592  144.0782  160.8946 H   0  0  0  0  0  0  0  0  0  0  0  0
  148.8735  144.8525  158.6337 H   0  0  0  0  0  0  0  0  0  0  0  0
  142.6623  144.1225  161.1786 H   0  0  0  0  0  0  0  0  0  0  0  0
  144.3956  143.1091  163.1567 H   0  0  0  0  0  0  0  0  0  0  0  0
  1  2  1  0  0  0  0
  1 17  1  0  0  0  0
  1 18  1  0  0  0  0
  1 19  1  0  0  0  0
  2  3  1  0  0  0  0
  3  7  1  0  0  0  0
  3  4  1  0  0  0  0
  3 20  1  0  0  0  0
  4  5  1  0  0  0  0
  4 21  1  0  0  0  0
  4 22  1  0  0  0  0
  5  6  1  0  0  0  0
  5 23  1  0  0  0  0
  5 24  1  0  0  0  0
  6  7  1  0  0  0  0
  6 25  1  0  0  0  0
  6 26  1  0  0  0  0
  7  8  1  0  0  0  0
  7 27  1  0  0  0  0
  8 28  1  0  0  0  0
  8  9  1  0  0  0  0
  9 11  1  0  0  0  0
  9 10  2  0  0  0  0
 11 12  1  0  0  0  0
 12 16  1  0  0  0  0
 12 13  2  0  0  0  0
 13 14  1  0  0  0  0
 14 29  1  0  0  0  0
 14 15  2  0  0  0  0
 15 30  1  0  0  0  0
 15 16  1  0  0  0  0
M  CHG  1  11  -1
M  END
> <s_m_source_file>
AV-unprocessed.smi

> <i_m_source_file_index>
2784

> <i_lp_mmshare_version>
43012

> <i_f3d_flags>
0

> <s_epik_input>
W0NIM11PW0NAQEhdMVtDSDJdW0NIMl1bQ0gyXVtDQEhdMVtOSF1DKD1PKVtOSF1jMm5bY0hdW2NIXW8y

> <s_epik_cmdline>
J2VwaWtfcHl0aG9uJywgJy1waCcsICc3LjAnLCAnLXRuJywgJzgnLCAnLW1hJywgJzIwMCcsICctbWV0YWxfYmluZGluZycsICctaW1hZScsICc8aW5maWxlLm1hZT4nLCAnLW9tYWUnLCAnPG91dGZpbGUubWFlPic=

> <r_lp_tautomer_probability>
0.107061

> <r_epik_Ionization_Penalty>
10.8857

> <r_epik_Ionization_Penalty_Charging>
7.67908

> <r_epik_Ionization_Penalty_Neutral>
3.20665

> <r_epik_State_Penalty>
5.80296

> <r_epik_Charging_Adjusted_Penalty>
13.482

> <i_epik_Tot_Q>
-1

> <i_epik_Tot_abs_Q>
1

> <r_epik_Metal_State_Penalty>
1.73217

> <b_epik_Metal_Only>
1

> <s_lp_Force_Field>
OPLS_2005

> <r_lp_Energy>
16.6072

> <b_lp_Chiralities_Consistent>
1

> <s_lp_Variant>
AV-unprocessed.smi:2784-18

> <Gold.Version>
5.8.1

> <Gold.Id.Protein>
6NUR|6NUR_protein|mol2

> <Gold.PLP.Fitness>
37.3155

> <Gold.PLP.PLP>
-32.0475

> <Gold.PLP.part.hbond>
-2.0000

> <Gold.PLP.part.metal>
0.0000

> <Gold.PLP.part.buried>
-5.7398

> <Gold.PLP.part.nonpolar>
-25.1850

> <Gold.PLP.part.repulsive>
1.5586

> <Gold.PLP.ligand.clash>
0.0000

> <Gold.PLP.ligand.torsion>
0.0970

> <Gold.PLP.Chemscore.Hbond>
1.8160

> <Gold.PLP.Chemscore.CHOScore>
0.0000

> <Gold.PLP.Chemscore.Metal>
0.0000

> <Gold.Chemscore.Hbonds>
donor molecule, donor type, donor heavy atom, donor atom, acceptor molecule, acceptor atom, score
      L1  H     8    28       P1  8029  1.00
      P1  H  6933  6944       L1    10  0.83

> <Gold.PLP.Chemscore.Internal.Correction>
0.0140

> <Gold.Rescore>
     Score         DG    S(hbond)    S(metal)    S(lipo)     H(rot)  DE(clash)    DE(int)     intcor
     15.03     -17.30       1.74        0.00      80.16       1.31       0.39       1.88       ----

> <Gold.Chemscore.Fitness>
15.0329

> <Gold.Chemscore.DG>
-17.3000

> <Gold.Chemscore.ZeroCoef>
-5.4800

> <Gold.Chemscore.Hbond>
1.7355

> <Gold.Chemscore.Metal>
0.0000

> <Gold.Chemscore.Lipo>
80.1568

> <Gold.Chemscore.Internal_Hbond>
0.0000

> <Gold.Chemscore.DEClash>
0.3869

> <Gold.Chemscore.DEInternal>
1.8801

> <Gold.Chemscore.Rot>
1.3106

> <Gold.Chemscore.Internal.Correction>
   9.000000E+99

> <Gold.Chemscore.Hbonds>
donor molecule, donor type, donor heavy atom, donor atom, acceptor molecule, acceptor atom, score
      L1  H     8    28       P1  8029  0.87
      P1  H  6933  6944       L1    10  0.33

> <Gold.Chemscore.Hbond.Weighted>
-5.7967

> <Gold.Chemscore.Metal.Weighted>
-0.0000

> <Gold.Chemscore.Lipo.Weighted>
-9.3783

> <Gold.Chemscore.Internal_Hbond.Weighted>
0.0000

> <Gold.Chemscore.DEClash.Weighted>
0.3869

> <Gold.Chemscore.DEInternal.Weighted>
1.8801

> <Gold.Chemscore.Rot.Weighted>
3.3550

> <Gold.Chemscore.Internal.Correction.Weighted>
   9.000000E+99

> <Gold.Protein.RotatedTorsions>
[ 6907 6896 6895 6894 ] final   70.52 input  -60.11 | X-H torsion
[ 7974 7965 7964 7962 ] final   11.34 input  175.53 | X-H torsion
[ 8008 7997 7996 7995 ] final -172.30 input   59.86 | X-H torsion
[ 10167 10162 10161 10158 ] final   11.41 input  -65.29 | X-H torsion
[ 10718 10713 10712 10709 ] final    9.78 input   66.30 | X-H torsion
[ 10763 10752 10751 10750 ] final   94.08 input  -60.55 | X-H torsion
[ 11005 11000 10999 10996 ] final  -29.81 input  -57.11 | X-H torsion

> <Gold.Protein.ActiveResidues>
 VAL166  LYS551  ARG553  GLY616  TRP617  ASP618  TYR619  PRO620  LYS621  CYS622 
 ASP623  PHE694  ASN695  SER759  ASP760  ASP761  ALA762  ILE779  LEU786  VAL792 
 PHE793  MET794  SER795  GLU796  ALA797  LYS798  CYS799  TRP800  GLU811  SER814 

> <Gold.Protein.RotatedAtoms>
  152.4754  134.4856  159.9679 H   0  0  0  0  0  0  0  0  0  0  0  0  # atno 6907 bound_to 6896
  151.4873  133.3527  159.2855 H   0  0  0  0  0  0  0  0  0  0  0  0  # atno 6908 bound_to 6896
  150.8790  134.8204  159.7272 H   0  0  0  0  0  0  0  0  0  0  0  0  # atno 6909 bound_to 6896
  146.2373  139.9500  142.8472 H   0  0  0  0  0  0  0  0  0  0  0  0  # atno 7974 bound_to 7965
  155.9427  140.1111  157.1042 H   0  0  0  0  0  0  0  0  0  0  0  0  # atno 8008 bound_to 7997
  154.4093  140.1216  156.5015 H   0  0  0  0  0  0  0  0  0  0  0  0  # atno 8009 bound_to 7997
  155.6941  140.3472  155.4908 H   0  0  0  0  0  0  0  0  0  0  0  0  # atno 8010 bound_to 7997
  140.6133  143.8361  150.7090 H   0  0  0  0  0  0  0  0  0  0  0  0  # atno 10167 bound_to 10162
  156.9714  130.5970  149.5669 H   0  0  0  0  0  0  0  0  0  0  0  0  # atno 10718 bound_to 10713
  153.2375  135.4302  155.0662 H   0  0  0  0  0  0  0  0  0  0  0  0  # atno 10763 bound_to 10752
  154.8325  135.3394  154.6697 H   0  0  0  0  0  0  0  0  0  0  0  0  # atno 10764 bound_to 10752
  153.7122  135.7022  153.5091 H   0  0  0  0  0  0  0  0  0  0  0  0  # atno 10765 bound_to 10752
  140.9329  133.7327  156.0962 H   0  0  0  0  0  0  0  0  0  0  0  0  # atno 11005 bound_to 11000
  145.1871  140.9794  143.4232 LP  0  0  0  0  0  0  0  0  0  0  0  0  # atno 17320 bound_to 7965
  144.9890  139.3708  143.6224 LP  0  0  0  0  0  0  0  0  0  0  0  0  # atno 17321 bound_to 7965
  140.1934  143.4018  152.1846 LP  0  0  0  0  0  0  0  0  0  0  0  0  # atno 17342 bound_to 10162
  139.5379  144.7227  151.4832 LP  0  0  0  0  0  0  0  0  0  0  0  0  # atno 17343 bound_to 10162
  156.0281  130.5374  150.8461 LP  0  0  0  0  0  0  0  0  0  0  0  0  # atno 17370 bound_to 10713
  157.5590  131.0945  150.9587 LP  0  0  0  0  0  0  0  0  0  0  0  0  # atno 17371 bound_to 10713
  140.7839  134.3694  157.5481 LP  0  0  0  0  0  0  0  0  0  0  0  0  # atno 17394 bound_to 11000
  139.8800  134.9098  156.3000 LP  0  0  0  0  0  0  0  0  0  0  0  0  # atno 17395 bound_to 11000

$$$$
