AV-unprocessed.smi:726|AV-procd|sdf|3511|dock2
  -GOLD-   22720 0513D 1   1.00000     0.00000
 Structure written by MMmdl.
 24 24  0  0  0  0  0  0  0  0  2 V2000
  150.1360  140.1471  158.2645 C   0  0  0  0  0  0  0  0  0  0  0  0
  150.2025  139.6767  156.8158 C   0  0  0  0  0  0  0  0  0  0  0  0
  149.8075  140.4992  155.8267 C   0  0  0  0  0  0  0  0  0  0  0  0
  149.9089  140.0765  154.4546 C   0  0  0  0  0  0  0  0  0  0  0  0
  149.4934  140.8821  153.4692 O   0  0  0  0  0  0  0  0  0  0  0  0
  150.4342  138.8729  154.1716 C   0  0  0  0  0  0  0  0  0  0  0  0
  150.9003  137.9620  155.2189 C   0  0  0  0  0  0  0  0  0  0  0  0
  151.4218  136.8884  154.9186 O   0  0  0  0  0  0  0  0  0  0  0  0
  150.7266  138.3752  156.5222 N   0  0  0  0  0  0  0  0  0  0  0  0
  151.0422  137.4339  157.6406 C   0  0  1  0  0  0  0  0  0  0  0  0
  150.1910  136.1392  157.6187 C   0  0  0  0  0  0  0  0  0  0  0  0
  152.5560  137.2079  157.8072 C   0  0  0  0  0  0  0  0  0  0  0  0
  153.0231  136.0955  157.4769 O   0  0  0  0  0  0  0  0  0  0  0  0
  153.2250  138.1608  158.2644 O   0  5  0  0  0  0  0  0  0  0  0  0
  149.9136  141.2134  158.3167 H   0  0  0  0  0  0  0  0  0  0  0  0
  151.0861  140.0016  158.7784 H   0  0  0  0  0  0  0  0  0  0  0  0
  149.3468  139.6245  158.8058 H   0  0  0  0  0  0  0  0  0  0  0  0
  149.4281  141.4846  156.0558 H   0  0  0  0  0  0  0  0  0  0  0  0
  149.6862  140.4511  152.6507 H   0  0  0  0  0  0  0  0  0  0  0  0
  150.5158  138.5595  153.1405 H   0  0  0  0  0  0  0  0  0  0  0  0
  150.7470  137.8564  158.5955 H   0  0  0  0  0  0  0  0  0  0  0  0
  150.3227  135.5811  158.5463 H   0  0  0  0  0  0  0  0  0  0  0  0
  150.4494  135.4578  156.8095 H   0  0  0  0  0  0  0  0  0  0  0  0
  149.1298  136.3736  157.5325 H   0  0  0  0  0  0  0  0  0  0  0  0
  1  2  1  0  0  0  0
  1 15  1  0  0  0  0
  1 16  1  0  0  0  0
  1 17  1  0  0  0  0
  2  9  1  0  0  0  0
  2  3  2  0  0  0  0
  3  4  1  0  0  0  0
  3 18  1  0  0  0  0
  4  5  1  0  0  0  0
  4  6  2  0  0  0  0
  5 19  1  0  0  0  0
  6  7  1  0  0  0  0
  6 20  1  0  0  0  0
  7  8  2  0  0  0  0
  7  9  1  0  0  0  0
  9 10  1  0  0  0  0
 10 11  1  0  0  0  0
 10 12  1  0  0  0  0
 10 21  1  0  0  0  0
 11 22  1  0  0  0  0
 11 23  1  0  0  0  0
 11 24  1  0  0  0  0
 12 13  2  0  0  0  0
 12 14  1  0  0  0  0
M  CHG  1  14  -1
M  END
> <s_m_source_file>
AV-unprocessed.smi

> <i_m_source_file_index>
726

> <i_lp_mmshare_version>
43012

> <i_f3d_flags>
0

> <s_epik_input>
W0NIM11jMVtjSF1jKFtPSF0pW2NIXWMoPU8pbjFbQ0BIXShbQ0gzXSlDKD1PKVtPSF0=

> <s_epik_cmdline>
J2VwaWtfcHl0aG9uJywgJy1waCcsICc3LjAnLCAnLXRuJywgJzgnLCAnLW1hJywgJzIwMCcsICctbWV0YWxfYmluZGluZycsICctaW1hZScsICc8aW5maWxlLm1hZT4nLCAnLW9tYWUnLCAnPG91dGZpbGUubWFlPic=

> <r_lp_tautomer_probability>
0.999984

> <r_epik_Ionization_Penalty>
0.316948

> <r_epik_Ionization_Penalty_Charging>
0.000813874

> <r_epik_Ionization_Penalty_Neutral>
0.316134

> <r_epik_State_Penalty>
0.363429

> <r_epik_Charging_Adjusted_Penalty>
0.364242

> <i_epik_Tot_Q>
-1

> <i_epik_Tot_abs_Q>
1

> <r_epik_Metal_State_Penalty>
0.363429

> <b_epik_Metal_Only>
0

> <s_lp_Force_Field>
OPLS_2005

> <r_lp_Energy>
20.5014

> <b_lp_Chiralities_Consistent>
1

> <s_lp_Variant>
AV-unprocessed.smi:726-2

> <Gold.Version>
5.8.1

> <Gold.Id.Protein>
6NUR|6NUR_protein|mol2

> <Gold.PLP.Fitness>
36.7768

> <Gold.PLP.PLP>
-20.4533

> <Gold.PLP.part.hbond>
-5.6588

> <Gold.PLP.part.metal>
0.0000

> <Gold.PLP.part.buried>
-0.9114

> <Gold.PLP.part.nonpolar>
-14.9679

> <Gold.PLP.part.repulsive>
0.1289

> <Gold.PLP.ligand.clash>
0.0000

> <Gold.PLP.ligand.torsion>
0.5486

> <Gold.PLP.Chemscore.Hbond>
5.7090

> <Gold.PLP.Chemscore.CHOScore>
0.0000

> <Gold.PLP.Chemscore.Metal>
0.0000

> <Gold.Chemscore.Hbonds>
donor molecule, donor type, donor heavy atom, donor atom, acceptor molecule, acceptor atom, score
      L1  H     5    19       P1  7957  1.00
      P1  H 10752 10765       L1     8  0.57

> <Gold.PLP.Chemscore.Internal.Correction>
0.2936

> <Gold.Rescore>
     Score         DG    S(hbond)    S(metal)    S(lipo)     H(rot)  DE(clash)    DE(int)     intcor
     15.25     -16.50       3.51        0.00      39.05       2.06       0.31       0.94       ----

> <Gold.Chemscore.Fitness>
15.2451

> <Gold.Chemscore.DG>
-16.4974

> <Gold.Chemscore.ZeroCoef>
-5.4800

> <Gold.Chemscore.Hbond>
3.5091

> <Gold.Chemscore.Metal>
0.0000

> <Gold.Chemscore.Lipo>
39.0474

> <Gold.Chemscore.Internal_Hbond>
0.0000

> <Gold.Chemscore.DEClash>
0.3104

> <Gold.Chemscore.DEInternal>
0.9418

> <Gold.Chemscore.Rot>
2.0592

> <Gold.Chemscore.Internal.Correction>
   9.000000E+99

> <Gold.Chemscore.Hbonds>
donor molecule, donor type, donor heavy atom, donor atom, acceptor molecule, acceptor atom, score
      L1  H     5    19       P1  7957  0.94
      P1  H 10752 10763       L1    13  0.06
      P1  H 10752 10765       L1     8  0.58

> <Gold.Chemscore.Hbond.Weighted>
-11.7203

> <Gold.Chemscore.Metal.Weighted>
-0.0000

> <Gold.Chemscore.Lipo.Weighted>
-4.5685

> <Gold.Chemscore.Internal_Hbond.Weighted>
0.0000

> <Gold.Chemscore.DEClash.Weighted>
0.3104

> <Gold.Chemscore.DEInternal.Weighted>
0.9418

> <Gold.Chemscore.Rot.Weighted>
5.2715

> <Gold.Chemscore.Internal.Correction.Weighted>
   9.000000E+99

> <Gold.Protein.RotatedTorsions>
[ 6907 6896 6895 6894 ] final   29.64 input  -60.11 | X-H torsion
[ 7974 7965 7964 7962 ] final   68.99 input  175.53 | X-H torsion
[ 8008 7997 7996 7995 ] final  151.46 input   59.86 | X-H torsion
[ 10167 10162 10161 10158 ] final  170.34 input  -65.29 | X-H torsion
[ 10718 10713 10712 10709 ] final   40.18 input   66.30 | X-H torsion
[ 10763 10752 10751 10750 ] final  147.80 input  -60.55 | X-H torsion
[ 11005 11000 10999 10996 ] final   62.40 input  -57.11 | X-H torsion

> <Gold.Protein.ActiveResidues>
 VAL166  LYS551  ARG553  GLY616  TRP617  ASP618  TYR619  PRO620  LYS621  CYS622 
 ASP623  PHE694  ASN695  SER759  ASP760  ASP761  ALA762  ILE779  LEU786  VAL792 
 PHE793  MET794  SER795  GLU796  ALA797  LYS798  CYS799  TRP800  GLU811  SER814 

> <Gold.Protein.RotatedAtoms>
  152.0344  134.9749  160.0572 H   0  0  0  0  0  0  0  0  0  0  0  0  # atno 6907 bound_to 6896
  152.1212  133.4350  159.4685 H   0  0  0  0  0  0  0  0  0  0  0  0  # atno 6908 bound_to 6896
  150.6849  134.2451  159.4531 H   0  0  0  0  0  0  0  0  0  0  0  0  # atno 6909 bound_to 6896
  145.7958  139.2957  143.1183 H   0  0  0  0  0  0  0  0  0  0  0  0  # atno 7974 bound_to 7965
  156.2673  140.2047  156.6178 H   0  0  0  0  0  0  0  0  0  0  0  0  # atno 8008 bound_to 7997
  154.6780  140.0543  157.0260 H   0  0  0  0  0  0  0  0  0  0  0  0  # atno 8009 bound_to 7997
  155.1041  140.3209  155.4542 H   0  0  0  0  0  0  0  0  0  0  0  0  # atno 8010 bound_to 7997
  139.5016  144.3607  151.9828 H   0  0  0  0  0  0  0  0  0  0  0  0  # atno 10167 bound_to 10162
  157.3792  130.7744  149.7179 H   0  0  0  0  0  0  0  0  0  0  0  0  # atno 10718 bound_to 10713
  154.0443  135.2887  155.3350 H   0  0  0  0  0  0  0  0  0  0  0  0  # atno 10763 bound_to 10752
  154.6909  135.5226  153.8395 H   0  0  0  0  0  0  0  0  0  0  0  0  # atno 10764 bound_to 10752
  153.0587  135.6605  154.0645 H   0  0  0  0  0  0  0  0  0  0  0  0  # atno 10765 bound_to 10752
  140.0094  134.6319  155.9803 H   0  0  0  0  0  0  0  0  0  0  0  0  # atno 11005 bound_to 11000
  145.9929  140.8587  143.0057 LP  0  0  0  0  0  0  0  0  0  0  0  0  # atno 17320 bound_to 7965
  144.6775  140.2241  143.7363 LP  0  0  0  0  0  0  0  0  0  0  0  0  # atno 17321 bound_to 7965
  140.3043  144.3611  150.6051 LP  0  0  0  0  0  0  0  0  0  0  0  0  # atno 17342 bound_to 10162
  140.5849  143.2170  151.7361 LP  0  0  0  0  0  0  0  0  0  0  0  0  # atno 17343 bound_to 10162
  155.9772  130.4066  150.3728 LP  0  0  0  0  0  0  0  0  0  0  0  0  # atno 17370 bound_to 10713
  157.1830  131.0397  151.2739 LP  0  0  0  0  0  0  0  0  0  0  0  0  # atno 17371 bound_to 10713
  141.1700  133.6537  156.4618 LP  0  0  0  0  0  0  0  0  0  0  0  0  # atno 17394 bound_to 11000
  140.4581  134.6866  157.5072 LP  0  0  0  0  0  0  0  0  0  0  0  0  # atno 17395 bound_to 11000

$$$$
