AV-unprocessed.smi:781|AV-procd|sdf|3709|dock10
  -GOLD-   22720 1133D 1   1.00000     0.00000
 Structure written by MMmdl.
 38 40  0  0  0  0  0  0  0  0  1 V2000
  153.0230  141.9662  161.3170 C   0  0  0  0  0  0  0  0  0  0  0  0
  152.4129  142.5365  160.0825 C   0  0  0  0  0  0  0  0  0  0  0  0
  151.5738  142.0205  159.1352 C   0  0  0  0  0  0  0  0  0  0  0  0
  151.3941  143.1087  158.2401 C   0  0  0  0  0  0  0  0  0  0  0  0
  150.5722  142.9773  157.0920 N   0  0  0  0  0  0  0  0  0  0  0  0
  150.3686  141.8751  156.3506 C   0  0  0  0  0  0  0  0  0  0  0  0
  150.8921  140.7783  156.5490 O   0  0  0  0  0  0  0  0  0  0  0  0
  149.5155  142.1175  155.3461 N   0  0  0  0  0  0  0  0  0  0  0  0
  149.0862  141.1320  154.3564 C   0  0  2  0  0  0  0  0  0  0  0  0
  148.0242  141.6740  153.3661 C   0  0  2  0  0  0  0  0  0  0  0  0
  146.8449  142.3381  154.1087 C   0  0  0  0  0  0  0  0  0  0  0  0
  146.1440  141.1363  154.7693 C   0  0  0  0  0  0  0  0  0  0  0  0
  146.9907  139.9411  154.2889 C   0  0  1  0  0  0  0  0  0  0  0  0
  147.3722  140.3854  152.8814 C   0  0  0  0  0  0  0  0  0  0  0  0
  148.3488  139.9434  155.0286 C   0  0  1  0  0  0  0  0  0  0  0  0
  149.1006  138.6044  154.9026 C   0  0  0  0  0  0  0  0  0  0  0  0
  149.6661  138.4832  153.6143 O   0  0  0  0  0  0  0  0  0  0  0  0
  152.0631  144.1910  158.6073 N   0  0  0  0  0  0  0  0  0  0  0  0
  152.7194  143.8297  159.7899 O   0  0  0  0  0  0  0  0  0  0  0  0
  152.6449  140.9624  161.5113 H   0  0  0  0  0  0  0  0  0  0  0  0
  152.7940  142.5863  162.1838 H   0  0  0  0  0  0  0  0  0  0  0  0
  154.1071  141.9062  161.2197 H   0  0  0  0  0  0  0  0  0  0  0  0
  151.1576  141.0250  159.0921 H   0  0  0  0  0  0  0  0  0  0  0  0
  150.0819  143.8120  156.8068 H   0  0  0  0  0  0  0  0  0  0  0  0
  149.1326  143.0472  155.2571 H   0  0  0  0  0  0  0  0  0  0  0  0
  149.9539  140.7722  153.7998 H   0  0  0  0  0  0  0  0  0  0  0  0
  148.4445  142.2965  152.5753 H   0  0  0  0  0  0  0  0  0  0  0  0
  147.1532  143.0948  154.8299 H   0  0  0  0  0  0  0  0  0  0  0  0
  146.1736  142.8230  153.3986 H   0  0  0  0  0  0  0  0  0  0  0  0
  146.1170  141.2163  155.8565 H   0  0  0  0  0  0  0  0  0  0  0  0
  145.1156  141.0521  154.4160 H   0  0  0  0  0  0  0  0  0  0  0  0
  146.4598  138.9902  154.3434 H   0  0  0  0  0  0  0  0  0  0  0  0
  146.5112  140.5527  152.2317 H   0  0  0  0  0  0  0  0  0  0  0  0
  148.0672  139.7104  152.3799 H   0  0  0  0  0  0  0  0  0  0  0  0
  148.1752  140.1318  156.0897 H   0  0  0  0  0  0  0  0  0  0  0  0
  149.9064  138.5529  155.6354 H   0  0  0  0  0  0  0  0  0  0  0  0
  148.4423  137.7556  155.0876 H   0  0  0  0  0  0  0  0  0  0  0  0
  149.4331  137.6378  153.2618 H   0  0  0  0  0  0  0  0  0  0  0  0
  1  2  1  0  0  0  0
  1 20  1  0  0  0  0
  1 21  1  0  0  0  0
  1 22  1  0  0  0  0
  2 19  1  0  0  0  0
  2  3  2  0  0  0  0
  3  4  1  0  0  0  0
  3 23  1  0  0  0  0
  4  5  1  0  0  0  0
  4 18  2  0  0  0  0
  5  6  1  0  0  0  0
  5 24  1  0  0  0  0
  6  7  2  0  0  0  0
  6  8  1  0  0  0  0
  8  9  1  0  0  0  0
  8 25  1  0  0  0  0
  9 15  1  0  0  0  0
  9 10  1  0  0  0  0
  9 26  1  0  0  0  0
 10 14  1  0  0  0  0
 10 11  1  0  0  0  0
 10 27  1  0  0  0  0
 11 12  1  0  0  0  0
 11 28  1  0  0  0  0
 11 29  1  0  0  0  0
 12 13  1  0  0  0  0
 12 30  1  0  0  0  0
 12 31  1  0  0  0  0
 13 14  1  0  0  0  0
 13 15  1  0  0  0  0
 13 32  1  0  0  0  0
 14 33  1  0  0  0  0
 14 34  1  0  0  0  0
 15 16  1  0  0  0  0
 15 35  1  0  0  0  0
 16 17  1  0  0  0  0
 16 36  1  0  0  0  0
 16 37  1  0  0  0  0
 17 38  1  0  0  0  0
 18 19  1  0  0  0  0
M  END
> <s_m_source_file>
AV-unprocessed.smi

> <i_m_source_file_index>
781

> <i_lp_mmshare_version>
43012

> <i_f3d_flags>
0

> <s_epik_input>
W0NIM11jMVtjSF1jKG5vMSlbTkhdQyg9TylbTkhdW0NASF0oW0NAQEhdMjMpW0NASF0oW0NIMl1bT0hdKVtDQEBIXShbQ0gyXTMpW0NIMl1bQ0gyXTI=

> <s_epik_cmdline>
J2VwaWtfcHl0aG9uJywgJy1waCcsICc3LjAnLCAnLXRuJywgJzgnLCAnLW1hJywgJzIwMCcsICctbWV0YWxfYmluZGluZycsICctaW1hZScsICc8aW5maWxlLm1hZT4nLCAnLW9tYWUnLCAnPG91dGZpbGUubWFlPic=

> <r_lp_tautomer_probability>
1

> <r_epik_Ionization_Penalty>
2.32222e-05

> <r_epik_Ionization_Penalty_Charging>
0

> <r_epik_Ionization_Penalty_Neutral>
2.32222e-05

> <r_epik_State_Penalty>
-0

> <r_epik_Charging_Adjusted_Penalty>
0

> <i_epik_Tot_Q>
0

> <i_epik_Tot_abs_Q>
0

> <r_epik_Metal_State_Penalty>
-0

> <b_epik_Metal_Only>
0

> <s_lp_Force_Field>
OPLS_2005

> <r_lp_Energy>
46.3862

> <b_lp_Chiralities_Consistent>
1

> <s_lp_Variant>
AV-unprocessed.smi:781-3

> <Gold.Version>
5.8.1

> <Gold.Id.Protein>
6NUR|6NUR_protein|mol2

> <Gold.PLP.Fitness>
45.8529

> <Gold.PLP.PLP>
-37.5753

> <Gold.PLP.part.hbond>
-4.0000

> <Gold.PLP.part.metal>
0.0000

> <Gold.PLP.part.buried>
-6.4925

> <Gold.PLP.part.nonpolar>
-26.9841

> <Gold.PLP.part.repulsive>
0.2789

> <Gold.PLP.ligand.clash>
0.0000

> <Gold.PLP.ligand.torsion>
0.3699

> <Gold.PLP.Chemscore.Hbond>
3.0000

> <Gold.PLP.Chemscore.CHOScore>
0.0000

> <Gold.PLP.Chemscore.Metal>
0.0000

> <Gold.Chemscore.Hbonds>
donor molecule, donor type, donor heavy atom, donor atom, acceptor molecule, acceptor atom, score
      L1  H     5    24       P1  8028  1.00
      L1  H     8    25       P1  8028  1.00
      L1  H    17    38       P1  7948  1.00

> <Gold.PLP.Chemscore.Internal.Correction>
0.0174

> <Gold.Rescore>
     Score         DG    S(hbond)    S(metal)    S(lipo)     H(rot)  DE(clash)    DE(int)     intcor
     17.71     -19.64       2.88        0.00      79.59       1.86       1.29       0.63       ----

> <Gold.Chemscore.Fitness>
17.7138

> <Gold.Chemscore.DG>
-19.6385

> <Gold.Chemscore.ZeroCoef>
-5.4800

> <Gold.Chemscore.Hbond>
2.8756

> <Gold.Chemscore.Metal>
0.0000

> <Gold.Chemscore.Lipo>
79.5918

> <Gold.Chemscore.Internal_Hbond>
0.0000

> <Gold.Chemscore.DEClash>
1.2943

> <Gold.Chemscore.DEInternal>
0.6305

> <Gold.Chemscore.Rot>
1.8587

> <Gold.Chemscore.Internal.Correction>
   9.000000E+99

> <Gold.Chemscore.Hbonds>
donor molecule, donor type, donor heavy atom, donor atom, acceptor molecule, acceptor atom, score
      L1  H     5    24       P1  8028  0.96
      L1  H     8    25       P1  8028  0.99
      L1  H    17    38       P1  7948  0.89

> <Gold.Chemscore.Hbond.Weighted>
-9.6046

> <Gold.Chemscore.Metal.Weighted>
-0.0000

> <Gold.Chemscore.Lipo.Weighted>
-9.3122

> <Gold.Chemscore.Internal_Hbond.Weighted>
0.0000

> <Gold.Chemscore.DEClash.Weighted>
1.2943

> <Gold.Chemscore.DEInternal.Weighted>
0.6305

> <Gold.Chemscore.Rot.Weighted>
4.7583

> <Gold.Chemscore.Internal.Correction.Weighted>
   9.000000E+99

> <Gold.Protein.RotatedTorsions>
[ 6907 6896 6895 6894 ] final -175.01 input  -60.11 | X-H torsion
[ 7974 7965 7964 7962 ] final  145.65 input  175.53 | X-H torsion
[ 8008 7997 7996 7995 ] final  -20.03 input   59.86 | X-H torsion
[ 10167 10162 10161 10158 ] final  -37.66 input  -65.29 | X-H torsion
[ 10718 10713 10712 10709 ] final  177.03 input   66.30 | X-H torsion
[ 10763 10752 10751 10750 ] final -118.42 input  -60.55 | X-H torsion
[ 11005 11000 10999 10996 ] final  -30.78 input  -57.11 | X-H torsion

> <Gold.Protein.ActiveResidues>
 VAL166  LYS551  ARG553  GLY616  TRP617  ASP618  TYR619  PRO620  LYS621  CYS622 
 ASP623  PHE694  ASN695  SER759  ASP760  ASP761  ALA762  ILE779  LEU786  VAL792 
 PHE793  MET794  SER795  GLU796  ALA797  LYS798  CYS799  TRP800  GLU811  SER814 

> <Gold.Protein.RotatedAtoms>
  151.5816  133.3377  159.3009 H   0  0  0  0  0  0  0  0  0  0  0  0  # atno 6907 bound_to 6896
  150.8310  134.7566  159.6865 H   0  0  0  0  0  0  0  0  0  0  0  0  # atno 6908 bound_to 6896
  152.4394  134.5628  159.9950 H   0  0  0  0  0  0  0  0  0  0  0  0  # atno 6909 bound_to 6896
  144.8735  139.5809  143.5876 H   0  0  0  0  0  0  0  0  0  0  0  0  # atno 7974 bound_to 7965
  154.4797  140.2073  155.9794 H   0  0  0  0  0  0  0  0  0  0  0  0  # atno 8008 bound_to 7997
  156.1145  140.3223  155.8089 H   0  0  0  0  0  0  0  0  0  0  0  0  # atno 8009 bound_to 7997
  155.4577  140.0521  157.2985 H   0  0  0  0  0  0  0  0  0  0  0  0  # atno 8010 bound_to 7997
  140.7112  143.3328  151.2531 H   0  0  0  0  0  0  0  0  0  0  0  0  # atno 10167 bound_to 10162
  156.9114  130.9911  151.3020 H   0  0  0  0  0  0  0  0  0  0  0  0  # atno 10718 bound_to 10713
  154.8587  135.4274  154.2137 H   0  0  0  0  0  0  0  0  0  0  0  0  # atno 10763 bound_to 10752
  153.3157  135.6979  153.7081 H   0  0  0  0  0  0  0  0  0  0  0  0  # atno 10764 bound_to 10752
  153.6156  135.3511  155.2967 H   0  0  0  0  0  0  0  0  0  0  0  0  # atno 10765 bound_to 10752
  140.9412  133.7278  156.1078 H   0  0  0  0  0  0  0  0  0  0  0  0  # atno 11005 bound_to 11000
  146.2946  139.7241  142.9136 LP  0  0  0  0  0  0  0  0  0  0  0  0  # atno 17320 bound_to 7965
  145.4086  141.0394  143.3030 LP  0  0  0  0  0  0  0  0  0  0  0  0  # atno 17321 bound_to 7965
  139.6814  143.9848  152.2810 LP  0  0  0  0  0  0  0  0  0  0  0  0  # atno 17342 bound_to 10162
  139.9479  144.6639  150.8201 LP  0  0  0  0  0  0  0  0  0  0  0  0  # atno 17343 bound_to 10162
  157.5965  130.8481  149.8737 LP  0  0  0  0  0  0  0  0  0  0  0  0  # atno 17370 bound_to 10713
  156.0534  130.3713  150.1147 LP  0  0  0  0  0  0  0  0  0  0  0  0  # atno 17371 bound_to 10713
  140.7732  134.3809  157.5503 LP  0  0  0  0  0  0  0  0  0  0  0  0  # atno 17394 bound_to 11000
  139.8821  134.9035  156.2856 LP  0  0  0  0  0  0  0  0  0  0  0  0  # atno 17395 bound_to 11000

$$$$
