#       Name:                AV-unprocessed.smi:169
#       Creating user name   scv26
#       Creation time:       Thu Mar 26 19:14:29 2020


#       File generated by GOLD software.
#

@<TRIPOS>MOLECULE
AV-unprocessed.smi:169
    64    68     1
SMALL
NO_CHARGES


@<TRIPOS>ATOM
      1 ****        -5.7375  -0.1235   1.6503 C.3            1 S1                 0.0000
      2 ****        -5.6396   0.0638   0.1260 C.3            1 S1                 0.0000
      3 ****        -4.2455   0.1654  -0.3799 N.4            1 S1                 1.0000
      4 ****        -3.4622  -1.0834  -0.1978 C.3            1 S1                 0.0000
      5 ****        -2.5160  -1.3695  -1.3805 C.3            1 S1                 0.0000
      6 ****        -1.6747  -0.1731  -1.8763 C.3            1 S1                 0.0000
      7 ****        -2.4166   0.7220  -2.8930 C.3            1 S1                 0.0000
      8 ****        -2.6106   2.0698  -2.1905 C.3            1 S1                 0.0000
      9 ****        -2.2870   1.7766  -0.7227 C.3            1 S1                 0.0000
     10 ****        -3.5382   1.3861   0.1012 C.3            1 S1                 0.0000
     11 ****        -1.2896   0.7086  -0.7772 N.3            1 S1                 0.0000
     12 ****         0.0377   0.9879  -0.6873 C.ar           1 S1                 0.0000
     13 ****         0.4838   2.2689  -0.7811 N.ar           1 S1                 0.0000
     14 ****         1.7908   2.5372  -0.7060 C.ar           1 S1                 0.0000
     15 ****         2.8079   1.6900  -0.5389 N.ar           1 S1                 0.0000
     16 ****         2.3678   0.4034  -0.4364 C.ar           1 S1                 0.0000
     17 ****         1.0138  -0.0306  -0.4986 C.ar           1 S1                 0.0000
     18 ****         0.9521  -1.4108  -0.3490 N.2            1 S1                 0.0000
     19 ****         2.1987  -1.7729  -0.2144 C.2            1 S1                 0.0000
     20 ****         3.1156  -0.7462  -0.2464 N.pl3          1 S1                 0.0000
     21 ****         4.5609  -0.8633  -0.1239 C.3            1 S1                 0.0000
     22 ****         5.0580  -0.9585   1.3309 C.3            1 S1                 0.0000
     23 ****         4.6697   0.3391   2.0689 C.3            1 S1                 0.0000
     24 ****         5.1789   0.3864   3.3871 O.3            1 S1                 0.0000
     25 ****         4.7521  -2.2707   2.0679 C.3            1 S1                 0.0000
     26 ****         6.1444  -2.4860   2.3878 O.3            1 S1                 0.0000
     27 ****         6.5145  -1.4194   1.4861 C.3            1 S1                 0.0000
     28 ****        -6.7798  -0.2200   1.9549 H              1 S1                 0.0000
     29 ****        -5.3215   0.7265   2.1910 H              1 S1                 0.0000
     30 ****        -5.2180  -1.0220   1.9832 H              1 S1                 0.0000
     31 ****        -6.1362  -0.7671  -0.3766 H              1 S1                 0.0000
     32 ****        -6.1893   0.9585  -0.1683 H              1 S1                 0.0000
     33 ****        -2.9039  -1.0378   0.7387 H              1 S1                 0.0000
     34 ****        -4.1322  -1.9387  -0.0999 H              1 S1                 0.0000
     35 ****        -1.8372  -2.1642  -1.0695 H              1 S1                 0.0000
     36 ****        -3.0802  -1.7886  -2.2145 H              1 S1                 0.0000
     37 ****        -0.7951  -0.5732  -2.3834 H              1 S1                 0.0000
     38 ****        -1.8315   0.8495  -3.8045 H              1 S1                 0.0000
     39 ****        -3.3762   0.2947  -3.1858 H              1 S1                 0.0000
     40 ****        -1.8922   2.7898  -2.5849 H              1 S1                 0.0000
     41 ****        -3.6071   2.4876  -2.3373 H              1 S1                 0.0000
     42 ****        -1.8847   2.6777  -0.2592 H              1 S1                 0.0000
     43 ****        -4.2314   2.2281   0.0806 H              1 S1                 0.0000
     44 ****        -3.2552   1.2563   1.1465 H              1 S1                 0.0000
     45 ****         2.0602   3.5797  -0.7927 H              1 S1                 0.0000
     46 ****         2.4837  -2.8069  -0.0872 H              1 S1                 0.0000
     47 ****         4.8673  -1.7437  -0.6904 H              1 S1                 0.0000
     48 ****         5.0211  -0.0144  -0.6311 H              1 S1                 0.0000
     49 ****         5.0379   1.2149   1.5334 H              1 S1                 0.0000
     50 ****         3.5871   0.4433   2.1400 H              1 S1                 0.0000
     51 ****         4.9064   1.1987   3.7860 H              1 S1                 0.0000
     52 ****         4.1308  -2.1512   2.9563 H              1 S1                 0.0000
     53 ****         4.3637  -3.0636   1.4279 H              1 S1                 0.0000
     54 ****         6.9585  -1.8054   0.5672 H              1 S1                 0.0000
     55 ****         7.1738  -0.6857   1.9513 H              1 S1                 0.0000
     56 ****        -4.3468   0.2805  -1.3783 H              1 S1                 0.0000
     57 ****        -1.3317   0.2534   0.1122 LP             1 S1                 0.0000
     58 ****        -0.1702   3.0148  -0.9071 LP             1 S1                 0.0000
     59 ****         3.7688   1.9632  -0.4945 LP             1 S1                 0.0000
     60 ****         0.1390  -1.9930  -0.3453 LP             1 S1                 0.0000
     61 ****         6.1776   0.3404   3.3645 LP             1 S1                 0.0000
     62 ****         4.8215  -0.3845   3.9143 LP             1 S1                 0.0000
     63 ****         6.4906  -3.3853   2.1207 LP             1 S1                 0.0000
     64 ****         6.3755  -2.3106   3.3448 LP             1 S1                 0.0000
@<TRIPOS>BOND
    1    1    2 1     
    2    1   28 1     
    3    1   29 1     
    4    1   30 1     
    5    2    3 1     
    6    2   31 1     
    7    2   32 1     
    8    3   10 1     
    9    3    4 1     
   10    3   56 1     
   11    4    5 1     
   12    4   33 1     
   13    4   34 1     
   14    5    6 1     
   15    5   35 1     
   16    5   36 1     
   17    6   11 1     
   18    6    7 1     
   19    6   37 1     
   20    7    8 1     
   21    7   38 1     
   22    7   39 1     
   23    8    9 1     
   24    8   40 1     
   25    8   41 1     
   26    9   10 1     
   27    9   11 1     
   28    9   42 1     
   29   10   43 1     
   30   10   44 1     
   31   11   12 1     
   32   12   17 ar    
   33   12   13 ar    
   34   13   14 ar    
   35   14   15 ar    
   36   14   45 1     
   37   15   16 ar    
   38   16   20 1     
   39   16   17 ar    
   40   17   18 1     
   41   18   19 2     
   42   19   20 1     
   43   19   46 1     
   44   20   21 1     
   45   21   22 1     
   46   21   47 1     
   47   21   48 1     
   48   22   27 1     
   49   22   23 1     
   50   22   25 1     
   51   23   24 1     
   52   23   49 1     
   53   23   50 1     
   54   24   51 1     
   55   25   26 1     
   56   25   52 1     
   57   25   53 1     
   58   26   27 1     
   59   27   54 1     
   60   27   55 1     
   61   11   57 1     
   62   13   58 1     
   63   15   59 1     
   64   18   60 1     
   65   24   61 1     
   66   24   62 1     
   67   26   63 1     
   68   26   64 1     
@<TRIPOS>SUBSTRUCTURE
      1 S1             1
@<TRIPOS>SET
LONE_PAIRS      STATIC     ATOMS    <user>   **** ""
8 57 58 59 60 61 62 63 64
DONOR_HYDROGENS      STATIC     ATOMS    <user>   **** ""
2 56 51
ATOM$BLUE        STATIC     ATOMS    COLORGROUP SYSTEM
8 57 58 59 60 61 62 63 64
ATOM$RED        STATIC     ATOMS    COLORGROUP SYSTEM
2 56 51
