#       Name:                AV-unprocessed.smi:3094
#       Creating user name   scv26
#       Creation time:       Fri Mar 27 17:16:46 2020


#       File generated by GOLD software.
#

@<TRIPOS>MOLECULE
AV-unprocessed.smi:3094
    32    33     1
SMALL
NO_CHARGES


@<TRIPOS>ATOM
      1 ****        -0.7487  -2.4156  -2.0920 C.3            1 S1                 0.0000
      2 ****        -0.2723  -1.5792  -0.8968 C.3            1 S1                 0.0000
      3 ****         1.2685  -1.5771  -0.7953 C.3            1 S1                 0.0000
      4 ****         1.7587  -0.9830   0.4529 N.pl3          1 S1                 0.0000
      5 ****         1.7600  -1.5547   1.6993 C.2            1 S1                 0.0000
      6 ****         2.2964  -0.6267   2.5543 C.2            1 S1                 0.0000
      7 ****         2.6043   0.4692   1.7936 N.pl3          1 S1                 1.0000
      8 ****         2.2817   0.2487   0.5152 C.2            1 S1                 0.0000
      9 ****        -0.7955  -0.2202  -1.0352 N.am           1 S1                 0.0000
     10 ****        -1.2136   0.5680  -0.0319 C.2            1 S1                 0.0000
     11 ****        -1.1838   0.2237   1.1506 O.2            1 S1                 0.0000
     12 ****        -1.6987   1.9082  -0.4767 C.3            1 S1                 0.0000
     13 ****        -1.3745   3.0956   0.4063 C.3            1 S1                 0.0000
     14 ****        -2.7870   2.5718   0.3423 C.3            1 S1                 0.0000
     15 ****        -0.4126  -3.4493  -2.0062 H              1 S1                 0.0000
     16 ****        -0.3669  -2.0188  -3.0335 H              1 S1                 0.0000
     17 ****        -1.8375  -2.4300  -2.1534 H              1 S1                 0.0000
     18 ****        -0.6847  -2.0415   0.0021 H              1 S1                 0.0000
     19 ****         1.6497  -2.5986  -0.8303 H              1 S1                 0.0000
     20 ****         1.7159  -1.0457  -1.6371 H              1 S1                 0.0000
     21 ****         1.3819  -2.5502   1.8815 H              1 S1                 0.0000
     22 ****         2.4760  -0.6629   3.6188 H              1 S1                 0.0000
     23 ****         2.4062   0.9358  -0.3027 H              1 S1                 0.0000
     24 ****        -0.8573   0.1459  -1.9746 H              1 S1                 0.0000
     25 ****        -1.7135   2.0898  -1.5505 H              1 S1                 0.0000
     26 ****        -0.8180   2.9233   1.3260 H              1 S1                 0.0000
     27 ****        -1.1563   4.0372  -0.0932 H              1 S1                 0.0000
     28 ****        -3.5251   3.1585  -0.2007 H              1 S1                 0.0000
     29 ****        -3.1685   2.0531   1.2201 H              1 S1                 0.0000
     30 ****         3.0138   1.3255   2.1457 H              1 S1                 0.0000
     31 ****        -0.8362  -0.6803   1.3996 LP             1 S1                 0.0000
     32 ****        -1.5071   0.8482   1.8616 LP             1 S1                 0.0000
@<TRIPOS>BOND
    1    1    2 1     
    2    1   15 1     
    3    1   16 1     
    4    1   17 1     
    5    2    3 1     
    6    2    9 1     
    7    2   18 1     
    8    3    4 1     
    9    3   19 1     
   10    3   20 1     
   11    4    8 1     
   12    4    5 1     
   13    5    6 2     
   14    5   21 1     
   15    6    7 1     
   16    6   22 1     
   17    7    8 2     
   18    7   30 1     
   19    8   23 1     
   20    9   10 am    
   21    9   24 1     
   22   10   11 2     
   23   10   12 1     
   24   12   14 1     
   25   12   13 1     
   26   12   25 1     
   27   13   14 1     
   28   13   26 1     
   29   13   27 1     
   30   14   28 1     
   31   14   29 1     
   32   11   31 1     
   33   11   32 1     
@<TRIPOS>SUBSTRUCTURE
      1 S1             1
@<TRIPOS>SET
LONE_PAIRS      STATIC     ATOMS    <user>   **** ""
2 31 32
DONOR_HYDROGENS      STATIC     ATOMS    <user>   **** ""
2 30 24
ATOM$BLUE        STATIC     ATOMS    COLORGROUP SYSTEM
2 31 32
ATOM$RED        STATIC     ATOMS    COLORGROUP SYSTEM
2 30 24
