#       Name:                AV-unprocessed.smi:3337
#       Creating user name   scv26
#       Creation time:       Fri Mar 27 19:26:01 2020


#       File generated by GOLD software.
#

@<TRIPOS>MOLECULE
AV-unprocessed.smi:3337
    50    51     1
SMALL
NO_CHARGES


@<TRIPOS>ATOM
      1 ****        -1.0331   3.1011   2.7248 C.3            1 S1                 0.0000
      2 ****        -1.4453   2.1959   1.5555 C.3            1 S1                 0.0000
      3 ****        -2.9627   2.2555   1.3087 C.3            1 S1                 0.0000
      4 ****        -3.3607   1.3786   0.1086 C.3            1 S1                 0.0000
      5 ****        -4.8707   1.4503  -0.1589 C.3            1 S1                 0.0000
      6 ****        -2.5477   1.7876  -1.1378 C.3            1 S1                 0.0000
      7 ****        -1.0818   1.7230  -0.8983 N.4            1 S1                 1.0000
      8 ****        -0.5421   0.3369  -0.8866 C.3            1 S1                 0.0000
      9 ****         0.9589   0.2873  -1.2343 C.3            1 S1                 0.0000
     10 ****         1.4635  -1.0807  -1.2423 N.am           1 S1                 0.0000
     11 ****         1.7558  -1.7956  -0.1439 C.2            1 S1                 0.0000
     12 ****         1.6005  -1.3601   0.9978 O.2            1 S1                 0.0000
     13 ****         2.3058  -3.2118  -0.3758 C.3            1 S1                 0.0000
     14 ****         1.9376  -4.1841   0.7630 C.3            1 S1                 0.0000
     15 ****         3.7431  -3.1628  -0.6136 N.pl3          1 S1                 0.0000
     16 ****         4.4243  -3.1913  -1.7612 C.2            1 S1                 0.0000
     17 ****         5.7369  -3.0845  -1.6116 N.2            1 S1                 0.0000
     18 ****         5.8036  -2.9767  -0.2516 C.2            1 S1                 0.0000
     19 ****         4.6380  -3.0069   0.3940 N.2            1 S1                 0.0000
     20 ****        -0.6778   2.5603   0.2651 C.3            1 S1                 0.0000
     21 ****        -1.2561   4.1480   2.5162 H              1 S1                 0.0000
     22 ****         0.0360   3.0215   2.9243 H              1 S1                 0.0000
     23 ****        -1.5585   2.8249   3.6396 H              1 S1                 0.0000
     24 ****        -1.1886   1.1755   1.8404 H              1 S1                 0.0000
     25 ****        -3.4973   1.9285   2.2016 H              1 S1                 0.0000
     26 ****        -3.2666   3.2877   1.1270 H              1 S1                 0.0000
     27 ****        -3.1247   0.3417   0.3515 H              1 S1                 0.0000
     28 ****        -5.1808   2.4624  -0.4211 H              1 S1                 0.0000
     29 ****        -5.4401   1.1459   0.7200 H              1 S1                 0.0000
     30 ****        -5.1563   0.7913  -0.9793 H              1 S1                 0.0000
     31 ****        -2.8143   1.1663  -1.9938 H              1 S1                 0.0000
     32 ****        -2.8017   2.8109  -1.4190 H              1 S1                 0.0000
     33 ****        -0.7358  -0.1385   0.0745 H              1 S1                 0.0000
     34 ****        -1.0755  -0.2582  -1.6291 H              1 S1                 0.0000
     35 ****         1.1257   0.7155  -2.2230 H              1 S1                 0.0000
     36 ****         1.5540   0.8781  -0.5377 H              1 S1                 0.0000
     37 ****         1.6194  -1.5080  -2.1440 H              1 S1                 0.0000
     38 ****         1.8442  -3.5965  -1.2871 H              1 S1                 0.0000
     39 ****         0.8565  -4.2452   0.8924 H              1 S1                 0.0000
     40 ****         2.3675  -3.8807   1.7184 H              1 S1                 0.0000
     41 ****         2.2977  -5.1900   0.5455 H              1 S1                 0.0000
     42 ****         3.9508  -3.2897  -2.7270 H              1 S1                 0.0000
     43 ****         6.7386  -2.8660   0.2779 H              1 S1                 0.0000
     44 ****        -0.8760   3.6025   0.0106 H              1 S1                 0.0000
     45 ****         0.3967   2.4968   0.4318 H              1 S1                 0.0000
     46 ****        -0.6628   2.1537  -1.7101 H              1 S1                 0.0000
     47 ****         1.2426  -0.4367   1.1363 LP             1 S1                 0.0000
     48 ****         1.8324  -1.9300   1.7861 LP             1 S1                 0.0000
     49 ****         6.4664  -3.0832  -2.2956 LP             1 S1                 0.0000
     50 ****         4.4660  -2.9331   1.3763 LP             1 S1                 0.0000
@<TRIPOS>BOND
    1    1    2 1     
    2    1   21 1     
    3    1   22 1     
    4    1   23 1     
    5    2   20 1     
    6    2    3 1     
    7    2   24 1     
    8    3    4 1     
    9    3   25 1     
   10    3   26 1     
   11    4    5 1     
   12    4    6 1     
   13    4   27 1     
   14    5   28 1     
   15    5   29 1     
   16    5   30 1     
   17    6    7 1     
   18    6   31 1     
   19    6   32 1     
   20    7    8 1     
   21    7   20 1     
   22    7   46 1     
   23    8    9 1     
   24    8   33 1     
   25    8   34 1     
   26    9   10 1     
   27    9   35 1     
   28    9   36 1     
   29   10   11 am    
   30   10   37 1     
   31   11   12 2     
   32   11   13 1     
   33   13   14 1     
   34   13   15 1     
   35   13   38 1     
   36   14   39 1     
   37   14   40 1     
   38   14   41 1     
   39   15   19 1     
   40   15   16 1     
   41   16   17 2     
   42   16   42 1     
   43   17   18 1     
   44   18   19 2     
   45   18   43 1     
   46   20   44 1     
   47   20   45 1     
   48   12   47 1     
   49   12   48 1     
   50   17   49 1     
   51   19   50 1     
@<TRIPOS>SUBSTRUCTURE
      1 S1             1
@<TRIPOS>SET
LONE_PAIRS      STATIC     ATOMS    <user>   **** ""
4 47 48 49 50
DONOR_HYDROGENS      STATIC     ATOMS    <user>   **** ""
2 46 37
ATOM$BLUE        STATIC     ATOMS    COLORGROUP SYSTEM
4 47 48 49 50
ATOM$RED        STATIC     ATOMS    COLORGROUP SYSTEM
2 46 37
