AV-unprocessed.smi:450|AV-procd|sdf|2608|dock2
  -GOLD-   2262023 03D 1   1.00000     0.00000
 Structure written by MMmdl.
 32 32  0  0  0  0  0  0  0  0  1 V2000
  143.5173  136.0929  152.2931 C   0  0  0  0  0  0  0  0  0  0  0  0
  145.0332  135.8449  152.2978 C   0  0  0  0  0  0  0  0  0  0  0  0
  145.4253  134.3904  151.9759 C   0  0  1  0  0  0  0  0  0  0  0  0
  144.9870  133.9858  150.5593 C   0  0  0  0  0  0  0  0  0  0  0  0
  146.8672  134.2177  152.1271 N   0  0  0  0  0  0  0  0  0  0  0  0
  147.4696  133.2418  152.8239 C   0  0  0  0  0  0  0  0  0  0  0  0
  146.8622  132.3311  153.3857 O   0  0  0  0  0  0  0  0  0  0  0  0
  148.9946  133.3124  152.9120 C   0  0  0  0  0  0  0  0  0  0  0  0
  149.4841  132.5692  154.0707 N   0  0  0  0  0  0  0  0  0  0  0  0
  149.2957  131.2676  154.3703 C   0  0  0  0  0  0  0  0  0  0  0  0
  148.5431  130.4432  153.5466 N   0  0  0  0  0  0  0  0  0  0  0  0
  149.8868  130.8708  155.4937 N   0  0  0  0  0  0  0  0  0  0  0  0
  150.5260  132.0060  155.9880 C   0  0  0  0  0  0  0  0  0  0  0  0
  151.2798  131.9804  157.1957 C   0  0  0  0  0  0  0  0  0  0  0  0
  151.8902  131.9613  158.1783 N   0  0  0  0  0  0  0  0  0  0  0  0
  150.2770  133.0424  155.1141 C   0  0  0  0  0  0  0  0  0  0  0  0
  150.7434  134.3688  155.2344 C   0  0  0  0  0  0  0  0  0  0  0  0
  151.1251  135.4563  155.3325 N   0  0  0  0  0  0  0  0  0  0  0  0
  143.2977  137.1446  152.4779 H   0  0  0  0  0  0  0  0  0  0  0  0
  143.0109  135.5124  153.0649 H   0  0  0  0  0  0  0  0  0  0  0  0
  143.0787  135.8264  151.3311 H   0  0  0  0  0  0  0  0  0  0  0  0
  145.4961  136.5097  151.5677 H   0  0  0  0  0  0  0  0  0  0  0  0
  145.4406  136.1316  153.2682 H   0  0  0  0  0  0  0  0  0  0  0  0
  144.9147  133.7416  152.6901 H   0  0  0  0  0  0  0  0  0  0  0  0
  143.9112  134.1088  150.4327 H   0  0  0  0  0  0  0  0  0  0  0  0
  145.2215  132.9407  150.3549 H   0  0  0  0  0  0  0  0  0  0  0  0
  145.4829  134.5927  149.8012 H   0  0  0  0  0  0  0  0  0  0  0  0
  147.4516  134.9242  151.7046 H   0  0  0  0  0  0  0  0  0  0  0  0
  149.4421  132.9036  152.0053 H   0  0  0  0  0  0  0  0  0  0  0  0
  149.3189  134.3518  152.9728 H   0  0  0  0  0  0  0  0  0  0  0  0
  148.1170  130.7962  152.7014 H   0  0  0  0  0  0  0  0  0  0  0  0
  148.4403  129.4564  153.7336 H   0  0  0  0  0  0  0  0  0  0  0  0
  1  2  1  0  0  0  0
  1 19  1  0  0  0  0
  1 20  1  0  0  0  0
  1 21  1  0  0  0  0
  2  3  1  0  0  0  0
  2 22  1  0  0  0  0
  2 23  1  0  0  0  0
  3  4  1  0  0  0  0
  3  5  1  0  0  0  0
  3 24  1  0  0  0  0
  4 25  1  0  0  0  0
  4 26  1  0  0  0  0
  4 27  1  0  0  0  0
  5  6  1  0  0  0  0
  5 28  1  0  0  0  0
  6  7  2  0  0  0  0
  6  8  1  0  0  0  0
  8  9  1  0  0  0  0
  8 29  1  0  0  0  0
  8 30  1  0  0  0  0
  9 16  1  0  0  0  0
  9 10  1  0  0  0  0
 10 11  1  0  0  0  0
 10 12  2  0  0  0  0
 11 31  1  0  0  0  0
 11 32  1  0  0  0  0
 12 13  1  0  0  0  0
 13 14  1  0  0  0  0
 13 16  2  0  0  0  0
 14 15  3  0  0  0  0
 16 17  1  0  0  0  0
 17 18  3  0  0  0  0
M  END
> <s_m_source_file>
AV-unprocessed.smi

> <i_m_source_file_index>
450

> <i_lp_mmshare_version>
43012

> <i_f3d_flags>
0

> <s_epik_input>
W0NIM11bQ0gyXVtDQEhdKFtDSDNdKVtOSF1DKD1PKVtDSDJdbjFjKFtOSDJdKW5jKEMjTiljMUMjTg==

> <s_epik_cmdline>
J2VwaWtfcHl0aG9uJywgJy1waCcsICc3LjAnLCAnLXRuJywgJzgnLCAnLW1hJywgJzIwMCcsICctbWV0YWxfYmluZGluZycsICctaW1hZScsICc8aW5maWxlLm1hZT4nLCAnLW9tYWUnLCAnPG91dGZpbGUubWFlPic=

> <r_epik_Ionization_Penalty>
0.000482749

> <r_epik_Ionization_Penalty_Charging>
7.71074e-10

> <r_epik_Ionization_Penalty_Neutral>
0.000482748

> <r_epik_State_Penalty>
0.000433536

> <r_epik_Charging_Adjusted_Penalty>
0.000433537

> <i_epik_Tot_Q>
0

> <i_epik_Tot_abs_Q>
0

> <r_epik_Metal_State_Penalty>
-0

> <b_epik_Metal_Only>
0

> <s_lp_Force_Field>
OPLS_2005

> <r_lp_Energy>
5.27204

> <b_lp_Chiralities_Consistent>
1

> <s_lp_Variant>
AV-unprocessed.smi:450-2

> <Gold.Version>
5.8.1

> <Gold.Id.Protein>
6NUR|6NUR_protein|mol2

> <Gold.PLP.Fitness>
34.5846

> <Gold.PLP.PLP>
-26.5033

> <Gold.PLP.part.hbond>
-3.3173

> <Gold.PLP.part.metal>
0.0000

> <Gold.PLP.part.buried>
-3.3540

> <Gold.PLP.part.nonpolar>
-18.9166

> <Gold.PLP.part.repulsive>
0.2365

> <Gold.PLP.ligand.clash>
0.0000

> <Gold.PLP.ligand.torsion>
0.4637

> <Gold.PLP.Chemscore.Hbond>
2.9913

> <Gold.PLP.Chemscore.CHOScore>
0.0000

> <Gold.PLP.Chemscore.Metal>
0.0000

> <Gold.Chemscore.Hbonds>
donor molecule, donor type, donor heavy atom, donor atom, acceptor molecule, acceptor atom, score
      L1  H     5    28       P1  7948  1.00
      P1  H  6896  6907       L1    15  1.00
      P1  H 10752 10763       L1    18  1.00

> <Gold.PLP.Chemscore.Internal.Correction>
0.0350

> <Gold.Rescore>
     Score         DG    S(hbond)    S(metal)    S(lipo)     H(rot)  DE(clash)    DE(int)     intcor
     11.23     -12.99       2.77        0.00      33.49       2.21       0.03       1.74       ----

> <Gold.Chemscore.Fitness>
11.2279

> <Gold.Chemscore.DG>
-12.9925

> <Gold.Chemscore.ZeroCoef>
-5.4800

> <Gold.Chemscore.Hbond>
2.7715

> <Gold.Chemscore.Metal>
0.0000

> <Gold.Chemscore.Lipo>
33.4933

> <Gold.Chemscore.Internal_Hbond>
0.0000

> <Gold.Chemscore.DEClash>
0.0255

> <Gold.Chemscore.DEInternal>
1.7392

> <Gold.Chemscore.Rot>
2.2121

> <Gold.Chemscore.Internal.Correction>
   9.000000E+99

> <Gold.Chemscore.Hbonds>
donor molecule, donor type, donor heavy atom, donor atom, acceptor molecule, acceptor atom, score
      L1  H     5    28       P1  7948  0.65
      P1  H  6896  6907       L1    15  0.98
      P1  H 10752 10763       L1    18  0.69

> <Gold.Chemscore.Hbond.Weighted>
-9.2567

> <Gold.Chemscore.Metal.Weighted>
-0.0000

> <Gold.Chemscore.Lipo.Weighted>
-3.9187

> <Gold.Chemscore.Internal_Hbond.Weighted>
0.0000

> <Gold.Chemscore.DEClash.Weighted>
0.0255

> <Gold.Chemscore.DEInternal.Weighted>
1.7392

> <Gold.Chemscore.Rot.Weighted>
5.6629

> <Gold.Chemscore.Internal.Correction.Weighted>
   9.000000E+99

> <Gold.Protein.RotatedTorsions>
[ 6907 6896 6895 6894 ] final  164.75 input  -60.11 | X-H torsion
[ 7974 7965 7964 7962 ] final  -11.44 input  175.53 | X-H torsion
[ 8008 7997 7996 7995 ] final  -86.01 input   59.86 | X-H torsion
[ 10167 10162 10161 10158 ] final  -10.88 input  -65.29 | X-H torsion
[ 10718 10713 10712 10709 ] final   92.51 input   66.30 | X-H torsion
[ 10763 10752 10751 10750 ] final   70.63 input  -60.55 | X-H torsion
[ 11005 11000 10999 10996 ] final   73.12 input  -57.11 | X-H torsion

> <Gold.Protein.ActiveResidues>
 VAL166  LYS551  ARG553  GLY616  TRP617  ASP618  TYR619  PRO620  LYS621  CYS622 
 ASP623  PHE694  ASN695  SER759  ASP760  ASP761  ALA762  ILE779  LEU786  VAL792 
 PHE793  MET794  SER795  GLU796  ALA797  LYS798  CYS799  TRP800  GLU811  SER814 

> <Gold.Protein.RotatedAtoms>
  151.9051  133.3547  159.3843 H   0  0  0  0  0  0  0  0  0  0  0  0  # atno 6907 bound_to 6896
  150.7071  134.4789  159.5470 H   0  0  0  0  0  0  0  0  0  0  0  0  # atno 6908 bound_to 6896
  152.2385  134.8252  160.0514 H   0  0  0  0  0  0  0  0  0  0  0  0  # atno 6909 bound_to 6896
  146.2187  140.2912  142.8368 H   0  0  0  0  0  0  0  0  0  0  0  0  # atno 7974 bound_to 7965
  154.6471  140.0584  156.9913 H   0  0  0  0  0  0  0  0  0  0  0  0  # atno 8008 bound_to 7997
  155.1427  140.3267  155.4430 H   0  0  0  0  0  0  0  0  0  0  0  0  # atno 8009 bound_to 7997
  156.2559  140.1961  156.6542 H   0  0  0  0  0  0  0  0  0  0  0  0  # atno 8010 bound_to 7997
  140.7125  143.5700  150.9103 H   0  0  0  0  0  0  0  0  0  0  0  0  # atno 10167 bound_to 10162
  157.6958  131.0446  150.3893 H   0  0  0  0  0  0  0  0  0  0  0  0  # atno 10718 bound_to 10713
  153.0353  135.5166  154.7471 H   0  0  0  0  0  0  0  0  0  0  0  0  # atno 10763 bound_to 10752
  154.6453  135.2917  155.0056 H   0  0  0  0  0  0  0  0  0  0  0  0  # atno 10764 bound_to 10752
  154.0960  135.6643  153.4913 H   0  0  0  0  0  0  0  0  0  0  0  0  # atno 10765 bound_to 10752
  139.9456  134.7319  156.0989 H   0  0  0  0  0  0  0  0  0  0  0  0  # atno 11005 bound_to 11000
  144.9125  140.7774  143.5798 LP  0  0  0  0  0  0  0  0  0  0  0  0  # atno 17320 bound_to 7965
  145.2843  139.1906  143.4774 LP  0  0  0  0  0  0  0  0  0  0  0  0  # atno 17321 bound_to 7965
  139.9426  143.6364  152.3050 LP  0  0  0  0  0  0  0  0  0  0  0  0  # atno 17342 bound_to 10162
  139.6854  144.7652  151.1533 LP  0  0  0  0  0  0  0  0  0  0  0  0  # atno 17343 bound_to 10162
  156.4298  130.3970  149.6768 LP  0  0  0  0  0  0  0  0  0  0  0  0  # atno 17370 bound_to 10713
  156.3989  130.7665  151.2671 LP  0  0  0  0  0  0  0  0  0  0  0  0  # atno 17371 bound_to 10713
  141.1105  133.6645  156.2967 LP  0  0  0  0  0  0  0  0  0  0  0  0  # atno 17394 bound_to 11000
  140.5843  134.5714  157.5486 LP  0  0  0  0  0  0  0  0  0  0  0  0  # atno 17395 bound_to 11000

$$$$
