AV-unprocessed.smi:2633|AV-procd|sdf|10252|dock10
  -GOLD-   2272014263D 1   1.00000     0.00000
 Structure written by MMmdl.
 35 37  0  0  0  0  0  0  0  0  1 V2000
  151.5040  136.9178  154.1306 O   0  0  0  0  0  0  0  0  0  0  0  0
  150.6618  137.7094  154.9422 C   0  0  0  0  0  0  0  0  0  0  0  0
  151.2707  139.0989  155.1962 C   0  0  0  0  0  0  0  0  0  0  0  0
  150.2685  140.0863  155.5761 N   0  0  0  0  0  0  0  0  0  0  0  0
  150.2129  140.8593  156.6924 C   0  0  0  0  0  0  0  0  0  0  0  0
  151.2617  140.7953  157.7697 C   0  0  0  0  0  0  0  0  0  0  0  0
  151.7218  142.1604  158.2529 C   0  0  0  0  0  0  0  0  0  0  0  0
  151.2871  143.3266  157.5883 C   0  0  0  0  0  0  0  0  0  0  0  0
  151.7071  144.5942  158.0360 C   0  0  0  0  0  0  0  0  0  0  0  0
  152.5629  144.7003  159.1494 C   0  0  0  0  0  0  0  0  0  0  0  0
  152.9991  143.5382  159.8150 C   0  0  0  0  0  0  0  0  0  0  0  0
  152.5796  142.2701  159.3676 C   0  0  0  0  0  0  0  0  0  0  0  0
  149.1532  141.6676  156.7778 N   0  0  0  0  0  0  0  0  0  0  0  0
  148.4716  141.4094  155.6061 C   0  0  0  0  0  0  0  0  0  0  0  0
  147.2696  141.9565  155.1029 C   0  0  0  0  0  0  0  0  0  0  0  0
  146.7568  141.5299  153.8605 C   0  0  0  0  0  0  0  0  0  0  0  0
  147.4364  140.5516  153.1059 C   0  0  0  0  0  0  0  0  0  0  0  0
  148.6349  139.9930  153.5904 C   0  0  0  0  0  0  0  0  0  0  0  0
  149.1430  140.4235  154.8307 C   0  0  0  0  0  0  0  0  0  0  0  0
  151.0054  136.6119  153.3885 H   0  0  0  0  0  0  0  0  0  0  0  0
  149.6900  137.8020  154.4566 H   0  0  0  0  0  0  0  0  0  0  0  0
  150.4991  137.1924  155.8881 H   0  0  0  0  0  0  0  0  0  0  0  0
  152.0016  139.0323  156.0027 H   0  0  0  0  0  0  0  0  0  0  0  0
  151.8252  139.4474  154.3253 H   0  0  0  0  0  0  0  0  0  0  0  0
  150.8651  140.2197  158.6066 H   0  0  0  0  0  0  0  0  0  0  0  0
  152.1419  140.2615  157.4147 H   0  0  0  0  0  0  0  0  0  0  0  0
  150.6275  143.2508  156.7359 H   0  0  0  0  0  0  0  0  0  0  0  0
  151.3713  145.4852  157.5264 H   0  0  0  0  0  0  0  0  0  0  0  0
  152.8837  145.6725  159.4937 H   0  0  0  0  0  0  0  0  0  0  0  0
  153.6538  143.6191  160.6701 H   0  0  0  0  0  0  0  0  0  0  0  0
  152.9140  141.3832  159.8856 H   0  0  0  0  0  0  0  0  0  0  0  0
  146.7422  142.7062  155.6741 H   0  0  0  0  0  0  0  0  0  0  0  0
  145.8377  141.9554  153.4850 H   0  0  0  0  0  0  0  0  0  0  0  0
  147.0368  140.2305  152.1551 H   0  0  0  0  0  0  0  0  0  0  0  0
  149.1581  139.2437  153.0153 H   0  0  0  0  0  0  0  0  0  0  0  0
  1  2  1  0  0  0  0
  1 20  1  0  0  0  0
  2  3  1  0  0  0  0
  2 21  1  0  0  0  0
  2 22  1  0  0  0  0
  3  4  1  0  0  0  0
  3 23  1  0  0  0  0
  3 24  1  0  0  0  0
  4 19  1  0  0  0  0
  4  5  1  0  0  0  0
  5  6  1  0  0  0  0
  5 13  2  0  0  0  0
  6  7  1  0  0  0  0
  6 25  1  0  0  0  0
  6 26  1  0  0  0  0
  7 12  1  0  0  0  0
  7  8  2  0  0  0  0
  8  9  1  0  0  0  0
  8 27  1  0  0  0  0
  9 10  2  0  0  0  0
  9 28  1  0  0  0  0
 10 11  1  0  0  0  0
 10 29  1  0  0  0  0
 11 12  2  0  0  0  0
 11 30  1  0  0  0  0
 12 31  1  0  0  0  0
 13 14  1  0  0  0  0
 14 19  2  0  0  0  0
 14 15  1  0  0  0  0
 15 16  2  0  0  0  0
 15 32  1  0  0  0  0
 16 17  1  0  0  0  0
 16 33  1  0  0  0  0
 17 18  2  0  0  0  0
 17 34  1  0  0  0  0
 18 19  1  0  0  0  0
 18 35  1  0  0  0  0
M  END
> <s_m_source_file>
AV-unprocessed.smi

> <i_m_source_file_index>
2633

> <i_lp_mmshare_version>
43012

> <i_f3d_flags>
0

> <s_epik_input>
W2NIXTFbY0hdW2NIXVtjSF1jKGMxMiluKFtDSDJdW0NIMl1bT0hdKWMobjIpW0NIMl1jM1tjSF1bY0hdW2NIXVtjSF1bY0hdMw==

> <s_epik_cmdline>
J2VwaWtfcHl0aG9uJywgJy1waCcsICc3LjAnLCAnLXRuJywgJzgnLCAnLW1hJywgJzIwMCcsICctbWV0YWxfYmluZGluZycsICctaW1hZScsICc8aW5maWxlLm1hZT4nLCAnLW9tYWUnLCAnPG91dGZpbGUubWFlPic=

> <r_epik_Ionization_Penalty>
0.0631471

> <r_epik_Ionization_Penalty_Charging>
0

> <r_epik_Ionization_Penalty_Neutral>
0.0631471

> <r_epik_State_Penalty>
0.0549237

> <r_epik_Charging_Adjusted_Penalty>
0.0549237

> <i_epik_Tot_Q>
0

> <i_epik_Tot_abs_Q>
0

> <r_epik_Metal_State_Penalty>
5.75471e-05

> <b_epik_Metal_Only>
0

> <s_lp_Force_Field>
OPLS_2005

> <r_lp_Energy>
13.1063

> <b_lp_Chiralities_Consistent>
1

> <s_lp_Variant>
AV-unprocessed.smi:2633-1

> <Gold.Version>
5.8.1

> <Gold.Id.Protein>
6NUR|6NUR_protein|mol2

> <Gold.PLP.Fitness>
49.8847

> <Gold.PLP.PLP>
-44.5735

> <Gold.PLP.part.hbond>
-2.0000

> <Gold.PLP.part.metal>
0.0000

> <Gold.PLP.part.buried>
1.8621

> <Gold.PLP.part.nonpolar>
-45.2522

> <Gold.PLP.part.repulsive>
0.1052

> <Gold.PLP.ligand.clash>
0.0000

> <Gold.PLP.ligand.torsion>
0.3474

> <Gold.PLP.Chemscore.Hbond>
2.0000

> <Gold.PLP.Chemscore.CHOScore>
0.0000

> <Gold.PLP.Chemscore.Metal>
0.0000

> <Gold.Chemscore.Hbonds>
donor molecule, donor type, donor heavy atom, donor atom, acceptor molecule, acceptor atom, score
      L1  H     1    20       P1  7949  0.86
      P1  H 10752 10763       L1     1  1.00

> <Gold.PLP.Chemscore.Internal.Correction>
0.0060

> <Gold.Rescore>
     Score         DG    S(hbond)    S(metal)    S(lipo)     H(rot)  DE(clash)    DE(int)     intcor
     15.74     -20.86       1.31        0.00     136.89       1.96       3.36       1.76       ----

> <Gold.Chemscore.Fitness>
15.7429

> <Gold.Chemscore.DG>
-20.8636

> <Gold.Chemscore.ZeroCoef>
-5.4800

> <Gold.Chemscore.Hbond>
1.3126

> <Gold.Chemscore.Metal>
0.0000

> <Gold.Chemscore.Lipo>
136.8861

> <Gold.Chemscore.Internal_Hbond>
0.0000

> <Gold.Chemscore.DEClash>
3.3626

> <Gold.Chemscore.DEInternal>
1.7580

> <Gold.Chemscore.Rot>
1.9594

> <Gold.Chemscore.Internal.Correction>
   9.000000E+99

> <Gold.Chemscore.Hbonds>
donor molecule, donor type, donor heavy atom, donor atom, acceptor molecule, acceptor atom, score
      L1  H     1    20       P1  7949  0.21
      P1  H 10752 10763       L1     1  0.25

> <Gold.Chemscore.Hbond.Weighted>
-4.3839

> <Gold.Chemscore.Metal.Weighted>
-0.0000

> <Gold.Chemscore.Lipo.Weighted>
-16.0157

> <Gold.Chemscore.Internal_Hbond.Weighted>
0.0000

> <Gold.Chemscore.DEClash.Weighted>
3.3626

> <Gold.Chemscore.DEInternal.Weighted>
1.7580

> <Gold.Chemscore.Rot.Weighted>
5.0160

> <Gold.Chemscore.Internal.Correction.Weighted>
   9.000000E+99

> <Gold.Protein.RotatedTorsions>
[ 6907 6896 6895 6894 ] final   67.14 input  -60.11 | X-H torsion
[ 7974 7965 7964 7962 ] final  -13.89 input  175.53 | X-H torsion
[ 8008 7997 7996 7995 ] final -158.87 input   59.86 | X-H torsion
[ 10167 10162 10161 10158 ] final   56.07 input  -65.29 | X-H torsion
[ 10718 10713 10712 10709 ] final -156.32 input   66.30 | X-H torsion
[ 10763 10752 10751 10750 ] final   25.64 input  -60.55 | X-H torsion
[ 11005 11000 10999 10996 ] final  168.95 input  -57.11 | X-H torsion

> <Gold.Protein.ActiveResidues>
 VAL166  LYS551  ARG553  GLY616  TRP617  ASP618  TYR619  PRO620  LYS621  CYS622 
 ASP623  PHE694  ASN695  SER759  ASP760  ASP761  ALA762  ILE779  LEU786  VAL792 
 PHE793  MET794  SER795  GLU796  ALA797  LYS798  CYS799  TRP800  GLU811  SER814 

> <Gold.Protein.RotatedAtoms>
  152.4531  134.5351  159.9822 H   0  0  0  0  0  0  0  0  0  0  0  0  # atno 6907 bound_to 6896
  151.5419  133.3425  159.2945 H   0  0  0  0  0  0  0  0  0  0  0  0  # atno 6908 bound_to 6896
  150.8466  134.7808  159.7038 H   0  0  0  0  0  0  0  0  0  0  0  0  # atno 6909 bound_to 6896
  146.2096  140.3269  142.8395 H   0  0  0  0  0  0  0  0  0  0  0  0  # atno 7974 bound_to 7965
  155.7540  140.0830  157.2187 H   0  0  0  0  0  0  0  0  0  0  0  0  # atno 8008 bound_to 7997
  154.4009  140.1555  156.2812 H   0  0  0  0  0  0  0  0  0  0  0  0  # atno 8009 bound_to 7997
  155.8903  140.3415  155.5954 H   0  0  0  0  0  0  0  0  0  0  0  0  # atno 8010 bound_to 7997
  140.2127  144.3872  150.6482 H   0  0  0  0  0  0  0  0  0  0  0  0  # atno 10167 bound_to 10162
  156.5249  130.8495  151.2695 H   0  0  0  0  0  0  0  0  0  0  0  0  # atno 10718 bound_to 10713
  153.0677  135.6578  154.0316 H   0  0  0  0  0  0  0  0  0  0  0  0  # atno 10763 bound_to 10752
  153.9969  135.2940  155.3408 H   0  0  0  0  0  0  0  0  0  0  0  0  # atno 10764 bound_to 10752
  154.7041  135.5232  153.8639 H   0  0  0  0  0  0  0  0  0  0  0  0  # atno 10765 bound_to 10752
  140.2926  134.7661  157.3851 H   0  0  0  0  0  0  0  0  0  0  0  0  # atno 11005 bound_to 11000
  144.8880  140.7487  143.5944 LP  0  0  0  0  0  0  0  0  0  0  0  0  # atno 17320 bound_to 7965
  145.3190  139.1794  143.4598 LP  0  0  0  0  0  0  0  0  0  0  0  0  # atno 17321 bound_to 7965
  140.6312  143.2188  151.6492 LP  0  0  0  0  0  0  0  0  0  0  0  0  # atno 17342 bound_to 10162
  139.5174  144.3317  152.0820 LP  0  0  0  0  0  0  0  0  0  0  0  0  # atno 17343 bound_to 10162
  157.7431  130.9904  150.2566 LP  0  0  0  0  0  0  0  0  0  0  0  0  # atno 17370 bound_to 10713
  156.3114  130.3772  149.7658 LP  0  0  0  0  0  0  0  0  0  0  0  0  # atno 17371 bound_to 10713
  140.1182  134.5255  155.8207 LP  0  0  0  0  0  0  0  0  0  0  0  0  # atno 17394 bound_to 11000
  141.2143  133.6747  156.6816 LP  0  0  0  0  0  0  0  0  0  0  0  0  # atno 17395 bound_to 11000

$$$$
