AV-unprocessed.smi:2520|AV-procd|sdf|9913|dock4
  -GOLD-   2272013553D 1   1.00000     0.00000
 Structure written by MMmdl.
 41 44  0  0  0  0  0  0  0  0  1 V2000
  146.0746  137.4491  154.9488 O   0  0  0  0  0  0  0  0  0  0  0  0
  146.9913  137.0615  154.2265 C   0  0  0  0  0  0  0  0  0  0  0  0
  146.7754  136.1578  153.2468 N   0  0  0  0  0  0  0  0  0  0  0  0
  145.5869  135.4893  152.8291 C   0  0  0  0  0  0  0  0  0  0  0  0
  145.6889  134.8181  151.5916 C   0  0  0  0  0  0  0  0  0  0  0  0
  144.5644  134.1266  151.1098 C   0  0  0  0  0  0  0  0  0  0  0  0
  143.4053  134.1502  151.9037 C   0  0  0  0  0  0  0  0  0  0  0  0
  143.3498  134.8032  153.0842 N   0  0  0  0  0  0  0  0  0  0  0  0
  144.4248  135.4579  153.5350 N   0  0  0  0  0  0  0  0  0  0  0  0
  148.2517  137.5011  154.3584 N   0  0  0  0  0  0  0  0  0  0  0  0
  148.7010  138.5001  155.3322 C   0  0  2  0  0  0  0  0  0  0  0  0
  148.1160  139.8968  155.1014 C   0  0  2  0  0  0  0  0  0  0  0  0
  146.9330  140.4468  154.3891 C   0  0  0  0  0  0  0  0  0  0  0  0
  147.6415  141.6663  153.7428 C   0  0  0  0  0  0  0  0  0  0  0  0
  149.0596  141.4741  153.9779 O   0  0  0  0  0  0  0  0  0  0  0  0
  149.2084  140.0700  154.0662 C   0  0  1  0  0  0  0  0  0  0  0  0
  150.0821  139.1744  154.9768 C   0  0  0  0  0  0  0  0  0  0  0  0
  150.8582  139.8781  156.1090 C   0  0  0  0  0  0  0  0  0  0  0  0
  152.2870  139.3329  156.1242 C   0  0  0  0  0  0  0  0  0  0  0  0
  152.5136  138.8266  154.7074 C   0  0  0  0  0  0  0  0  0  0  0  0
  151.1425  138.3055  154.2876 C   0  0  0  0  0  0  0  0  0  0  0  0
  147.6069  135.8794  152.7465 H   0  0  0  0  0  0  0  0  0  0  0  0
  146.6066  134.8308  151.0216 H   0  0  0  0  0  0  0  0  0  0  0  0
  144.5897  133.5981  150.1685 H   0  0  0  0  0  0  0  0  0  0  0  0
  142.5082  133.6380  151.5888 H   0  0  0  0  0  0  0  0  0  0  0  0
  148.9494  137.1313  153.7283 H   0  0  0  0  0  0  0  0  0  0  0  0
  148.6403  138.1637  156.3683 H   0  0  0  0  0  0  0  0  0  0  0  0
  148.2998  140.4942  156.0003 H   0  0  0  0  0  0  0  0  0  0  0  0
  146.5439  139.7569  153.6393 H   0  0  0  0  0  0  0  0  0  0  0  0
  146.1273  140.7359  155.0640 H   0  0  0  0  0  0  0  0  0  0  0  0
  147.4363  141.7112  152.6726 H   0  0  0  0  0  0  0  0  0  0  0  0
  147.3210  142.6079  154.1891 H   0  0  0  0  0  0  0  0  0  0  0  0
  148.9928  139.6036  153.0992 H   0  0  0  0  0  0  0  0  0  0  0  0
  150.8910  140.9535  155.9291 H   0  0  0  0  0  0  0  0  0  0  0  0
  150.3864  139.7406  157.0825 H   0  0  0  0  0  0  0  0  0  0  0  0
  153.0210  140.0797  156.4280 H   0  0  0  0  0  0  0  0  0  0  0  0
  152.3519  138.4980  156.8232 H   0  0  0  0  0  0  0  0  0  0  0  0
  152.8058  139.6565  154.0625 H   0  0  0  0  0  0  0  0  0  0  0  0
  153.2916  138.0648  154.6493 H   0  0  0  0  0  0  0  0  0  0  0  0
  151.0437  137.2692  154.6138 H   0  0  0  0  0  0  0  0  0  0  0  0
  151.0393  138.3036  153.2020 H   0  0  0  0  0  0  0  0  0  0  0  0
  1  2  2  0  0  0  0
  2  3  1  0  0  0  0
  2 10  1  0  0  0  0
  3  4  1  0  0  0  0
  3 22  1  0  0  0  0
  4  9  1  0  0  0  0
  4  5  2  0  0  0  0
  5  6  1  0  0  0  0
  5 23  1  0  0  0  0
  6  7  2  0  0  0  0
  6 24  1  0  0  0  0
  7  8  1  0  0  0  0
  7 25  1  0  0  0  0
  8  9  2  0  0  0  0
 10 11  1  0  0  0  0
 10 26  1  0  0  0  0
 11 17  1  0  0  0  0
 11 12  1  0  0  0  0
 11 27  1  0  0  0  0
 12 16  1  0  0  0  0
 12 13  1  0  0  0  0
 12 28  1  0  0  0  0
 13 14  1  0  0  0  0
 13 29  1  0  0  0  0
 13 30  1  0  0  0  0
 14 15  1  0  0  0  0
 14 31  1  0  0  0  0
 14 32  1  0  0  0  0
 15 16  1  0  0  0  0
 16 17  1  0  0  0  0
 16 33  1  0  0  0  0
 17 21  1  0  0  0  0
 17 18  1  0  0  0  0
 18 19  1  0  0  0  0
 18 34  1  0  0  0  0
 18 35  1  0  0  0  0
 19 20  1  0  0  0  0
 19 36  1  0  0  0  0
 19 37  1  0  0  0  0
 20 21  1  0  0  0  0
 20 38  1  0  0  0  0
 20 39  1  0  0  0  0
 21 40  1  0  0  0  0
 21 41  1  0  0  0  0
M  END
> <s_m_source_file>
AV-unprocessed.smi

> <i_m_source_file_index>
2520

> <i_lp_mmshare_version>
43012

> <i_f3d_flags>
0

> <s_epik_input>
bjFuW2NIXVtjSF1bY0hdYzFbTkhdQyg9TylbTkhdW0NAQEhdMltDQEBIXShbQ0gyXVtDSDJdTzMpW0NASF0zQzI0W0NIMl1bQ0gyXVtDSDJdW0NIMl00

> <s_epik_cmdline>
J2VwaWtfcHl0aG9uJywgJy1waCcsICc3LjAnLCAnLXRuJywgJzgnLCAnLW1hJywgJzIwMCcsICctbWV0YWxfYmluZGluZycsICctaW1hZScsICc8aW5maWxlLm1hZT4nLCAnLW9tYWUnLCAnPG91dGZpbGUubWFlPic=

> <r_lp_tautomer_probability>
1

> <r_epik_Ionization_Penalty>
0.00552561

> <r_epik_Ionization_Penalty_Charging>
0

> <r_epik_Ionization_Penalty_Neutral>
0.00552561

> <r_epik_State_Penalty>
-0

> <r_epik_Charging_Adjusted_Penalty>
0

> <i_epik_Tot_Q>
0

> <i_epik_Tot_abs_Q>
0

> <r_epik_Metal_State_Penalty>
-0

> <b_epik_Metal_Only>
0

> <s_lp_Force_Field>
OPLS_2005

> <r_lp_Energy>
86.2541

> <b_lp_Chiralities_Consistent>
1

> <s_lp_Variant>
AV-unprocessed.smi:2520-7

> <Gold.Version>
5.8.1

> <Gold.Id.Protein>
6NUR|6NUR_protein|mol2

> <Gold.PLP.Fitness>
40.3383

> <Gold.PLP.PLP>
-30.4116

> <Gold.PLP.part.hbond>
-3.5417

> <Gold.PLP.part.metal>
0.0000

> <Gold.PLP.part.buried>
-2.5973

> <Gold.PLP.part.nonpolar>
-25.0106

> <Gold.PLP.part.repulsive>
0.4158

> <Gold.PLP.ligand.clash>
0.0000

> <Gold.PLP.ligand.torsion>
0.1862

> <Gold.PLP.Chemscore.Hbond>
2.4159

> <Gold.PLP.Chemscore.CHOScore>
0.9261

> <Gold.PLP.Chemscore.Metal>
0.0000

> <Gold.Chemscore.Hbonds>
donor molecule, donor type, donor heavy atom, donor atom, acceptor molecule, acceptor atom, score
      L1  H     3    22       P1  7948  1.00
      L1  H    10    26       P1  7948  0.70
      P1  H  8011  8017       L1    15  0.66
      L1  C     7    25       P1 10186  0.65

> <Gold.PLP.Chemscore.Internal.Correction>
0.2731

> <Gold.Rescore>
     Score         DG    S(hbond)    S(metal)    S(lipo)     H(rot)  DE(clash)    DE(int)     intcor
     16.63     -18.36       1.95        0.00      76.37       1.00       0.37       1.36       ----

> <Gold.Chemscore.Fitness>
16.6331

> <Gold.Chemscore.DG>
-18.3618

> <Gold.Chemscore.ZeroCoef>
-5.4800

> <Gold.Chemscore.Hbond>
1.9482

> <Gold.Chemscore.Metal>
0.0000

> <Gold.Chemscore.Lipo>
76.3656

> <Gold.Chemscore.Internal_Hbond>
0.0000

> <Gold.Chemscore.DEClash>
0.3719

> <Gold.Chemscore.DEInternal>
1.3568

> <Gold.Chemscore.Rot>
1.0000

> <Gold.Chemscore.Internal.Correction>
   9.000000E+99

> <Gold.Chemscore.Hbonds>
donor molecule, donor type, donor heavy atom, donor atom, acceptor molecule, acceptor atom, score
      L1  H     3    22       P1  7948  0.96
      L1  H    10    26       P1  7948  0.65
      P1  H  8011  8017       L1    15  0.14

> <Gold.Chemscore.Hbond.Weighted>
-6.5070

> <Gold.Chemscore.Metal.Weighted>
-0.0000

> <Gold.Chemscore.Lipo.Weighted>
-8.9348

> <Gold.Chemscore.Internal_Hbond.Weighted>
0.0000

> <Gold.Chemscore.DEClash.Weighted>
0.3719

> <Gold.Chemscore.DEInternal.Weighted>
1.3568

> <Gold.Chemscore.Rot.Weighted>
2.5600

> <Gold.Chemscore.Internal.Correction.Weighted>
   9.000000E+99

> <Gold.Protein.RotatedTorsions>
[ 6907 6896 6895 6894 ] final   -3.08 input  -60.11 | X-H torsion
[ 7974 7965 7964 7962 ] final -166.23 input  175.53 | X-H torsion
[ 8008 7997 7996 7995 ] final   65.06 input   59.86 | X-H torsion
[ 10167 10162 10161 10158 ] final -136.50 input  -65.29 | X-H torsion
[ 10718 10713 10712 10709 ] final -122.21 input   66.30 | X-H torsion
[ 10763 10752 10751 10750 ] final  158.31 input  -60.55 | X-H torsion
[ 11005 11000 10999 10996 ] final  -32.97 input  -57.11 | X-H torsion

> <Gold.Protein.ActiveResidues>
 VAL166  LYS551  ARG553  GLY616  TRP617  ASP618  TYR619  PRO620  LYS621  CYS622 
 ASP623  PHE694  ASN695  SER759  ASP760  ASP761  ALA762  ILE779  LEU786  VAL792 
 PHE793  MET794  SER795  GLU796  ALA797  LYS798  CYS799  TRP800  GLU811  SER814 

> <Gold.Protein.RotatedAtoms>
  151.5196  135.1067  159.9874 H   0  0  0  0  0  0  0  0  0  0  0  0  # atno 6907 bound_to 6896
  152.4626  133.7851  159.6882 H   0  0  0  0  0  0  0  0  0  0  0  0  # atno 6908 bound_to 6896
  150.8595  133.7600  159.3022 H   0  0  0  0  0  0  0  0  0  0  0  0  # atno 6909 bound_to 6896
  144.7250  140.2697  143.6252 H   0  0  0  0  0  0  0  0  0  0  0  0  # atno 7974 bound_to 7965
  155.6558  140.3497  155.4765 H   0  0  0  0  0  0  0  0  0  0  0  0  # atno 8008 bound_to 7997
  155.9810  140.1174  157.0750 H   0  0  0  0  0  0  0  0  0  0  0  0  # atno 8009 bound_to 7997
  154.4191  140.1138  156.5421 H   0  0  0  0  0  0  0  0  0  0  0  0  # atno 8010 bound_to 7997
  139.8672  143.7003  152.2644 H   0  0  0  0  0  0  0  0  0  0  0  0  # atno 10167 bound_to 10162
  156.1399  130.6458  150.9755 H   0  0  0  0  0  0  0  0  0  0  0  0  # atno 10718 bound_to 10713
  154.2141  135.2785  155.2948 H   0  0  0  0  0  0  0  0  0  0  0  0  # atno 10763 bound_to 10752
  154.5755  135.5605  153.7138 H   0  0  0  0  0  0  0  0  0  0  0  0  # atno 10764 bound_to 10752
  153.0057  135.6332  154.2280 H   0  0  0  0  0  0  0  0  0  0  0  0  # atno 10765 bound_to 10752
  140.9596  133.7172  156.1348 H   0  0  0  0  0  0  0  0  0  0  0  0  # atno 11005 bound_to 11000
  145.8055  139.1981  143.2023 LP  0  0  0  0  0  0  0  0  0  0  0  0  # atno 17320 bound_to 7965
  146.0641  140.7940  142.9720 LP  0  0  0  0  0  0  0  0  0  0  0  0  # atno 17321 bound_to 7965
  139.7318  144.7580  151.0790 LP  0  0  0  0  0  0  0  0  0  0  0  0  # atno 17342 bound_to 10162
  140.7766  143.5079  150.9689 LP  0  0  0  0  0  0  0  0  0  0  0  0  # atno 17343 bound_to 10162
  157.6566  131.0888  150.7932 LP  0  0  0  0  0  0  0  0  0  0  0  0  # atno 17370 bound_to 10713
  156.8009  130.4920  149.5370 LP  0  0  0  0  0  0  0  0  0  0  0  0  # atno 17371 bound_to 10713
  140.7487  134.4069  157.5544 LP  0  0  0  0  0  0  0  0  0  0  0  0  # atno 17394 bound_to 11000
  139.8873  134.8885  156.2533 LP  0  0  0  0  0  0  0  0  0  0  0  0  # atno 17395 bound_to 11000

$$$$
