AV-unprocessed.smi:1583|AV-procd|sdf|6364|dock9
  -GOLD-   22720 6593D 1   1.00000     0.00000
 Structure written by MMmdl.
 37 38  0  0  0  0  0  0  0  0  2 V2000
  147.0519  139.0106  152.0085 C   0  0  0  0  0  0  0  0  0  0  0  0
  147.9777  139.9078  152.6826 N   0  0  0  0  0  0  0  0  0  0  0  0
  147.6529  140.6771  153.7318 C   0  0  0  0  0  0  0  0  0  0  0  0
  146.5287  140.7016  154.2321 O   0  0  0  0  0  0  0  0  0  0  0  0
  148.7602  141.5613  154.2990 C   0  0  0  0  0  0  0  0  0  0  0  0
  150.1297  140.6001  154.9995 S   0  0  0  0  0  0  0  0  0  0  0  0
  150.7841  141.5893  156.3054 C   0  0  0  0  0  0  0  0  0  0  0  0
  150.6188  142.9331  156.4529 N   0  3  0  0  0  0  0  0  0  0  0  0
  151.2902  143.3626  157.5986 C   0  0  0  0  0  0  0  0  0  0  0  0
  151.4162  144.6296  158.1598 C   0  0  0  0  0  0  0  0  0  0  0  0
  152.1807  144.7250  159.3413 C   0  0  0  0  0  0  0  0  0  0  0  0
  152.7845  143.5894  159.9197 C   0  0  0  0  0  0  0  0  0  0  0  0
  152.6493  142.3095  159.3424 C   0  0  0  0  0  0  0  0  0  0  0  0
  151.8912  142.2237  158.1751 C   0  0  0  0  0  0  0  0  0  0  0  0
  151.5491  141.1513  157.3445 N   0  0  0  0  0  0  0  0  0  0  0  0
  152.0344  139.8033  157.6723 C   0  0  0  0  0  0  0  0  0  0  0  0
  152.1668  138.9137  156.4278 C   0  0  0  0  0  0  0  0  0  0  0  0
  153.0410  139.5280  155.4949 O   0  0  0  0  0  0  0  0  0  0  0  0
  153.4025  138.6588  154.4365 C   0  0  0  0  0  0  0  0  0  0  0  0
  147.5630  138.4869  151.2004 H   0  0  0  0  0  0  0  0  0  0  0  0
  146.2160  139.5658  151.5805 H   0  0  0  0  0  0  0  0  0  0  0  0
  146.6575  138.2662  152.7014 H   0  0  0  0  0  0  0  0  0  0  0  0
  148.9246  139.9437  152.3329 H   0  0  0  0  0  0  0  0  0  0  0  0
  149.1435  142.2108  153.5113 H   0  0  0  0  0  0  0  0  0  0  0  0
  148.3477  142.2070  155.0753 H   0  0  0  0  0  0  0  0  0  0  0  0
  150.9556  145.5014  157.7184 H   0  0  0  0  0  0  0  0  0  0  0  0
  152.3073  145.6888  159.8130 H   0  0  0  0  0  0  0  0  0  0  0  0
  153.3638  143.7020  160.8247 H   0  0  0  0  0  0  0  0  0  0  0  0
  153.1168  141.4460  159.7922 H   0  0  0  0  0  0  0  0  0  0  0  0
  152.9857  139.8878  158.1983 H   0  0  0  0  0  0  0  0  0  0  0  0
  151.3312  139.3574  158.3761 H   0  0  0  0  0  0  0  0  0  0  0  0
  152.5534  137.9327  156.7079 H   0  0  0  0  0  0  0  0  0  0  0  0
  151.1849  138.7602  155.9782 H   0  0  0  0  0  0  0  0  0  0  0  0
  154.0740  139.1760  153.7511 H   0  0  0  0  0  0  0  0  0  0  0  0
  152.5259  138.3391  153.8717 H   0  0  0  0  0  0  0  0  0  0  0  0
  153.9197  137.7746  154.8112 H   0  0  0  0  0  0  0  0  0  0  0  0
  150.0876  143.5112  155.8149 H   0  0  0  0  0  0  0  0  0  0  0  0
  1  2  1  0  0  0  0
  1 20  1  0  0  0  0
  1 21  1  0  0  0  0
  1 22  1  0  0  0  0
  2  3  1  0  0  0  0
  2 23  1  0  0  0  0
  3  4  2  0  0  0  0
  3  5  1  0  0  0  0
  5  6  1  0  0  0  0
  5 24  1  0  0  0  0
  5 25  1  0  0  0  0
  6  7  1  0  0  0  0
  7 15  1  0  0  0  0
  7  8  2  0  0  0  0
  8  9  1  0  0  0  0
  8 37  1  0  0  0  0
  9 14  2  0  0  0  0
  9 10  1  0  0  0  0
 10 11  2  0  0  0  0
 10 26  1  0  0  0  0
 11 12  1  0  0  0  0
 11 27  1  0  0  0  0
 12 13  2  0  0  0  0
 12 28  1  0  0  0  0
 13 14  1  0  0  0  0
 13 29  1  0  0  0  0
 14 15  1  0  0  0  0
 15 16  1  0  0  0  0
 16 17  1  0  0  0  0
 16 30  1  0  0  0  0
 16 31  1  0  0  0  0
 17 18  1  0  0  0  0
 17 32  1  0  0  0  0
 17 33  1  0  0  0  0
 18 19  1  0  0  0  0
 19 34  1  0  0  0  0
 19 35  1  0  0  0  0
 19 36  1  0  0  0  0
M  CHG  1   8   1
M  END
> <s_m_source_file>
AV-unprocessed.smi

> <i_m_source_file_index>
1583

> <i_lp_mmshare_version>
43012

> <i_f3d_flags>
0

> <s_epik_input>
W0NIM11bTkhdQyg9TylbQ0gyXVNjKG4xKW4oW0NIMl1bQ0gyXU9bQ0gzXSljKGMxMilbY0hdW2NIXVtjSF1bY0hdMg==

> <s_epik_cmdline>
J2VwaWtfcHl0aG9uJywgJy1waCcsICc3LjAnLCAnLXRuJywgJzgnLCAnLW1hJywgJzIwMCcsICctbWV0YWxfYmluZGluZycsICctaW1hZScsICc8aW5maWxlLm1hZT4nLCAnLW9tYWUnLCAnPG91dGZpbGUubWFlPic=

> <r_epik_Ionization_Penalty>
1.68337

> <r_epik_Ionization_Penalty_Charging>
1.68337

> <r_epik_Ionization_Penalty_Neutral>
1.65978e-07

> <r_epik_State_Penalty>
1.78799

> <r_epik_Charging_Adjusted_Penalty>
3.47136

> <i_epik_Tot_Q>
1

> <i_epik_Tot_abs_Q>
1

> <r_epik_Metal_State_Penalty>
1.82204

> <b_epik_Metal_Only>
0

> <s_lp_Force_Field>
OPLS_2005

> <r_lp_Energy>
8.62321

> <b_lp_Chiralities_Consistent>
1

> <s_lp_Variant>
AV-unprocessed.smi:1583-2

> <Gold.Version>
5.8.1

> <Gold.Id.Protein>
6NUR|6NUR_protein|mol2

> <Gold.PLP.Fitness>
57.5453

> <Gold.PLP.PLP>
-47.4454

> <Gold.PLP.part.hbond>
-2.7951

> <Gold.PLP.part.metal>
0.0000

> <Gold.PLP.part.buried>
-4.2473

> <Gold.PLP.part.nonpolar>
-39.5642

> <Gold.PLP.part.repulsive>
0.3095

> <Gold.PLP.ligand.clash>
0.0000

> <Gold.PLP.ligand.torsion>
0.8867

> <Gold.PLP.Chemscore.Hbond>
3.9440

> <Gold.PLP.Chemscore.CHOScore>
0.0000

> <Gold.PLP.Chemscore.Metal>
0.0000

> <Gold.Chemscore.Hbonds>
donor molecule, donor type, donor heavy atom, donor atom, acceptor molecule, acceptor atom, score
      L1  H     2    23       P1  7957  0.46
      L1  H     8    37       P1  8028  1.86
      P1  H  7997  8008       L1    18  1.00

> <Gold.PLP.Chemscore.Internal.Correction>
0.0412

> <Gold.Rescore>
     Score         DG    S(hbond)    S(metal)    S(lipo)     H(rot)  DE(clash)    DE(int)     intcor
     21.25     -22.26       2.80        0.00     112.91       2.25       0.04       0.97       ----

> <Gold.Chemscore.Fitness>
21.2472

> <Gold.Chemscore.DG>
-22.2572

> <Gold.Chemscore.ZeroCoef>
-5.4800

> <Gold.Chemscore.Hbond>
2.7959

> <Gold.Chemscore.Metal>
0.0000

> <Gold.Chemscore.Lipo>
112.9132

> <Gold.Chemscore.Internal_Hbond>
0.0000

> <Gold.Chemscore.DEClash>
0.0403

> <Gold.Chemscore.DEInternal>
0.9697

> <Gold.Chemscore.Rot>
2.2546

> <Gold.Chemscore.Internal.Correction>
   9.000000E+99

> <Gold.Chemscore.Hbonds>
donor molecule, donor type, donor heavy atom, donor atom, acceptor molecule, acceptor atom, score
      L1  H     2    23       P1  7957  0.45
      L1  H     8    37       P1  8028  0.90
      P1  H  7997  8008       L1    18  0.53

> <Gold.Chemscore.Hbond.Weighted>
-9.3383

> <Gold.Chemscore.Metal.Weighted>
-0.0000

> <Gold.Chemscore.Lipo.Weighted>
-13.2108

> <Gold.Chemscore.Internal_Hbond.Weighted>
0.0000

> <Gold.Chemscore.DEClash.Weighted>
0.0403

> <Gold.Chemscore.DEInternal.Weighted>
0.9697

> <Gold.Chemscore.Rot.Weighted>
5.7719

> <Gold.Chemscore.Internal.Correction.Weighted>
   9.000000E+99

> <Gold.Protein.RotatedTorsions>
[ 6907 6896 6895 6894 ] final   78.30 input  -60.11 | X-H torsion
[ 7974 7965 7964 7962 ] final  -22.76 input  175.53 | X-H torsion
[ 8008 7997 7996 7995 ] final  -22.83 input   59.86 | X-H torsion
[ 10167 10162 10161 10158 ] final  -67.25 input  -65.29 | X-H torsion
[ 10718 10713 10712 10709 ] final -152.07 input   66.30 | X-H torsion
[ 10763 10752 10751 10750 ] final   66.42 input  -60.55 | X-H torsion
[ 11005 11000 10999 10996 ] final -170.02 input  -57.11 | X-H torsion

> <Gold.Protein.ActiveResidues>
 VAL166  LYS551  ARG553  GLY616  TRP617  ASP618  TYR619  PRO620  LYS621  CYS622 
 ASP623  PHE694  ASN695  SER759  ASP760  ASP761  ALA762  ILE779  LEU786  VAL792 
 PHE793  MET794  SER795  GLU796  ALA797  LYS798  CYS799  TRP800  GLU811  SER814 

> <Gold.Protein.RotatedAtoms>
  152.5154  134.3685  159.9309 H   0  0  0  0  0  0  0  0  0  0  0  0  # atno 6907 bound_to 6896
  151.3638  133.3873  159.2700 H   0  0  0  0  0  0  0  0  0  0  0  0  # atno 6908 bound_to 6896
  150.9631  134.9035  159.7801 H   0  0  0  0  0  0  0  0  0  0  0  0  # atno 6909 bound_to 6896
  146.1657  140.4523  142.8553 H   0  0  0  0  0  0  0  0  0  0  0  0  # atno 7974 bound_to 7965
  154.4620  140.1997  156.0218 H   0  0  0  0  0  0  0  0  0  0  0  0  # atno 8008 bound_to 7997
  156.0858  140.3265  155.7724 H   0  0  0  0  0  0  0  0  0  0  0  0  # atno 8009 bound_to 7997
  155.5037  140.0556  157.2926 H   0  0  0  0  0  0  0  0  0  0  0  0  # atno 8010 bound_to 7997
  140.5597  143.2312  151.6752 H   0  0  0  0  0  0  0  0  0  0  0  0  # atno 10167 bound_to 10162
  156.4675  130.8243  151.2473 H   0  0  0  0  0  0  0  0  0  0  0  0  # atno 10718 bound_to 10713
  153.0139  135.5321  154.6820 H   0  0  0  0  0  0  0  0  0  0  0  0  # atno 10763 bound_to 10752
  154.5977  135.2865  155.0570 H   0  0  0  0  0  0  0  0  0  0  0  0  # atno 10764 bound_to 10752
  154.1639  135.6543  153.5045 H   0  0  0  0  0  0  0  0  0  0  0  0  # atno 10765 bound_to 10752
  140.5242  134.5679  157.5056 H   0  0  0  0  0  0  0  0  0  0  0  0  # atno 11005 bound_to 11000
  144.8089  140.6349  143.6429 LP  0  0  0  0  0  0  0  0  0  0  0  0  # atno 17320 bound_to 7965
  145.4474  139.1528  143.3937 LP  0  0  0  0  0  0  0  0  0  0  0  0  # atno 17321 bound_to 7965
  139.5064  144.3682  152.0496 LP  0  0  0  0  0  0  0  0  0  0  0  0  # atno 17342 bound_to 10162
  140.2807  144.3862  150.6120 LP  0  0  0  0  0  0  0  0  0  0  0  0  # atno 17343 bound_to 10162
  157.7493  131.0087  150.3238 LP  0  0  0  0  0  0  0  0  0  0  0  0  # atno 17370 bound_to 10713
  156.3652  130.3854  149.7219 LP  0  0  0  0  0  0  0  0  0  0  0  0  # atno 17371 bound_to 10713
  139.9589  134.7487  156.0280 LP  0  0  0  0  0  0  0  0  0  0  0  0  # atno 17394 bound_to 11000
  141.1317  133.6585  156.3483 LP  0  0  0  0  0  0  0  0  0  0  0  0  # atno 17395 bound_to 11000

$$$$
