AV-unprocessed.smi:99|AV-procd|sdf|876|dock8
  -GOLD-   2262017343D 1   1.00000     0.00000
 Structure written by MMmdl.
 53 56  0  0  0  0  0  0  0  0  1 V2000
  151.6737  139.3669  158.9698 O   0  0  0  0  0  0  0  0  0  0  0  0
  151.5157  140.2877  158.1654 C   0  0  0  0  0  0  0  0  0  0  0  0
  151.0484  140.1111  156.9137 O   0  0  0  0  0  0  0  0  0  0  0  0
  150.7971  138.8019  156.4308 C   0  0  0  0  0  0  0  0  0  0  0  0
  149.4501  138.3044  156.9782 C   0  0  1  0  0  0  0  0  0  0  0  0
  148.4059  138.7326  156.1122 O   0  0  0  0  0  0  0  0  0  0  0  0
  148.1843  137.7787  155.1215 C   0  0  2  0  0  0  0  0  0  0  0  0
  146.6879  137.7223  154.8842 N   0  0  0  0  0  0  0  0  0  0  0  0
  145.9193  136.6770  155.3839 C   0  0  0  0  0  0  0  0  0  0  0  0
  144.5710  136.6241  155.2750 C   0  0  0  0  0  0  0  0  0  0  0  0
  143.8386  137.7087  154.6321 C   0  0  0  0  0  0  0  0  0  0  0  0
  142.6204  137.7457  154.4720 O   0  0  0  0  0  0  0  0  0  0  0  0
  144.6400  138.7659  154.1934 N   0  0  0  0  0  0  0  0  0  0  0  0
  146.0291  138.8369  154.3136 C   0  0  0  0  0  0  0  0  0  0  0  0
  146.6205  139.8425  153.9218 O   0  0  0  0  0  0  0  0  0  0  0  0
  148.7844  136.4382  155.5917 C   0  0  1  0  0  0  0  0  0  0  0  0
  149.8352  135.9970  154.7547 O   0  0  0  0  0  0  0  0  0  0  0  0
  149.3472  136.7756  156.9717 C   0  0  2  0  0  0  0  0  0  0  0  0
  148.4596  136.3698  158.0063 O   0  0  0  0  0  0  0  0  0  0  0  0
  148.7024  136.6863  159.2961 C   0  0  0  0  0  0  0  0  0  0  0  0
  149.4398  137.6094  159.6464 O   0  0  0  0  0  0  0  0  0  0  0  0
  147.9903  135.7914  160.2524 C   0  0  0  0  0  0  0  0  0  0  0  0
  147.6662  136.2723  161.5425 C   0  0  0  0  0  0  0  0  0  0  0  0
  146.9967  135.4478  162.4676 C   0  0  0  0  0  0  0  0  0  0  0  0
  146.6440  134.1322  162.1145 C   0  0  0  0  0  0  0  0  0  0  0  0
  146.9623  133.6415  160.8348 C   0  0  0  0  0  0  0  0  0  0  0  0
  147.6314  134.4644  159.9080 C   0  0  0  0  0  0  0  0  0  0  0  0
  151.8217  141.7138  158.4766 C   0  0  0  0  0  0  0  0  0  0  0  0
  152.4224  142.0388  159.7153 C   0  0  0  0  0  0  0  0  0  0  0  0
  152.7230  143.3765  160.0379 C   0  0  0  0  0  0  0  0  0  0  0  0
  152.4262  144.4058  159.1257 C   0  0  0  0  0  0  0  0  0  0  0  0
  151.8293  144.0956  157.8899 C   0  0  0  0  0  0  0  0  0  0  0  0
  151.5281  142.7583  157.5654 C   0  0  0  0  0  0  0  0  0  0  0  0
  144.1729  139.5517  153.7645 H   0  0  0  0  0  0  0  0  0  0  0  0
  150.8042  138.7887  155.3401 H   0  0  0  0  0  0  0  0  0  0  0  0
  151.5983  138.1444  156.7711 H   0  0  0  0  0  0  0  0  0  0  0  0
  149.3006  138.7029  157.9828 H   0  0  0  0  0  0  0  0  0  0  0  0
  148.6531  138.1102  154.1937 H   0  0  0  0  0  0  0  0  0  0  0  0
  146.3985  135.8589  155.8968 H   0  0  0  0  0  0  0  0  0  0  0  0
  144.0303  135.7780  155.6745 H   0  0  0  0  0  0  0  0  0  0  0  0
  148.0393  135.6433  155.6187 H   0  0  0  0  0  0  0  0  0  0  0  0
  149.5108  135.9343  153.8694 H   0  0  0  0  0  0  0  0  0  0  0  0
  150.3267  136.3247  157.1422 H   0  0  0  0  0  0  0  0  0  0  0  0
  147.9268  137.2790  161.8364 H   0  0  0  0  0  0  0  0  0  0  0  0
  146.7533  135.8261  163.4496 H   0  0  0  0  0  0  0  0  0  0  0  0
  146.1303  133.5003  162.8241 H   0  0  0  0  0  0  0  0  0  0  0  0
  146.6931  132.6314  160.5628 H   0  0  0  0  0  0  0  0  0  0  0  0
  147.8620  134.0549  158.9351 H   0  0  0  0  0  0  0  0  0  0  0  0
  152.6589  141.2656  160.4321 H   0  0  0  0  0  0  0  0  0  0  0  0
  153.1815  143.6126  160.9869 H   0  0  0  0  0  0  0  0  0  0  0  0
  152.6558  145.4316  159.3741 H   0  0  0  0  0  0  0  0  0  0  0  0
  151.6012  144.8849  157.1887 H   0  0  0  0  0  0  0  0  0  0  0  0
  151.0699  142.5551  156.6085 H   0  0  0  0  0  0  0  0  0  0  0  0
  1  2  2  0  0  0  0
  2  3  1  0  0  0  0
  2 28  1  0  0  0  0
  3  4  1  0  0  0  0
  4  5  1  0  0  0  0
  4 35  1  0  0  0  0
  4 36  1  0  0  0  0
  5 18  1  0  0  0  0
  5  6  1  0  0  0  0
  5 37  1  0  0  0  0
  6  7  1  0  0  0  0
  7  8  1  0  0  0  0
  7 16  1  0  0  0  0
  7 38  1  0  0  0  0
  8 14  1  0  0  0  0
  8  9  1  0  0  0  0
  9 10  2  0  0  0  0
  9 39  1  0  0  0  0
 10 11  1  0  0  0  0
 10 40  1  0  0  0  0
 11 12  2  0  0  0  0
 11 13  1  0  0  0  0
 13 34  1  0  0  0  0
 13 14  1  0  0  0  0
 14 15  2  0  0  0  0
 16 17  1  0  0  0  0
 16 18  1  0  0  0  0
 16 41  1  0  0  0  0
 17 42  1  0  0  0  0
 18 19  1  0  0  0  0
 18 43  1  0  0  0  0
 19 20  1  0  0  0  0
 20 21  2  0  0  0  0
 20 22  1  0  0  0  0
 22 27  1  0  0  0  0
 22 23  2  0  0  0  0
 23 24  1  0  0  0  0
 23 44  1  0  0  0  0
 24 25  2  0  0  0  0
 24 45  1  0  0  0  0
 25 26  1  0  0  0  0
 25 46  1  0  0  0  0
 26 27  2  0  0  0  0
 26 47  1  0  0  0  0
 27 48  1  0  0  0  0
 28 33  1  0  0  0  0
 28 29  2  0  0  0  0
 29 30  1  0  0  0  0
 29 49  1  0  0  0  0
 30 31  2  0  0  0  0
 30 50  1  0  0  0  0
 31 32  1  0  0  0  0
 31 51  1  0  0  0  0
 32 33  2  0  0  0  0
 32 52  1  0  0  0  0
 33 53  1  0  0  0  0
M  END
> <s_m_source_file>
AV-unprocessed.smi

> <i_m_source_file_index>
99

> <i_lp_mmshare_version>
43012

> <i_f3d_flags>
0

> <s_epik_input>
W2NIXTFbY0hdW2NIXVtjSF1bY0hdYzFDKD1PKU9bQ0gyXVtDQEBIXTJPW0NAQEhdKG4zW2NIXVtjSF1jKD1PKVtuSF1jMz1PKVtDQEBIXShbT0hdKVtDQEhdMk9DKD1PKWM0W2NIXVtjSF1bY0hdW2NIXVtjSF00

> <s_epik_cmdline>
J2VwaWtfcHl0aG9uJywgJy1waCcsICc3LjAnLCAnLXRuJywgJzgnLCAnLW1hJywgJzIwMCcsICctbWV0YWxfYmluZGluZycsICctaW1hZScsICc8aW5maWxlLm1hZT4nLCAnLW9tYWUnLCAnPG91dGZpbGUubWFlPic=

> <r_lp_tautomer_probability>
1

> <r_epik_Ionization_Penalty>
0.00454555

> <r_epik_Ionization_Penalty_Charging>
0.0045191

> <r_epik_Ionization_Penalty_Neutral>
2.64449e-05

> <r_epik_State_Penalty>
-0

> <r_epik_Charging_Adjusted_Penalty>
0.0045191

> <i_epik_Tot_Q>
0

> <i_epik_Tot_abs_Q>
0

> <r_epik_Metal_State_Penalty>
1.27877

> <b_epik_Metal_Only>
0

> <s_epik_Chemistry_Notes>
This compound has an ester and may undergo hydrolysis at high or low pH. This compound contains an acetal/aminal-like group ( X-CH(R)-Y where X, Y are N, S, or O) that may be acid/base labile, releasing an aldehyde.

> <s_lp_Force_Field>
OPLS_2005

> <r_lp_Energy>
32.4523

> <b_lp_Chiralities_Consistent>
1

> <s_lp_Variant>
AV-unprocessed.smi:99-12

> <Gold.Version>
5.8.1

> <Gold.Id.Protein>
6NUR|6NUR_protein|mol2

> <Gold.PLP.Fitness>
52.9353

> <Gold.PLP.PLP>
-48.9965

> <Gold.PLP.part.hbond>
-3.0000

> <Gold.PLP.part.metal>
0.0000

> <Gold.PLP.part.buried>
-7.0830

> <Gold.PLP.part.nonpolar>
-39.6279

> <Gold.PLP.part.repulsive>
0.2056

> <Gold.PLP.ligand.clash>
0.0000

> <Gold.PLP.ligand.torsion>
1.2491

> <Gold.PLP.Chemscore.Hbond>
2.0031

> <Gold.PLP.Chemscore.CHOScore>
0.0000

> <Gold.PLP.Chemscore.Metal>
0.0000

> <Gold.Chemscore.Hbonds>
donor molecule, donor type, donor heavy atom, donor atom, acceptor molecule, acceptor atom, score
      L1  H    13    34       P1 10175  1.00
      L1  H    17    42       P1  7948  0.89
      P1  H  6931  6943       L1    21  0.03

> <Gold.PLP.Chemscore.Internal.Correction>
0.4278

> <Gold.Rescore>
     Score         DG    S(hbond)    S(metal)    S(lipo)     H(rot)  DE(clash)    DE(int)     intcor
     13.66     -17.43       1.72        0.00     122.89       3.19       0.07       3.70       ----

> <Gold.Chemscore.Fitness>
13.6649

> <Gold.Chemscore.DG>
-17.4348

> <Gold.Chemscore.ZeroCoef>
-5.4800

> <Gold.Chemscore.Hbond>
1.7198

> <Gold.Chemscore.Metal>
0.0000

> <Gold.Chemscore.Lipo>
122.8885

> <Gold.Chemscore.Internal_Hbond>
0.0000

> <Gold.Chemscore.DEClash>
0.0677

> <Gold.Chemscore.DEInternal>
3.7022

> <Gold.Chemscore.Rot>
3.1903

> <Gold.Chemscore.Internal.Correction>
   9.000000E+99

> <Gold.Chemscore.Hbonds>
donor molecule, donor type, donor heavy atom, donor atom, acceptor molecule, acceptor atom, score
      L1  H    13    34       P1 10175  0.98
      L1  H    17    42       P1  7948  0.44
      P1  H  6931  6943       L1    21  0.03

> <Gold.Chemscore.Hbond.Weighted>
-5.7440

> <Gold.Chemscore.Metal.Weighted>
-0.0000

> <Gold.Chemscore.Lipo.Weighted>
-14.3779

> <Gold.Chemscore.Internal_Hbond.Weighted>
0.0000

> <Gold.Chemscore.DEClash.Weighted>
0.0677

> <Gold.Chemscore.DEInternal.Weighted>
3.7022

> <Gold.Chemscore.Rot.Weighted>
8.1671

> <Gold.Chemscore.Internal.Correction.Weighted>
   9.000000E+99

> <Gold.Protein.RotatedTorsions>
[ 6907 6896 6895 6894 ] final  -42.06 input  -60.11 | X-H torsion
[ 7974 7965 7964 7962 ] final  -95.81 input  175.53 | X-H torsion
[ 8008 7997 7996 7995 ] final  139.00 input   59.86 | X-H torsion
[ 10167 10162 10161 10158 ] final  177.10 input  -65.29 | X-H torsion
[ 10718 10713 10712 10709 ] final -169.57 input   66.30 | X-H torsion
[ 10763 10752 10751 10750 ] final  -21.01 input  -60.55 | X-H torsion
[ 11005 11000 10999 10996 ] final  130.19 input  -57.11 | X-H torsion

> <Gold.Protein.ActiveResidues>
 VAL166  LYS551  ARG553  GLY616  TRP617  ASP618  TYR619  PRO620  LYS621  CYS622 
 ASP623  PHE694  ASN695  SER759  ASP760  ASP761  ALA762  ILE779  LEU786  VAL792 
 PHE793  MET794  SER795  GLU796  ALA797  LYS798  CYS799  TRP800  GLU811  SER814 

> <Gold.Protein.RotatedAtoms>
  150.9596  134.8985  159.7721 H   0  0  0  0  0  0  0  0  0  0  0  0  # atno 6907 bound_to 6896
  152.5151  134.3692  159.9322 H   0  0  0  0  0  0  0  0  0  0  0  0  # atno 6908 bound_to 6896
  151.3704  133.3816  159.2734 H   0  0  0  0  0  0  0  0  0  0  0  0  # atno 6909 bound_to 6896
  145.3552  140.9483  143.2532 H   0  0  0  0  0  0  0  0  0  0  0  0  # atno 7974 bound_to 7965
  156.2993  140.2379  156.4166 H   0  0  0  0  0  0  0  0  0  0  0  0  # atno 8008 bound_to 7997
  154.8393  140.0429  157.1551 H   0  0  0  0  0  0  0  0  0  0  0  0  # atno 8009 bound_to 7997
  154.9120  140.2992  155.5265 H   0  0  0  0  0  0  0  0  0  0  0  0  # atno 8010 bound_to 7997
  139.5240  144.2837  152.0524 H   0  0  0  0  0  0  0  0  0  0  0  0  # atno 10167 bound_to 10162
  156.7135  130.9242  151.3091 H   0  0  0  0  0  0  0  0  0  0  0  0  # atno 10718 bound_to 10713
  153.6294  135.6989  153.5281 H   0  0  0  0  0  0  0  0  0  0  0  0  # atno 10763 bound_to 10752
  153.2872  135.4168  155.1133 H   0  0  0  0  0  0  0  0  0  0  0  0  # atno 10764 bound_to 10752
  154.8525  135.3616  154.5836 H   0  0  0  0  0  0  0  0  0  0  0  0  # atno 10765 bound_to 10752
  139.9658  134.9591  156.9257 H   0  0  0  0  0  0  0  0  0  0  0  0  # atno 11005 bound_to 11000
  144.8688  139.5069  143.6777 LP  0  0  0  0  0  0  0  0  0  0  0  0  # atno 17320 bound_to 7965
  146.2951  139.7254  142.9132 LP  0  0  0  0  0  0  0  0  0  0  0  0  # atno 17321 bound_to 7965
  140.2291  144.4387  150.6308 LP  0  0  0  0  0  0  0  0  0  0  0  0  # atno 17342 bound_to 10162
  140.6367  143.2196  151.6379 LP  0  0  0  0  0  0  0  0  0  0  0  0  # atno 17343 bound_to 10162
  157.6927  130.9249  150.0557 LP  0  0  0  0  0  0  0  0  0  0  0  0  # atno 17370 bound_to 10713
  156.1644  130.3644  149.9253 LP  0  0  0  0  0  0  0  0  0  0  0  0  # atno 17371 bound_to 10713
  140.5401  134.0729  155.7339 LP  0  0  0  0  0  0  0  0  0  0  0  0  # atno 17394 bound_to 11000
  141.1337  133.9258  157.2480 LP  0  0  0  0  0  0  0  0  0  0  0  0  # atno 17395 bound_to 11000

$$$$
