#       Name:                AV-unprocessed.smi:1401
#       Creating user name   scv26
#       Creation time:       Fri Mar 27 05:31:47 2020


#       File generated by GOLD software.
#

@<TRIPOS>MOLECULE
AV-unprocessed.smi:1401
    54    56     1
SMALL
NO_CHARGES


@<TRIPOS>ATOM
      1 ****        -3.6598   3.8358   2.3944 C.3            1 S1                 0.0000
      2 ****        -3.6006   2.3498   2.1642 C.2            1 S1                 0.0000
      3 ****        -2.4279   1.8363   1.9863 N.2            1 S1                 0.0000
      4 ****        -2.2617   0.4837   1.7596 N.am           1 S1                 0.0000
      5 ****        -0.8634   0.0766   1.5584 C.3            1 S1                 0.0000
      6 ****        -0.4810  -0.0706   0.0786 C.2            1 S1                 0.0000
      7 ****        -1.1028   0.5332  -0.7968 O.2            1 S1                 0.0000
      8 ****         0.5663  -0.8685  -0.1799 N.am           1 S1                 0.0000
      9 ****         1.1256  -1.1350  -1.5034 C.3            1 S1                 0.0000
     10 ****         0.3396  -2.2829  -2.1632 C.3            1 S1                 0.0000
     11 ****         2.6359  -1.4536  -1.3818 C.3            1 S1                 0.0000
     12 ****         3.3527  -1.5919  -2.7473 C.3            1 S1                 0.0000
     13 ****         4.5324  -0.6106  -2.6315 C.3            1 S1                 0.0000
     14 ****         5.5556  -1.1503  -1.6158 C.3            1 S1                 0.0000
     15 ****         4.8360  -0.9430  -0.2701 C.3            1 S1                 0.0000
     16 ****         3.4807  -0.3471  -0.6972 C.3            1 S1                 0.0000
     17 ****         3.8970   0.5414  -1.8649 C.3            1 S1                 0.0000
     18 ****        -3.2774  -0.4254   1.7053 C.2            1 S1                 0.0000
     19 ****        -3.0831  -1.6241   1.4977 O.2            1 S1                 0.0000
     20 ****        -4.6026   0.1624   1.9140 C.2            1 S1                 0.0000
     21 ****        -5.6949  -0.7552   1.8678 C.1            1 S1                 0.0000
     22 ****        -6.5931  -1.4848   1.8389 N.1            1 S1                 0.0000
     23 ****        -4.7789   1.4892   2.1356 C.2            1 S1                 0.0000
     24 ****        -6.1330   2.1493   2.3565 C.3            1 S1                 0.0000
     25 ****        -4.0618   4.0576   3.3833 H              1 S1                 0.0000
     26 ****        -4.2972   4.3180   1.6529 H              1 S1                 0.0000
     27 ****        -2.6735   4.2977   2.3277 H              1 S1                 0.0000
     28 ****        -0.1898   0.8084   2.0081 H              1 S1                 0.0000
     29 ****        -0.6669  -0.8606   2.0831 H              1 S1                 0.0000
     30 ****         1.0178  -1.3217   0.6013 H              1 S1                 0.0000
     31 ****         1.0115  -0.2409  -2.1191 H              1 S1                 0.0000
     32 ****         0.6998  -2.4902  -3.1706 H              1 S1                 0.0000
     33 ****        -0.7201  -2.0393  -2.2456 H              1 S1                 0.0000
     34 ****         0.4235  -3.2041  -1.5857 H              1 S1                 0.0000
     35 ****         2.7380  -2.3828  -0.8185 H              1 S1                 0.0000
     36 ****         3.6793  -2.6140  -2.9423 H              1 S1                 0.0000
     37 ****         2.7058  -1.2903  -3.5720 H              1 S1                 0.0000
     38 ****         4.9708  -0.3385  -3.5921 H              1 S1                 0.0000
     39 ****         5.8056  -2.1961  -1.7981 H              1 S1                 0.0000
     40 ****         6.4806  -0.5731  -1.6489 H              1 S1                 0.0000
     41 ****         4.7277  -1.8704   0.2935 H              1 S1                 0.0000
     42 ****         5.3885  -0.2386   0.3531 H              1 S1                 0.0000
     43 ****         2.9771   0.1765   0.1153 H              1 S1                 0.0000
     44 ****         4.6092   1.3194  -1.5843 H              1 S1                 0.0000
     45 ****         3.0558   1.0002  -2.3872 H              1 S1                 0.0000
     46 ****        -6.9506   1.4292   2.3466 H              1 S1                 0.0000
     47 ****        -6.3324   2.8824   1.5745 H              1 S1                 0.0000
     48 ****        -6.1585   2.6588   3.3201 H              1 S1                 0.0000
     49 ****        -1.6241   2.4305   2.0133 LP             1 S1                 0.0000
     50 ****        -1.8670   1.1280  -0.5474 LP             1 S1                 0.0000
     51 ****        -0.8435   0.4284  -1.7569 LP             1 S1                 0.0000
     52 ****        -2.1523  -1.9635   1.3613 LP             1 S1                 0.0000
     53 ****        -3.8560  -2.2578   1.4656 LP             1 S1                 0.0000
     54 ****        -7.3691  -2.1151   1.8139 LP             1 S1                 0.0000
@<TRIPOS>BOND
    1    1    2 1     
    2    1   25 1     
    3    1   26 1     
    4    1   27 1     
    5    2   23 1     
    6    2    3 2     
    7    3    4 1     
    8    4    5 1     
    9    4   18 am    
   10    5    6 1     
   11    5   28 1     
   12    5   29 1     
   13    6    7 2     
   14    6    8 am    
   15    8    9 1     
   16    8   30 1     
   17    9   10 1     
   18    9   11 1     
   19    9   31 1     
   20   10   32 1     
   21   10   33 1     
   22   10   34 1     
   23   11   16 1     
   24   11   12 1     
   25   11   35 1     
   26   12   13 1     
   27   12   36 1     
   28   12   37 1     
   29   13   17 1     
   30   13   14 1     
   31   13   38 1     
   32   14   15 1     
   33   14   39 1     
   34   14   40 1     
   35   15   16 1     
   36   15   41 1     
   37   15   42 1     
   38   16   17 1     
   39   16   43 1     
   40   17   44 1     
   41   17   45 1     
   42   18   19 2     
   43   18   20 1     
   44   20   21 1     
   45   20   23 2     
   46   21   22 3     
   47   23   24 1     
   48   24   46 1     
   49   24   47 1     
   50   24   48 1     
   51    3   49 1     
   52    7   50 1     
   53    7   51 1     
   54   19   52 1     
   55   19   53 1     
   56   22   54 1     
@<TRIPOS>SUBSTRUCTURE
      1 S1             1
@<TRIPOS>SET
LONE_PAIRS      STATIC     ATOMS    <user>   **** ""
6 49 50 51 52 53 54
DONOR_HYDROGENS      STATIC     ATOMS    <user>   **** ""
1 30
ATOM$BLUE        STATIC     ATOMS    COLORGROUP SYSTEM
6 49 50 51 52 53 54
ATOM$RED        STATIC     ATOMS    COLORGROUP SYSTEM
1 30
