AV-unprocessed.smi:626|AV-procd|sdf|3109|dock5
  -GOLD-   22720 0 33D 1   1.00000     0.00000
 Structure written by MMmdl.
 34 36  0  0  0  0  0  0  0  0  1 V2000
  147.4026  138.8616  153.3429 C   0  0  0  0  0  0  0  0  0  0  0  0
  148.8204  139.1276  153.5326 N   0  0  0  0  0  0  0  0  0  0  0  0
  149.4351  139.1282  154.7244 C   0  0  0  0  0  0  0  0  0  0  0  0
  148.8448  138.8988  155.7815 O   0  0  0  0  0  0  0  0  0  0  0  0
  150.9404  139.4265  154.6992 C   0  0  0  0  0  0  0  0  0  0  0  0
  151.4043  140.1449  155.9284 C   0  0  0  0  0  0  0  0  0  0  0  0
  152.4267  139.6961  156.6468 N   0  0  0  0  0  0  0  0  0  0  0  0
  152.5203  140.6264  157.6917 O   0  0  0  0  0  0  0  0  0  0  0  0
  151.5578  141.5511  157.4563 C   0  0  0  0  0  0  0  0  0  0  0  0
  151.3495  142.6400  158.4645 C   0  0  2  0  0  0  0  0  0  0  0  0
  151.2677  144.0577  157.8608 C   0  0  0  0  0  0  0  0  0  0  0  0
  152.2697  144.8479  158.7244 C   0  0  1  0  0  0  0  0  0  0  0  0
  151.7357  144.9735  160.1650 C   0  0  0  0  0  0  0  0  0  0  0  0
  151.9214  143.5489  160.7259 C   0  0  0  0  0  0  0  0  0  0  0  0
  152.4780  142.7802  159.5122 C   0  0  2  0  0  0  0  0  0  0  0  0
  153.3941  143.8342  158.8943 C   0  0  0  0  0  0  0  0  0  0  0  0
  150.8007  141.2720  156.3967 N   0  0  0  0  0  0  0  0  0  0  0  0
  147.1559  138.9008  152.2820 H   0  0  0  0  0  0  0  0  0  0  0  0
  146.7953  139.6043  153.8621 H   0  0  0  0  0  0  0  0  0  0  0  0
  147.1389  137.8719  153.7180 H   0  0  0  0  0  0  0  0  0  0  0  0
  149.3693  139.3203  152.7070 H   0  0  0  0  0  0  0  0  0  0  0  0
  151.4869  138.4874  154.6021 H   0  0  0  0  0  0  0  0  0  0  0  0
  151.1791  140.0252  153.8188 H   0  0  0  0  0  0  0  0  0  0  0  0
  150.4137  142.4121  158.9776 H   0  0  0  0  0  0  0  0  0  0  0  0
  151.5925  144.0626  156.8190 H   0  0  0  0  0  0  0  0  0  0  0  0
  150.2588  144.4702  157.8962 H   0  0  0  0  0  0  0  0  0  0  0  0
  152.5703  145.7988  158.2837 H   0  0  0  0  0  0  0  0  0  0  0  0
  152.3243  145.6906  160.7384 H   0  0  0  0  0  0  0  0  0  0  0  0
  150.6947  145.2978  160.1897 H   0  0  0  0  0  0  0  0  0  0  0  0
  152.6428  143.5514  161.5440 H   0  0  0  0  0  0  0  0  0  0  0  0
  150.9918  143.1233  161.1056 H   0  0  0  0  0  0  0  0  0  0  0  0
  152.9564  141.8385  159.7846 H   0  0  0  0  0  0  0  0  0  0  0  0
  153.8433  143.5258  157.9493 H   0  0  0  0  0  0  0  0  0  0  0  0
  154.1834  144.1711  159.5687 H   0  0  0  0  0  0  0  0  0  0  0  0
  1  2  1  0  0  0  0
  1 18  1  0  0  0  0
  1 19  1  0  0  0  0
  1 20  1  0  0  0  0
  2  3  1  0  0  0  0
  2 21  1  0  0  0  0
  3  4  2  0  0  0  0
  3  5  1  0  0  0  0
  5  6  1  0  0  0  0
  5 22  1  0  0  0  0
  5 23  1  0  0  0  0
  6 17  1  0  0  0  0
  6  7  2  0  0  0  0
  7  8  1  0  0  0  0
  8  9  1  0  0  0  0
  9 10  1  0  0  0  0
  9 17  2  0  0  0  0
 10 15  1  0  0  0  0
 10 11  1  0  0  0  0
 10 24  1  0  0  0  0
 11 12  1  0  0  0  0
 11 25  1  0  0  0  0
 11 26  1  0  0  0  0
 12 16  1  0  0  0  0
 12 13  1  0  0  0  0
 12 27  1  0  0  0  0
 13 14  1  0  0  0  0
 13 28  1  0  0  0  0
 13 29  1  0  0  0  0
 14 15  1  0  0  0  0
 14 30  1  0  0  0  0
 14 31  1  0  0  0  0
 15 16  1  0  0  0  0
 15 32  1  0  0  0  0
 16 33  1  0  0  0  0
 16 34  1  0  0  0  0
M  END
> <s_m_source_file>
AV-unprocessed.smi

> <i_m_source_file_index>
626

> <i_lp_mmshare_version>
43012

> <i_f3d_flags>
0

> <s_epik_input>
W0NIM11bTkhdQyg9TylbQ0gyXWMxbm9jKG4xKVtDQEhdKFtDSDJdW0NAQEhdMjMpW0NAQEhdKFtDSDJdMylbQ0gyXVtDSDJdMg==

> <s_epik_cmdline>
J2VwaWtfcHl0aG9uJywgJy1waCcsICc3LjAnLCAnLXRuJywgJzgnLCAnLW1hJywgJzIwMCcsICctbWV0YWxfYmluZGluZycsICctaW1hZScsICc8aW5maWxlLm1hZT4nLCAnLW9tYWUnLCAnPG91dGZpbGUubWFlPic=

> <r_lp_tautomer_probability>
1

> <r_epik_Ionization_Penalty>
1.02916e-07

> <r_epik_Ionization_Penalty_Charging>
0

> <r_epik_Ionization_Penalty_Neutral>
1.02916e-07

> <r_epik_State_Penalty>
-0

> <r_epik_Charging_Adjusted_Penalty>
0

> <i_epik_Tot_Q>
0

> <i_epik_Tot_abs_Q>
0

> <r_epik_Metal_State_Penalty>
-0

> <b_epik_Metal_Only>
0

> <s_lp_Force_Field>
OPLS_2005

> <r_lp_Energy>
49.0538

> <b_lp_Chiralities_Consistent>
1

> <s_lp_Variant>
AV-unprocessed.smi:626-1

> <Gold.Version>
5.8.1

> <Gold.Id.Protein>
6NUR|6NUR_protein|mol2

> <Gold.PLP.Fitness>
41.5620

> <Gold.PLP.PLP>
-38.5340

> <Gold.PLP.part.hbond>
-2.9524

> <Gold.PLP.part.metal>
0.0000

> <Gold.PLP.part.buried>
-1.8414

> <Gold.PLP.part.nonpolar>
-32.3963

> <Gold.PLP.part.repulsive>
0.1691

> <Gold.PLP.ligand.clash>
0.0000

> <Gold.PLP.ligand.torsion>
0.5994

> <Gold.PLP.Chemscore.Hbond>
1.3835

> <Gold.PLP.Chemscore.CHOScore>
0.0000

> <Gold.PLP.Chemscore.Metal>
0.0000

> <Gold.Chemscore.Hbonds>
donor molecule, donor type, donor heavy atom, donor atom, acceptor molecule, acceptor atom, score
      L1  H     2    21       P1  7957  1.00
      P1  H  7997  8009       L1     7  0.35

> <Gold.PLP.Chemscore.Internal.Correction>
0.0764

> <Gold.Rescore>
     Score         DG    S(hbond)    S(metal)    S(lipo)     H(rot)  DE(clash)    DE(int)     intcor
     14.00     -15.88       0.94        0.00      97.25       1.61       0.26       1.61       ----

> <Gold.Chemscore.Fitness>
14.0031

> <Gold.Chemscore.DG>
-15.8804

> <Gold.Chemscore.ZeroCoef>
-5.4800

> <Gold.Chemscore.Hbond>
0.9428

> <Gold.Chemscore.Metal>
0.0000

> <Gold.Chemscore.Lipo>
97.2492

> <Gold.Chemscore.Internal_Hbond>
0.0000

> <Gold.Chemscore.DEClash>
0.2633

> <Gold.Chemscore.DEInternal>
1.6140

> <Gold.Chemscore.Rot>
1.6119

> <Gold.Chemscore.Internal.Correction>
   9.000000E+99

> <Gold.Chemscore.Hbonds>
donor molecule, donor type, donor heavy atom, donor atom, acceptor molecule, acceptor atom, score
      L1  H     2    21       P1  7957  0.97
      P1  H  7997  8009       L1     7  0.01

> <Gold.Chemscore.Hbond.Weighted>
-3.1488

> <Gold.Chemscore.Metal.Weighted>
-0.0000

> <Gold.Chemscore.Lipo.Weighted>
-11.3782

> <Gold.Chemscore.Internal_Hbond.Weighted>
0.0000

> <Gold.Chemscore.DEClash.Weighted>
0.2633

> <Gold.Chemscore.DEInternal.Weighted>
1.6140

> <Gold.Chemscore.Rot.Weighted>
4.1266

> <Gold.Chemscore.Internal.Correction.Weighted>
   9.000000E+99

> <Gold.Protein.RotatedTorsions>
[ 6907 6896 6895 6894 ] final -157.12 input  -60.11 | X-H torsion
[ 7974 7965 7964 7962 ] final  146.98 input  175.53 | X-H torsion
[ 8008 7997 7996 7995 ] final -152.55 input   59.86 | X-H torsion
[ 10167 10162 10161 10158 ] final   42.86 input  -65.29 | X-H torsion
[ 10718 10713 10712 10709 ] final  -90.87 input   66.30 | X-H torsion
[ 10763 10752 10751 10750 ] final  -84.25 input  -60.55 | X-H torsion
[ 11005 11000 10999 10996 ] final  -43.21 input  -57.11 | X-H torsion

> <Gold.Protein.ActiveResidues>
 VAL166  LYS551  ARG553  GLY616  TRP617  ASP618  TYR619  PRO620  LYS621  CYS622 
 ASP623  PHE694  ASN695  SER759  ASP760  ASP761  ALA762  ILE779  LEU786  VAL792 
 PHE793  MET794  SER795  GLU796  ALA797  LYS798  CYS799  TRP800  GLU811  SER814 

> <Gold.Protein.RotatedAtoms>
  151.2980  133.4135  159.2637 H   0  0  0  0  0  0  0  0  0  0  0  0  # atno 6907 bound_to 6896
  151.0220  134.9477  159.8075 H   0  0  0  0  0  0  0  0  0  0  0  0  # atno 6908 bound_to 6896
  152.5326  134.2942  159.9107 H   0  0  0  0  0  0  0  0  0  0  0  0  # atno 6909 bound_to 6896
  144.8628  139.5972  143.5923 H   0  0  0  0  0  0  0  0  0  0  0  0  # atno 7974 bound_to 7965
  155.6569  140.0718  157.2567 H   0  0  0  0  0  0  0  0  0  0  0  0  # atno 8008 bound_to 7997
  154.4150  140.1723  156.1785 H   0  0  0  0  0  0  0  0  0  0  0  0  # atno 8009 bound_to 7997
  155.9730  140.3360  155.6596 H   0  0  0  0  0  0  0  0  0  0  0  0  # atno 8010 bound_to 7997
  140.3502  144.2360  150.6146 H   0  0  0  0  0  0  0  0  0  0  0  0  # atno 10167 bound_to 10162
  155.9990  130.4926  150.5389 H   0  0  0  0  0  0  0  0  0  0  0  0  # atno 10718 bound_to 10713
  154.5973  135.5527  153.7338 H   0  0  0  0  0  0  0  0  0  0  0  0  # atno 10763 bound_to 10752
  153.0140  135.6357  154.1765 H   0  0  0  0  0  0  0  0  0  0  0  0  # atno 10764 bound_to 10752
  154.1705  135.2892  155.3062 H   0  0  0  0  0  0  0  0  0  0  0  0  # atno 10765 bound_to 10752
  141.0369  133.6796  156.2702 H   0  0  0  0  0  0  0  0  0  0  0  0  # atno 11005 bound_to 11000
  146.2873  139.7040  142.9186 LP  0  0  0  0  0  0  0  0  0  0  0  0  # atno 17320 bound_to 7965
  145.4280  141.0412  143.2927 LP  0  0  0  0  0  0  0  0  0  0  0  0  # atno 17321 bound_to 7965
  140.5226  143.2262  151.8365 LP  0  0  0  0  0  0  0  0  0  0  0  0  # atno 17342 bound_to 10162
  139.4827  144.4818  151.9297 LP  0  0  0  0  0  0  0  0  0  0  0  0  # atno 17343 bound_to 10162
  157.3328  131.0702  151.1848 LP  0  0  0  0  0  0  0  0  0  0  0  0  # atno 17370 bound_to 10713
  157.2723  130.6710  149.6025 LP  0  0  0  0  0  0  0  0  0  0  0  0  # atno 17371 bound_to 10713
  140.6306  134.5267  157.5559 LP  0  0  0  0  0  0  0  0  0  0  0  0  # atno 17394 bound_to 11000
  139.9247  134.8080  156.1105 LP  0  0  0  0  0  0  0  0  0  0  0  0  # atno 17395 bound_to 11000

$$$$
