AV-unprocessed.smi:1308|AV-procd|sdf|5443|dock4
  -GOLD-   22720 5 13D 1   1.00000     0.00000
 Structure written by MMmdl.
 44 44  0  0  0  0  0  0  0  0  2 V2000
  150.0233  135.3255  154.6607 C   0  0  0  0  0  0  0  0  0  0  0  0
  150.3515  136.7534  155.0408 C   0  0  0  0  0  0  0  0  0  0  0  0
  149.5119  137.6798  154.7755 N   0  0  0  0  0  0  0  0  0  0  0  0
  149.8093  139.0056  155.1327 C   0  0  0  0  0  0  0  0  0  0  0  0
  148.7393  140.0330  154.8070 C   0  0  0  0  0  0  0  0  0  0  0  0
  150.9822  139.3239  155.7528 C   0  0  0  0  0  0  0  0  0  0  0  0
  151.3369  140.7455  156.1932 C   0  0  0  0  0  0  0  0  0  0  0  0
  151.2498  140.9874  157.7001 C   0  0  0  0  0  0  0  0  0  0  0  0
  150.1664  140.8922  158.2759 O   0  0  0  0  0  0  0  0  0  0  0  0
  152.4110  141.2538  158.3229 N   0  0  0  0  0  0  0  0  0  0  0  0
  152.6617  141.2736  159.7649 C   0  0  1  0  0  0  0  0  0  0  0  0
  153.3716  139.9956  160.2456 C   0  0  0  0  0  0  0  0  0  0  0  0
  153.3913  142.5630  160.2070 C   0  0  0  0  0  0  0  0  0  0  0  0
  152.4402  143.7106  160.6090 C   0  0  0  0  0  0  0  0  0  0  0  0
  151.5356  144.2089  159.4648 C   0  0  0  0  0  0  0  0  0  0  0  0
  152.3414  144.7370  158.2664 C   0  0  0  0  0  0  0  0  0  0  0  0
  150.5590  145.2806  159.9734 C   0  0  0  0  0  0  0  0  0  0  0  0
  151.9235  138.2263  156.0388 C   0  0  0  0  0  0  0  0  0  0  0  0
  152.9890  138.4549  156.6100 O   0  0  0  0  0  0  0  0  0  0  0  0
  151.5615  136.9674  155.6615 N   0  5  0  0  0  0  0  0  0  0  0  0
  149.0037  135.2435  154.2815 H   0  0  0  0  0  0  0  0  0  0  0  0
  150.1175  134.6710  155.5278 H   0  0  0  0  0  0  0  0  0  0  0  0
  150.7068  134.9757  153.8866 H   0  0  0  0  0  0  0  0  0  0  0  0
  149.1419  140.8221  154.1720 H   0  0  0  0  0  0  0  0  0  0  0  0
  148.3514  140.4832  155.7210 H   0  0  0  0  0  0  0  0  0  0  0  0
  147.9006  139.5759  154.2806 H   0  0  0  0  0  0  0  0  0  0  0  0
  152.3323  141.0304  155.8520 H   0  0  0  0  0  0  0  0  0  0  0  0
  150.6635  141.4402  155.6906 H   0  0  0  0  0  0  0  0  0  0  0  0
  153.2300  141.3271  157.7359 H   0  0  0  0  0  0  0  0  0  0  0  0
  151.6750  141.2832  160.2291 H   0  0  0  0  0  0  0  0  0  0  0  0
  153.4169  139.9640  161.3343 H   0  0  0  0  0  0  0  0  0  0  0  0
  154.3949  139.9335  159.8761 H   0  0  0  0  0  0  0  0  0  0  0  0
  152.8408  139.1028  159.9136 H   0  0  0  0  0  0  0  0  0  0  0  0
  154.0404  142.3223  161.0488 H   0  0  0  0  0  0  0  0  0  0  0  0
  154.0520  142.9030  159.4090 H   0  0  0  0  0  0  0  0  0  0  0  0
  151.7956  143.3722  161.4198 H   0  0  0  0  0  0  0  0  0  0  0  0
  153.0170  144.5416  161.0169 H   0  0  0  0  0  0  0  0  0  0  0  0
  150.9340  143.3667  159.1203 H   0  0  0  0  0  0  0  0  0  0  0  0
  152.9954  145.5588  158.5599 H   0  0  0  0  0  0  0  0  0  0  0  0
  151.6799  145.1042  157.4814 H   0  0  0  0  0  0  0  0  0  0  0  0
  152.9616  143.9578  157.8240 H   0  0  0  0  0  0  0  0  0  0  0  0
  151.0898  146.1584  160.3426 H   0  0  0  0  0  0  0  0  0  0  0  0
  149.9429  144.8980  160.7880 H   0  0  0  0  0  0  0  0  0  0  0  0
  149.8850  145.6067  159.1810 H   0  0  0  0  0  0  0  0  0  0  0  0
  1  2  1  0  0  0  0
  1 21  1  0  0  0  0
  1 22  1  0  0  0  0
  1 23  1  0  0  0  0
  2 20  1  0  0  0  0
  2  3  2  0  0  0  0
  3  4  1  0  0  0  0
  4  5  1  0  0  0  0
  4  6  2  0  0  0  0
  5 24  1  0  0  0  0
  5 25  1  0  0  0  0
  5 26  1  0  0  0  0
  6  7  1  0  0  0  0
  6 18  1  0  0  0  0
  7  8  1  0  0  0  0
  7 27  1  0  0  0  0
  7 28  1  0  0  0  0
  8  9  2  0  0  0  0
  8 10  1  0  0  0  0
 10 11  1  0  0  0  0
 10 29  1  0  0  0  0
 11 12  1  0  0  0  0
 11 13  1  0  0  0  0
 11 30  1  0  0  0  0
 12 31  1  0  0  0  0
 12 32  1  0  0  0  0
 12 33  1  0  0  0  0
 13 14  1  0  0  0  0
 13 34  1  0  0  0  0
 13 35  1  0  0  0  0
 14 15  1  0  0  0  0
 14 36  1  0  0  0  0
 14 37  1  0  0  0  0
 15 16  1  0  0  0  0
 15 17  1  0  0  0  0
 15 38  1  0  0  0  0
 16 39  1  0  0  0  0
 16 40  1  0  0  0  0
 16 41  1  0  0  0  0
 17 42  1  0  0  0  0
 17 43  1  0  0  0  0
 17 44  1  0  0  0  0
 18 19  2  0  0  0  0
 18 20  1  0  0  0  0
M  CHG  1  20  -1
M  END
> <s_m_source_file>
AV-unprocessed.smi

> <i_m_source_file_index>
1308

> <i_lp_mmshare_version>
43012

> <i_f3d_flags>
0

> <s_epik_input>
W0NIM11jMW5jKFtDSDNdKWMoYyg9TylbbkhdMSlbQ0gyXUMoPU8pW05IXVtDQEhdKFtDSDNdKVtDSDJdW0NIMl1bQ0hdKFtDSDNdKVtDSDNd

> <s_epik_cmdline>
J2VwaWtfcHl0aG9uJywgJy1waCcsICc3LjAnLCAnLXRuJywgJzgnLCAnLW1hJywgJzIwMCcsICctbWV0YWxfYmluZGluZycsICctaW1hZScsICc8aW5maWxlLm1hZT4nLCAnLW9tYWUnLCAnPG91dGZpbGUubWFlPic=

> <r_lp_tautomer_probability>
0.839158

> <r_epik_Ionization_Penalty>
6.61719

> <r_epik_Ionization_Penalty_Charging>
7.20681e-08

> <r_epik_Ionization_Penalty_Neutral>
6.61719

> <r_epik_State_Penalty>
4.43758

> <r_epik_Charging_Adjusted_Penalty>
4.43758

> <i_epik_Tot_Q>
-1

> <i_epik_Tot_abs_Q>
1

> <r_epik_Metal_State_Penalty>
0.801586

> <b_epik_Metal_Only>
1

> <s_lp_Force_Field>
OPLS_2005

> <r_lp_Energy>
8.11692

> <b_lp_Chiralities_Consistent>
1

> <s_lp_Variant>
AV-unprocessed.smi:1308-6

> <Gold.Version>
5.8.1

> <Gold.Id.Protein>
6NUR|6NUR_protein|mol2

> <Gold.PLP.Fitness>
49.1291

> <Gold.PLP.PLP>
-41.7668

> <Gold.PLP.part.hbond>
-2.0000

> <Gold.PLP.part.metal>
0.0000

> <Gold.PLP.part.buried>
-4.2988

> <Gold.PLP.part.nonpolar>
-35.5380

> <Gold.PLP.part.repulsive>
0.3302

> <Gold.PLP.ligand.clash>
0.0000

> <Gold.PLP.ligand.torsion>
0.8141

> <Gold.PLP.Chemscore.Hbond>
2.9600

> <Gold.PLP.Chemscore.CHOScore>
0.0000

> <Gold.PLP.Chemscore.Metal>
0.0000

> <Gold.Chemscore.Hbonds>
donor molecule, donor type, donor heavy atom, donor atom, acceptor molecule, acceptor atom, score
      P1  H  7997  8010       L1    19  0.76
      P1  H 10752 10765       L1    20  1.20

> <Gold.PLP.Chemscore.Internal.Correction>
0.1105

> <Gold.Rescore>
     Score         DG    S(hbond)    S(metal)    S(lipo)     H(rot)  DE(clash)    DE(int)     intcor
     17.02     -18.63       1.59        0.00     108.85       1.91       0.42       1.18       ----

> <Gold.Chemscore.Fitness>
17.0202

> <Gold.Chemscore.DG>
-18.6268

> <Gold.Chemscore.ZeroCoef>
-5.4800

> <Gold.Chemscore.Hbond>
1.5884

> <Gold.Chemscore.Metal>
0.0000

> <Gold.Chemscore.Lipo>
108.8534

> <Gold.Chemscore.Internal_Hbond>
0.0000

> <Gold.Chemscore.DEClash>
0.4248

> <Gold.Chemscore.DEInternal>
1.1818

> <Gold.Chemscore.Rot>
1.9118

> <Gold.Chemscore.Internal.Correction>
   9.000000E+99

> <Gold.Chemscore.Hbonds>
donor molecule, donor type, donor heavy atom, donor atom, acceptor molecule, acceptor atom, score
      P1  H  7997  8010       L1    19  0.75
      P1  H 10752 10765       L1    20  0.39

> <Gold.Chemscore.Hbond.Weighted>
-5.3052

> <Gold.Chemscore.Metal.Weighted>
-0.0000

> <Gold.Chemscore.Lipo.Weighted>
-12.7358

> <Gold.Chemscore.Internal_Hbond.Weighted>
0.0000

> <Gold.Chemscore.DEClash.Weighted>
0.4248

> <Gold.Chemscore.DEInternal.Weighted>
1.1818

> <Gold.Chemscore.Rot.Weighted>
4.8943

> <Gold.Chemscore.Internal.Correction.Weighted>
   9.000000E+99

> <Gold.Protein.RotatedTorsions>
[ 6907 6896 6895 6894 ] final -107.08 input  -60.11 | X-H torsion
[ 7974 7965 7964 7962 ] final  -95.95 input  175.53 | X-H torsion
[ 8008 7997 7996 7995 ] final   61.54 input   59.86 | X-H torsion
[ 10167 10162 10161 10158 ] final  -46.13 input  -65.29 | X-H torsion
[ 10718 10713 10712 10709 ] final  132.49 input   66.30 | X-H torsion
[ 10763 10752 10751 10750 ] final -165.28 input  -60.55 | X-H torsion
[ 11005 11000 10999 10996 ] final   77.48 input  -57.11 | X-H torsion

> <Gold.Protein.ActiveResidues>
 VAL166  LYS551  ARG553  GLY616  TRP617  ASP618  TYR619  PRO620  LYS621  CYS622 
 ASP623  PHE694  ASN695  SER759  ASP760  ASP761  ALA762  ILE779  LEU786  VAL792 
 PHE793  MET794  SER795  GLU796  ALA797  LYS798  CYS799  TRP800  GLU811  SER814 

> <Gold.Protein.RotatedAtoms>
  150.7424  133.9879  159.3597 H   0  0  0  0  0  0  0  0  0  0  0  0  # atno 6907 bound_to 6896
  151.7825  135.0755  160.0385 H   0  0  0  0  0  0  0  0  0  0  0  0  # atno 6908 bound_to 6896
  152.3264  133.5873  159.5816 H   0  0  0  0  0  0  0  0  0  0  0  0  # atno 6909 bound_to 6896
  145.3533  140.9480  143.2542 H   0  0  0  0  0  0  0  0  0  0  0  0  # atno 7974 bound_to 7965
  155.5999  140.3494  155.4591 H   0  0  0  0  0  0  0  0  0  0  0  0  # atno 8008 bound_to 7997
  156.0236  140.1259  157.0356 H   0  0  0  0  0  0  0  0  0  0  0  0  # atno 8009 bound_to 7997
  154.4324  140.1057  156.5985 H   0  0  0  0  0  0  0  0  0  0  0  0  # atno 8010 bound_to 7997
  140.6830  143.2846  151.3738 H   0  0  0  0  0  0  0  0  0  0  0  0  # atno 10167 bound_to 10162
  157.4866  131.1088  150.9612 H   0  0  0  0  0  0  0  0  0  0  0  0  # atno 10718 bound_to 10713
  154.6947  135.2977  154.9429 H   0  0  0  0  0  0  0  0  0  0  0  0  # atno 10763 bound_to 10752
  154.0381  135.6661  153.4791 H   0  0  0  0  0  0  0  0  0  0  0  0  # atno 10764 bound_to 10752
  153.0637  135.5101  154.8058 H   0  0  0  0  0  0  0  0  0  0  0  0  # atno 10765 bound_to 10752
  139.9253  134.7686  156.1528 H   0  0  0  0  0  0  0  0  0  0  0  0  # atno 11005 bound_to 11000
  144.8701  139.5050  143.6771 LP  0  0  0  0  0  0  0  0  0  0  0  0  # atno 17320 bound_to 7965
  146.2959  139.7276  142.9127 LP  0  0  0  0  0  0  0  0  0  0  0  0  # atno 17321 bound_to 7965
  139.6167  144.0990  152.2352 LP  0  0  0  0  0  0  0  0  0  0  0  0  # atno 17342 bound_to 10162
  140.0421  144.5999  150.7403 LP  0  0  0  0  0  0  0  0  0  0  0  0  # atno 17343 bound_to 10162
  157.0327  130.5718  149.5345 LP  0  0  0  0  0  0  0  0  0  0  0  0  # atno 17370 bound_to 10713
  156.0150  130.5244  150.8107 LP  0  0  0  0  0  0  0  0  0  0  0  0  # atno 17371 bound_to 10713
  141.0805  133.6756  156.2326 LP  0  0  0  0  0  0  0  0  0  0  0  0  # atno 17394 bound_to 11000
  140.6356  134.5219  157.5564 LP  0  0  0  0  0  0  0  0  0  0  0  0  # atno 17395 bound_to 11000

$$$$
