AV-unprocessed.smi:1039|AV-procd|sdf|4522|dock2
  -GOLD-   22720 2533D 1   1.00000     0.00000
 Structure written by MMmdl.
 40 41  0  0  0  0  0  0  0  0  1 V2000
  145.5141  144.0372  153.6223 C   0  0  0  0  0  0  0  0  0  0  0  0
  145.9242  142.6011  153.9755 C   0  0  0  0  0  0  0  0  0  0  0  0
  146.3063  142.4664  155.4656 C   0  0  0  0  0  0  0  0  0  0  0  0
  146.8174  141.0498  155.7849 C   0  0  0  0  0  0  0  0  0  0  0  0
  147.9579  140.7470  154.9027 N   0  0  0  0  0  0  0  0  0  0  0  0
  149.2669  140.7663  155.2595 C   0  0  0  0  0  0  0  0  0  0  0  0
  150.1857  140.5065  154.4813 O   0  0  0  0  0  0  0  0  0  0  0  0
  149.4869  141.0470  156.5529 N   0  0  0  0  0  0  0  0  0  0  0  0
  150.7987  141.1598  157.1778 C   0  0  0  0  0  0  0  0  0  0  0  0
  150.7312  141.9323  158.5072 C   0  0  0  0  0  0  0  0  0  0  0  0
  151.9421  141.7475  159.3751 C   0  0  0  0  0  0  0  0  0  0  0  0
  152.4079  140.5546  159.7326 N   0  0  0  0  0  0  0  0  0  0  0  0
  153.5355  140.8270  160.4979 C   0  0  0  0  0  0  0  0  0  0  0  0
  153.7109  142.1865  160.5814 C   0  0  0  0  0  0  0  0  0  0  0  0
  152.6739  142.7708  159.8626 N   0  0  0  0  0  0  0  0  0  0  0  0
  152.4485  144.1967  159.6824 C   0  0  0  0  0  0  0  0  0  0  0  0
  152.4682  144.5169  158.3882 F   0  0  0  0  0  0  0  0  0  0  0  0
  151.2760  144.5472  160.2091 F   0  0  0  0  0  0  0  0  0  0  0  0
  147.5395  140.6946  153.4967 C   0  0  0  0  0  0  0  0  0  0  0  0
  147.0627  142.0932  153.0646 C   0  0  0  0  0  0  0  0  0  0  0  0
  146.3389  144.7338  153.7757 H   0  0  0  0  0  0  0  0  0  0  0  0
  144.6785  144.3696  154.2386 H   0  0  0  0  0  0  0  0  0  0  0  0
  145.2053  144.1115  152.5793 H   0  0  0  0  0  0  0  0  0  0  0  0
  145.0580  141.9609  153.8023 H   0  0  0  0  0  0  0  0  0  0  0  0
  147.0796  143.1936  155.7178 H   0  0  0  0  0  0  0  0  0  0  0  0
  145.4467  142.6997  156.0948 H   0  0  0  0  0  0  0  0  0  0  0  0
  147.0465  140.9778  156.8478 H   0  0  0  0  0  0  0  0  0  0  0  0
  146.0253  140.3199  155.6105 H   0  0  0  0  0  0  0  0  0  0  0  0
  148.6851  141.2277  157.1393 H   0  0  0  0  0  0  0  0  0  0  0  0
  151.2297  140.1711  157.3425 H   0  0  0  0  0  0  0  0  0  0  0  0
  151.4585  141.6835  156.4844 H   0  0  0  0  0  0  0  0  0  0  0  0
  150.5837  142.9917  158.3011 H   0  0  0  0  0  0  0  0  0  0  0  0
  149.8522  141.6140  159.0687 H   0  0  0  0  0  0  0  0  0  0  0  0
  154.1288  140.0317  160.9242 H   0  0  0  0  0  0  0  0  0  0  0  0
  154.4684  142.7692  161.0847 H   0  0  0  0  0  0  0  0  0  0  0  0
  153.2363  144.7683  160.1733 H   0  0  0  0  0  0  0  0  0  0  0  0
  148.3353  140.3486  152.8356 H   0  0  0  0  0  0  0  0  0  0  0  0
  146.7302  139.9716  153.3866 H   0  0  0  0  0  0  0  0  0  0  0  0
  146.7271  142.0653  152.0275 H   0  0  0  0  0  0  0  0  0  0  0  0
  147.9032  142.7880  153.0991 H   0  0  0  0  0  0  0  0  0  0  0  0
  1  2  1  0  0  0  0
  1 21  1  0  0  0  0
  1 22  1  0  0  0  0
  1 23  1  0  0  0  0
  2 20  1  0  0  0  0
  2  3  1  0  0  0  0
  2 24  1  0  0  0  0
  3  4  1  0  0  0  0
  3 25  1  0  0  0  0
  3 26  1  0  0  0  0
  4  5  1  0  0  0  0
  4 27  1  0  0  0  0
  4 28  1  0  0  0  0
  5  6  1  0  0  0  0
  5 19  1  0  0  0  0
  6  7  2  0  0  0  0
  6  8  1  0  0  0  0
  8  9  1  0  0  0  0
  8 29  1  0  0  0  0
  9 10  1  0  0  0  0
  9 30  1  0  0  0  0
  9 31  1  0  0  0  0
 10 11  1  0  0  0  0
 10 32  1  0  0  0  0
 10 33  1  0  0  0  0
 11 15  1  0  0  0  0
 11 12  2  0  0  0  0
 12 13  1  0  0  0  0
 13 14  2  0  0  0  0
 13 34  1  0  0  0  0
 14 15  1  0  0  0  0
 14 35  1  0  0  0  0
 15 16  1  0  0  0  0
 16 17  1  0  0  0  0
 16 18  1  0  0  0  0
 16 36  1  0  0  0  0
 19 20  1  0  0  0  0
 19 37  1  0  0  0  0
 19 38  1  0  0  0  0
 20 39  1  0  0  0  0
 20 40  1  0  0  0  0
M  END
> <s_m_source_file>
AV-unprocessed.smi

> <i_m_source_file_index>
1039

> <i_lp_mmshare_version>
43012

> <i_f3d_flags>
0

> <s_epik_input>
W0NIM11bQ0hdMVtDSDJdW0NIMl1OKFtDSDJdW0NIMl0xKUMoPU8pW05IXVtDSDJdW0NIMl1jMm5bY0hdW2NIXW4yW0NIXShGKUY=

> <s_epik_cmdline>
J2VwaWtfcHl0aG9uJywgJy1waCcsICc3LjAnLCAnLXRuJywgJzgnLCAnLW1hJywgJzIwMCcsICctbWV0YWxfYmluZGluZycsICctaW1hZScsICc8aW5maWxlLm1hZT4nLCAnLW9tYWUnLCAnPG91dGZpbGUubWFlPic=

> <r_lp_tautomer_probability>
1

> <r_epik_Ionization_Penalty>
0.101783

> <r_epik_Ionization_Penalty_Charging>
0.101715

> <r_epik_Ionization_Penalty_Neutral>
6.87123e-05

> <r_epik_State_Penalty>
0.091697

> <r_epik_Charging_Adjusted_Penalty>
0.193412

> <i_epik_Tot_Q>
0

> <i_epik_Tot_abs_Q>
0

> <r_epik_Metal_State_Penalty>
0.0781553

> <b_epik_Metal_Only>
0

> <s_lp_Force_Field>
OPLS_2005

> <r_lp_Energy>
33.8957

> <b_lp_Chiralities_Consistent>
1

> <s_lp_Variant>
AV-unprocessed.smi:1039-1

> <Gold.Version>
5.8.1

> <Gold.Id.Protein>
6NUR|6NUR_protein|mol2

> <Gold.PLP.Fitness>
47.8429

> <Gold.PLP.PLP>
-45.5782

> <Gold.PLP.part.hbond>
-1.0000

> <Gold.PLP.part.metal>
0.0000

> <Gold.PLP.part.buried>
-6.6622

> <Gold.PLP.part.nonpolar>
-37.9808

> <Gold.PLP.part.repulsive>
0.1384

> <Gold.PLP.ligand.clash>
0.0000

> <Gold.PLP.ligand.torsion>
0.2726

> <Gold.PLP.Chemscore.Hbond>
0.9120

> <Gold.PLP.Chemscore.CHOScore>
0.0000

> <Gold.PLP.Chemscore.Metal>
0.0000

> <Gold.Chemscore.Hbonds>
donor molecule, donor type, donor heavy atom, donor atom, acceptor molecule, acceptor atom, score
      P1  H  7989  7998       L1     7  0.91

> <Gold.PLP.Chemscore.Internal.Correction>
0.0738

> <Gold.Rescore>
     Score         DG    S(hbond)    S(metal)    S(lipo)     H(rot)  DE(clash)    DE(int)     intcor
     13.12     -13.77       0.92        0.00      78.66       1.56       0.46       0.20       ----

> <Gold.Chemscore.Fitness>
13.1163

> <Gold.Chemscore.DG>
-13.7686

> <Gold.Chemscore.ZeroCoef>
-5.4800

> <Gold.Chemscore.Hbond>
0.9238

> <Gold.Chemscore.Metal>
0.0000

> <Gold.Chemscore.Lipo>
78.6629

> <Gold.Chemscore.Internal_Hbond>
0.0000

> <Gold.Chemscore.DEClash>
0.4564

> <Gold.Chemscore.DEInternal>
0.1958

> <Gold.Chemscore.Rot>
1.5626

> <Gold.Chemscore.Internal.Correction>
   9.000000E+99

> <Gold.Chemscore.Hbonds>
donor molecule, donor type, donor heavy atom, donor atom, acceptor molecule, acceptor atom, score
      P1  H  7989  7998       L1     7  0.88

> <Gold.Chemscore.Hbond.Weighted>
-3.0854

> <Gold.Chemscore.Metal.Weighted>
-0.0000

> <Gold.Chemscore.Lipo.Weighted>
-9.2036

> <Gold.Chemscore.Internal_Hbond.Weighted>
0.0000

> <Gold.Chemscore.DEClash.Weighted>
0.4564

> <Gold.Chemscore.DEInternal.Weighted>
0.1958

> <Gold.Chemscore.Rot.Weighted>
4.0004

> <Gold.Chemscore.Internal.Correction.Weighted>
   9.000000E+99

> <Gold.Protein.RotatedTorsions>
[ 6907 6896 6895 6894 ] final  129.68 input  -60.11 | X-H torsion
[ 7974 7965 7964 7962 ] final   56.71 input  175.53 | X-H torsion
[ 8008 7997 7996 7995 ] final  166.48 input   59.86 | X-H torsion
[ 10167 10162 10161 10158 ] final  -80.31 input  -65.29 | X-H torsion
[ 10718 10713 10712 10709 ] final -116.74 input   66.30 | X-H torsion
[ 10763 10752 10751 10750 ] final   10.92 input  -60.55 | X-H torsion
[ 11005 11000 10999 10996 ] final -135.94 input  -57.11 | X-H torsion

> <Gold.Protein.ActiveResidues>
 VAL166  LYS551  ARG553  GLY616  TRP617  ASP618  TYR619  PRO620  LYS621  CYS622 
 ASP623  PHE694  ASN695  SER759  ASP760  ASP761  ALA762  ILE779  LEU786  VAL792 
 PHE793  MET794  SER795  GLU796  ALA797  LYS798  CYS799  TRP800  GLU811  SER814 

> <Gold.Protein.RotatedAtoms>
  152.3600  133.6285  159.6007 H   0  0  0  0  0  0  0  0  0  0  0  0  # atno 6907 bound_to 6896
  150.7595  133.9438  159.3473 H   0  0  0  0  0  0  0  0  0  0  0  0  # atno 6908 bound_to 6896
  151.7278  135.0882  160.0346 H   0  0  0  0  0  0  0  0  0  0  0  0  # atno 6909 bound_to 6896
  145.9369  139.3855  143.0387 H   0  0  0  0  0  0  0  0  0  0  0  0  # atno 7974 bound_to 7965
  156.1714  140.1642  156.8440 H   0  0  0  0  0  0  0  0  0  0  0  0  # atno 8008 bound_to 7997
  154.5261  140.0767  156.8295 H   0  0  0  0  0  0  0  0  0  0  0  0  # atno 8009 bound_to 7997
  155.3503  140.3389  155.4241 H   0  0  0  0  0  0  0  0  0  0  0  0  # atno 8010 bound_to 7997
  140.4515  143.2482  151.8482 H   0  0  0  0  0  0  0  0  0  0  0  0  # atno 10167 bound_to 10162
  156.0984  130.6152  150.9074 H   0  0  0  0  0  0  0  0  0  0  0  0  # atno 10718 bound_to 10713
  153.1980  135.6852  153.8267 H   0  0  0  0  0  0  0  0  0  0  0  0  # atno 10763 bound_to 10752
  153.7543  135.3219  155.3327 H   0  0  0  0  0  0  0  0  0  0  0  0  # atno 10764 bound_to 10752
  154.8156  135.4688  154.0734 H   0  0  0  0  0  0  0  0  0  0  0  0  # atno 10765 bound_to 10752
  140.8851  134.1882  157.4565 H   0  0  0  0  0  0  0  0  0  0  0  0  # atno 11005 bound_to 11000
  145.8352  140.9610  143.0828 LP  0  0  0  0  0  0  0  0  0  0  0  0  # atno 17320 bound_to 7965
  144.6773  140.0214  143.7483 LP  0  0  0  0  0  0  0  0  0  0  0  0  # atno 17321 bound_to 7965
  139.4797  144.5115  151.8926 LP  0  0  0  0  0  0  0  0  0  0  0  0  # atno 17342 bound_to 10162
  140.4202  144.2253  150.5887 LP  0  0  0  0  0  0  0  0  0  0  0  0  # atno 17343 bound_to 10162
  157.6150  131.0934  150.8727 LP  0  0  0  0  0  0  0  0  0  0  0  0  # atno 17370 bound_to 10713
  156.8860  130.5196  149.5288 LP  0  0  0  0  0  0  0  0  0  0  0  0  # atno 17371 bound_to 10713
  139.8723  134.9834  156.5197 LP  0  0  0  0  0  0  0  0  0  0  0  0  # atno 17394 bound_to 11000
  140.8414  133.8202  155.9079 LP  0  0  0  0  0  0  0  0  0  0  0  0  # atno 17395 bound_to 11000

$$$$
