AV-unprocessed.smi:2106|AV-procd|sdf|8597|dock8
  -GOLD-   2272011333D 1   1.00000     0.00000
 Structure written by MMmdl.
 48 49  0  0  0  0  0  0  0  0  2 V2000
  152.4906  139.9483  155.8088 C   0  0  0  0  0  0  0  0  0  0  0  0
  151.0870  140.4767  155.8444 C   0  0  0  0  0  0  0  0  0  0  0  0
  150.3956  141.0677  156.9384 C   0  0  0  0  0  0  0  0  0  0  0  0
  149.1625  141.3723  156.4344 C   0  0  0  0  0  0  0  0  0  0  0  0
  147.9859  142.0139  157.0939 C   0  0  0  0  0  0  0  0  0  0  0  0
  149.1593  140.9677  155.1109 N   0  0  0  0  0  0  0  0  0  0  0  0
  148.0998  141.0721  154.1201 C   0  0  0  0  0  0  0  0  0  0  0  0
  147.8608  139.7290  153.4289 C   0  0  0  0  0  0  0  0  0  0  0  0
  148.4326  138.7165  153.8329 O   0  0  0  0  0  0  0  0  0  0  0  0
  147.0102  139.7313  152.3908 N   0  0  0  0  0  0  0  0  0  0  0  0
  146.6176  138.5525  151.6282 C   0  0  0  0  0  0  0  0  0  0  0  0
  145.6487  137.6535  152.4217 C   0  0  0  0  0  0  0  0  0  0  0  0
  146.0064  136.2155  152.3377 N   0  3  1  0  0  0  0  0  0  0  0  0
  145.8401  135.5199  153.6361 C   0  0  0  0  0  0  0  0  0  0  0  0
  146.2769  134.0449  153.5412 C   0  0  2  0  0  0  0  0  0  0  0  0
  147.8031  133.8582  153.4729 C   0  0  0  0  0  0  0  0  0  0  0  0
  145.6036  133.3999  152.4602 O   0  0  0  0  0  0  0  0  0  0  0  0
  145.7724  134.0260  151.1913 C   0  0  1  0  0  0  0  0  0  0  0  0
  144.9918  133.2114  150.1539 C   0  0  0  0  0  0  0  0  0  0  0  0
  145.2834  135.4836  151.2694 C   0  0  0  0  0  0  0  0  0  0  0  0
  150.3414  140.4191  154.7533 N   0  0  0  0  0  0  0  0  0  0  0  0
  152.9660  140.0269  156.7868 H   0  0  0  0  0  0  0  0  0  0  0  0
  153.1016  140.5050  155.0980 H   0  0  0  0  0  0  0  0  0  0  0  0
  152.5087  138.8983  155.5154 H   0  0  0  0  0  0  0  0  0  0  0  0
  150.7524  141.2433  157.9424 H   0  0  0  0  0  0  0  0  0  0  0  0
  148.2164  142.2826  158.1250 H   0  0  0  0  0  0  0  0  0  0  0  0
  147.1312  141.3375  157.1075 H   0  0  0  0  0  0  0  0  0  0  0  0
  147.6924  142.9235  156.5702 H   0  0  0  0  0  0  0  0  0  0  0  0
  147.1841  141.4174  154.6033 H   0  0  0  0  0  0  0  0  0  0  0  0
  148.3706  141.8281  153.3823 H   0  0  0  0  0  0  0  0  0  0  0  0
  146.5809  140.6090  152.1341 H   0  0  0  0  0  0  0  0  0  0  0  0
  146.1827  138.8775  150.6829 H   0  0  0  0  0  0  0  0  0  0  0  0
  147.5209  137.9952  151.3792 H   0  0  0  0  0  0  0  0  0  0  0  0
  145.6782  137.9662  153.4667 H   0  0  0  0  0  0  0  0  0  0  0  0
  144.6187  137.7901  152.0889 H   0  0  0  0  0  0  0  0  0  0  0  0
  146.4134  136.0272  154.4132 H   0  0  0  0  0  0  0  0  0  0  0  0
  144.7914  135.5727  153.9334 H   0  0  0  0  0  0  0  0  0  0  0  0
  145.9401  133.5417  154.4481 H   0  0  0  0  0  0  0  0  0  0  0  0
  148.2799  134.2416  154.3752 H   0  0  0  0  0  0  0  0  0  0  0  0
  148.2479  134.3802  152.6263 H   0  0  0  0  0  0  0  0  0  0  0  0
  148.0614  132.8022  153.3892 H   0  0  0  0  0  0  0  0  0  0  0  0
  146.8251  134.0079  150.9086 H   0  0  0  0  0  0  0  0  0  0  0  0
  145.0933  133.6425  149.1574 H   0  0  0  0  0  0  0  0  0  0  0  0
  143.9295  133.1754  150.3963 H   0  0  0  0  0  0  0  0  0  0  0  0
  145.3578  132.1853  150.1091 H   0  0  0  0  0  0  0  0  0  0  0  0
  144.2106  135.5137  151.4681 H   0  0  0  0  0  0  0  0  0  0  0  0
  145.4407  135.9627  150.3040 H   0  0  0  0  0  0  0  0  0  0  0  0
  146.9907  136.1739  152.1150 H   0  0  0  0  0  0  0  0  0  0  0  0
  1  2  1  0  0  0  0
  1 22  1  0  0  0  0
  1 23  1  0  0  0  0
  1 24  1  0  0  0  0
  2 21  2  0  0  0  0
  2  3  1  0  0  0  0
  3  4  2  0  0  0  0
  3 25  1  0  0  0  0
  4  5  1  0  0  0  0
  4  6  1  0  0  0  0
  5 26  1  0  0  0  0
  5 27  1  0  0  0  0
  5 28  1  0  0  0  0
  6  7  1  0  0  0  0
  6 21  1  0  0  0  0
  7  8  1  0  0  0  0
  7 29  1  0  0  0  0
  7 30  1  0  0  0  0
  8  9  2  0  0  0  0
  8 10  1  0  0  0  0
 10 11  1  0  0  0  0
 10 31  1  0  0  0  0
 11 12  1  0  0  0  0
 11 32  1  0  0  0  0
 11 33  1  0  0  0  0
 12 13  1  0  0  0  0
 12 34  1  0  0  0  0
 12 35  1  0  0  0  0
 13 20  1  0  0  0  0
 13 14  1  0  0  0  0
 13 48  1  0  0  0  0
 14 15  1  0  0  0  0
 14 36  1  0  0  0  0
 14 37  1  0  0  0  0
 15 16  1  0  0  0  0
 15 17  1  0  0  0  0
 15 38  1  0  0  0  0
 16 39  1  0  0  0  0
 16 40  1  0  0  0  0
 16 41  1  0  0  0  0
 17 18  1  0  0  0  0
 18 19  1  0  0  0  0
 18 20  1  0  0  0  0
 18 42  1  0  0  0  0
 19 43  1  0  0  0  0
 19 44  1  0  0  0  0
 19 45  1  0  0  0  0
 20 46  1  0  0  0  0
 20 47  1  0  0  0  0
M  CHG  1  13   1
M  END
> <s_m_source_file>
AV-unprocessed.smi

> <i_m_source_file_index>
2106

> <i_lp_mmshare_version>
43012

> <i_f3d_flags>
0

> <s_epik_input>
W0NIM11jMVtjSF1jKFtDSDNdKW4objEpW0NIMl1DKD1PKVtOSF1bQ0gyXVtDSDJdTjJbQ0gyXVtDQEBIXShbQ0gzXSlPW0NAQEhdKFtDSDNdKVtDSDJdMg==

> <s_epik_cmdline>
J2VwaWtfcHl0aG9uJywgJy1waCcsICc3LjAnLCAnLXRuJywgJzgnLCAnLW1hJywgJzIwMCcsICctbWV0YWxfYmluZGluZycsICctaW1hZScsICc8aW5maWxlLm1hZT4nLCAnLW9tYWUnLCAnPG91dGZpbGUubWFlPic=

> <r_lp_tautomer_probability>
1

> <r_epik_Ionization_Penalty>
0.748586

> <r_epik_Ionization_Penalty_Charging>
0.748396

> <r_epik_Ionization_Penalty_Neutral>
0.000189656

> <r_epik_State_Penalty>
0.775162

> <r_epik_Charging_Adjusted_Penalty>
1.52356

> <i_epik_Tot_Q>
1

> <i_epik_Tot_abs_Q>
1

> <r_epik_Metal_State_Penalty>
0.775295

> <b_epik_Metal_Only>
0

> <s_lp_Force_Field>
OPLS_2005

> <r_lp_Energy>
15.7435

> <b_lp_Chiralities_Consistent>
1

> <s_lp_Variant>
AV-unprocessed.smi:2106-5

> <Gold.Version>
5.8.1

> <Gold.Id.Protein>
6NUR|6NUR_protein|mol2

> <Gold.PLP.Fitness>
39.0276

> <Gold.PLP.PLP>
-32.1223

> <Gold.PLP.part.hbond>
-3.0000

> <Gold.PLP.part.metal>
0.0000

> <Gold.PLP.part.buried>
0.8691

> <Gold.PLP.part.nonpolar>
-30.4822

> <Gold.PLP.part.repulsive>
0.4567

> <Gold.PLP.ligand.clash>
0.0000

> <Gold.PLP.ligand.torsion>
1.0568

> <Gold.PLP.Chemscore.Hbond>
3.0000

> <Gold.PLP.Chemscore.CHOScore>
0.0000

> <Gold.PLP.Chemscore.Metal>
0.0000

> <Gold.Chemscore.Hbonds>
donor molecule, donor type, donor heavy atom, donor atom, acceptor molecule, acceptor atom, score
      L1  H    13    48       P1  7948  2.00
      P1  H  7989  7998       L1    21  0.95

> <Gold.PLP.Chemscore.Internal.Correction>
0.0190

> <Gold.Rescore>
     Score         DG    S(hbond)    S(metal)    S(lipo)     H(rot)  DE(clash)    DE(int)     intcor
     11.64     -14.81       1.48        0.00      75.32       1.73       0.75       2.42       ----

> <Gold.Chemscore.Fitness>
11.6389

> <Gold.Chemscore.DG>
-14.8050

> <Gold.Chemscore.ZeroCoef>
-5.4800

> <Gold.Chemscore.Hbond>
1.4807

> <Gold.Chemscore.Metal>
0.0000

> <Gold.Chemscore.Lipo>
75.3196

> <Gold.Chemscore.Internal_Hbond>
0.0000

> <Gold.Chemscore.DEClash>
0.7454

> <Gold.Chemscore.DEInternal>
2.4208

> <Gold.Chemscore.Rot>
1.7316

> <Gold.Chemscore.Internal.Correction>
   9.000000E+99

> <Gold.Chemscore.Hbonds>
donor molecule, donor type, donor heavy atom, donor atom, acceptor molecule, acceptor atom, score
      L1  H    13    48       P1  7948  0.99
      P1  H  7989  7998       L1    21  0.21

> <Gold.Chemscore.Hbond.Weighted>
-4.9456

> <Gold.Chemscore.Metal.Weighted>
-0.0000

> <Gold.Chemscore.Lipo.Weighted>
-8.8124

> <Gold.Chemscore.Internal_Hbond.Weighted>
0.0000

> <Gold.Chemscore.DEClash.Weighted>
0.7454

> <Gold.Chemscore.DEInternal.Weighted>
2.4208

> <Gold.Chemscore.Rot.Weighted>
4.4330

> <Gold.Chemscore.Internal.Correction.Weighted>
   9.000000E+99

> <Gold.Protein.RotatedTorsions>
[ 6907 6896 6895 6894 ] final   58.39 input  -60.11 | X-H torsion
[ 7974 7965 7964 7962 ] final  -91.87 input  175.53 | X-H torsion
[ 8008 7997 7996 7995 ] final   29.21 input   59.86 | X-H torsion
[ 10167 10162 10161 10158 ] final -152.00 input  -65.29 | X-H torsion
[ 10718 10713 10712 10709 ] final  107.49 input   66.30 | X-H torsion
[ 10763 10752 10751 10750 ] final   78.81 input  -60.55 | X-H torsion
[ 11005 11000 10999 10996 ] final   71.89 input  -57.11 | X-H torsion

> <Gold.Protein.ActiveResidues>
 VAL166  LYS551  ARG553  GLY616  TRP617  ASP618  TYR619  PRO620  LYS621  CYS622 
 ASP623  PHE694  ASN695  SER759  ASP760  ASP761  ALA762  ILE779  LEU786  VAL792 
 PHE793  MET794  SER795  GLU796  ALA797  LYS798  CYS799  TRP800  GLU811  SER814 

> <Gold.Protein.RotatedAtoms>
  152.3819  134.6576  160.0139 H   0  0  0  0  0  0  0  0  0  0  0  0  # atno 6907 bound_to 6896
  151.6837  133.3306  159.3234 H   0  0  0  0  0  0  0  0  0  0  0  0  # atno 6908 bound_to 6896
  150.7754  134.6695  159.6428 H   0  0  0  0  0  0  0  0  0  0  0  0  # atno 6909 bound_to 6896
  145.4073  140.9542  143.2253 H   0  0  0  0  0  0  0  0  0  0  0  0  # atno 7974 bound_to 7965
  155.0709  140.3200  155.4631 H   0  0  0  0  0  0  0  0  0  0  0  0  # atno 8008 bound_to 7997
  156.2791  140.2112  156.5782 H   0  0  0  0  0  0  0  0  0  0  0  0  # atno 8009 bound_to 7997
  154.7056  140.0503  157.0488 H   0  0  0  0  0  0  0  0  0  0  0  0  # atno 8010 bound_to 7997
  139.7219  143.8944  152.2506 H   0  0  0  0  0  0  0  0  0  0  0  0  # atno 10167 bound_to 10162
  157.6626  131.0874  150.6165 H   0  0  0  0  0  0  0  0  0  0  0  0  # atno 10718 bound_to 10713
  153.0903  135.4863  154.8677 H   0  0  0  0  0  0  0  0  0  0  0  0  # atno 10763 bound_to 10752
  154.7261  135.3050  154.8971 H   0  0  0  0  0  0  0  0  0  0  0  0  # atno 10764 bound_to 10752
  153.9621  135.6811  153.4798 H   0  0  0  0  0  0  0  0  0  0  0  0  # atno 10765 bound_to 10752
  139.9519  134.7212  156.0842 H   0  0  0  0  0  0  0  0  0  0  0  0  # atno 11005 bound_to 11000
  144.8333  139.5592  143.6934 LP  0  0  0  0  0  0  0  0  0  0  0  0  # atno 17320 bound_to 7965
  146.2722  139.6664  142.9288 LP  0  0  0  0  0  0  0  0  0  0  0  0  # atno 17321 bound_to 7965
  139.8842  144.7001  150.8843 LP  0  0  0  0  0  0  0  0  0  0  0  0  # atno 17342 bound_to 10162
  140.7755  143.3637  151.1780 LP  0  0  0  0  0  0  0  0  0  0  0  0  # atno 17343 bound_to 10162
  156.6467  130.4473  149.5733 LP  0  0  0  0  0  0  0  0  0  0  0  0  # atno 17370 bound_to 10713
  156.2168  130.6713  151.1327 LP  0  0  0  0  0  0  0  0  0  0  0  0  # atno 17371 bound_to 10713
  141.1184  133.6620  156.3151 LP  0  0  0  0  0  0  0  0  0  0  0  0  # atno 17394 bound_to 11000
  140.5699  134.5851  157.5455 LP  0  0  0  0  0  0  0  0  0  0  0  0  # atno 17395 bound_to 11000

$$$$
