#       Name:                AV-unprocessed.smi:148
#       Creating user name   scv26
#       Creation time:       Thu Mar 26 18:39:00 2020


#       File generated by GOLD software.
#

@<TRIPOS>MOLECULE
AV-unprocessed.smi:148
    73    77     1
SMALL
NO_CHARGES


@<TRIPOS>ATOM
      1 ****        -3.7096  -2.8872   0.9444 O.3            1 S1                 0.0000
      2 ****        -3.7352  -1.5103   1.2607 C.3            1 S1                 0.0000
      3 ****        -2.9624  -1.2166   2.5729 C.3            1 S1                 0.0000
      4 ****        -1.4389  -1.4568   2.3954 C.3            1 S1                 0.0000
      5 ****        -0.8605  -0.6732   1.3176 N.pl3          1 S1                 0.0000
      6 ****        -0.5657   0.6707   1.3508 C.2            1 S1                 0.0000
      7 ****        -0.0606   1.1568   0.2501 N.2            1 S1                 0.0000
      8 ****         0.0040   0.0620  -0.6036 C.ar           1 S1                 0.0000
      9 ****         0.4420  -0.1302  -1.9446 C.ar           1 S1                 0.0000
     10 ****         0.9242   0.8465  -2.7435 N.3            1 S1                 0.0000
     11 ****        -0.1853   1.7190  -3.1360 C.3            1 S1                 0.0000
     12 ****         0.2256   2.6937  -4.2426 C.3            1 S1                 0.0000
     13 ****         1.4432   3.5004  -3.7928 C.3            1 S1                 0.0000
     14 ****         2.5799   2.5471  -3.4057 C.3            1 S1                 0.0000
     15 ****         2.1650   1.5251  -2.3109 C.3            1 S1                 0.0000
     16 ****         3.3536   0.5453  -2.0131 C.3            1 S1                 0.0000
     17 ****         3.2471  -0.3319  -0.7463 C.3            1 S1                 0.0000
     18 ****         4.6778  -0.7163  -0.3418 C.3            1 S1                 0.0000
     19 ****         5.6101   0.0949  -1.2453 C.3            1 S1                 0.0000
     20 ****         4.7373   1.2052  -1.8315 C.3            1 S1                 0.0000
     21 ****         4.6831   2.2735  -0.9019 O.3            1 S1                 0.0000
     22 ****         0.3412  -1.3730  -2.4773 N.ar           1 S1                 0.0000
     23 ****        -0.1393  -2.3775  -1.7382 C.ar           1 S1                 0.0000
     24 ****        -0.5752  -2.3525  -0.4766 N.ar           1 S1                 0.0000
     25 ****        -0.4879  -1.0993   0.0549 C.ar           1 S1                 0.0000
     26 ****        -3.5245  -1.9858   3.8079 C.3            1 S1                 0.0000
     27 ****        -5.0212  -1.8264   4.0549 C.3            1 S1                 0.0000
     28 ****        -5.1176  -0.5045   4.8132 C.3            1 S1                 0.0000
     29 ****        -3.8605  -0.3394   5.4607 O.3            1 S1                 0.0000
     30 ****        -3.0170  -1.4426   5.1516 C.3            1 S1                 0.0000
     31 ****        -4.1531  -3.0151   0.1197 H              1 S1                 0.0000
     32 ****        -3.3151  -0.9552   0.4226 H              1 S1                 0.0000
     33 ****        -4.7704  -1.1794   1.3237 H              1 S1                 0.0000
     34 ****        -3.0932  -0.1514   2.7689 H              1 S1                 0.0000
     35 ****        -0.8866  -1.2063   3.2988 H              1 S1                 0.0000
     36 ****        -1.2421  -2.5125   2.2052 H              1 S1                 0.0000
     37 ****        -0.7452   1.2840   2.2219 H              1 S1                 0.0000
     38 ****        -1.0292   1.1195  -3.4820 H              1 S1                 0.0000
     39 ****        -0.5320   2.2822  -2.2684 H              1 S1                 0.0000
     40 ****         0.4585   2.1433  -5.1553 H              1 S1                 0.0000
     41 ****        -0.6026   3.3617  -4.4803 H              1 S1                 0.0000
     42 ****         1.7669   4.1704  -4.5897 H              1 S1                 0.0000
     43 ****         1.1795   4.1281  -2.9408 H              1 S1                 0.0000
     44 ****         2.9159   2.0120  -4.2951 H              1 S1                 0.0000
     45 ****         3.4219   3.1545  -3.0774 H              1 S1                 0.0000
     46 ****         1.9413   2.0856  -1.4026 H              1 S1                 0.0000
     47 ****         3.4428  -0.1293  -2.8666 H              1 S1                 0.0000
     48 ****         2.7867   0.2341   0.0642 H              1 S1                 0.0000
     49 ****         2.6471  -1.2267  -0.9059 H              1 S1                 0.0000
     50 ****         4.8476  -0.4722   0.7074 H              1 S1                 0.0000
     51 ****         4.8561  -1.7853  -0.4617 H              1 S1                 0.0000
     52 ****         6.4884   0.4709  -0.7192 H              1 S1                 0.0000
     53 ****         5.9669  -0.5439  -2.0544 H              1 S1                 0.0000
     54 ****         5.1507   1.5695  -2.7724 H              1 S1                 0.0000
     55 ****         4.1156   2.9447  -1.2488 H              1 S1                 0.0000
     56 ****        -0.1827  -3.3392  -2.2280 H              1 S1                 0.0000
     57 ****        -3.2732  -3.0425   3.7064 H              1 S1                 0.0000
     58 ****        -5.6529  -1.8613   3.1698 H              1 S1                 0.0000
     59 ****        -5.3592  -2.6338   4.7066 H              1 S1                 0.0000
     60 ****        -5.2692   0.3275   4.1246 H              1 S1                 0.0000
     61 ****        -5.9373  -0.5041   5.5319 H              1 S1                 0.0000
     62 ****        -3.1459  -2.1975   5.9289 H              1 S1                 0.0000
     63 ****        -1.9695  -1.1486   5.1634 H              1 S1                 0.0000
     64 ****        -4.1749  -3.4064   1.6613 LP             1 S1                 0.0000
     65 ****        -2.7621  -3.1981   0.8693 LP             1 S1                 0.0000
     66 ****         0.2161   2.0995   0.0639 LP             1 S1                 0.0000
     67 ****         1.2905   0.4057  -3.5630 LP             1 S1                 0.0000
     68 ****         5.6005   2.6463  -0.7627 LP             1 S1                 0.0000
     69 ****         4.3215   1.9437  -0.0298 LP             1 S1                 0.0000
     70 ****         0.6259  -1.5377  -3.4216 LP             1 S1                 0.0000
     71 ****        -0.9216  -3.1508   0.0160 LP             1 S1                 0.0000
     72 ****        -3.9990  -0.2931   6.4500 LP             1 S1                 0.0000
     73 ****        -3.4315   0.5067   5.1443 LP             1 S1                 0.0000
@<TRIPOS>BOND
    1    1    2 1     
    2    1   31 1     
    3    2    3 1     
    4    2   32 1     
    5    2   33 1     
    6    3    4 1     
    7    3   26 1     
    8    3   34 1     
    9    4    5 1     
   10    4   35 1     
   11    4   36 1     
   12    5   25 1     
   13    5    6 1     
   14    6    7 2     
   15    6   37 1     
   16    7    8 1     
   17    8   25 ar    
   18    8    9 ar    
   19    9   10 1     
   20    9   22 ar    
   21   10   15 1     
   22   10   11 1     
   23   11   12 1     
   24   11   38 1     
   25   11   39 1     
   26   12   13 1     
   27   12   40 1     
   28   12   41 1     
   29   13   14 1     
   30   13   42 1     
   31   13   43 1     
   32   14   15 1     
   33   14   44 1     
   34   14   45 1     
   35   15   16 1     
   36   15   46 1     
   37   16   20 1     
   38   16   17 1     
   39   16   47 1     
   40   17   18 1     
   41   17   48 1     
   42   17   49 1     
   43   18   19 1     
   44   18   50 1     
   45   18   51 1     
   46   19   20 1     
   47   19   52 1     
   48   19   53 1     
   49   20   21 1     
   50   20   54 1     
   51   21   55 1     
   52   22   23 ar    
   53   23   24 ar    
   54   23   56 1     
   55   24   25 ar    
   56   26   30 1     
   57   26   27 1     
   58   26   57 1     
   59   27   28 1     
   60   27   58 1     
   61   27   59 1     
   62   28   29 1     
   63   28   60 1     
   64   28   61 1     
   65   29   30 1     
   66   30   62 1     
   67   30   63 1     
   68    1   64 1     
   69    1   65 1     
   70    7   66 1     
   71   10   67 1     
   72   21   68 1     
   73   21   69 1     
   74   22   70 1     
   75   24   71 1     
   76   29   72 1     
   77   29   73 1     
@<TRIPOS>SUBSTRUCTURE
      1 S1             1
@<TRIPOS>SET
LONE_PAIRS      STATIC     ATOMS    <user>   **** ""
10 64 65 66 67 68 69 70 71 72 73
DONOR_HYDROGENS      STATIC     ATOMS    <user>   **** ""
2 31 55
ATOM$BLUE        STATIC     ATOMS    COLORGROUP SYSTEM
10 64 65 66 67 68 69 70 71 72 73
ATOM$RED        STATIC     ATOMS    COLORGROUP SYSTEM
2 31 55
