#       Name:                AV-unprocessed.smi:952
#       Creating user name   scv26
#       Creation time:       Fri Mar 27 02:16:34 2020


#       File generated by GOLD software.
#

@<TRIPOS>MOLECULE
AV-unprocessed.smi:952
    40    40     1
SMALL
NO_CHARGES


@<TRIPOS>ATOM
      1 ****        -4.9187  -1.1035  -2.9742 C.3            1 S1                 0.0000
      2 ****        -3.6225  -1.2079  -2.1639 C.3            1 S1                 0.0000
      3 ****        -2.4204  -1.6185  -3.0298 C.3            1 S1                 0.0000
      4 ****        -1.2007  -1.7239  -2.2377 N.am           1 S1                 0.0000
      5 ****        -0.4212  -0.6916  -1.8815 C.2            1 S1                 0.0000
      6 ****        -0.6523   0.4734  -2.2091 O.2            1 S1                 0.0000
      7 ****         0.8160  -1.0405  -1.0449 C.3            1 S1                 0.0000
      8 ****         1.2941   0.0797  -0.2387 N.am           1 S1                 0.0000
      9 ****         0.7730   0.4668   0.9370 C.2            1 S1                 0.0000
     10 ****        -0.1775  -0.1059   1.4720 O.2            1 S1                 0.0000
     11 ****         1.4339   1.6835   1.6033 C.3            1 S1                 0.0000
     12 ****         0.4872   2.4255   2.5646 C.3            1 S1                 0.0000
     13 ****         2.6610   1.2865   2.2815 N.pl3          1 S1                 0.0000
     14 ****         2.8280   0.3879   3.3178 C.2            1 S1                 0.0000
     15 ****         4.1593   0.3521   3.6182 C.2            1 S1                 0.0000
     16 ****         4.7362   1.2765   2.7039 C.2            1 S1                 0.0000
     17 ****         3.8386   1.8346   1.9079 N.2            1 S1                 0.0000
     18 ****        -5.7546  -0.8200  -2.3342 H              1 S1                 0.0000
     19 ****        -5.1673  -2.0551  -3.4451 H              1 S1                 0.0000
     20 ****        -4.8315  -0.3522  -3.7597 H              1 S1                 0.0000
     21 ****        -3.4248  -0.2482  -1.6851 H              1 S1                 0.0000
     22 ****        -3.7590  -1.9315  -1.3593 H              1 S1                 0.0000
     23 ****        -2.6090  -2.5890  -3.4899 H              1 S1                 0.0000
     24 ****        -2.2772  -0.9102  -3.8478 H              1 S1                 0.0000
     25 ****        -0.9344  -2.6482  -1.9303 H              1 S1                 0.0000
     26 ****         0.6069  -1.8992  -0.4040 H              1 S1                 0.0000
     27 ****         1.6164  -1.3420  -1.7206 H              1 S1                 0.0000
     28 ****         2.0723   0.6070  -0.6075 H              1 S1                 0.0000
     29 ****         1.6973   2.3817   0.8059 H              1 S1                 0.0000
     30 ****        -0.4287   2.7327   2.0584 H              1 S1                 0.0000
     31 ****         0.9610   3.3260   2.9561 H              1 S1                 0.0000
     32 ****         0.2056   1.8050   3.4163 H              1 S1                 0.0000
     33 ****         1.9940  -0.1459   3.7492 H              1 S1                 0.0000
     34 ****         4.6465  -0.2429   4.3763 H              1 S1                 0.0000
     35 ****         5.7736   1.5574   2.5960 H              1 S1                 0.0000
     36 ****        -1.4540   0.6861  -2.7678 LP             1 S1                 0.0000
     37 ****        -0.0382   1.2063  -1.9164 LP             1 S1                 0.0000
     38 ****        -0.5973  -0.8983   1.0293 LP             1 S1                 0.0000
     39 ****        -0.5293   0.2216   2.3489 LP             1 S1                 0.0000
     40 ****         3.9965   2.5118   1.1892 LP             1 S1                 0.0000
@<TRIPOS>BOND
    1    1    2 1     
    2    1   18 1     
    3    1   19 1     
    4    1   20 1     
    5    2    3 1     
    6    2   21 1     
    7    2   22 1     
    8    3    4 1     
    9    3   23 1     
   10    3   24 1     
   11    4    5 am    
   12    4   25 1     
   13    5    6 2     
   14    5    7 1     
   15    7    8 1     
   16    7   26 1     
   17    7   27 1     
   18    8    9 am    
   19    8   28 1     
   20    9   10 2     
   21    9   11 1     
   22   11   12 1     
   23   11   13 1     
   24   11   29 1     
   25   12   30 1     
   26   12   31 1     
   27   12   32 1     
   28   13   17 1     
   29   13   14 1     
   30   14   15 2     
   31   14   33 1     
   32   15   16 1     
   33   15   34 1     
   34   16   17 2     
   35   16   35 1     
   36    6   36 1     
   37    6   37 1     
   38   10   38 1     
   39   10   39 1     
   40   17   40 1     
@<TRIPOS>SUBSTRUCTURE
      1 S1             1
@<TRIPOS>SET
LONE_PAIRS      STATIC     ATOMS    <user>   **** ""
5 36 37 38 39 40
DONOR_HYDROGENS      STATIC     ATOMS    <user>   **** ""
2 25 28
ATOM$BLUE        STATIC     ATOMS    COLORGROUP SYSTEM
5 36 37 38 39 40
ATOM$RED        STATIC     ATOMS    COLORGROUP SYSTEM
2 25 28
