AV-unprocessed.smi:3070|AV-procd|sdf|11711|dock7
  -GOLD-   2272017113D 1   1.00000     0.00000
 Structure written by MMmdl.
 21 22  0  0  0  0  0  0  0  0  2 V2000
  153.6589  140.3563  160.1768 C   0  0  0  0  0  0  0  0  0  0  0  0
  153.7946  141.0869  161.3228 N   0  0  0  0  0  0  0  0  0  0  0  0
  153.2285  142.2200  160.9322 C   0  0  0  0  0  0  0  0  0  0  0  0
  152.7874  142.1984  159.6730 N   0  0  0  0  0  0  0  0  0  0  0  0
  152.1230  143.2333  158.8950 C   0  0  2  0  0  0  0  0  0  0  0  0
  151.9183  144.5461  159.6506 C   0  0  0  0  0  0  0  0  0  0  0  0
  150.8165  145.2312  158.8406 C   0  0  0  0  0  0  0  0  0  0  0  0
  149.9943  144.1489  158.2617 N   0  3  0  0  0  0  0  0  0  0  0  0
  150.7003  142.8666  158.4550 C   0  0  0  0  0  0  0  0  0  0  0  0
  153.0628  140.9754  159.1576 N   0  0  0  0  0  0  0  0  0  0  0  0
  154.0103  139.3386  160.0909 H   0  0  0  0  0  0  0  0  0  0  0  0
  153.1355  143.0819  161.5769 H   0  0  0  0  0  0  0  0  0  0  0  0
  152.7248  143.4334  158.0066 H   0  0  0  0  0  0  0  0  0  0  0  0
  151.5628  144.3619  160.6654 H   0  0  0  0  0  0  0  0  0  0  0  0
  152.8278  145.1441  159.7170 H   0  0  0  0  0  0  0  0  0  0  0  0
  150.2159  145.9123  159.4440 H   0  0  0  0  0  0  0  0  0  0  0  0
  151.2549  145.8043  158.0227 H   0  0  0  0  0  0  0  0  0  0  0  0
  149.0985  144.1079  158.7268 H   0  0  0  0  0  0  0  0  0  0  0  0
  150.6882  142.2627  157.5474 H   0  0  0  0  0  0  0  0  0  0  0  0
  150.1735  142.3117  159.2322 H   0  0  0  0  0  0  0  0  0  0  0  0
  149.8571  144.3242  157.2764 H   0  0  0  0  0  0  0  0  0  0  0  0
  1 10  2  0  0  0  0
  1  2  1  0  0  0  0
  1 11  1  0  0  0  0
  2  3  2  0  0  0  0
  3  4  1  0  0  0  0
  3 12  1  0  0  0  0
  4  5  1  0  0  0  0
  4 10  1  0  0  0  0
  5  9  1  0  0  0  0
  5  6  1  0  0  0  0
  5 13  1  0  0  0  0
  6  7  1  0  0  0  0
  6 14  1  0  0  0  0
  6 15  1  0  0  0  0
  7  8  1  0  0  0  0
  7 16  1  0  0  0  0
  7 17  1  0  0  0  0
  8  9  1  0  0  0  0
  8 18  1  0  0  0  0
  8 21  1  0  0  0  0
  9 19  1  0  0  0  0
  9 20  1  0  0  0  0
M  CHG  1   8   1
M  END
> <s_m_source_file>
AV-unprocessed.smi

> <i_m_source_file_index>
3070

> <i_lp_mmshare_version>
43012

> <i_f3d_flags>
0

> <s_epik_input>
bjFbY0hdbltjSF1uMVtDQEBIXTJbQ0gyXVtDSDJdW05IXVtDSDJdMg==

> <s_epik_cmdline>
J2VwaWtfcHl0aG9uJywgJy1waCcsICc3LjAnLCAnLXRuJywgJzgnLCAnLW1hJywgJzIwMCcsICctbWV0YWxfYmluZGluZycsICctaW1hZScsICc8aW5maWxlLm1hZT4nLCAnLW9tYWUnLCAnPG91dGZpbGUubWFlPic=

> <r_lp_tautomer_probability>
1

> <r_epik_Ionization_Penalty>
0.000421274

> <r_epik_Ionization_Penalty_Charging>
0.000420295

> <r_epik_Ionization_Penalty_Neutral>
9.79543e-07

> <r_epik_State_Penalty>
0.000258452

> <r_epik_Charging_Adjusted_Penalty>
0.000678746

> <i_epik_Tot_Q>
1

> <i_epik_Tot_abs_Q>
1

> <r_epik_Metal_State_Penalty>
-0

> <b_epik_Metal_Only>
0

> <s_lp_Force_Field>
OPLS_2005

> <r_lp_Energy>
29.098

> <b_lp_Chiralities_Consistent>
1

> <s_lp_Variant>
AV-unprocessed.smi:3070-1

> <Gold.Version>
5.8.1

> <Gold.Id.Protein>
6NUR|6NUR_protein|mol2

> <Gold.PLP.Fitness>
33.0341

> <Gold.PLP.PLP>
-27.0479

> <Gold.PLP.part.hbond>
-2.0000

> <Gold.PLP.part.metal>
0.0000

> <Gold.PLP.part.buried>
-3.5863

> <Gold.PLP.part.nonpolar>
-21.4683

> <Gold.PLP.part.repulsive>
0.0913

> <Gold.PLP.ligand.clash>
0.0000

> <Gold.PLP.ligand.torsion>
0.0094

> <Gold.PLP.Chemscore.Hbond>
2.0000

> <Gold.PLP.Chemscore.CHOScore>
0.0000

> <Gold.PLP.Chemscore.Metal>
0.0000

> <Gold.Chemscore.Hbonds>
donor molecule, donor type, donor heavy atom, donor atom, acceptor molecule, acceptor atom, score
      L1  H     8    21       P1  8028  2.00

> <Gold.PLP.Chemscore.Internal.Correction>
0.0050

> <Gold.Rescore>
     Score         DG    S(hbond)    S(metal)    S(lipo)     H(rot)  DE(clash)    DE(int)     intcor
     11.14     -11.23       0.88        0.00      45.93       1.00       0.04       0.05       ----

> <Gold.Chemscore.Fitness>
11.1376

> <Gold.Chemscore.DG>
-11.2269

> <Gold.Chemscore.ZeroCoef>
-5.4800

> <Gold.Chemscore.Hbond>
0.8783

> <Gold.Chemscore.Metal>
0.0000

> <Gold.Chemscore.Lipo>
45.9272

> <Gold.Chemscore.Internal_Hbond>
0.0000

> <Gold.Chemscore.DEClash>
0.0401

> <Gold.Chemscore.DEInternal>
0.0493

> <Gold.Chemscore.Rot>
1.0000

> <Gold.Chemscore.Internal.Correction>
   9.000000E+99

> <Gold.Chemscore.Hbonds>
donor molecule, donor type, donor heavy atom, donor atom, acceptor molecule, acceptor atom, score
      L1  H     8    21       P1  8028  0.39

> <Gold.Chemscore.Hbond.Weighted>
-2.9334

> <Gold.Chemscore.Metal.Weighted>
-0.0000

> <Gold.Chemscore.Lipo.Weighted>
-5.3735

> <Gold.Chemscore.Internal_Hbond.Weighted>
0.0000

> <Gold.Chemscore.DEClash.Weighted>
0.0401

> <Gold.Chemscore.DEInternal.Weighted>
0.0493

> <Gold.Chemscore.Rot.Weighted>
2.5600

> <Gold.Chemscore.Internal.Correction.Weighted>
   9.000000E+99

> <Gold.Protein.RotatedTorsions>
[ 6907 6896 6895 6894 ] final  140.82 input  -60.11 | X-H torsion
[ 7974 7965 7964 7962 ] final   56.27 input  175.53 | X-H torsion
[ 8008 7997 7996 7995 ] final -101.15 input   59.86 | X-H torsion
[ 10167 10162 10161 10158 ] final  110.75 input  -65.29 | X-H torsion
[ 10718 10713 10712 10709 ] final  -94.01 input   66.30 | X-H torsion
[ 10763 10752 10751 10750 ] final   81.18 input  -60.55 | X-H torsion
[ 11005 11000 10999 10996 ] final -104.43 input  -57.11 | X-H torsion

> <Gold.Protein.ActiveResidues>
 VAL166  LYS551  ARG553  GLY616  TRP617  ASP618  TYR619  PRO620  LYS621  CYS622 
 ASP623  PHE694  ASN695  SER759  ASP760  ASP761  ALA762  ILE779  LEU786  VAL792 
 PHE793  MET794  SER795  GLU796  ALA797  LYS798  CYS799  TRP800  GLU811  SER814 

> <Gold.Protein.RotatedAtoms>
  152.2384  133.5115  159.5255 H   0  0  0  0  0  0  0  0  0  0  0  0  # atno 6907 bound_to 6896
  150.7057  134.1122  159.4013 H   0  0  0  0  0  0  0  0  0  0  0  0  # atno 6908 bound_to 6896
  151.9043  135.0365  160.0560 H   0  0  0  0  0  0  0  0  0  0  0  0  # atno 6909 bound_to 6896
  145.9416  139.3893  143.0360 H   0  0  0  0  0  0  0  0  0  0  0  0  # atno 7974 bound_to 7965
  154.8385  140.0436  157.1525 H   0  0  0  0  0  0  0  0  0  0  0  0  # atno 8008 bound_to 7997
  154.9073  140.3008  155.5265 H   0  0  0  0  0  0  0  0  0  0  0  0  # atno 8009 bound_to 7997
  156.2991  140.2364  156.4108 H   0  0  0  0  0  0  0  0  0  0  0  0  # atno 8010 bound_to 7997
  139.6664  144.7127  151.1769 H   0  0  0  0  0  0  0  0  0  0  0  0  # atno 10167 bound_to 10162
  156.0021  130.5050  150.5863 H   0  0  0  0  0  0  0  0  0  0  0  0  # atno 10718 bound_to 10713
  153.1095  135.4775  154.9011 H   0  0  0  0  0  0  0  0  0  0  0  0  # atno 10763 bound_to 10752
  154.7466  135.3095  154.8636 H   0  0  0  0  0  0  0  0  0  0  0  0  # atno 10764 bound_to 10752
  153.9229  135.6853  153.4801 H   0  0  0  0  0  0  0  0  0  0  0  0  # atno 10765 bound_to 10752
  141.1100  133.8723  157.1610 H   0  0  0  0  0  0  0  0  0  0  0  0  # atno 11005 bound_to 11000
  145.8292  140.9639  143.0858 LP  0  0  0  0  0  0  0  0  0  0  0  0  # atno 17320 bound_to 7965
  144.6780  140.0141  143.7484 LP  0  0  0  0  0  0  0  0  0  0  0  0  # atno 17321 bound_to 7965
  140.7601  143.5913  150.8794 LP  0  0  0  0  0  0  0  0  0  0  0  0  # atno 17342 bound_to 10162
  139.9575  143.6202  152.3012 LP  0  0  0  0  0  0  0  0  0  0  0  0  # atno 17343 bound_to 10162
  157.3735  131.0769  151.1538 LP  0  0  0  0  0  0  0  0  0  0  0  0  # atno 17370 bound_to 10713
  157.2283  130.6513  149.5839 LP  0  0  0  0  0  0  0  0  0  0  0  0  # atno 17371 bound_to 10713
  139.9990  135.0035  157.0147 LP  0  0  0  0  0  0  0  0  0  0  0  0  # atno 17394 bound_to 11000
  140.4799  134.1300  155.7215 LP  0  0  0  0  0  0  0  0  0  0  0  0  # atno 17395 bound_to 11000

$$$$
