#       Name:                AV-unprocessed.smi:1554
#       Creating user name   scv26
#       Creation time:       Fri Mar 27 06:42:59 2020


#       File generated by GOLD software.
#

@<TRIPOS>MOLECULE
AV-unprocessed.smi:1554
    53    55     1
SMALL
NO_CHARGES


@<TRIPOS>ATOM
      1 ****        -3.1752   5.0566   1.8429 C.3            1 S1                 0.0000
      2 ****        -2.8233   3.8382   1.0074 C.ar           1 S1                 0.0000
      3 ****        -3.1312   3.8390  -0.3718 C.ar           1 S1                 0.0000
      4 ****        -2.8177   2.7278  -1.1845 C.ar           1 S1                 0.0000
      5 ****        -3.0248   2.5152  -2.5367 N.2            1 S1                 0.0000
      6 ****        -2.5146   1.2980  -2.6983 C.2            1 S1                 0.0000
      7 ****        -1.9977   0.6968  -1.6092 N.pl3          1 S1                 0.0000
      8 ****        -1.3838  -0.6168  -1.5377 C.3            1 S1                 0.0000
      9 ****         0.1543  -0.5412  -1.4901 C.3            1 S1                 0.0000
     10 ****         0.6297   0.0744  -2.6725 O.3            1 S1                 0.0000
     11 ****         0.7951  -1.9369  -1.3627 C.3            1 S1                 0.0000
     12 ****         2.2678  -1.8664  -1.1619 N.4            1 S1                 1.0000
     13 ****         2.9930  -3.0711  -1.6337 C.3            1 S1                 0.0000
     14 ****         2.8680  -4.2264  -0.6249 C.3            1 S1                 0.0000
     15 ****         3.3516  -3.8007   0.6429 O.3            1 S1                 0.0000
     16 ****         2.6014  -2.7152   1.1766 C.3            1 S1                 0.0000
     17 ****         3.1620  -2.3873   2.5647 C.3            1 S1                 0.0000
     18 ****         2.6936  -1.5086   0.2162 C.3            1 S1                 0.0000
     19 ****        -2.1807   1.6077  -0.5749 C.ar           1 S1                 0.0000
     20 ****        -1.8708   1.5937   0.7964 C.ar           1 S1                 0.0000
     21 ****        -2.1926   2.7116   1.5942 C.ar           1 S1                 0.0000
     22 ****        -1.8544   2.6882   3.0743 C.3            1 S1                 0.0000
     23 ****        -3.6562   5.8275   1.2401 H              1 S1                 0.0000
     24 ****        -2.2769   5.4892   2.2836 H              1 S1                 0.0000
     25 ****        -3.8601   4.7855   2.6465 H              1 S1                 0.0000
     26 ****        -3.6117   4.6967  -0.8189 H              1 S1                 0.0000
     27 ****        -2.5119   0.8174  -3.6656 H              1 S1                 0.0000
     28 ****        -1.7644  -1.1182  -0.6470 H              1 S1                 0.0000
     29 ****        -1.7147  -1.2069  -2.3937 H              1 S1                 0.0000
     30 ****         0.4425   0.0842  -0.6459 H              1 S1                 0.0000
     31 ****         0.3164  -0.4154  -3.4178 H              1 S1                 0.0000
     32 ****         0.3341  -2.4918  -0.5456 H              1 S1                 0.0000
     33 ****         0.5713  -2.5011  -2.2694 H              1 S1                 0.0000
     34 ****         2.6393  -3.3747  -2.6196 H              1 S1                 0.0000
     35 ****         4.0455  -2.8117  -1.7542 H              1 S1                 0.0000
     36 ****         1.8363  -4.5714  -0.5415 H              1 S1                 0.0000
     37 ****         3.4610  -5.0786  -0.9574 H              1 S1                 0.0000
     38 ****         1.5625  -3.0253   1.2963 H              1 S1                 0.0000
     39 ****         2.6123  -1.5666   3.0259 H              1 S1                 0.0000
     40 ****         4.2117  -2.0976   2.5092 H              1 S1                 0.0000
     41 ****         3.0897  -3.2492   3.2283 H              1 S1                 0.0000
     42 ****         3.7282  -1.1667   0.1666 H              1 S1                 0.0000
     43 ****         2.1166  -0.6683   0.6004 H              1 S1                 0.0000
     44 ****        -1.3891   0.7298   1.2300 H              1 S1                 0.0000
     45 ****        -1.4028   1.7392   3.3642 H              1 S1                 0.0000
     46 ****        -2.7534   2.8270   3.6753 H              1 S1                 0.0000
     47 ****        -1.1492   3.4835   3.3163 H              1 S1                 0.0000
     48 ****         2.5711  -1.1119  -1.7619 H              1 S1                 0.0000
     49 ****        -3.4469   3.1182  -3.2136 LP             1 S1                 0.0000
     50 ****         1.6297   0.0797  -2.6700 LP             1 S1                 0.0000
     51 ****         0.2915   1.0142  -2.7216 LP             1 S1                 0.0000
     52 ****         4.3042  -3.5135   0.5427 LP             1 S1                 0.0000
     53 ****         3.3006  -4.5697   1.2802 LP             1 S1                 0.0000
@<TRIPOS>BOND
    1    1    2 1     
    2    1   23 1     
    3    1   24 1     
    4    1   25 1     
    5    2   21 ar    
    6    2    3 ar    
    7    3    4 ar    
    8    3   26 1     
    9    4   19 ar    
   10    4    5 1     
   11    5    6 2     
   12    6    7 1     
   13    6   27 1     
   14    7    8 1     
   15    7   19 1     
   16    8    9 1     
   17    8   28 1     
   18    8   29 1     
   19    9   10 1     
   20    9   11 1     
   21    9   30 1     
   22   10   31 1     
   23   11   12 1     
   24   11   32 1     
   25   11   33 1     
   26   12   18 1     
   27   12   13 1     
   28   12   48 1     
   29   13   14 1     
   30   13   34 1     
   31   13   35 1     
   32   14   15 1     
   33   14   36 1     
   34   14   37 1     
   35   15   16 1     
   36   16   17 1     
   37   16   18 1     
   38   16   38 1     
   39   17   39 1     
   40   17   40 1     
   41   17   41 1     
   42   18   42 1     
   43   18   43 1     
   44   19   20 ar    
   45   20   21 ar    
   46   20   44 1     
   47   21   22 1     
   48   22   45 1     
   49   22   46 1     
   50   22   47 1     
   51    5   49 1     
   52   10   50 1     
   53   10   51 1     
   54   15   52 1     
   55   15   53 1     
@<TRIPOS>SUBSTRUCTURE
      1 S1             1
@<TRIPOS>SET
LONE_PAIRS      STATIC     ATOMS    <user>   **** ""
5 49 50 51 52 53
DONOR_HYDROGENS      STATIC     ATOMS    <user>   **** ""
2 31 48
ATOM$BLUE        STATIC     ATOMS    COLORGROUP SYSTEM
5 49 50 51 52 53
ATOM$RED        STATIC     ATOMS    COLORGROUP SYSTEM
2 31 48
