AV-unprocessed.smi:577|AV-procd|sdf|2980|dock4
  -GOLD-   2262023493D 1   1.00000     0.00000
 Structure written by MMmdl.
 41 42  0  0  0  0  0  0  0  0  1 V2000
  150.6843  145.3780  159.4078 C   0  0  0  0  0  0  0  0  0  0  0  0
  151.3515  144.2482  160.1736 C   0  0  0  0  0  0  0  0  0  0  0  0
  151.4327  144.1546  161.5049 C   0  0  0  0  0  0  0  0  0  0  0  0
  152.2374  142.6969  162.0325 S   0  0  0  0  0  0  0  0  0  0  0  0
  152.4662  142.1931  160.3197 C   0  0  0  0  0  0  0  0  0  0  0  0
  153.0237  141.1437  160.0022 O   0  0  0  0  0  0  0  0  0  0  0  0
  151.9242  143.1697  159.4845 N   0  0  0  0  0  0  0  0  0  0  0  0
  151.9621  143.0700  158.0194 C   0  0  0  0  0  0  0  0  0  0  0  0
  151.3399  141.7745  157.4810 C   0  0  0  0  0  0  0  0  0  0  0  0
  151.4308  140.7181  158.1082 O   0  0  0  0  0  0  0  0  0  0  0  0
  150.6983  141.8852  156.3076 N   0  0  0  0  0  0  0  0  0  0  0  0
  150.0151  140.8092  155.5909 C   0  0  0  0  0  0  0  0  0  0  0  0
  149.7926  141.2468  154.1282 C   0  0  0  0  0  0  0  0  0  0  0  0
  148.8702  140.3194  153.3150 C   0  0  0  0  0  0  0  0  0  0  0  0
  147.5378  140.9589  152.8820 C   0  0  0  0  0  0  0  0  0  0  0  0
  146.7820  141.7955  153.9358 C   0  0  0  0  0  0  0  0  0  0  0  0
  146.5072  141.1086  155.2854 C   0  0  0  0  0  0  0  0  0  0  0  0
  147.5673  141.3539  156.3813 C   0  0  0  0  0  0  0  0  0  0  0  0
  148.7555  140.3737  156.3767 C   0  0  0  0  0  0  0  0  0  0  0  0
  149.9908  145.9142  160.0560 H   0  0  0  0  0  0  0  0  0  0  0  0
  150.1129  145.0113  158.5555 H   0  0  0  0  0  0  0  0  0  0  0  0
  151.4317  146.0868  159.0517 H   0  0  0  0  0  0  0  0  0  0  0  0
  151.0490  144.8656  162.2216 H   0  0  0  0  0  0  0  0  0  0  0  0
  151.4706  143.9280  157.5605 H   0  0  0  0  0  0  0  0  0  0  0  0
  152.9984  143.1180  157.6800 H   0  0  0  0  0  0  0  0  0  0  0  0
  150.6757  142.7961  155.8726 H   0  0  0  0  0  0  0  0  0  0  0  0
  150.6617  139.9308  155.5562 H   0  0  0  0  0  0  0  0  0  0  0  0
  149.4396  142.2765  154.0880 H   0  0  0  0  0  0  0  0  0  0  0  0
  150.7671  141.2781  153.6384 H   0  0  0  0  0  0  0  0  0  0  0  0
  149.3978  140.0040  152.4141 H   0  0  0  0  0  0  0  0  0  0  0  0
  148.6766  139.3916  153.8509 H   0  0  0  0  0  0  0  0  0  0  0  0
  147.7263  141.6013  152.0210 H   0  0  0  0  0  0  0  0  0  0  0  0
  146.8814  140.1683  152.5166 H   0  0  0  0  0  0  0  0  0  0  0  0
  147.2736  142.7543  154.0988 H   0  0  0  0  0  0  0  0  0  0  0  0
  145.8195  142.0567  153.4943 H   0  0  0  0  0  0  0  0  0  0  0  0
  145.5699  141.5208  155.6617 H   0  0  0  0  0  0  0  0  0  0  0  0
  146.3146  140.0438  155.1497 H   0  0  0  0  0  0  0  0  0  0  0  0
  147.9070  142.3899  156.3793 H   0  0  0  0  0  0  0  0  0  0  0  0
  147.0599  141.2247  157.3380 H   0  0  0  0  0  0  0  0  0  0  0  0
  148.4186  139.3909  156.0480 H   0  0  0  0  0  0  0  0  0  0  0  0
  149.0606  140.2128  157.4119 H   0  0  0  0  0  0  0  0  0  0  0  0
  1  2  1  0  0  0  0
  1 20  1  0  0  0  0
  1 21  1  0  0  0  0
  1 22  1  0  0  0  0
  2  7  1  0  0  0  0
  2  3  2  0  0  0  0
  3  4  1  0  0  0  0
  3 23  1  0  0  0  0
  4  5  1  0  0  0  0
  5  6  2  0  0  0  0
  5  7  1  0  0  0  0
  7  8  1  0  0  0  0
  8  9  1  0  0  0  0
  8 24  1  0  0  0  0
  8 25  1  0  0  0  0
  9 10  2  0  0  0  0
  9 11  1  0  0  0  0
 11 12  1  0  0  0  0
 11 26  1  0  0  0  0
 12 19  1  0  0  0  0
 12 13  1  0  0  0  0
 12 27  1  0  0  0  0
 13 14  1  0  0  0  0
 13 28  1  0  0  0  0
 13 29  1  0  0  0  0
 14 15  1  0  0  0  0
 14 30  1  0  0  0  0
 14 31  1  0  0  0  0
 15 16  1  0  0  0  0
 15 32  1  0  0  0  0
 15 33  1  0  0  0  0
 16 17  1  0  0  0  0
 16 34  1  0  0  0  0
 16 35  1  0  0  0  0
 17 18  1  0  0  0  0
 17 36  1  0  0  0  0
 17 37  1  0  0  0  0
 18 19  1  0  0  0  0
 18 38  1  0  0  0  0
 18 39  1  0  0  0  0
 19 40  1  0  0  0  0
 19 41  1  0  0  0  0
M  END
> <s_m_source_file>
AV-unprocessed.smi

> <i_m_source_file_index>
577

> <i_lp_mmshare_version>
43012

> <i_f3d_flags>
0

> <s_epik_input>
W0NIM11jMVtjSF1zYyg9TyluMVtDSDJdQyg9TylbTkhdW0NIXTJbQ0gyXVtDSDJdW0NIMl1bQ0gyXVtDSDJdW0NIMl1bQ0gyXTI=

> <s_epik_cmdline>
J2VwaWtfcHl0aG9uJywgJy1waCcsICc3LjAnLCAnLXRuJywgJzgnLCAnLW1hJywgJzIwMCcsICctbWV0YWxfYmluZGluZycsICctaW1hZScsICc8aW5maWxlLm1hZT4nLCAnLW9tYWUnLCAnPG91dGZpbGUubWFlPic=

> <r_lp_tautomer_probability>
1

> <r_epik_Ionization_Penalty>
1.32564e-06

> <r_epik_Ionization_Penalty_Charging>
1.22505e-06

> <r_epik_Ionization_Penalty_Neutral>
1.00582e-07

> <r_epik_State_Penalty>
-0

> <r_epik_Charging_Adjusted_Penalty>
1.22505e-06

> <i_epik_Tot_Q>
0

> <i_epik_Tot_abs_Q>
0

> <r_epik_Metal_State_Penalty>
-0

> <b_epik_Metal_Only>
0

> <s_lp_Force_Field>
OPLS_2005

> <r_lp_Energy>
25.6493

> <b_lp_Chiralities_Consistent>
1

> <s_lp_Variant>
AV-unprocessed.smi:577-1

> <Gold.Version>
5.8.1

> <Gold.Id.Protein>
6NUR|6NUR_protein|mol2

> <Gold.PLP.Fitness>
46.0423

> <Gold.PLP.PLP>
-46.1622

> <Gold.PLP.part.hbond>
-0.8349

> <Gold.PLP.part.metal>
0.0000

> <Gold.PLP.part.buried>
-4.2053

> <Gold.PLP.part.nonpolar>
-40.6484

> <Gold.PLP.part.repulsive>
0.0447

> <Gold.PLP.ligand.clash>
0.0000

> <Gold.PLP.ligand.torsion>
0.5269

> <Gold.PLP.Chemscore.Hbond>
0.2990

> <Gold.PLP.Chemscore.CHOScore>
0.0000

> <Gold.PLP.Chemscore.Metal>
0.0000

> <Gold.PLP.Chemscore.Internal.Correction>
0.0370

> <Gold.Rescore>
     Score         DG    S(hbond)    S(metal)    S(lipo)     H(rot)  DE(clash)    DE(int)     intcor
     11.55     -13.45       0.00        0.00      98.33       1.39       0.27       1.63       ----

> <Gold.Chemscore.Fitness>
11.5519

> <Gold.Chemscore.DG>
-13.4513

> <Gold.Chemscore.ZeroCoef>
-5.4800

> <Gold.Chemscore.Hbond>
0.0042

> <Gold.Chemscore.Metal>
0.0000

> <Gold.Chemscore.Lipo>
98.3313

> <Gold.Chemscore.Internal_Hbond>
0.0000

> <Gold.Chemscore.DEClash>
0.2661

> <Gold.Chemscore.DEInternal>
1.6333

> <Gold.Chemscore.Rot>
1.3858

> <Gold.Chemscore.Internal.Correction>
   9.000000E+99

> <Gold.Chemscore.Hbond.Weighted>
-0.0141

> <Gold.Chemscore.Metal.Weighted>
-0.0000

> <Gold.Chemscore.Lipo.Weighted>
-11.5048

> <Gold.Chemscore.Internal_Hbond.Weighted>
0.0000

> <Gold.Chemscore.DEClash.Weighted>
0.2661

> <Gold.Chemscore.DEInternal.Weighted>
1.6333

> <Gold.Chemscore.Rot.Weighted>
3.5476

> <Gold.Chemscore.Internal.Correction.Weighted>
   9.000000E+99

> <Gold.Protein.RotatedTorsions>
[ 6907 6896 6895 6894 ] final -101.87 input  -60.11 | X-H torsion
[ 7974 7965 7964 7962 ] final  -24.68 input  175.53 | X-H torsion
[ 8008 7997 7996 7995 ] final -163.25 input   59.86 | X-H torsion
[ 10167 10162 10161 10158 ] final  -71.10 input  -65.29 | X-H torsion
[ 10718 10713 10712 10709 ] final  -17.01 input   66.30 | X-H torsion
[ 10763 10752 10751 10750 ] final -116.33 input  -60.55 | X-H torsion
[ 11005 11000 10999 10996 ] final   85.80 input  -57.11 | X-H torsion

> <Gold.Protein.ActiveResidues>
 VAL166  LYS551  ARG553  GLY616  TRP617  ASP618  TYR619  PRO620  LYS621  CYS622 
 ASP623  PHE694  ASN695  SER759  ASP760  ASP761  ALA762  ILE779  LEU786  VAL792 
 PHE793  MET794  SER795  GLU796  ALA797  LYS798  CYS799  TRP800  GLU811  SER814 

> <Gold.Protein.RotatedAtoms>
  150.7172  134.0668  159.3850 H   0  0  0  0  0  0  0  0  0  0  0  0  # atno 6907 bound_to 6896
  151.8649  135.0508  160.0482 H   0  0  0  0  0  0  0  0  0  0  0  0  # atno 6908 bound_to 6896
  152.2688  133.5328  159.5463 H   0  0  0  0  0  0  0  0  0  0  0  0  # atno 6909 bound_to 6896
  146.1539  140.4784  142.8599 H   0  0  0  0  0  0  0  0  0  0  0  0  # atno 7974 bound_to 7965
  155.8185  140.0916  157.1863 H   0  0  0  0  0  0  0  0  0  0  0  0  # atno 8008 bound_to 7997
  154.3979  140.1441  156.3531 H   0  0  0  0  0  0  0  0  0  0  0  0  # atno 8009 bound_to 7997
  155.8291  140.3443  155.5563 H   0  0  0  0  0  0  0  0  0  0  0  0  # atno 8010 bound_to 7997
  140.5300  143.2322  151.7280 H   0  0  0  0  0  0  0  0  0  0  0  0  # atno 10167 bound_to 10162
  156.5796  130.4770  149.6326 H   0  0  0  0  0  0  0  0  0  0  0  0  # atno 10718 bound_to 10713
  154.8515  135.4349  154.1805 H   0  0  0  0  0  0  0  0  0  0  0  0  # atno 10763 bound_to 10752
  153.2897  135.6960  153.7311 H   0  0  0  0  0  0  0  0  0  0  0  0  # atno 10764 bound_to 10752
  153.6483  135.3456  155.3067 H   0  0  0  0  0  0  0  0  0  0  0  0  # atno 10765 bound_to 10752
  139.8961  134.8312  156.2633 H   0  0  0  0  0  0  0  0  0  0  0  0  # atno 11005 bound_to 11000
  144.7939  140.6085  143.6523 LP  0  0  0  0  0  0  0  0  0  0  0  0  # atno 17320 bound_to 7965
  145.4755  139.1499  143.3790 LP  0  0  0  0  0  0  0  0  0  0  0  0  # atno 17321 bound_to 7965
  139.4951  144.4129  152.0061 LP  0  0  0  0  0  0  0  0  0  0  0  0  # atno 17342 bound_to 10162
  140.3231  144.3405  150.6005 LP  0  0  0  0  0  0  0  0  0  0  0  0  # atno 17343 bound_to 10162
  156.2643  130.6980  151.1759 LP  0  0  0  0  0  0  0  0  0  0  0  0  # atno 17370 bound_to 10713
  157.7329  131.0595  150.5602 LP  0  0  0  0  0  0  0  0  0  0  0  0  # atno 17371 bound_to 10713
  141.0148  133.7074  156.1171 LP  0  0  0  0  0  0  0  0  0  0  0  0  # atno 17394 bound_to 11000
  140.7316  134.4248  157.5565 LP  0  0  0  0  0  0  0  0  0  0  0  0  # atno 17395 bound_to 11000

$$$$
