#       Name:                AV-unprocessed.smi:171
#       Creating user name   scv26
#       Creation time:       Thu Mar 26 19:18:56 2020


#       File generated by GOLD software.
#

@<TRIPOS>MOLECULE
AV-unprocessed.smi:171
    66    69     1
SMALL
NO_CHARGES


@<TRIPOS>ATOM
      1 ****        -4.4608  -3.1953   3.4755 C.3            1 S1                 0.0000
      2 ****        -3.5175  -3.3515   2.2722 C.3            1 S1                 0.0000
      3 ****        -2.8412  -4.7309   2.3054 C.3            1 S1                 0.0000
      4 ****        -2.4572  -2.2305   2.1647 C.3            1 S1                 0.0000
      5 ****        -3.0233  -0.8018   1.9014 C.3            1 S1                 0.0000
      6 ****        -3.1700   0.0951   3.1563 C.2            1 S1                 0.0000
      7 ****        -3.3208  -0.3994   4.2713 O.2            1 S1                 0.0000
      8 ****        -3.1312   1.4292   2.9878 N.am           1 S1                 0.0000
      9 ****        -2.9078   2.1295   1.7203 C.3            1 S1                 0.0000
     10 ****        -2.9100   1.1990   0.4888 C.3            1 S1                 0.0000
     11 ****        -2.3213  -0.0987   0.8122 N.3            1 S1                 0.0000
     12 ****        -0.9612  -0.0812   0.7589 C.ar           1 S1                 0.0000
     13 ****        -0.2206  -0.1179   1.8990 N.ar           1 S1                 0.0000
     14 ****         1.1135  -0.0843   1.8391 C.ar           1 S1                 0.0000
     15 ****         1.8985  -0.0106   0.7628 N.ar           1 S1                 0.0000
     16 ****         1.1618   0.0309  -0.3840 C.ar           1 S1                 0.0000
     17 ****        -0.2582  -0.0023  -0.4747 C.ar           1 S1                 0.0000
     18 ****        -0.6503   0.0461  -1.8069 N.2            1 S1                 0.0000
     19 ****         0.4742   0.1100  -2.4663 C.2            1 S1                 0.0000
     20 ****         1.6114   0.1177  -1.6899 N.pl3          1 S1                 0.0000
     21 ****         2.9874   0.1920  -2.1571 C.3            1 S1                 0.0000
     22 ****         3.5034   1.6458  -2.3231 C.3            1 S1                 0.0000
     23 ****         3.4322   2.2868  -1.0603 O.3            1 S1                 0.0000
     24 ****         2.6824   2.4721  -3.3109 C.3            1 S1                 0.0000
     25 ****         3.6988   3.4584  -3.8647 C.3            1 S1                 0.0000
     26 ****         4.8593   2.6569  -3.9926 O.3            1 S1                 0.0000
     27 ****         4.9569   1.8067  -2.8532 C.3            1 S1                 0.0000
     28 ****         5.6862   0.5243  -3.2831 C.3            1 S1                 0.0000
     29 ****        -3.9069  -3.1721   4.4145 H              1 S1                 0.0000
     30 ****        -5.1676  -4.0237   3.5288 H              1 S1                 0.0000
     31 ****        -5.0488  -2.2806   3.4066 H              1 S1                 0.0000
     32 ****        -4.1287  -3.3195   1.3693 H              1 S1                 0.0000
     33 ****        -2.2070  -4.8397   3.1860 H              1 S1                 0.0000
     34 ****        -2.2180  -4.8877   1.4246 H              1 S1                 0.0000
     35 ****        -3.5810  -5.5317   2.3274 H              1 S1                 0.0000
     36 ****        -1.8168  -2.2365   3.0479 H              1 S1                 0.0000
     37 ****        -1.8004  -2.5111   1.3405 H              1 S1                 0.0000
     38 ****        -4.0394  -0.9327   1.5270 H              1 S1                 0.0000
     39 ****        -3.2345   2.0055   3.8104 H              1 S1                 0.0000
     40 ****        -3.6478   2.9214   1.6025 H              1 S1                 0.0000
     41 ****        -1.9369   2.6203   1.7966 H              1 S1                 0.0000
     42 ****        -3.9380   1.0275   0.1675 H              1 S1                 0.0000
     43 ****        -2.4151   1.6826  -0.3542 H              1 S1                 0.0000
     44 ****         1.6248  -0.1196   2.7896 H              1 S1                 0.0000
     45 ****         0.5042   0.1587  -3.5450 H              1 S1                 0.0000
     46 ****         3.6152  -0.3580  -1.4549 H              1 S1                 0.0000
     47 ****         3.0414  -0.3430  -3.1055 H              1 S1                 0.0000
     48 ****         3.7477   3.1724  -1.1554 H              1 S1                 0.0000
     49 ****         2.3306   1.8400  -4.1273 H              1 S1                 0.0000
     50 ****         1.8110   2.9558  -2.8670 H              1 S1                 0.0000
     51 ****         3.3962   3.8864  -4.8205 H              1 S1                 0.0000
     52 ****         3.8841   4.2713  -3.1609 H              1 S1                 0.0000
     53 ****         5.5753   2.3210  -2.1150 H              1 S1                 0.0000
     54 ****         5.8080  -0.1638  -2.4465 H              1 S1                 0.0000
     55 ****         6.6822   0.7582  -3.6591 H              1 S1                 0.0000
     56 ****         5.1520   0.0051  -4.0791 H              1 S1                 0.0000
     57 ****        -3.3502  -1.3933   4.3777 LP             1 S1                 0.0000
     58 ****        -3.4141   0.1921   5.0722 LP             1 S1                 0.0000
     59 ****        -2.5060  -0.7507   0.0768 LP             1 S1                 0.0000
     60 ****        -0.6773  -0.1704   2.7871 LP             1 S1                 0.0000
     61 ****         2.8978   0.0113   0.7932 LP             1 S1                 0.0000
     62 ****        -1.5798   0.0346  -2.1754 LP             1 S1                 0.0000
     63 ****         4.0002   1.7954  -0.4000 LP             1 S1                 0.0000
     64 ****         2.4846   2.2987  -0.7410 LP             1 S1                 0.0000
     65 ****         5.6682   3.2424  -4.0455 LP             1 S1                 0.0000
     66 ****         4.7948   2.1017  -4.8218 LP             1 S1                 0.0000
@<TRIPOS>BOND
    1    1    2 1     
    2    1   29 1     
    3    1   30 1     
    4    1   31 1     
    5    2    3 1     
    6    2    4 1     
    7    2   32 1     
    8    3   33 1     
    9    3   34 1     
   10    3   35 1     
   11    4    5 1     
   12    4   36 1     
   13    4   37 1     
   14    5   11 1     
   15    5    6 1     
   16    5   38 1     
   17    6    7 2     
   18    6    8 am    
   19    8    9 1     
   20    8   39 1     
   21    9   10 1     
   22    9   40 1     
   23    9   41 1     
   24   10   11 1     
   25   10   42 1     
   26   10   43 1     
   27   11   12 1     
   28   12   17 ar    
   29   12   13 ar    
   30   13   14 ar    
   31   14   15 ar    
   32   14   44 1     
   33   15   16 ar    
   34   16   20 1     
   35   16   17 ar    
   36   17   18 1     
   37   18   19 2     
   38   19   20 1     
   39   19   45 1     
   40   20   21 1     
   41   21   22 1     
   42   21   46 1     
   43   21   47 1     
   44   22   27 1     
   45   22   23 1     
   46   22   24 1     
   47   23   48 1     
   48   24   25 1     
   49   24   49 1     
   50   24   50 1     
   51   25   26 1     
   52   25   51 1     
   53   25   52 1     
   54   26   27 1     
   55   27   28 1     
   56   27   53 1     
   57   28   54 1     
   58   28   55 1     
   59   28   56 1     
   60    7   57 1     
   61    7   58 1     
   62   11   59 1     
   63   13   60 1     
   64   15   61 1     
   65   18   62 1     
   66   23   63 1     
   67   23   64 1     
   68   26   65 1     
   69   26   66 1     
@<TRIPOS>SUBSTRUCTURE
      1 S1             1
@<TRIPOS>SET
LONE_PAIRS      STATIC     ATOMS    <user>   **** ""
10 57 58 59 60 61 62 63 64 65 66
DONOR_HYDROGENS      STATIC     ATOMS    <user>   **** ""
2 39 48
ATOM$BLUE        STATIC     ATOMS    COLORGROUP SYSTEM
10 57 58 59 60 61 62 63 64 65 66
ATOM$RED        STATIC     ATOMS    COLORGROUP SYSTEM
2 39 48
