#       Name:                AV-unprocessed.smi:72
#       Creating user name   scv26
#       Creation time:       Thu Mar 26 17:08:42 2020


#       File generated by GOLD software.
#

@<TRIPOS>MOLECULE
AV-unprocessed.smi:72
    41    42     1
SMALL
NO_CHARGES


@<TRIPOS>ATOM
      1 ****        -5.1477  -0.2030   0.4955 N.pl3          1 S1                 0.0000
      2 ****        -3.7749  -0.3378   0.4964 C.2            1 S1                 0.0000
      3 ****        -3.0392   0.7709   0.0548 N.2            1 S1                 0.0000
      4 ****        -1.7493   0.6505   0.0611 C.2            1 S1                 0.0000
      5 ****        -1.1088  -0.5718   0.5130 N.am           1 S1                 0.0000
      6 ****         0.3997  -0.7112   0.5182 C.3            1 S1                 0.0000
      7 ****         0.9629   0.5233   0.8327 O.3            1 S1                 0.0000
      8 ****         2.2249   0.6223   0.1916 C.3            1 S1                 0.0000
      9 ****         2.6480   2.0959   0.0902 C.3            1 S1                 0.0000
     10 ****         3.2618   2.5098   1.2922 O.3            1 S1                 0.0000
     11 ****         1.9625  -0.0344  -1.1682 C.3            1 S1                 0.0000
     12 ****         3.1660  -0.5492  -1.7029 O.3            1 S1                 0.0000
     13 ****         0.9888  -1.1627  -0.8382 C.3            1 S1                 0.0000
     14 ****         0.0343  -1.3178  -1.8732 O.3            1 S1                 0.0000
     15 ****        -1.9163  -1.6657   0.9272 C.2            1 S1                 0.0000
     16 ****        -1.3950  -2.7244   1.2777 O.2            1 S1                 0.0000
     17 ****        -3.3042  -1.4813   0.9055 N.2            1 S1                 0.0000
     18 ****         0.6499  -1.3962   1.3298 H              1 S1                 0.0000
     19 ****         2.9561   0.0364   0.7533 H              1 S1                 0.0000
     20 ****         1.5109   0.6845  -1.8543 H              1 S1                 0.0000
     21 ****         1.5064  -2.1094  -0.6759 H              1 S1                 0.0000
     22 ****        -5.7779  -0.9346   0.7907 H              1 S1                 0.0000
     23 ****        -5.6245   0.6359   0.1985 H              1 S1                 0.0000
     24 ****        -1.0724   1.4392  -0.2706 H              1 S1                 0.0000
     25 ****         3.3795   2.2218  -0.7086 H              1 S1                 0.0000
     26 ****         1.7983   2.7373  -0.1451 H              1 S1                 0.0000
     27 ****         3.5202   3.4142   1.2016 H              1 S1                 0.0000
     28 ****         3.5282  -1.1666  -1.0862 H              1 S1                 0.0000
     29 ****        -0.5889  -1.9778  -1.6099 H              1 S1                 0.0000
     30 ****        -3.4871   1.6116  -0.2494 LP             1 S1                 0.0000
     31 ****         1.0815   0.5969   1.8229 LP             1 S1                 0.0000
     32 ****         0.3643   1.2578   0.5132 LP             1 S1                 0.0000
     33 ****         4.0676   1.9452   1.4712 LP             1 S1                 0.0000
     34 ****         2.6156   2.4180   2.0498 LP             1 S1                 0.0000
     35 ****         3.8145   0.1969  -1.8535 LP             1 S1                 0.0000
     36 ****         2.9798  -1.0094  -2.5710 LP             1 S1                 0.0000
     37 ****         0.4927  -1.6033  -2.7148 LP             1 S1                 0.0000
     38 ****        -0.4384  -0.4505  -2.0289 LP             1 S1                 0.0000
     39 ****        -0.3993  -2.8175   1.2718 LP             1 S1                 0.0000
     40 ****        -1.9672  -3.4913   1.5684 LP             1 S1                 0.0000
     41 ****        -3.9210  -2.2121   1.1979 LP             1 S1                 0.0000
@<TRIPOS>BOND
    1    1    2 1     
    2    1   22 1     
    3    1   23 1     
    4    2   17 2     
    5    2    3 1     
    6    3    4 2     
    7    4    5 1     
    8    4   24 1     
    9    5    6 1     
   10    5   15 am    
   11    6   18 1     
   12    6   13 1     
   13    6    7 1     
   14    7    8 1     
   15    8   19 1     
   16    8    9 1     
   17    8   11 1     
   18    9   10 1     
   19    9   25 1     
   20    9   26 1     
   21   10   27 1     
   22   11   20 1     
   23   11   12 1     
   24   11   13 1     
   25   12   28 1     
   26   13   21 1     
   27   13   14 1     
   28   14   29 1     
   29   15   16 2     
   30   15   17 1     
   31    3   30 1     
   32    7   31 1     
   33    7   32 1     
   34   10   33 1     
   35   10   34 1     
   36   12   35 1     
   37   12   36 1     
   38   14   37 1     
   39   14   38 1     
   40   16   39 1     
   41   16   40 1     
   42   17   41 1     
@<TRIPOS>SUBSTRUCTURE
      1 S1             1
@<TRIPOS>SET
LONE_PAIRS      STATIC     ATOMS    <user>   **** ""
12 30 31 32 33 34 35 36 37 38 39 40 41
DONOR_HYDROGENS      STATIC     ATOMS    <user>   **** ""
5 22 23 27 28 29
ATOM$BLUE        STATIC     ATOMS    COLORGROUP SYSTEM
12 30 31 32 33 34 35 36 37 38 39 40 41
ATOM$RED        STATIC     ATOMS    COLORGROUP SYSTEM
5 22 23 27 28 29
