#       Name:                AV-unprocessed.smi:783
#       Creating user name   scv26
#       Creation time:       Fri Mar 27 01:14:02 2020


#       File generated by GOLD software.
#

@<TRIPOS>MOLECULE
AV-unprocessed.smi:783
    50    51     1
SMALL
NO_CHARGES


@<TRIPOS>ATOM
      1 ****        -2.3157   2.9590  -0.7581 C.3            1 S1                 0.0000
      2 ****        -2.3418   1.4191  -0.8440 C.3            1 S1                 0.0000
      3 ****        -0.9419   0.8165  -1.0376 C.2            1 S1                 0.0000
      4 ****        -0.0660   1.4447  -1.6326 O.2            1 S1                 0.0000
      5 ****        -0.7465  -0.4059  -0.5175 N.am           1 S1                 0.0000
      6 ****         0.5061  -1.1619  -0.5425 C.3            1 S1                 0.0000
      7 ****         1.2116  -1.2078   0.8482 C.3            1 S1                 0.0000
      8 ****         1.5673   0.2206   1.3835 C.2            1 S1                 0.0000
      9 ****         1.0621   0.5813   2.4497 O.2            1 S1                 0.0000
     10 ****         2.3868   1.0693   0.7047 N.am           1 S1                 0.0000
     11 ****         3.1093   0.8199  -0.5468 C.3            1 S1                 0.0000
     12 ****         2.6076   2.4240   1.2212 C.3            1 S1                 0.0000
     13 ****         0.2747  -1.9609   1.8349 C.3            1 S1                 0.0000
     14 ****         1.1539  -2.5352   2.9504 C.3            1 S1                 0.0000
     15 ****         2.5485  -2.6769   2.3373 C.3            1 S1                 0.0000
     16 ****         2.4411  -2.1494   0.8998 C.3            1 S1                 0.0000
     17 ****        -3.2492   0.9348  -1.8782 N.pl3          1 S1                 0.0000
     18 ****        -4.1548  -0.1035  -1.7917 C.2            1 S1                 0.0000
     19 ****        -4.7581  -0.2262  -3.0106 C.2            1 S1                 0.0000
     20 ****        -4.1391   0.7849  -3.7966 C.2            1 S1                 0.0000
     21 ****        -3.2325   1.4712  -3.1210 N.2            1 S1                 0.0000
     22 ****        -1.6741   3.2944   0.0574 H              1 S1                 0.0000
     23 ****        -3.3144   3.3543  -0.5708 H              1 S1                 0.0000
     24 ****        -1.9469   3.4174  -1.6768 H              1 S1                 0.0000
     25 ****        -2.7237   1.0546   0.1113 H              1 S1                 0.0000
     26 ****        -1.5254  -0.8434  -0.0472 H              1 S1                 0.0000
     27 ****         0.2508  -2.1754  -0.8528 H              1 S1                 0.0000
     28 ****         1.1547  -0.7991  -1.3362 H              1 S1                 0.0000
     29 ****         3.1507  -0.2148  -0.8684 H              1 S1                 0.0000
     30 ****         4.1453   1.1471  -0.4517 H              1 S1                 0.0000
     31 ****         2.6567   1.3945  -1.3552 H              1 S1                 0.0000
     32 ****         3.1264   2.3890   2.1802 H              1 S1                 0.0000
     33 ****         1.6588   2.9442   1.3628 H              1 S1                 0.0000
     34 ****         3.2075   3.0348   0.5453 H              1 S1                 0.0000
     35 ****        -0.5388  -1.3497   2.2285 H              1 S1                 0.0000
     36 ****        -0.2048  -2.7964   1.3224 H              1 S1                 0.0000
     37 ****         1.1883  -1.8514   3.7994 H              1 S1                 0.0000
     38 ****         0.7669  -3.4876   3.3143 H              1 S1                 0.0000
     39 ****         3.2623  -2.0804   2.9067 H              1 S1                 0.0000
     40 ****         2.8996  -3.7091   2.3549 H              1 S1                 0.0000
     41 ****         2.2861  -2.9898   0.2217 H              1 S1                 0.0000
     42 ****         3.3844  -1.6900   0.6130 H              1 S1                 0.0000
     43 ****        -4.2937  -0.6633  -0.8785 H              1 S1                 0.0000
     44 ****        -5.5213  -0.9339  -3.2986 H              1 S1                 0.0000
     45 ****        -4.3170   1.0360  -4.8321 H              1 S1                 0.0000
     46 ****        -0.2628   2.3558  -1.9950 LP             1 S1                 0.0000
     47 ****         0.8421   1.0439  -1.7536 LP             1 S1                 0.0000
     48 ****         0.4463  -0.0323   2.9440 LP             1 S1                 0.0000
     49 ****         1.2683   1.4872   2.8195 LP             1 S1                 0.0000
     50 ****        -2.6609   2.2209  -3.4547 LP             1 S1                 0.0000
@<TRIPOS>BOND
    1    1    2 1     
    2    1   22 1     
    3    1   23 1     
    4    1   24 1     
    5    2    3 1     
    6    2   17 1     
    7    2   25 1     
    8    3    4 2     
    9    3    5 am    
   10    5    6 1     
   11    5   26 1     
   12    6    7 1     
   13    6   27 1     
   14    6   28 1     
   15    7   16 1     
   16    7    8 1     
   17    7   13 1     
   18    8    9 2     
   19    8   10 am    
   20   10   11 1     
   21   10   12 1     
   22   11   29 1     
   23   11   30 1     
   24   11   31 1     
   25   12   32 1     
   26   12   33 1     
   27   12   34 1     
   28   13   14 1     
   29   13   35 1     
   30   13   36 1     
   31   14   15 1     
   32   14   37 1     
   33   14   38 1     
   34   15   16 1     
   35   15   39 1     
   36   15   40 1     
   37   16   41 1     
   38   16   42 1     
   39   17   21 1     
   40   17   18 1     
   41   18   19 2     
   42   18   43 1     
   43   19   20 1     
   44   19   44 1     
   45   20   21 2     
   46   20   45 1     
   47    4   46 1     
   48    4   47 1     
   49    9   48 1     
   50    9   49 1     
   51   21   50 1     
@<TRIPOS>SUBSTRUCTURE
      1 S1             1
@<TRIPOS>SET
LONE_PAIRS      STATIC     ATOMS    <user>   **** ""
5 46 47 48 49 50
DONOR_HYDROGENS      STATIC     ATOMS    <user>   **** ""
1 26
ATOM$BLUE        STATIC     ATOMS    COLORGROUP SYSTEM
5 46 47 48 49 50
ATOM$RED        STATIC     ATOMS    COLORGROUP SYSTEM
1 26
