AV-unprocessed.smi:1971|AV-procd|sdf|7964|dock3
  -GOLD-   2272010133D 1   1.00000     0.00000
 Structure written by MMmdl.
 44 45  0  0  0  0  0  0  0  0  2 V2000
  153.0800  137.8670  157.1275 C   0  0  0  0  0  0  0  0  0  0  0  0
  151.6797  137.2859  156.8840 C   0  0  0  0  0  0  0  0  0  0  0  0
  151.5263  136.7744  155.5197 N   0  0  0  0  0  0  0  0  0  0  0  0
  150.2666  136.0492  155.3336 C   0  0  0  0  0  0  0  0  0  0  0  0
  149.0475  136.9954  155.3338 C   0  0  0  0  0  0  0  0  0  0  0  0
  149.1915  138.0193  154.2659 N   0  3  0  0  0  0  0  0  0  0  0  0
  148.0064  138.8993  154.0443 C   0  0  2  0  0  0  0  0  0  0  0  0
  147.9351  140.0789  155.0396 C   0  0  0  0  0  0  0  0  0  0  0  0
  146.7074  138.0658  154.0159 C   0  0  0  0  0  0  0  0  0  0  0  0
  146.8202  136.9172  153.1226 N   0  0  0  0  0  0  0  0  0  0  0  0
  145.8245  136.0604  152.8571 C   0  0  0  0  0  0  0  0  0  0  0  0
  144.7046  136.1491  153.3610 O   0  0  0  0  0  0  0  0  0  0  0  0
  146.2125  135.1128  151.9854 N   0  0  0  0  0  0  0  0  0  0  0  0
  145.4325  134.0688  151.4216 C   0  0  0  0  0  0  0  0  0  0  0  0
  144.0986  134.0960  151.3172 N   0  0  0  0  0  0  0  0  0  0  0  0
  143.5957  132.9395  150.7159 C   0  0  0  0  0  0  0  0  0  0  0  0
  144.5676  132.0357  150.3657 C   0  0  0  0  0  0  0  0  0  0  0  0
  146.1631  132.6057  150.7776 S   0  0  0  0  0  0  0  0  0  0  0  0
  150.4659  138.7614  154.4341 C   0  0  0  0  0  0  0  0  0  0  0  0
  151.6577  137.7814  154.4607 C   0  0  0  0  0  0  0  0  0  0  0  0
  153.2108  138.1126  158.1815 H   0  0  0  0  0  0  0  0  0  0  0  0
  153.2484  138.7828  156.5616 H   0  0  0  0  0  0  0  0  0  0  0  0
  153.8581  137.1521  156.8581 H   0  0  0  0  0  0  0  0  0  0  0  0
  151.5367  136.4576  157.5790 H   0  0  0  0  0  0  0  0  0  0  0  0
  150.9177  138.0259  157.1260 H   0  0  0  0  0  0  0  0  0  0  0  0
  150.3108  135.5102  154.3862 H   0  0  0  0  0  0  0  0  0  0  0  0
  150.1595  135.2918  156.1111 H   0  0  0  0  0  0  0  0  0  0  0  0
  148.1475  136.4045  155.1689 H   0  0  0  0  0  0  0  0  0  0  0  0
  148.9349  137.4677  156.3099 H   0  0  0  0  0  0  0  0  0  0  0  0
  148.1145  139.3256  153.0457 H   0  0  0  0  0  0  0  0  0  0  0  0
  147.1534  140.7849  154.7588 H   0  0  0  0  0  0  0  0  0  0  0  0
  148.8688  140.6398  155.0705 H   0  0  0  0  0  0  0  0  0  0  0  0
  147.7124  139.7413  156.0519 H   0  0  0  0  0  0  0  0  0  0  0  0
  146.4716  137.7016  155.0168 H   0  0  0  0  0  0  0  0  0  0  0  0
  145.8689  138.6879  153.7008 H   0  0  0  0  0  0  0  0  0  0  0  0
  147.7112  136.7700  152.6712 H   0  0  0  0  0  0  0  0  0  0  0  0
  147.1722  135.1502  151.6752 H   0  0  0  0  0  0  0  0  0  0  0  0
  142.5292  132.8426  150.5755 H   0  0  0  0  0  0  0  0  0  0  0  0
  144.4418  131.0738  149.8915 H   0  0  0  0  0  0  0  0  0  0  0  0
  150.5978  139.4513  153.5999 H   0  0  0  0  0  0  0  0  0  0  0  0
  150.4420  139.3698  155.3379 H   0  0  0  0  0  0  0  0  0  0  0  0
  152.5954  138.3259  154.5633 H   0  0  0  0  0  0  0  0  0  0  0  0
  151.7185  137.2635  153.5025 H   0  0  0  0  0  0  0  0  0  0  0  0
  149.3024  137.5034  153.4048 H   0  0  0  0  0  0  0  0  0  0  0  0
  1  2  1  0  0  0  0
  1 21  1  0  0  0  0
  1 22  1  0  0  0  0
  1 23  1  0  0  0  0
  2  3  1  0  0  0  0
  2 24  1  0  0  0  0
  2 25  1  0  0  0  0
  3 20  1  0  0  0  0
  3  4  1  0  0  0  0
  4  5  1  0  0  0  0
  4 26  1  0  0  0  0
  4 27  1  0  0  0  0
  5  6  1  0  0  0  0
  5 28  1  0  0  0  0
  5 29  1  0  0  0  0
  6  7  1  0  0  0  0
  6 19  1  0  0  0  0
  6 44  1  0  0  0  0
  7  8  1  0  0  0  0
  7  9  1  0  0  0  0
  7 30  1  0  0  0  0
  8 31  1  0  0  0  0
  8 32  1  0  0  0  0
  8 33  1  0  0  0  0
  9 10  1  0  0  0  0
  9 34  1  0  0  0  0
  9 35  1  0  0  0  0
 10 11  1  0  0  0  0
 10 36  1  0  0  0  0
 11 12  2  0  0  0  0
 11 13  1  0  0  0  0
 13 14  1  0  0  0  0
 13 37  1  0  0  0  0
 14 18  1  0  0  0  0
 14 15  2  0  0  0  0
 15 16  1  0  0  0  0
 16 17  2  0  0  0  0
 16 38  1  0  0  0  0
 17 18  1  0  0  0  0
 17 39  1  0  0  0  0
 19 20  1  0  0  0  0
 19 40  1  0  0  0  0
 19 41  1  0  0  0  0
 20 42  1  0  0  0  0
 20 43  1  0  0  0  0
M  CHG  1   6   1
M  END
> <s_m_source_file>
AV-unprocessed.smi

> <i_m_source_file_index>
1971

> <i_lp_mmshare_version>
43012

> <i_f3d_flags>
0

> <s_epik_input>
W0NIM11bQ0gyXU4xW0NIMl1bQ0gyXU4oW0NIMl1bQ0gyXTEpW0NASF0oW0NIM10pW0NIMl1bTkhdQyg9TylbTkhdYzJuW2NIXVtjSF1zMg==

> <s_epik_cmdline>
J2VwaWtfcHl0aG9uJywgJy1waCcsICc3LjAnLCAnLXRuJywgJzgnLCAnLW1hJywgJzIwMCcsICctbWV0YWxfYmluZGluZycsICctaW1hZScsICc8aW5maWxlLm1hZT4nLCAnLW9tYWUnLCAnPG91dGZpbGUubWFlPic=

> <r_epik_Ionization_Penalty>
0.150098

> <r_epik_Ionization_Penalty_Charging>
0.148467

> <r_epik_Ionization_Penalty_Neutral>
0.00163072

> <r_epik_State_Penalty>
0.974087

> <r_epik_Charging_Adjusted_Penalty>
1.12255

> <i_epik_Tot_Q>
1

> <i_epik_Tot_abs_Q>
1

> <r_epik_Metal_State_Penalty>
1.00741

> <b_epik_Metal_Only>
0

> <s_lp_Force_Field>
OPLS_2005

> <r_lp_Energy>
20.3005

> <b_lp_Chiralities_Consistent>
1

> <s_lp_Variant>
AV-unprocessed.smi:1971-3

> <Gold.Version>
5.8.1

> <Gold.Id.Protein>
6NUR|6NUR_protein|mol2

> <Gold.PLP.Fitness>
45.5376

> <Gold.PLP.PLP>
-28.5253

> <Gold.PLP.part.hbond>
-3.9548

> <Gold.PLP.part.metal>
0.0000

> <Gold.PLP.part.buried>
-5.8182

> <Gold.PLP.part.nonpolar>
-20.5493

> <Gold.PLP.part.repulsive>
0.3777

> <Gold.PLP.ligand.clash>
0.0000

> <Gold.PLP.ligand.torsion>
0.3797

> <Gold.PLP.Chemscore.Hbond>
4.8960

> <Gold.PLP.Chemscore.CHOScore>
0.9864

> <Gold.PLP.Chemscore.Metal>
0.0000

> <Gold.Chemscore.Hbonds>
donor molecule, donor type, donor heavy atom, donor atom, acceptor molecule, acceptor atom, score
      L1  H     6    44       P1  7948  2.00
      L1  H    10    36       P1  7948  1.00
      L1  H    13    37       P1  7948  0.86
      P1  H 10752 10764       L1     3  0.83
      L1  C    16    38       P1 10186  0.97

> <Gold.PLP.Chemscore.Internal.Correction>
0.1245

> <Gold.Rescore>
     Score         DG    S(hbond)    S(metal)    S(lipo)     H(rot)  DE(clash)    DE(int)     intcor
     17.61     -19.08       2.89        0.00      72.90       1.79       0.11       1.36       ----

> <Gold.Chemscore.Fitness>
17.6142

> <Gold.Chemscore.DG>
-19.0838

> <Gold.Chemscore.ZeroCoef>
-5.4800

> <Gold.Chemscore.Hbond>
2.8940

> <Gold.Chemscore.Metal>
0.0000

> <Gold.Chemscore.Lipo>
72.9043

> <Gold.Chemscore.Internal_Hbond>
0.0000

> <Gold.Chemscore.DEClash>
0.1132

> <Gold.Chemscore.DEInternal>
1.3565

> <Gold.Chemscore.Rot>
1.7937

> <Gold.Chemscore.Internal.Correction>
   9.000000E+99

> <Gold.Chemscore.Hbonds>
donor molecule, donor type, donor heavy atom, donor atom, acceptor molecule, acceptor atom, score
      L1  H     6    44       P1  7948  0.94
      L1  H    10    36       P1  7948  0.97
      L1  H    13    37       P1  7948  0.76
      P1  H 10752 10764       L1     3  0.08

> <Gold.Chemscore.Hbond.Weighted>
-9.6659

> <Gold.Chemscore.Metal.Weighted>
-0.0000

> <Gold.Chemscore.Lipo.Weighted>
-8.5298

> <Gold.Chemscore.Internal_Hbond.Weighted>
0.0000

> <Gold.Chemscore.DEClash.Weighted>
0.1132

> <Gold.Chemscore.DEInternal.Weighted>
1.3565

> <Gold.Chemscore.Rot.Weighted>
4.5919

> <Gold.Chemscore.Internal.Correction.Weighted>
   9.000000E+99

> <Gold.Protein.RotatedTorsions>
[ 6907 6896 6895 6894 ] final  -18.36 input  -60.11 | X-H torsion
[ 7974 7965 7964 7962 ] final -119.78 input  175.53 | X-H torsion
[ 8008 7997 7996 7995 ] final  -27.83 input   59.86 | X-H torsion
[ 10167 10162 10161 10158 ] final  164.32 input  -65.29 | X-H torsion
[ 10718 10713 10712 10709 ] final  -57.09 input   66.30 | X-H torsion
[ 10763 10752 10751 10750 ] final  -39.31 input  -60.55 | X-H torsion
[ 11005 11000 10999 10996 ] final -109.82 input  -57.11 | X-H torsion

> <Gold.Protein.ActiveResidues>
 VAL166  LYS551  ARG553  GLY616  TRP617  ASP618  TYR619  PRO620  LYS621  CYS622 
 ASP623  PHE694  ASN695  SER759  ASP760  ASP761  ALA762  ILE779  LEU786  VAL792 
 PHE793  MET794  SER795  GLU796  ALA797  LYS798  CYS799  TRP800  GLU811  SER814 

> <Gold.Protein.RotatedAtoms>
  151.2794  135.0709  159.9163 H   0  0  0  0  0  0  0  0  0  0  0  0  # atno 6907 bound_to 6896
  152.5336  134.0046  159.7921 H   0  0  0  0  0  0  0  0  0  0  0  0  # atno 6908 bound_to 6896
  151.0298  133.5750  159.2693 H   0  0  0  0  0  0  0  0  0  0  0  0  # atno 6909 bound_to 6896
  145.0586  140.8273  143.4166 H   0  0  0  0  0  0  0  0  0  0  0  0  # atno 7974 bound_to 7965
  154.4359  140.1861  156.0994 H   0  0  0  0  0  0  0  0  0  0  0  0  # atno 8008 bound_to 7997
  156.0304  140.3331  155.7108 H   0  0  0  0  0  0  0  0  0  0  0  0  # atno 8009 bound_to 7997
  155.5847  140.0625  157.2765 H   0  0  0  0  0  0  0  0  0  0  0  0  # atno 8010 bound_to 7997
  139.4887  144.4247  151.9144 H   0  0  0  0  0  0  0  0  0  0  0  0  # atno 10167 bound_to 10162
  156.1237  130.4164  150.0394 H   0  0  0  0  0  0  0  0  0  0  0  0  # atno 10718 bound_to 10713
  153.9273  135.6776  153.4746 H   0  0  0  0  0  0  0  0  0  0  0  0  # atno 10763 bound_to 10752
  153.0997  135.4834  154.8842 H   0  0  0  0  0  0  0  0  0  0  0  0  # atno 10764 bound_to 10752
  154.7446  135.3169  154.8624 H   0  0  0  0  0  0  0  0  0  0  0  0  # atno 10765 bound_to 10752
  141.0826  133.9193  157.2255 H   0  0  0  0  0  0  0  0  0  0  0  0  # atno 11005 bound_to 11000
  145.1436  139.2557  143.5477 LP  0  0  0  0  0  0  0  0  0  0  0  0  # atno 17320 bound_to 7965
  146.3523  140.1120  142.8603 LP  0  0  0  0  0  0  0  0  0  0  0  0  # atno 17321 bound_to 7965
  140.3693  144.2876  150.5922 LP  0  0  0  0  0  0  0  0  0  0  0  0  # atno 17342 bound_to 10162
  140.5333  143.2238  151.8203 LP  0  0  0  0  0  0  0  0  0  0  0  0  # atno 17343 bound_to 10162
  156.8325  130.9397  151.3636 LP  0  0  0  0  0  0  0  0  0  0  0  0  # atno 17370 bound_to 10713
  157.6420  130.8813  149.9466 LP  0  0  0  0  0  0  0  0  0  0  0  0  # atno 17371 bound_to 10713
  139.9641  135.0146  156.9341 LP  0  0  0  0  0  0  0  0  0  0  0  0  # atno 17394 bound_to 11000
  140.5434  134.0698  155.7348 LP  0  0  0  0  0  0  0  0  0  0  0  0  # atno 17395 bound_to 11000

$$$$
