#       Name:                AV-unprocessed.smi:1038
#       Creating user name   scv26
#       Creation time:       Fri Mar 27 02:53:45 2020


#       File generated by GOLD software.
#

@<TRIPOS>MOLECULE
AV-unprocessed.smi:1038
    63    64     1
SMALL
NO_CHARGES


@<TRIPOS>ATOM
      1 ****        -5.0601  -5.1095  -3.1302 C.3            1 S1                 0.0000
      2 ****        -5.0683  -4.4342  -1.8851 O.3            1 S1                 0.0000
      3 ****        -4.1866  -5.0207  -0.9419 C.3            1 S1                 0.0000
      4 ****        -4.2463  -4.2441   0.3834 C.3            1 S1                 0.0000
      5 ****        -3.6451  -2.9080   0.2626 N.am           1 S1                 0.0000
      6 ****        -2.2506  -2.8225   0.4413 C.2            1 S1                 0.0000
      7 ****        -1.5819  -1.6560   0.3557 C.2            1 S1                 0.0000
      8 ****        -0.1308  -1.6360   0.5533 C.2            1 S1                 0.0000
      9 ****         0.5605  -2.6310   0.7762 O.2            1 S1                 0.0000
     10 ****         0.4068  -0.4086   0.4727 N.am           1 S1                 0.0000
     11 ****         1.8256  -0.1033   0.6324 C.3            1 S1                 0.0000
     12 ****         2.1475   1.4149   0.4535 C.3            1 S1                 0.0000
     13 ****         3.6252   1.6479   0.6497 N.4            1 S1                 1.0000
     14 ****         4.5148   1.0927  -0.4050 C.3            1 S1                 0.0000
     15 ****         4.1553   1.2877   1.9917 C.3            1 S1                 0.0000
     16 ****         1.6750   1.8274  -0.9802 C.3            1 S1                 0.0000
     17 ****         2.0012   3.2504  -1.4704 C.3            1 S1                 0.0000
     18 ****         1.3988   4.3816  -0.6277 C.3            1 S1                 0.0000
     19 ****         2.1502   4.5818   0.6923 C.3            1 S1                 0.0000
     20 ****         1.6996   3.6687   1.8420 C.3            1 S1                 0.0000
     21 ****         1.3037   2.2133   1.4993 C.3            1 S1                 0.0000
     22 ****        -2.3604  -0.4614   0.0629 C.2            1 S1                 0.0000
     23 ****        -3.6938  -0.5389  -0.1140 C.2            1 S1                 0.0000
     24 ****        -4.4128  -1.8126  -0.0193 C.2            1 S1                 0.0000
     25 ****        -5.6306  -1.8859  -0.1841 O.2            1 S1                 0.0000
     26 ****        -5.7451  -4.6160  -3.8195 H              1 S1                 0.0000
     27 ****        -5.3826  -6.1456  -3.0188 H              1 S1                 0.0000
     28 ****        -4.0656  -5.0985  -3.5781 H              1 S1                 0.0000
     29 ****        -4.4831  -6.0561  -0.7675 H              1 S1                 0.0000
     30 ****        -3.1665  -5.0369  -1.3295 H              1 S1                 0.0000
     31 ****        -5.2757  -4.1947   0.7424 H              1 S1                 0.0000
     32 ****        -3.7116  -4.8070   1.1498 H              1 S1                 0.0000
     33 ****        -1.7723  -3.7699   0.6486 H              1 S1                 0.0000
     34 ****        -0.2125   0.3675   0.2891 H              1 S1                 0.0000
     35 ****         2.1223  -0.4527   1.6218 H              1 S1                 0.0000
     36 ****         2.3803  -0.7036  -0.0895 H              1 S1                 0.0000
     37 ****         4.4975   0.0030  -0.4137 H              1 S1                 0.0000
     38 ****         5.5454   1.3985  -0.2215 H              1 S1                 0.0000
     39 ****         4.2668   1.4456  -1.4036 H              1 S1                 0.0000
     40 ****         4.2231   0.2070   2.1183 H              1 S1                 0.0000
     41 ****         3.5587   1.6844   2.8102 H              1 S1                 0.0000
     42 ****         5.1615   1.6902   2.1131 H              1 S1                 0.0000
     43 ****         2.0694   1.1215  -1.7117 H              1 S1                 0.0000
     44 ****         0.5937   1.7080  -1.0563 H              1 S1                 0.0000
     45 ****         3.0774   3.3931  -1.5619 H              1 S1                 0.0000
     46 ****         1.6147   3.3453  -2.4860 H              1 S1                 0.0000
     47 ****         1.4783   5.3041  -1.2041 H              1 S1                 0.0000
     48 ****         0.3326   4.2268  -0.4575 H              1 S1                 0.0000
     49 ****         3.2216   4.4670   0.5248 H              1 S1                 0.0000
     50 ****         2.0241   5.6154   1.0169 H              1 S1                 0.0000
     51 ****         2.4823   3.6717   2.6000 H              1 S1                 0.0000
     52 ****         0.8407   4.1314   2.3299 H              1 S1                 0.0000
     53 ****         0.2625   2.2251   1.1742 H              1 S1                 0.0000
     54 ****         1.2766   1.6631   2.4407 H              1 S1                 0.0000
     55 ****        -1.8936   0.5088  -0.0219 H              1 S1                 0.0000
     56 ****        -4.2505   0.3609  -0.3317 H              1 S1                 0.0000
     57 ****         3.7321   2.6503   0.5833 H              1 S1                 0.0000
     58 ****        -5.9965  -4.4578  -1.5139 LP             1 S1                 0.0000
     59 ****        -4.7928  -3.4845  -2.0339 LP             1 S1                 0.0000
     60 ****         0.1340  -3.5337   0.8330 LP             1 S1                 0.0000
     61 ****         1.5482  -2.5360   0.9002 LP             1 S1                 0.0000
     62 ****        -6.0924  -2.7700  -0.1131 LP             1 S1                 0.0000
     63 ****        -6.1579  -1.0614  -0.3890 LP             1 S1                 0.0000
@<TRIPOS>BOND
    1    1    2 1     
    2    1   26 1     
    3    1   27 1     
    4    1   28 1     
    5    2    3 1     
    6    3    4 1     
    7    3   29 1     
    8    3   30 1     
    9    4    5 1     
   10    4   31 1     
   11    4   32 1     
   12    5   24 am    
   13    5    6 1     
   14    6    7 2     
   15    6   33 1     
   16    7    8 1     
   17    7   22 1     
   18    8    9 2     
   19    8   10 am    
   20   10   11 1     
   21   10   34 1     
   22   11   12 1     
   23   11   35 1     
   24   11   36 1     
   25   12   21 1     
   26   12   13 1     
   27   12   16 1     
   28   13   14 1     
   29   13   15 1     
   30   13   57 1     
   31   14   37 1     
   32   14   38 1     
   33   14   39 1     
   34   15   40 1     
   35   15   41 1     
   36   15   42 1     
   37   16   17 1     
   38   16   43 1     
   39   16   44 1     
   40   17   18 1     
   41   17   45 1     
   42   17   46 1     
   43   18   19 1     
   44   18   47 1     
   45   18   48 1     
   46   19   20 1     
   47   19   49 1     
   48   19   50 1     
   49   20   21 1     
   50   20   51 1     
   51   20   52 1     
   52   21   53 1     
   53   21   54 1     
   54   22   23 2     
   55   22   55 1     
   56   23   24 1     
   57   23   56 1     
   58   24   25 2     
   59    2   58 1     
   60    2   59 1     
   61    9   60 1     
   62    9   61 1     
   63   25   62 1     
   64   25   63 1     
@<TRIPOS>SUBSTRUCTURE
      1 S1             1
@<TRIPOS>SET
LONE_PAIRS      STATIC     ATOMS    <user>   **** ""
6 58 59 60 61 62 63
DONOR_HYDROGENS      STATIC     ATOMS    <user>   **** ""
2 34 57
ATOM$BLUE        STATIC     ATOMS    COLORGROUP SYSTEM
6 58 59 60 61 62 63
ATOM$RED        STATIC     ATOMS    COLORGROUP SYSTEM
2 34 57
