AV-unprocessed.smi:1590|AV-procd|sdf|6395|dock4
  -GOLD-   22720 7 33D 1   1.00000     0.00000
 Structure written by MMmdl.
 35 36  0  0  0  0  0  0  0  0  1 V2000
  140.6475  145.5377  161.1756 C   0  0  0  0  0  0  0  0  0  0  0  0
  141.3772  145.8914  159.8714 C   0  0  0  0  0  0  0  0  0  0  0  0
  140.6090  145.4271  158.6259 C   0  0  0  0  0  0  0  0  0  0  0  0
  142.7920  145.3991  159.8692 C   0  0  0  0  0  0  0  0  0  0  0  0
  143.2691  144.5766  160.8126 N   0  0  0  0  0  0  0  0  0  0  0  0
  144.6037  144.2556  160.6094 N   0  0  0  0  0  0  0  0  0  0  0  0
  145.1005  144.8507  159.5166 C   0  0  0  0  0  0  0  0  0  0  0  0
  146.4379  144.6873  159.0684 N   0  0  0  0  0  0  0  0  0  0  0  0
  147.2886  143.6805  159.3342 C   0  0  0  0  0  0  0  0  0  0  0  0
  147.0497  142.7207  160.0675 O   0  0  0  0  0  0  0  0  0  0  0  0
  148.4557  143.8506  158.6967 N   0  0  0  0  0  0  0  0  0  0  0  0
  149.5907  142.9381  158.7720 C   0  0  0  0  0  0  0  0  0  0  0  0
  150.8418  143.6438  159.2883 C   0  0  0  0  0  0  0  0  0  0  0  0
  151.5276  144.7156  158.4269 C   0  0  0  0  0  0  0  0  0  0  0  0
  152.8738  144.2228  158.9638 C   0  0  0  0  0  0  0  0  0  0  0  0
  152.1831  142.8962  159.2911 C   0  0  0  0  0  0  0  0  0  0  0  0
  143.9672  145.8646  158.6407 S   0  0  0  0  0  0  0  0  0  0  0  0
  141.1783  145.9347  162.0414 H   0  0  0  0  0  0  0  0  0  0  0  0
  140.5585  144.4586  161.3041 H   0  0  0  0  0  0  0  0  0  0  0  0
  139.6406  145.9553  161.1869 H   0  0  0  0  0  0  0  0  0  0  0  0
  141.4203  146.9807  159.8245 H   0  0  0  0  0  0  0  0  0  0  0  0
  141.1103  145.7513  157.7133 H   0  0  0  0  0  0  0  0  0  0  0  0
  139.6000  145.8399  158.6113 H   0  0  0  0  0  0  0  0  0  0  0  0
  140.5229  144.3406  158.5921 H   0  0  0  0  0  0  0  0  0  0  0  0
  146.7829  145.4171  158.4626 H   0  0  0  0  0  0  0  0  0  0  0  0
  148.5685  144.6689  158.1164 H   0  0  0  0  0  0  0  0  0  0  0  0
  149.3438  142.0824  159.4025 H   0  0  0  0  0  0  0  0  0  0  0  0
  149.7657  142.5376  157.7731 H   0  0  0  0  0  0  0  0  0  0  0  0
  150.6744  144.0519  160.2875 H   0  0  0  0  0  0  0  0  0  0  0  0
  151.4121  144.5383  157.3563 H   0  0  0  0  0  0  0  0  0  0  0  0
  151.2769  145.7428  158.6936 H   0  0  0  0  0  0  0  0  0  0  0  0
  153.6657  144.1536  158.2176 H   0  0  0  0  0  0  0  0  0  0  0  0
  153.1991  144.7628  159.8544 H   0  0  0  0  0  0  0  0  0  0  0  0
  152.4594  142.4611  160.2519 H   0  0  0  0  0  0  0  0  0  0  0  0
  152.2652  142.1688  158.4817 H   0  0  0  0  0  0  0  0  0  0  0  0
  1  2  1  0  0  0  0
  1 18  1  0  0  0  0
  1 19  1  0  0  0  0
  1 20  1  0  0  0  0
  2  3  1  0  0  0  0
  2  4  1  0  0  0  0
  2 21  1  0  0  0  0
  3 22  1  0  0  0  0
  3 23  1  0  0  0  0
  3 24  1  0  0  0  0
  4 17  1  0  0  0  0
  4  5  2  0  0  0  0
  5  6  1  0  0  0  0
  6  7  2  0  0  0  0
  7  8  1  0  0  0  0
  7 17  1  0  0  0  0
  8  9  1  0  0  0  0
  8 25  1  0  0  0  0
  9 10  2  0  0  0  0
  9 11  1  0  0  0  0
 11 12  1  0  0  0  0
 11 26  1  0  0  0  0
 12 13  1  0  0  0  0
 12 27  1  0  0  0  0
 12 28  1  0  0  0  0
 13 16  1  0  0  0  0
 13 14  1  0  0  0  0
 13 29  1  0  0  0  0
 14 15  1  0  0  0  0
 14 30  1  0  0  0  0
 14 31  1  0  0  0  0
 15 16  1  0  0  0  0
 15 32  1  0  0  0  0
 15 33  1  0  0  0  0
 16 34  1  0  0  0  0
 16 35  1  0  0  0  0
M  END
> <s_m_source_file>
AV-unprocessed.smi

> <i_m_source_file_index>
1590

> <i_lp_mmshare_version>
43012

> <i_f3d_flags>
0

> <s_epik_input>
W0NIM11bQ0hdKFtDSDNdKWMxbm5jKHMxKVtOSF1DKD1PKVtOSF1bQ0gyXVtDSF0yW0NIMl1bQ0gyXVtDSDJdMg==

> <s_epik_cmdline>
J2VwaWtfcHl0aG9uJywgJy1waCcsICc3LjAnLCAnLXRuJywgJzgnLCAnLW1hJywgJzIwMCcsICctbWV0YWxfYmluZGluZycsICctaW1hZScsICc8aW5maWxlLm1hZT4nLCAnLW9tYWUnLCAnPG91dGZpbGUubWFlPic=

> <r_lp_tautomer_probability>
1

> <r_epik_Ionization_Penalty>
0.000374979

> <r_epik_Ionization_Penalty_Charging>
0

> <r_epik_Ionization_Penalty_Neutral>
0.000374979

> <r_epik_State_Penalty>
-0

> <r_epik_Charging_Adjusted_Penalty>
0

> <i_epik_Tot_Q>
0

> <i_epik_Tot_abs_Q>
0

> <r_epik_Metal_State_Penalty>
0.186879

> <b_epik_Metal_Only>
0

> <s_lp_Force_Field>
OPLS_2005

> <r_lp_Energy>
5.08701

> <b_lp_Chiralities_Consistent>
1

> <s_lp_Variant>
AV-unprocessed.smi:1590-1

> <Gold.Version>
5.8.1

> <Gold.Id.Protein>
6NUR|6NUR_protein|mol2

> <Gold.PLP.Fitness>
35.8785

> <Gold.PLP.PLP>
-25.2180

> <Gold.PLP.part.hbond>
-4.8853

> <Gold.PLP.part.metal>
0.0000

> <Gold.PLP.part.buried>
-1.3655

> <Gold.PLP.part.nonpolar>
-20.2703

> <Gold.PLP.part.repulsive>
0.3079

> <Gold.PLP.ligand.clash>
0.0000

> <Gold.PLP.ligand.torsion>
0.2397

> <Gold.PLP.Chemscore.Hbond>
3.6720

> <Gold.PLP.Chemscore.CHOScore>
0.0000

> <Gold.PLP.Chemscore.Metal>
0.0000

> <Gold.Chemscore.Hbonds>
donor molecule, donor type, donor heavy atom, donor atom, acceptor molecule, acceptor atom, score
      L1  H     8    25       P1  8029  1.00
      L1  H    11    26       P1  8029  0.99
      P1  H  6933  6944       L1    10  0.80
      P1  H  6934  6946       L1    10  0.85

> <Gold.PLP.Chemscore.Internal.Correction>
0.1238

> <Gold.Rescore>
     Score         DG    S(hbond)    S(metal)    S(lipo)     H(rot)  DE(clash)    DE(int)     intcor
     17.84     -19.39       2.57        0.00      75.86       1.39       0.18       1.37       ----

> <Gold.Chemscore.Fitness>
17.8393

> <Gold.Chemscore.DG>
-19.3948

> <Gold.Chemscore.ZeroCoef>
-5.4800

> <Gold.Chemscore.Hbond>
2.5724

> <Gold.Chemscore.Metal>
0.0000

> <Gold.Chemscore.Lipo>
75.8634

> <Gold.Chemscore.Internal_Hbond>
0.0000

> <Gold.Chemscore.DEClash>
0.1828

> <Gold.Chemscore.DEInternal>
1.3728

> <Gold.Chemscore.Rot>
1.3879

> <Gold.Chemscore.Internal.Correction>
   9.000000E+99

> <Gold.Chemscore.Hbonds>
donor molecule, donor type, donor heavy atom, donor atom, acceptor molecule, acceptor atom, score
      L1  H     8    25       P1  8029  0.95
      L1  H    11    26       P1  8029  0.37
      P1  H  6933  6944       L1    10  0.68
      P1  H  6934  6946       L1    10  0.82

> <Gold.Chemscore.Hbond.Weighted>
-8.5917

> <Gold.Chemscore.Metal.Weighted>
-0.0000

> <Gold.Chemscore.Lipo.Weighted>
-8.8760

> <Gold.Chemscore.Internal_Hbond.Weighted>
0.0000

> <Gold.Chemscore.DEClash.Weighted>
0.1828

> <Gold.Chemscore.DEInternal.Weighted>
1.3728

> <Gold.Chemscore.Rot.Weighted>
3.5529

> <Gold.Chemscore.Internal.Correction.Weighted>
   9.000000E+99

> <Gold.Protein.RotatedTorsions>
[ 6907 6896 6895 6894 ] final  -37.15 input  -60.11 | X-H torsion
[ 7974 7965 7964 7962 ] final -108.14 input  175.53 | X-H torsion
[ 8008 7997 7996 7995 ] final   71.58 input   59.86 | X-H torsion
[ 10167 10162 10161 10158 ] final  -69.75 input  -65.29 | X-H torsion
[ 10718 10713 10712 10709 ] final   90.13 input   66.30 | X-H torsion
[ 10763 10752 10751 10750 ] final    7.65 input  -60.55 | X-H torsion
[ 11005 11000 10999 10996 ] final  -93.90 input  -57.11 | X-H torsion

> <Gold.Protein.ActiveResidues>
 VAL166  LYS551  ARG553  GLY616  TRP617  ASP618  TYR619  PRO620  LYS621  CYS622 
 ASP623  PHE694  ASN695  SER759  ASP760  ASP761  ALA762  ILE779  LEU786  VAL792 
 PHE793  MET794  SER795  GLU796  ALA797  LYS798  CYS799  TRP800  GLU811  SER814 

> <Gold.Protein.RotatedAtoms>
  151.0183  134.9450  159.8045 H   0  0  0  0  0  0  0  0  0  0  0  0  # atno 6907 bound_to 6896
  152.5319  134.2937  159.9062 H   0  0  0  0  0  0  0  0  0  0  0  0  # atno 6908 bound_to 6896
  151.2944  133.4109  159.2669 H   0  0  0  0  0  0  0  0  0  0  0  0  # atno 6909 bound_to 6896
  145.1966  140.9038  143.3394 H   0  0  0  0  0  0  0  0  0  0  0  0  # atno 7974 bound_to 7965
  155.7561  140.3487  155.5174 H   0  0  0  0  0  0  0  0  0  0  0  0  # atno 8008 bound_to 7997
  155.8959  140.1025  157.1406 H   0  0  0  0  0  0  0  0  0  0  0  0  # atno 8009 bound_to 7997
  154.4038  140.1295  156.4361 H   0  0  0  0  0  0  0  0  0  0  0  0  # atno 8010 bound_to 7997
  140.5407  143.2315  151.7095 H   0  0  0  0  0  0  0  0  0  0  0  0  # atno 10167 bound_to 10162
  157.6958  131.0359  150.3530 H   0  0  0  0  0  0  0  0  0  0  0  0  # atno 10718 bound_to 10713
  153.2339  135.6896  153.7859 H   0  0  0  0  0  0  0  0  0  0  0  0  # atno 10763 bound_to 10752
  153.7013  135.3297  155.3226 H   0  0  0  0  0  0  0  0  0  0  0  0  # atno 10764 bound_to 10752
  154.8326  135.4568  154.1235 H   0  0  0  0  0  0  0  0  0  0  0  0  # atno 10765 bound_to 10752
  141.1485  133.7919  157.0224 H   0  0  0  0  0  0  0  0  0  0  0  0  # atno 11005 bound_to 11000
  144.9989  139.3617  143.6177 LP  0  0  0  0  0  0  0  0  0  0  0  0  # atno 17320 bound_to 7965
  146.3426  139.9204  142.8767 LP  0  0  0  0  0  0  0  0  0  0  0  0  # atno 17321 bound_to 7965
  139.4987  144.3974  152.0217 LP  0  0  0  0  0  0  0  0  0  0  0  0  # atno 17342 bound_to 10162
  140.3082  144.3568  150.6041 LP  0  0  0  0  0  0  0  0  0  0  0  0  # atno 17343 bound_to 10162
  156.3976  130.3910  149.6983 LP  0  0  0  0  0  0  0  0  0  0  0  0  # atno 17370 bound_to 10713
  156.4311  130.7816  151.2835 LP  0  0  0  0  0  0  0  0  0  0  0  0  # atno 17371 bound_to 10713
  140.0807  134.9650  157.1620 LP  0  0  0  0  0  0  0  0  0  0  0  0  # atno 17394 bound_to 11000
  140.3580  134.2525  155.7190 LP  0  0  0  0  0  0  0  0  0  0  0  0  # atno 17395 bound_to 11000

$$$$
