AV-unprocessed.smi:52|AV-procd|sdf|511|dock2
  -GOLD-   2262016383D 1   1.00000     0.00000
 Structure written by MMmdl.
 26 27  0  0  0  0  0  0  0  0  2 V2000
  154.1755  135.4156  159.1960 O   0  0  0  0  0  0  0  0  0  0  0  0
  154.0253  136.0944  158.1559 C   0  0  0  0  0  0  0  0  0  0  0  0
  154.5982  135.7954  157.0850 O   0  5  0  0  0  0  0  0  0  0  0  0
  153.1414  137.2885  158.1950 C   0  0  0  0  0  0  0  0  0  0  0  0
  152.1599  137.5535  159.1163 C   0  0  0  0  0  0  0  0  0  0  0  0
  151.5696  138.7508  158.8139 O   0  0  0  0  0  0  0  0  0  0  0  0
  152.2250  139.1749  157.6994 C   0  0  0  0  0  0  0  0  0  0  0  0
  151.8268  140.4703  157.0724 C   0  0  0  0  0  0  0  0  0  0  0  0
  150.4996  140.4289  156.4678 N   0  0  0  0  0  0  0  0  0  0  0  0
  150.4223  139.5977  155.2771 C   0  0  0  0  0  0  0  0  0  0  0  0
  149.1740  140.0524  154.5079 C   0  0  0  0  0  0  0  0  0  0  0  0
  148.8337  141.4194  155.1241 C   0  0  2  0  0  0  0  0  0  0  0  0
  148.6276  142.4231  154.1527 O   0  0  0  0  0  0  0  0  0  0  0  0
  150.0410  141.7241  156.0116 C   0  0  0  0  0  0  0  0  0  0  0  0
  153.1749  138.3391  157.2862 N   0  0  0  0  0  0  0  0  0  0  0  0
  147.9393  141.3299  155.7421 H   0  0  0  0  0  0  0  0  0  0  0  0
  151.7858  137.0290  159.9829 H   0  0  0  0  0  0  0  0  0  0  0  0
  151.8520  141.2371  157.8472 H   0  0  0  0  0  0  0  0  0  0  0  0
  152.5760  140.7498  156.3302 H   0  0  0  0  0  0  0  0  0  0  0  0
  151.3025  139.7599  154.6525 H   0  0  0  0  0  0  0  0  0  0  0  0
  150.3897  138.5377  155.5308 H   0  0  0  0  0  0  0  0  0  0  0  0
  149.3838  140.1133  153.4392 H   0  0  0  0  0  0  0  0  0  0  0  0
  148.3479  139.3542  154.6472 H   0  0  0  0  0  0  0  0  0  0  0  0
  148.5844  143.2594  154.5907 H   0  0  0  0  0  0  0  0  0  0  0  0
  149.7906  142.3818  156.8445 H   0  0  0  0  0  0  0  0  0  0  0  0
  150.8231  142.2086  155.4237 H   0  0  0  0  0  0  0  0  0  0  0  0
  1  2  2  0  0  0  0
  2  3  1  0  0  0  0
  2  4  1  0  0  0  0
  4 15  1  0  0  0  0
  4  5  2  0  0  0  0
  5  6  1  0  0  0  0
  5 17  1  0  0  0  0
  6  7  1  0  0  0  0
  7  8  1  0  0  0  0
  7 15  2  0  0  0  0
  8  9  1  0  0  0  0
  8 18  1  0  0  0  0
  8 19  1  0  0  0  0
  9 14  1  0  0  0  0
  9 10  1  0  0  0  0
 10 11  1  0  0  0  0
 10 20  1  0  0  0  0
 10 21  1  0  0  0  0
 11 12  1  0  0  0  0
 11 22  1  0  0  0  0
 11 23  1  0  0  0  0
 12 16  1  0  0  0  0
 12 13  1  0  0  0  0
 12 14  1  0  0  0  0
 13 24  1  0  0  0  0
 14 25  1  0  0  0  0
 14 26  1  0  0  0  0
M  CHG  1   3  -1
M  END
> <s_m_source_file>
AV-unprocessed.smi

> <i_m_source_file_index>
52

> <i_lp_mmshare_version>
43012

> <i_f3d_flags>
0

> <s_epik_input>
Tz1DKFtPSF0pYzFbY0hdb2MobjEpW0NIMl1OMltDSDJdW0NIMl1bQ0BIXShbT0hdKVtDSDJdMg==

> <s_epik_cmdline>
J2VwaWtfcHl0aG9uJywgJy1waCcsICc3LjAnLCAnLXRuJywgJzgnLCAnLW1hJywgJzIwMCcsICctbWV0YWxfYmluZGluZycsICctaW1hZScsICc8aW5maWxlLm1hZT4nLCAnLW9tYWUnLCAnPG91dGZpbGUubWFlPic=

> <r_epik_Ionization_Penalty>
1.6537

> <r_epik_Ionization_Penalty_Charging>
0.000221913

> <r_epik_Ionization_Penalty_Neutral>
1.65348

> <r_epik_State_Penalty>
1.75577

> <r_epik_Charging_Adjusted_Penalty>
1.75599

> <i_epik_Tot_Q>
-1

> <i_epik_Tot_abs_Q>
1

> <r_epik_Metal_State_Penalty>
1.75577

> <b_epik_Metal_Only>
0

> <s_lp_Force_Field>
OPLS_2005

> <r_lp_Energy>
35.4981

> <b_lp_Chiralities_Consistent>
1

> <s_lp_Variant>
AV-unprocessed.smi:52-5

> <Gold.Version>
5.8.1

> <Gold.Id.Protein>
6NUR|6NUR_protein|mol2

> <Gold.PLP.Fitness>
38.3141

> <Gold.PLP.PLP>
-21.5248

> <Gold.PLP.part.hbond>
-4.8820

> <Gold.PLP.part.metal>
0.0000

> <Gold.PLP.part.buried>
-2.5666

> <Gold.PLP.part.nonpolar>
-14.5622

> <Gold.PLP.part.repulsive>
0.0154

> <Gold.PLP.ligand.clash>
0.0000

> <Gold.PLP.ligand.torsion>
0.2791

> <Gold.PLP.Chemscore.Hbond>
5.7817

> <Gold.PLP.Chemscore.CHOScore>
0.0000

> <Gold.PLP.Chemscore.Metal>
0.0000

> <Gold.Chemscore.Hbonds>
donor molecule, donor type, donor heavy atom, donor atom, acceptor molecule, acceptor atom, score
      L1  H    13    24       P1  8028  1.00
      P1  H  6896  6907       L1     1  2.00
      P1  H  7997  8009       L1    15  0.33
      P1  H  8011  8017       L1    13  0.13
      P1  H 10752 10764       L1     3  2.00

> <Gold.PLP.Chemscore.Internal.Correction>
0.0023

> <Gold.Rescore>
     Score         DG    S(hbond)    S(metal)    S(lipo)     H(rot)  DE(clash)    DE(int)     intcor
     15.82     -16.17       3.22        0.00      42.19       1.95       0.04       0.32       ----

> <Gold.Chemscore.Fitness>
15.8219

> <Gold.Chemscore.DG>
-16.1749

> <Gold.Chemscore.ZeroCoef>
-5.4800

> <Gold.Chemscore.Hbond>
3.2184

> <Gold.Chemscore.Metal>
0.0000

> <Gold.Chemscore.Lipo>
42.1920

> <Gold.Chemscore.Internal_Hbond>
0.0000

> <Gold.Chemscore.DEClash>
0.0354

> <Gold.Chemscore.DEInternal>
0.3176

> <Gold.Chemscore.Rot>
1.9497

> <Gold.Chemscore.Internal.Correction>
   9.000000E+99

> <Gold.Chemscore.Hbonds>
donor molecule, donor type, donor heavy atom, donor atom, acceptor molecule, acceptor atom, score
      L1  H    13    24       P1  8028  1.00
      P1  H  6896  6907       L1     1  0.88
      P1  H  7997  8009       L1    15  0.02
      P1  H  8011  8017       L1    13  0.11
      P1  H 10752 10764       L1     3  1.00

> <Gold.Chemscore.Hbond.Weighted>
-10.7496

> <Gold.Chemscore.Metal.Weighted>
-0.0000

> <Gold.Chemscore.Lipo.Weighted>
-4.9365

> <Gold.Chemscore.Internal_Hbond.Weighted>
0.0000

> <Gold.Chemscore.DEClash.Weighted>
0.0354

> <Gold.Chemscore.DEInternal.Weighted>
0.3176

> <Gold.Chemscore.Rot.Weighted>
4.9912

> <Gold.Chemscore.Internal.Correction.Weighted>
   9.000000E+99

> <Gold.Protein.RotatedTorsions>
[ 6907 6896 6895 6894 ] final   70.75 input  -60.11 | X-H torsion
[ 7974 7965 7964 7962 ] final  -24.41 input  175.53 | X-H torsion
[ 8008 7997 7996 7995 ] final  160.37 input   59.86 | X-H torsion
[ 10167 10162 10161 10158 ] final  140.12 input  -65.29 | X-H torsion
[ 10718 10713 10712 10709 ] final   38.93 input   66.30 | X-H torsion
[ 10763 10752 10751 10750 ] final   41.17 input  -60.55 | X-H torsion
[ 11005 11000 10999 10996 ] final  -37.20 input  -57.11 | X-H torsion

> <Gold.Protein.ActiveResidues>
 VAL166  LYS551  ARG553  GLY616  TRP617  ASP618  TYR619  PRO620  LYS621  CYS622 
 ASP623  PHE694  ASN695  SER759  ASP760  ASP761  ALA762  ILE779  LEU786  VAL792 
 PHE793  MET794  SER795  GLU796  ALA797  LYS798  CYS799  TRP800  GLU811  SER814 

> <Gold.Protein.RotatedAtoms>
  152.4769  134.4822  159.9668 H   0  0  0  0  0  0  0  0  0  0  0  0  # atno 6907 bound_to 6896
  151.4836  133.3535  159.2850 H   0  0  0  0  0  0  0  0  0  0  0  0  # atno 6908 bound_to 6896
  150.8813  134.8231  159.7288 H   0  0  0  0  0  0  0  0  0  0  0  0  # atno 6909 bound_to 6896
  146.1556  140.4748  142.8593 H   0  0  0  0  0  0  0  0  0  0  0  0  # atno 7974 bound_to 7965
  156.2176  140.1806  156.7551 H   0  0  0  0  0  0  0  0  0  0  0  0  # atno 8008 bound_to 7997
  154.5816  140.0665  156.9141 H   0  0  0  0  0  0  0  0  0  0  0  0  # atno 8009 bound_to 7997
  155.2493  140.3327  155.4286 H   0  0  0  0  0  0  0  0  0  0  0  0  # atno 8010 bound_to 7997
  139.5058  144.6253  151.5951 H   0  0  0  0  0  0  0  0  0  0  0  0  # atno 10167 bound_to 10162
  157.3646  130.7668  149.7073 H   0  0  0  0  0  0  0  0  0  0  0  0  # atno 10718 bound_to 10713
  152.9915  135.6169  154.2745 H   0  0  0  0  0  0  0  0  0  0  0  0  # atno 10763 bound_to 10752
  154.2476  135.2786  155.2831 H   0  0  0  0  0  0  0  0  0  0  0  0  # atno 10764 bound_to 10752
  154.5315  135.5786  153.6821 H   0  0  0  0  0  0  0  0  0  0  0  0  # atno 10765 bound_to 10752
  140.9934  133.6993  156.1890 H   0  0  0  0  0  0  0  0  0  0  0  0  # atno 11005 bound_to 11000
  144.7959  140.6122  143.6510 LP  0  0  0  0  0  0  0  0  0  0  0  0  # atno 17320 bound_to 7965
  145.4716  139.1503  143.3811 LP  0  0  0  0  0  0  0  0  0  0  0  0  # atno 17321 bound_to 7965
  140.5968  143.9681  150.6360 LP  0  0  0  0  0  0  0  0  0  0  0  0  # atno 17342 bound_to 10162
  140.2879  143.3344  152.1090 LP  0  0  0  0  0  0  0  0  0  0  0  0  # atno 17343 bound_to 10162
  155.9744  130.4104  150.3928 LP  0  0  0  0  0  0  0  0  0  0  0  0  # atno 17370 bound_to 10713
  157.2010  131.0438  151.2650 LP  0  0  0  0  0  0  0  0  0  0  0  0  # atno 17371 bound_to 10713
  140.7004  134.4570  157.5586 LP  0  0  0  0  0  0  0  0  0  0  0  0  # atno 17394 bound_to 11000
  139.9003  134.8572  156.1925 LP  0  0  0  0  0  0  0  0  0  0  0  0  # atno 17395 bound_to 11000

$$$$
