AV-unprocessed.smi:1914|AV-procd|sdf|7757|dock2
  -GOLD-   22720 9493D 1   1.00000     0.00000
 Structure written by MMmdl.
 44 45  0  0  0  0  0  0  0  0  2 V2000
  146.1917  136.4360  151.2668 C   0  0  0  0  0  0  0  0  0  0  0  0
  145.4624  135.2879  151.9875 C   0  0  1  0  0  0  0  0  0  0  0  0
  145.7550  133.9106  151.3640 C   0  0  0  0  0  0  0  0  0  0  0  0
  147.1701  133.4306  151.7149 C   0  0  0  0  0  0  0  0  0  0  0  0
  147.4034  133.4624  153.2334 C   0  0  0  0  0  0  0  0  0  0  0  0
  147.1465  134.8164  153.7888 N   0  3  2  0  0  0  0  0  0  0  0  0
  147.5065  134.9061  155.2261 C   0  0  0  0  0  0  0  0  0  0  0  0
  149.0192  134.7364  155.4711 C   0  0  0  0  0  0  0  0  0  0  0  0
  149.7799  135.8204  154.8620 N   0  0  0  0  0  0  0  0  0  0  0  0
  150.8287  136.4344  155.4304 C   0  0  0  0  0  0  0  0  0  0  0  0
  151.2405  136.1565  156.5575 O   0  0  0  0  0  0  0  0  0  0  0  0
  151.5021  137.5358  154.6009 C   0  0  0  0  0  0  0  0  0  0  0  0
  151.2944  138.8810  155.1622 N   0  0  0  0  0  0  0  0  0  0  0  0
  150.3847  139.7245  154.4939 C   0  0  0  0  0  0  0  0  0  0  0  0
  150.1217  140.9681  154.9255 C   0  0  0  0  0  0  0  0  0  0  0  0
  150.8004  141.4380  156.1100 C   0  0  0  0  0  0  0  0  0  0  0  0
  151.6695  140.6381  156.7592 C   0  0  0  0  0  0  0  0  0  0  0  0
  151.9571  139.2766  156.2933 C   0  0  0  0  0  0  0  0  0  0  0  0
  152.7434  138.5353  156.8844 O   0  0  0  0  0  0  0  0  0  0  0  0
  145.7574  135.2687  153.5018 C   0  0  0  0  0  0  0  0  0  0  0  0
  147.2749  136.3507  151.3543 H   0  0  0  0  0  0  0  0  0  0  0  0
  145.9039  137.4027  151.6810 H   0  0  0  0  0  0  0  0  0  0  0  0
  145.9456  136.4505  150.2045 H   0  0  0  0  0  0  0  0  0  0  0  0
  144.3953  135.4784  151.8650 H   0  0  0  0  0  0  0  0  0  0  0  0
  145.0309  133.1863  151.7398 H   0  0  0  0  0  0  0  0  0  0  0  0
  145.6216  133.9418  150.2821 H   0  0  0  0  0  0  0  0  0  0  0  0
  147.3208  132.4185  151.3384 H   0  0  0  0  0  0  0  0  0  0  0  0
  147.9113  134.0549  151.2149 H   0  0  0  0  0  0  0  0  0  0  0  0
  146.7579  132.7360  153.7302 H   0  0  0  0  0  0  0  0  0  0  0  0
  148.4322  133.1655  153.4399 H   0  0  0  0  0  0  0  0  0  0  0  0
  147.1430  135.8517  155.6316 H   0  0  0  0  0  0  0  0  0  0  0  0
  146.9892  134.1182  155.7759 H   0  0  0  0  0  0  0  0  0  0  0  0
  149.2252  134.7380  156.5419 H   0  0  0  0  0  0  0  0  0  0  0  0
  149.3874  133.7856  155.0849 H   0  0  0  0  0  0  0  0  0  0  0  0
  149.5006  136.1152  153.9371 H   0  0  0  0  0  0  0  0  0  0  0  0
  152.5712  137.3315  154.5130 H   0  0  0  0  0  0  0  0  0  0  0  0
  151.1144  137.4775  153.5830 H   0  0  0  0  0  0  0  0  0  0  0  0
  149.9139  139.2961  153.6212 H   0  0  0  0  0  0  0  0  0  0  0  0
  149.4182  141.5996  154.4030 H   0  0  0  0  0  0  0  0  0  0  0  0
  150.6092  142.4350  156.4785 H   0  0  0  0  0  0  0  0  0  0  0  0
  152.1670  141.0068  157.6441 H   0  0  0  0  0  0  0  0  0  0  0  0
  145.5807  136.2621  153.9121 H   0  0  0  0  0  0  0  0  0  0  0  0
  145.0564  134.6001  154.0046 H   0  0  0  0  0  0  0  0  0  0  0  0
  147.7683  135.4433  153.2987 H   0  0  0  0  0  0  0  0  0  0  0  0
  1  2  1  0  0  0  0
  1 21  1  0  0  0  0
  1 22  1  0  0  0  0
  1 23  1  0  0  0  0
  2 20  1  0  0  0  0
  2  3  1  0  0  0  0
  2 24  1  0  0  0  0
  3  4  1  0  0  0  0
  3 25  1  0  0  0  0
  3 26  1  0  0  0  0
  4  5  1  0  0  0  0
  4 27  1  0  0  0  0
  4 28  1  0  0  0  0
  5  6  1  0  0  0  0
  5 29  1  0  0  0  0
  5 30  1  0  0  0  0
  6  7  1  0  0  0  0
  6 20  1  0  0  0  0
  6 44  1  0  0  0  0
  7  8  1  0  0  0  0
  7 31  1  0  0  0  0
  7 32  1  0  0  0  0
  8  9  1  0  0  0  0
  8 33  1  0  0  0  0
  8 34  1  0  0  0  0
  9 10  1  0  0  0  0
  9 35  1  0  0  0  0
 10 11  2  0  0  0  0
 10 12  1  0  0  0  0
 12 13  1  0  0  0  0
 12 36  1  0  0  0  0
 12 37  1  0  0  0  0
 13 18  1  0  0  0  0
 13 14  1  0  0  0  0
 14 15  2  0  0  0  0
 14 38  1  0  0  0  0
 15 16  1  0  0  0  0
 15 39  1  0  0  0  0
 16 17  2  0  0  0  0
 16 40  1  0  0  0  0
 17 18  1  0  0  0  0
 17 41  1  0  0  0  0
 18 19  2  0  0  0  0
 20 42  1  0  0  0  0
 20 43  1  0  0  0  0
M  CHG  1   6   1
M  END
> <s_m_source_file>
AV-unprocessed.smi

> <i_m_source_file_index>
1914

> <i_lp_mmshare_version>
43012

> <i_f3d_flags>
0

> <s_epik_input>
W0NIM11bQ0BASF0xW0NIMl1bQ0gyXVtDSDJdTihbQ0gyXTEpW0NIMl1bQ0gyXVtOSF1DKD1PKVtDSDJdbjJbY0hdW2NIXVtjSF1bY0hdYzI9Tw==

> <s_epik_cmdline>
J2VwaWtfcHl0aG9uJywgJy1waCcsICc3LjAnLCAnLXRuJywgJzgnLCAnLW1hJywgJzIwMCcsICctbWV0YWxfYmluZGluZycsICctaW1hZScsICc8aW5maWxlLm1hZT4nLCAnLW9tYWUnLCAnPG91dGZpbGUubWFlPic=

> <r_lp_tautomer_probability>
1

> <r_epik_Ionization_Penalty>
0.00192477

> <r_epik_Ionization_Penalty_Charging>
0.00192469

> <r_epik_Ionization_Penalty_Neutral>
8.16761e-08

> <r_epik_State_Penalty>
0.00131115

> <r_epik_Charging_Adjusted_Penalty>
0.00323584

> <i_epik_Tot_Q>
1

> <i_epik_Tot_abs_Q>
1

> <r_epik_Metal_State_Penalty>
-0

> <b_epik_Metal_Only>
0

> <s_lp_Force_Field>
OPLS_2005

> <r_lp_Energy>
26.9479

> <b_lp_Chiralities_Consistent>
1

> <s_lp_Variant>
AV-unprocessed.smi:1914-2

> <Gold.Version>
5.8.1

> <Gold.Id.Protein>
6NUR|6NUR_protein|mol2

> <Gold.PLP.Fitness>
54.5826

> <Gold.PLP.PLP>
-37.5563

> <Gold.PLP.part.hbond>
-4.5603

> <Gold.PLP.part.metal>
0.0000

> <Gold.PLP.part.buried>
-0.9748

> <Gold.PLP.part.nonpolar>
-30.9774

> <Gold.PLP.part.repulsive>
0.0930

> <Gold.PLP.ligand.clash>
0.0000

> <Gold.PLP.ligand.torsion>
0.4166

> <Gold.PLP.Chemscore.Hbond>
5.0000

> <Gold.PLP.Chemscore.CHOScore>
0.9216

> <Gold.PLP.Chemscore.Metal>
0.0000

> <Gold.Chemscore.Hbonds>
donor molecule, donor type, donor heavy atom, donor atom, acceptor molecule, acceptor atom, score
      L1  H     6    44       P1  7948  2.00
      L1  H     9    35       P1  7948  0.78
      P1  H  7997  8009       L1    19  0.22
      L1  C    14    38       P1  7957  0.87

> <Gold.PLP.Chemscore.Internal.Correction>
0.0948

> <Gold.Rescore>
     Score         DG    S(hbond)    S(metal)    S(lipo)     H(rot)  DE(clash)    DE(int)     intcor
     18.63     -19.62       3.34        0.00      66.29       1.86       0.04       0.96       ----

> <Gold.Chemscore.Fitness>
18.6265

> <Gold.Chemscore.DG>
-19.6237

> <Gold.Chemscore.ZeroCoef>
-5.4800

> <Gold.Chemscore.Hbond>
3.3371

> <Gold.Chemscore.Metal>
0.0000

> <Gold.Chemscore.Lipo>
66.2888

> <Gold.Chemscore.Internal_Hbond>
0.0000

> <Gold.Chemscore.DEClash>
0.0422

> <Gold.Chemscore.DEInternal>
0.9550

> <Gold.Chemscore.Rot>
1.8586

> <Gold.Chemscore.Internal.Correction>
   9.000000E+99

> <Gold.Chemscore.Hbonds>
donor molecule, donor type, donor heavy atom, donor atom, acceptor molecule, acceptor atom, score
      L1  H     6    44       P1  7948  0.95
      L1  H     9    35       P1  7948  0.50
      P1  H  7997  8009       L1    19  0.01

> <Gold.Chemscore.Hbond.Weighted>
-11.1460

> <Gold.Chemscore.Metal.Weighted>
-0.0000

> <Gold.Chemscore.Lipo.Weighted>
-7.7558

> <Gold.Chemscore.Internal_Hbond.Weighted>
0.0000

> <Gold.Chemscore.DEClash.Weighted>
0.0422

> <Gold.Chemscore.DEInternal.Weighted>
0.9550

> <Gold.Chemscore.Rot.Weighted>
4.7581

> <Gold.Chemscore.Internal.Correction.Weighted>
   9.000000E+99

> <Gold.Protein.RotatedTorsions>
[ 6907 6896 6895 6894 ] final    2.58 input  -60.11 | X-H torsion
[ 7974 7965 7964 7962 ] final -161.39 input  175.53 | X-H torsion
[ 8008 7997 7996 7995 ] final -179.77 input   59.86 | X-H torsion
[ 10167 10162 10161 10158 ] final -177.06 input  -65.29 | X-H torsion
[ 10718 10713 10712 10709 ] final -108.05 input   66.30 | X-H torsion
[ 10763 10752 10751 10750 ] final  -32.98 input  -60.55 | X-H torsion
[ 11005 11000 10999 10996 ] final -140.00 input  -57.11 | X-H torsion

> <Gold.Protein.ActiveResidues>
 VAL166  LYS551  ARG553  GLY616  TRP617  ASP618  TYR619  PRO620  LYS621  CYS622 
 ASP623  PHE694  ASN695  SER759  ASP760  ASP761  ALA762  ILE779  LEU786  VAL792 
 PHE793  MET794  SER795  GLU796  ALA797  LYS798  CYS799  TRP800  GLU811  SER814 

> <Gold.Protein.RotatedAtoms>
  151.6111  135.1040  160.0081 H   0  0  0  0  0  0  0  0  0  0  0  0  # atno 6907 bound_to 6896
  152.4207  133.7108  159.6488 H   0  0  0  0  0  0  0  0  0  0  0  0  # atno 6908 bound_to 6896
  150.8095  133.8375  159.3211 H   0  0  0  0  0  0  0  0  0  0  0  0  # atno 6909 bound_to 6896
  144.7393  140.3404  143.6136 H   0  0  0  0  0  0  0  0  0  0  0  0  # atno 7974 bound_to 7965
  156.0343  140.1289  157.0224 H   0  0  0  0  0  0  0  0  0  0  0  0  # atno 8008 bound_to 7997
  154.4363  140.1043  156.6216 H   0  0  0  0  0  0  0  0  0  0  0  0  # atno 8009 bound_to 7997
  155.5760  140.3467  155.4530 H   0  0  0  0  0  0  0  0  0  0  0  0  # atno 8010 bound_to 7997
  139.5498  144.2138  152.1057 H   0  0  0  0  0  0  0  0  0  0  0  0  # atno 10167 bound_to 10162
  156.0466  130.5693  150.7907 H   0  0  0  0  0  0  0  0  0  0  0  0  # atno 10718 bound_to 10713
  153.8226  135.6873  153.4825 H   0  0  0  0  0  0  0  0  0  0  0  0  # atno 10763 bound_to 10752
  153.1559  135.4599  154.9702 H   0  0  0  0  0  0  0  0  0  0  0  0  # atno 10764 bound_to 10752
  154.7921  135.3305  154.7697 H   0  0  0  0  0  0  0  0  0  0  0  0  # atno 10765 bound_to 10752
  140.8465  134.2338  157.4783 H   0  0  0  0  0  0  0  0  0  0  0  0  # atno 11005 bound_to 11000
  145.7380  139.1756  143.2392 LP  0  0  0  0  0  0  0  0  0  0  0  0  # atno 17320 bound_to 7965
  146.1155  140.7374  142.9482 LP  0  0  0  0  0  0  0  0  0  0  0  0  # atno 17321 bound_to 7965
  140.1631  144.5007  150.6621 LP  0  0  0  0  0  0  0  0  0  0  0  0  # atno 17342 bound_to 10162
  140.6758  143.2304  151.5511 LP  0  0  0  0  0  0  0  0  0  0  0  0  # atno 17343 bound_to 10162
  157.5349  131.0938  150.9906 LP  0  0  0  0  0  0  0  0  0  0  0  0  # atno 17370 bound_to 10713
  157.0203  130.5671  149.5330 LP  0  0  0  0  0  0  0  0  0  0  0  0  # atno 17371 bound_to 10713
  139.8703  134.9662  156.4554 LP  0  0  0  0  0  0  0  0  0  0  0  0  # atno 17394 bound_to 11000
  140.8837  133.7898  155.9495 LP  0  0  0  0  0  0  0  0  0  0  0  0  # atno 17395 bound_to 11000

$$$$
