AV-unprocessed.smi:1993|AV-procd|sdf|8070|dock7
  -GOLD-   2272010283D 1   1.00000     0.00000
 Structure written by MMmdl.
 50 51  0  0  0  0  0  0  0  0  1 V2000
  148.2099  132.2771  157.5008 C   0  0  0  0  0  0  0  0  0  0  0  0
  147.3914  133.2305  158.3652 C   0  0  0  0  0  0  0  0  0  0  0  0
  146.1832  133.3536  158.1672 O   0  0  0  0  0  0  0  0  0  0  0  0
  148.0584  133.9004  159.3187 N   0  0  0  0  0  0  0  0  0  0  0  0
  147.4686  134.8676  160.2459 C   0  0  2  0  0  0  0  0  0  0  0  0
  148.1679  136.2242  160.0401 C   0  0  0  0  0  0  0  0  0  0  0  0
  147.8699  137.1939  160.7397 O   0  0  0  0  0  0  0  0  0  0  0  0
  149.0832  136.2773  159.0612 N   0  0  0  0  0  0  0  0  0  0  0  0
  149.8160  137.4726  158.6640 C   0  0  0  0  0  0  0  0  0  0  0  0
  150.1698  137.4766  157.1825 C   0  0  0  0  0  0  0  0  0  0  0  0
  150.1220  136.2697  156.4533 C   0  0  0  0  0  0  0  0  0  0  0  0
  150.4526  136.2803  155.0862 C   0  0  0  0  0  0  0  0  0  0  0  0
  150.8204  137.5047  154.4986 C   0  0  0  0  0  0  0  0  0  0  0  0
  150.8735  138.6663  155.1827 N   0  0  0  0  0  0  0  0  0  0  0  0
  150.5554  138.6596  156.5001 C   0  0  0  0  0  0  0  0  0  0  0  0
  150.6392  139.8794  157.1914 N   0  0  0  0  0  0  0  0  0  0  0  0
  150.7410  141.0678  156.3530 C   0  0  0  0  0  0  0  0  0  0  0  0
  150.6572  142.3302  157.2284 C   0  0  0  0  0  0  0  0  0  0  0  0
  151.6711  142.2853  158.2292 O   0  0  0  0  0  0  0  0  0  0  0  0
  151.5309  141.1551  159.0860 C   0  0  0  0  0  0  0  0  0  0  0  0
  151.6319  139.8635  158.2572 C   0  0  0  0  0  0  0  0  0  0  0  0
  147.6900  134.3676  161.7045 C   0  0  0  0  0  0  0  0  0  0  0  0
  147.0415  132.9899  161.9446 C   0  0  0  0  0  0  0  0  0  0  0  0
  147.1723  135.3581  162.7682 C   0  0  0  0  0  0  0  0  0  0  0  0
  148.2978  132.6711  156.4883 H   0  0  0  0  0  0  0  0  0  0  0  0
  147.7232  131.3028  157.4489 H   0  0  0  0  0  0  0  0  0  0  0  0
  149.2139  132.1342  157.9019 H   0  0  0  0  0  0  0  0  0  0  0  0
  149.0521  133.7418  159.4021 H   0  0  0  0  0  0  0  0  0  0  0  0
  146.3976  134.9626  160.0533 H   0  0  0  0  0  0  0  0  0  0  0  0
  149.2719  135.4327  158.5410 H   0  0  0  0  0  0  0  0  0  0  0  0
  149.2433  138.3671  158.9151 H   0  0  0  0  0  0  0  0  0  0  0  0
  150.7304  137.5307  159.2551 H   0  0  0  0  0  0  0  0  0  0  0  0
  149.8384  135.3454  156.9351 H   0  0  0  0  0  0  0  0  0  0  0  0
  150.4254  135.3721  154.5026 H   0  0  0  0  0  0  0  0  0  0  0  0
  151.0807  137.5527  153.4516 H   0  0  0  0  0  0  0  0  0  0  0  0
  151.6864  141.0601  155.8086 H   0  0  0  0  0  0  0  0  0  0  0  0
  149.9394  141.0680  155.6134 H   0  0  0  0  0  0  0  0  0  0  0  0
  150.7989  143.2219  156.6177 H   0  0  0  0  0  0  0  0  0  0  0  0
  149.6746  142.4155  157.6953 H   0  0  0  0  0  0  0  0  0  0  0  0
  152.3169  141.1799  159.8407 H   0  0  0  0  0  0  0  0  0  0  0  0
  150.5779  141.2026  159.6154 H   0  0  0  0  0  0  0  0  0  0  0  0
  151.4786  138.9961  158.8975 H   0  0  0  0  0  0  0  0  0  0  0  0
  152.6297  139.7724  157.8252 H   0  0  0  0  0  0  0  0  0  0  0  0
  148.7621  134.2470  161.8714 H   0  0  0  0  0  0  0  0  0  0  0  0
  145.9669  133.0227  161.7620 H   0  0  0  0  0  0  0  0  0  0  0  0
  147.1926  132.6592  162.9727 H   0  0  0  0  0  0  0  0  0  0  0  0
  147.4653  132.2201  161.2995 H   0  0  0  0  0  0  0  0  0  0  0  0
  146.1037  135.5373  162.6499 H   0  0  0  0  0  0  0  0  0  0  0  0
  147.6813  136.3211  162.7218 H   0  0  0  0  0  0  0  0  0  0  0  0
  147.3299  134.9684  163.7742 H   0  0  0  0  0  0  0  0  0  0  0  0
  1  2  1  0  0  0  0
  1 25  1  0  0  0  0
  1 26  1  0  0  0  0
  1 27  1  0  0  0  0
  2  3  2  0  0  0  0
  2  4  1  0  0  0  0
  4  5  1  0  0  0  0
  4 28  1  0  0  0  0
  5  6  1  0  0  0  0
  5 22  1  0  0  0  0
  5 29  1  0  0  0  0
  6  7  2  0  0  0  0
  6  8  1  0  0  0  0
  8  9  1  0  0  0  0
  8 30  1  0  0  0  0
  9 10  1  0  0  0  0
  9 31  1  0  0  0  0
  9 32  1  0  0  0  0
 10 15  1  0  0  0  0
 10 11  2  0  0  0  0
 11 12  1  0  0  0  0
 11 33  1  0  0  0  0
 12 13  2  0  0  0  0
 12 34  1  0  0  0  0
 13 14  1  0  0  0  0
 13 35  1  0  0  0  0
 14 15  2  0  0  0  0
 15 16  1  0  0  0  0
 16 21  1  0  0  0  0
 16 17  1  0  0  0  0
 17 18  1  0  0  0  0
 17 36  1  0  0  0  0
 17 37  1  0  0  0  0
 18 19  1  0  0  0  0
 18 38  1  0  0  0  0
 18 39  1  0  0  0  0
 19 20  1  0  0  0  0
 20 21  1  0  0  0  0
 20 40  1  0  0  0  0
 20 41  1  0  0  0  0
 21 42  1  0  0  0  0
 21 43  1  0  0  0  0
 22 23  1  0  0  0  0
 22 24  1  0  0  0  0
 22 44  1  0  0  0  0
 23 45  1  0  0  0  0
 23 46  1  0  0  0  0
 23 47  1  0  0  0  0
 24 48  1  0  0  0  0
 24 49  1  0  0  0  0
 24 50  1  0  0  0  0
M  END
> <s_m_source_file>
AV-unprocessed.smi

> <i_m_source_file_index>
1993

> <i_lp_mmshare_version>
43012

> <i_f3d_flags>
0

> <s_epik_input>
W0NIM11DKD1PKVtOSF1bQ0BASF0oW0NIXShbQ0gzXSlbQ0gzXSlDKD1PKVtOSF1bQ0gyXWMxW2NIXVtjSF1bY0hdbmMxTjJbQ0gyXVtDSDJdT1tDSDJdW0NIMl0y

> <s_epik_cmdline>
J2VwaWtfcHl0aG9uJywgJy1waCcsICc3LjAnLCAnLXRuJywgJzgnLCAnLW1hJywgJzIwMCcsICctbWV0YWxfYmluZGluZycsICctaW1hZScsICc8aW5maWxlLm1hZT4nLCAnLW9tYWUnLCAnPG91dGZpbGUubWFlPic=

> <r_lp_tautomer_probability>
1

> <r_epik_Ionization_Penalty>
0.00485175

> <r_epik_Ionization_Penalty_Charging>
0

> <r_epik_Ionization_Penalty_Neutral>
0.00485175

> <r_epik_State_Penalty>
0.00351951

> <r_epik_Charging_Adjusted_Penalty>
0.00351951

> <i_epik_Tot_Q>
0

> <i_epik_Tot_abs_Q>
0

> <r_epik_Metal_State_Penalty>
-0

> <b_epik_Metal_Only>
0

> <s_lp_Force_Field>
OPLS_2005

> <r_lp_Energy>
19.1581

> <b_lp_Chiralities_Consistent>
1

> <s_lp_Variant>
AV-unprocessed.smi:1993-1

> <Gold.Version>
5.8.1

> <Gold.Id.Protein>
6NUR|6NUR_protein|mol2

> <Gold.PLP.Fitness>
40.1824

> <Gold.PLP.PLP>
-33.4126

> <Gold.PLP.part.hbond>
-2.0000

> <Gold.PLP.part.metal>
0.0000

> <Gold.PLP.part.buried>
-5.8826

> <Gold.PLP.part.nonpolar>
-26.3281

> <Gold.PLP.part.repulsive>
0.3085

> <Gold.PLP.ligand.clash>
0.0000

> <Gold.PLP.ligand.torsion>
0.6051

> <Gold.PLP.Chemscore.Hbond>
1.6000

> <Gold.PLP.Chemscore.CHOScore>
1.0000

> <Gold.PLP.Chemscore.Metal>
0.0000

> <Gold.Chemscore.Hbonds>
donor molecule, donor type, donor heavy atom, donor atom, acceptor molecule, acceptor atom, score
      P1  H  6931  6943       L1     7  0.83
      P1  H  6934  6947       L1     7  0.83
      L1  C    13    35       P1  7948  0.01
      L1  C    13    35       P1  7949  1.00

> <Gold.PLP.Chemscore.Internal.Correction>
0.1800

> <Gold.Rescore>
     Score         DG    S(hbond)    S(metal)    S(lipo)     H(rot)  DE(clash)    DE(int)     intcor
     12.87     -14.74       1.72        0.00      77.70       2.18       0.01       1.86       ----

> <Gold.Chemscore.Fitness>
12.8657

> <Gold.Chemscore.DG>
-14.7367

> <Gold.Chemscore.ZeroCoef>
-5.4800

> <Gold.Chemscore.Hbond>
1.7214

> <Gold.Chemscore.Metal>
0.0000

> <Gold.Chemscore.Lipo>
77.7036

> <Gold.Chemscore.Internal_Hbond>
0.0000

> <Gold.Chemscore.DEClash>
0.0073

> <Gold.Chemscore.DEInternal>
1.8637

> <Gold.Chemscore.Rot>
2.1813

> <Gold.Chemscore.Internal.Correction>
   9.000000E+99

> <Gold.Chemscore.Hbonds>
donor molecule, donor type, donor heavy atom, donor atom, acceptor molecule, acceptor atom, score
      P1  H  6931  6943       L1     7  0.82
      P1  H  6934  6947       L1     7  0.80

> <Gold.Chemscore.Hbond.Weighted>
-5.7496

> <Gold.Chemscore.Metal.Weighted>
-0.0000

> <Gold.Chemscore.Lipo.Weighted>
-9.0913

> <Gold.Chemscore.Internal_Hbond.Weighted>
0.0000

> <Gold.Chemscore.DEClash.Weighted>
0.0073

> <Gold.Chemscore.DEInternal.Weighted>
1.8637

> <Gold.Chemscore.Rot.Weighted>
5.5842

> <Gold.Chemscore.Internal.Correction.Weighted>
   9.000000E+99

> <Gold.Protein.RotatedTorsions>
[ 6907 6896 6895 6894 ] final  -95.62 input  -60.11 | X-H torsion
[ 7974 7965 7964 7962 ] final   58.55 input  175.53 | X-H torsion
[ 8008 7997 7996 7995 ] final   86.82 input   59.86 | X-H torsion
[ 10167 10162 10161 10158 ] final  141.30 input  -65.29 | X-H torsion
[ 10718 10713 10712 10709 ] final   25.60 input   66.30 | X-H torsion
[ 10763 10752 10751 10750 ] final -175.55 input  -60.55 | X-H torsion
[ 11005 11000 10999 10996 ] final   15.79 input  -57.11 | X-H torsion

> <Gold.Protein.ActiveResidues>
 VAL166  LYS551  ARG553  GLY616  TRP617  ASP618  TYR619  PRO620  LYS621  CYS622 
 ASP623  PHE694  ASN695  SER759  ASP760  ASP761  ALA762  ILE779  LEU786  VAL792 
 PHE793  MET794  SER795  GLU796  ALA797  LYS798  CYS799  TRP800  GLU811  SER814 

> <Gold.Protein.RotatedAtoms>
  150.6968  134.1630  159.4183 H   0  0  0  0  0  0  0  0  0  0  0  0  # atno 6907 bound_to 6896
  151.9610  135.0121  160.0557 H   0  0  0  0  0  0  0  0  0  0  0  0  # atno 6908 bound_to 6896
  152.1927  133.4749  159.5053 H   0  0  0  0  0  0  0  0  0  0  0  0  # atno 6909 bound_to 6896
  145.9169  139.3698  143.0501 H   0  0  0  0  0  0  0  0  0  0  0  0  # atno 7974 bound_to 7965
  155.9676  140.3388  155.6546 H   0  0  0  0  0  0  0  0  0  0  0  0  # atno 8008 bound_to 7997
  155.6717  140.0727  157.2536 H   0  0  0  0  0  0  0  0  0  0  0  0  # atno 8009 bound_to 7997
  154.4158  140.1690  156.1874 H   0  0  0  0  0  0  0  0  0  0  0  0  # atno 8010 bound_to 7997
  139.5024  144.6180  151.6118 H   0  0  0  0  0  0  0  0  0  0  0  0  # atno 10167 bound_to 10162
  157.1955  130.6866  149.6167 H   0  0  0  0  0  0  0  0  0  0  0  0  # atno 10718 bound_to 10713
  154.5831  135.2838  155.0713 H   0  0  0  0  0  0  0  0  0  0  0  0  # atno 10763 bound_to 10752
  154.2042  135.6419  153.5099 H   0  0  0  0  0  0  0  0  0  0  0  0  # atno 10764 bound_to 10752
  153.0095  135.5476  154.6491 H   0  0  0  0  0  0  0  0  0  0  0  0  # atno 10765 bound_to 10752
  140.4543  134.1192  155.7707 H   0  0  0  0  0  0  0  0  0  0  0  0  # atno 11005 bound_to 11000
  145.8600  140.9481  143.0705 LP  0  0  0  0  0  0  0  0  0  0  0  0  # atno 17320 bound_to 7965
  144.6749  140.0517  143.7478 LP  0  0  0  0  0  0  0  0  0  0  0  0  # atno 17321 bound_to 7965
  140.5874  143.9840  150.6304 LP  0  0  0  0  0  0  0  0  0  0  0  0  # atno 17342 bound_to 10162
  140.3009  143.3261  152.0972 LP  0  0  0  0  0  0  0  0  0  0  0  0  # atno 17343 bound_to 10162
  155.9706  130.4600  150.6057 LP  0  0  0  0  0  0  0  0  0  0  0  0  # atno 17370 bound_to 10713
  157.3818  131.0782  151.1470 LP  0  0  0  0  0  0  0  0  0  0  0  0  # atno 17371 bound_to 10713
  141.1650  133.8720  157.1741 LP  0  0  0  0  0  0  0  0  0  0  0  0  # atno 17394 bound_to 11000
  139.9986  135.0037  157.0139 LP  0  0  0  0  0  0  0  0  0  0  0  0  # atno 17395 bound_to 11000

$$$$
