AV-unprocessed.smi:1165|AV-procd|sdf|4928|dock5
  -GOLD-   22720 3513D 1   1.00000     0.00000
 Structure written by MMmdl.
 41 42  0  0  0  0  0  0  0  0  1 V2000
  152.1986  139.0094  155.1217 C   0  0  0  0  0  0  0  0  0  0  0  0
  150.6888  139.2609  155.1941 C   0  0  2  0  0  0  0  0  0  0  0  0
  149.8793  137.9847  154.9081 C   0  0  0  0  0  0  0  0  0  0  0  0
  148.4404  138.2851  154.8546 N   0  0  0  0  0  0  0  0  0  0  0  0
  147.3270  136.9634  154.9671 S   0  0  0  0  0  0  0  0  0  0  0  0
  148.0530  135.7749  155.4406 O   0  0  0  0  0  0  0  0  0  0  0  0
  146.1127  137.4398  155.6463 O   0  0  0  0  0  0  0  0  0  0  0  0
  146.9724  136.7457  153.2924 N   0  0  0  0  0  0  0  0  0  0  0  0
  145.5994  136.4619  152.8764 C   0  0  0  0  0  0  0  0  0  0  0  0
  145.5210  136.3332  151.3508 C   0  0  0  0  0  0  0  0  0  0  0  0
  145.3736  134.8900  150.9119 C   0  0  0  0  0  0  0  0  0  0  0  0
  144.2109  134.4495  150.2468 C   0  0  0  0  0  0  0  0  0  0  0  0
  144.1193  133.0969  149.8658 C   0  0  0  0  0  0  0  0  0  0  0  0
  145.1967  132.2401  150.1682 C   0  0  0  0  0  0  0  0  0  0  0  0
  146.3143  132.6508  150.8057 N   0  0  0  0  0  0  0  0  0  0  0  0
  146.3944  133.9495  151.1670 C   0  0  0  0  0  0  0  0  0  0  0  0
  148.1127  139.3757  153.9250 C   0  0  0  0  0  0  0  0  0  0  0  0
  148.9840  140.6183  154.1925 C   0  0  1  0  0  0  0  0  0  0  0  0
  148.5464  141.4095  155.4387 C   0  0  0  0  0  0  0  0  0  0  0  0
  150.3646  140.2639  154.2375 O   0  0  0  0  0  0  0  0  0  0  0  0
  152.5067  138.2542  155.8453 H   0  0  0  0  0  0  0  0  0  0  0  0
  152.7554  139.9218  155.3363 H   0  0  0  0  0  0  0  0  0  0  0  0
  152.4943  138.6644  154.1306 H   0  0  0  0  0  0  0  0  0  0  0  0
  150.4583  139.6195  156.1976 H   0  0  0  0  0  0  0  0  0  0  0  0
  150.1819  137.5446  153.9568 H   0  0  0  0  0  0  0  0  0  0  0  0
  150.0793  137.2412  155.6794 H   0  0  0  0  0  0  0  0  0  0  0  0
  147.6787  136.1955  152.8043 H   0  0  0  0  0  0  0  0  0  0  0  0
  145.2643  135.5373  153.3475 H   0  0  0  0  0  0  0  0  0  0  0  0
  144.9458  137.2608  153.2284 H   0  0  0  0  0  0  0  0  0  0  0  0
  144.6792  136.9121  150.9677 H   0  0  0  0  0  0  0  0  0  0  0  0
  146.4181  136.7511  150.8921 H   0  0  0  0  0  0  0  0  0  0  0  0
  143.4023  135.1334  150.0336 H   0  0  0  0  0  0  0  0  0  0  0  0
  143.2437  132.7242  149.3550 H   0  0  0  0  0  0  0  0  0  0  0  0
  145.1597  131.1970  149.8908 H   0  0  0  0  0  0  0  0  0  0  0  0
  147.2988  134.2462  151.6778 H   0  0  0  0  0  0  0  0  0  0  0  0
  148.2727  139.0208  152.9062 H   0  0  0  0  0  0  0  0  0  0  0  0
  147.0570  139.6346  154.0064 H   0  0  0  0  0  0  0  0  0  0  0  0
  148.8733  141.2892  153.3403 H   0  0  0  0  0  0  0  0  0  0  0  0
  147.5350  141.7968  155.3140 H   0  0  0  0  0  0  0  0  0  0  0  0
  149.2059  142.2603  155.6111 H   0  0  0  0  0  0  0  0  0  0  0  0
  148.5463  140.7962  156.3395 H   0  0  0  0  0  0  0  0  0  0  0  0
  1  2  1  0  0  0  0
  1 21  1  0  0  0  0
  1 22  1  0  0  0  0
  1 23  1  0  0  0  0
  2 20  1  0  0  0  0
  2  3  1  0  0  0  0
  2 24  1  0  0  0  0
  3  4  1  0  0  0  0
  3 25  1  0  0  0  0
  3 26  1  0  0  0  0
  4  5  1  0  0  0  0
  4 17  1  0  0  0  0
  5  6  2  0  0  0  0
  5  7  2  0  0  0  0
  5  8  1  0  0  0  0
  8  9  1  0  0  0  0
  8 27  1  0  0  0  0
  9 10  1  0  0  0  0
  9 28  1  0  0  0  0
  9 29  1  0  0  0  0
 10 11  1  0  0  0  0
 10 30  1  0  0  0  0
 10 31  1  0  0  0  0
 11 16  1  0  0  0  0
 11 12  2  0  0  0  0
 12 13  1  0  0  0  0
 12 32  1  0  0  0  0
 13 14  2  0  0  0  0
 13 33  1  0  0  0  0
 14 15  1  0  0  0  0
 14 34  1  0  0  0  0
 15 16  2  0  0  0  0
 16 35  1  0  0  0  0
 17 18  1  0  0  0  0
 17 36  1  0  0  0  0
 17 37  1  0  0  0  0
 18 19  1  0  0  0  0
 18 20  1  0  0  0  0
 18 38  1  0  0  0  0
 19 39  1  0  0  0  0
 19 40  1  0  0  0  0
 19 41  1  0  0  0  0
M  END
> <s_m_source_file>
AV-unprocessed.smi

> <i_m_source_file_index>
1165

> <i_lp_mmshare_version>
43012

> <i_f3d_flags>
0

> <s_epik_input>
W0NIM11bQ0BASF0xW0NIMl1OKFtDSDJdW0NASF0oTzEpW0NIM10pUyg9TykoPU8pW05IXVtDSDJdW0NIMl1jMltjSF1bY0hdW2NIXW5bY0hdMg==

> <s_epik_cmdline>
J2VwaWtfcHl0aG9uJywgJy1waCcsICc3LjAnLCAnLXRuJywgJzgnLCAnLW1hJywgJzIwMCcsICctbWV0YWxfYmluZGluZycsICctaW1hZScsICc8aW5maWxlLm1hZT4nLCAnLW9tYWUnLCAnPG91dGZpbGUubWFlPic=

> <r_epik_Ionization_Penalty>
0.0861056

> <r_epik_Ionization_Penalty_Charging>
0

> <r_epik_Ionization_Penalty_Neutral>
0.0861056

> <r_epik_State_Penalty>
0.0574425

> <r_epik_Charging_Adjusted_Penalty>
0.0574425

> <i_epik_Tot_Q>
0

> <i_epik_Tot_abs_Q>
0

> <r_epik_Metal_State_Penalty>
0.317425

> <b_epik_Metal_Only>
0

> <s_lp_Force_Field>
OPLS_2005

> <r_lp_Energy>
8.25328

> <b_lp_Chiralities_Consistent>
1

> <s_lp_Variant>
AV-unprocessed.smi:1165-1

> <Gold.Version>
5.8.1

> <Gold.Id.Protein>
6NUR|6NUR_protein|mol2

> <Gold.PLP.Fitness>
39.7427

> <Gold.PLP.PLP>
-33.0934

> <Gold.PLP.part.hbond>
-1.6460

> <Gold.PLP.part.metal>
0.0000

> <Gold.PLP.part.buried>
-4.5597

> <Gold.PLP.part.nonpolar>
-28.0833

> <Gold.PLP.part.repulsive>
0.5928

> <Gold.PLP.ligand.clash>
0.0000

> <Gold.PLP.ligand.torsion>
1.4924

> <Gold.PLP.Chemscore.Hbond>
1.9280

> <Gold.PLP.Chemscore.CHOScore>
0.9922

> <Gold.PLP.Chemscore.Metal>
0.0000

> <Gold.Chemscore.Hbonds>
donor molecule, donor type, donor heavy atom, donor atom, acceptor molecule, acceptor atom, score
      L1  H     8    27       P1  7948  0.93
      P1  H  7989  7998       L1    20  1.00
      L1  C    16    35       P1  7948  0.99

> <Gold.PLP.Chemscore.Internal.Correction>
0.8734

> <Gold.Rescore>
     Score         DG    S(hbond)    S(metal)    S(lipo)     H(rot)  DE(clash)    DE(int)     intcor
     15.86     -17.37       1.86        0.00      85.92       1.71       0.03       1.48       ----

> <Gold.Chemscore.Fitness>
15.8557

> <Gold.Chemscore.DG>
-17.3660

> <Gold.Chemscore.ZeroCoef>
-5.4800

> <Gold.Chemscore.Hbond>
1.8566

> <Gold.Chemscore.Metal>
0.0000

> <Gold.Chemscore.Lipo>
85.9167

> <Gold.Chemscore.Internal_Hbond>
0.0000

> <Gold.Chemscore.DEClash>
0.0346

> <Gold.Chemscore.DEInternal>
1.4757

> <Gold.Chemscore.Rot>
1.7060

> <Gold.Chemscore.Internal.Correction>
   9.000000E+99

> <Gold.Chemscore.Hbonds>
donor molecule, donor type, donor heavy atom, donor atom, acceptor molecule, acceptor atom, score
      L1  H     8    27       P1  7948  0.89
      P1  H  7989  7998       L1    20  0.85

> <Gold.Chemscore.Hbond.Weighted>
-6.2012

> <Gold.Chemscore.Metal.Weighted>
-0.0000

> <Gold.Chemscore.Lipo.Weighted>
-10.0522

> <Gold.Chemscore.Internal_Hbond.Weighted>
0.0000

> <Gold.Chemscore.DEClash.Weighted>
0.0346

> <Gold.Chemscore.DEInternal.Weighted>
1.4757

> <Gold.Chemscore.Rot.Weighted>
4.3674

> <Gold.Chemscore.Internal.Correction.Weighted>
   9.000000E+99

> <Gold.Protein.RotatedTorsions>
[ 6907 6896 6895 6894 ] final -176.96 input  -60.11 | X-H torsion
[ 7974 7965 7964 7962 ] final -163.73 input  175.53 | X-H torsion
[ 8008 7997 7996 7995 ] final   11.22 input   59.86 | X-H torsion
[ 10167 10162 10161 10158 ] final -156.27 input  -65.29 | X-H torsion
[ 10718 10713 10712 10709 ] final -165.78 input   66.30 | X-H torsion
[ 10763 10752 10751 10750 ] final   80.32 input  -60.55 | X-H torsion
[ 11005 11000 10999 10996 ] final   69.90 input  -57.11 | X-H torsion

> <Gold.Protein.ActiveResidues>
 VAL166  LYS551  ARG553  GLY616  TRP617  ASP618  TYR619  PRO620  LYS621  CYS622 
 ASP623  PHE694  ASN695  SER759  ASP760  ASP761  ALA762  ILE779  LEU786  VAL792 
 PHE793  MET794  SER795  GLU796  ALA797  LYS798  CYS799  TRP800  GLU811  SER814 

> <Gold.Protein.RotatedAtoms>
  151.6132  133.3345  159.3071 H   0  0  0  0  0  0  0  0  0  0  0  0  # atno 6907 bound_to 6896
  150.8145  134.7323  159.6729 H   0  0  0  0  0  0  0  0  0  0  0  0  # atno 6908 bound_to 6896
  152.4241  134.5906  160.0024 H   0  0  0  0  0  0  0  0  0  0  0  0  # atno 6909 bound_to 6896
  144.7317  140.3065  143.6195 H   0  0  0  0  0  0  0  0  0  0  0  0  # atno 7974 bound_to 7965
  154.8040  140.2857  155.5901 H   0  0  0  0  0  0  0  0  0  0  0  0  # atno 8008 bound_to 7997
  156.2980  140.2581  156.2844 H   0  0  0  0  0  0  0  0  0  0  0  0  # atno 8009 bound_to 7997
  154.9525  140.0379  157.2140 H   0  0  0  0  0  0  0  0  0  0  0  0  # atno 8010 bound_to 7997
  139.6864  143.9494  152.2363 H   0  0  0  0  0  0  0  0  0  0  0  0  # atno 10167 bound_to 10162
  156.6584  130.9036  151.3025 H   0  0  0  0  0  0  0  0  0  0  0  0  # atno 10718 bound_to 10713
  153.1024  135.4807  154.8890 H   0  0  0  0  0  0  0  0  0  0  0  0  # atno 10763 bound_to 10752
  154.7393  135.3078  154.8759 H   0  0  0  0  0  0  0  0  0  0  0  0  # atno 10764 bound_to 10752
  153.9372  135.6838  153.4798 H   0  0  0  0  0  0  0  0  0  0  0  0  # atno 10765 bound_to 10752
  139.9628  134.7032  156.0610 H   0  0  0  0  0  0  0  0  0  0  0  0  # atno 11005 bound_to 11000
  145.7708  139.1856  143.2213 LP  0  0  0  0  0  0  0  0  0  0  0  0  # atno 17320 bound_to 7965
  146.0912  140.7653  142.9594 LP  0  0  0  0  0  0  0  0  0  0  0  0  # atno 17321 bound_to 7965
  139.9298  144.6748  150.8374 LP  0  0  0  0  0  0  0  0  0  0  0  0  # atno 17342 bound_to 10162
  140.7669  143.3316  151.2397 LP  0  0  0  0  0  0  0  0  0  0  0  0  # atno 17343 bound_to 10162
  157.7118  130.9449  150.1114 LP  0  0  0  0  0  0  0  0  0  0  0  0  # atno 17370 bound_to 10713
  156.2030  130.3661  149.8765 LP  0  0  0  0  0  0  0  0  0  0  0  0  # atno 17371 bound_to 10713
  141.1306  133.6587  156.3454 LP  0  0  0  0  0  0  0  0  0  0  0  0  # atno 17394 bound_to 11000
  140.5463  134.6071  157.5395 LP  0  0  0  0  0  0  0  0  0  0  0  0  # atno 17395 bound_to 11000

$$$$
