AV-unprocessed.smi:1141|AV-procd|sdf|4872|dock10
  -GOLD-   22720 3443D 1   1.00000     0.00000
 Structure written by MMmdl.
 45 46  0  0  0  0  0  0  0  0  1 V2000
  154.3838  136.5289  159.8957 C   0  0  0  0  0  0  0  0  0  0  0  0
  153.3464  136.8800  158.9977 O   0  0  0  0  0  0  0  0  0  0  0  0
  153.8068  137.0062  157.6606 C   0  0  0  0  0  0  0  0  0  0  0  0
  152.6520  137.4571  156.7663 C   0  0  0  0  0  0  0  0  0  0  0  0
  152.0237  136.6181  156.1219 O   0  0  0  0  0  0  0  0  0  0  0  0
  152.4265  138.7827  156.7187 N   0  0  0  0  0  0  0  0  0  0  0  0
  151.4544  139.4897  155.9553 C   0  0  0  0  0  0  0  0  0  0  0  0
  150.7016  138.8729  154.9276 C   0  0  0  0  0  0  0  0  0  0  0  0
  149.7244  139.6211  154.2471 C   0  0  0  0  0  0  0  0  0  0  0  0
  149.5183  140.9618  154.6191 C   0  0  0  0  0  0  0  0  0  0  0  0
  148.5592  141.6954  153.9514 O   0  0  0  0  0  0  0  0  0  0  0  0
  147.4306  141.0071  153.4232 C   0  0  0  0  0  0  0  0  0  0  0  0
  150.2234  141.5558  155.6112 N   0  0  0  0  0  0  0  0  0  0  0  0
  151.1683  140.8444  156.2716 C   0  0  0  0  0  0  0  0  0  0  0  0
  151.8846  141.5116  157.2853 N   0  0  0  0  0  0  0  0  0  0  0  0
  151.8391  142.9702  157.1769 C   0  0  0  0  0  0  0  0  0  0  0  0
  152.8366  143.6203  158.1545 C   0  0  0  0  0  0  0  0  0  0  0  0
  152.5695  143.1231  159.5106 N   0  0  0  0  0  0  0  0  0  0  0  0
  152.0895  143.9111  160.5020 C   0  0  0  0  0  0  0  0  0  0  0  0
  151.8873  145.4050  160.2390 C   0  0  0  0  0  0  0  0  0  0  0  0
  151.8077  143.4771  161.6189 O   0  0  0  0  0  0  0  0  0  0  0  0
  152.7587  141.6679  159.5906 C   0  0  0  0  0  0  0  0  0  0  0  0
  151.7541  140.9832  158.6451 C   0  0  0  0  0  0  0  0  0  0  0  0
  153.9809  136.4420  160.9047 H   0  0  0  0  0  0  0  0  0  0  0  0
  155.1666  137.2885  159.9098 H   0  0  0  0  0  0  0  0  0  0  0  0
  154.8303  135.5705  159.6270 H   0  0  0  0  0  0  0  0  0  0  0  0
  154.6098  137.7426  157.6007 H   0  0  0  0  0  0  0  0  0  0  0  0
  154.1986  136.0521  157.3030 H   0  0  0  0  0  0  0  0  0  0  0  0
  153.0830  139.3595  157.2252 H   0  0  0  0  0  0  0  0  0  0  0  0
  150.8423  137.8364  154.6630 H   0  0  0  0  0  0  0  0  0  0  0  0
  149.1384  139.1712  153.4593 H   0  0  0  0  0  0  0  0  0  0  0  0
  146.7708  141.7207  152.9299 H   0  0  0  0  0  0  0  0  0  0  0  0
  146.8577  140.5177  154.2124 H   0  0  0  0  0  0  0  0  0  0  0  0
  147.7268  140.2632  152.6821 H   0  0  0  0  0  0  0  0  0  0  0  0
  152.0619  143.2911  156.1593 H   0  0  0  0  0  0  0  0  0  0  0  0
  150.8261  143.3092  157.3986 H   0  0  0  0  0  0  0  0  0  0  0  0
  153.8588  143.3629  157.8726 H   0  0  0  0  0  0  0  0  0  0  0  0
  152.7704  144.7063  158.0789 H   0  0  0  0  0  0  0  0  0  0  0  0
  152.8292  145.8799  159.9629 H   0  0  0  0  0  0  0  0  0  0  0  0
  151.5129  145.9052  161.1330 H   0  0  0  0  0  0  0  0  0  0  0  0
  151.1613  145.5628  159.4410 H   0  0  0  0  0  0  0  0  0  0  0  0
  153.7784  141.4259  159.2871 H   0  0  0  0  0  0  0  0  0  0  0  0
  152.6499  141.2643  160.5960 H   0  0  0  0  0  0  0  0  0  0  0  0
  150.7382  141.1473  159.0079 H   0  0  0  0  0  0  0  0  0  0  0  0
  151.9256  139.9062  158.6374 H   0  0  0  0  0  0  0  0  0  0  0  0
  1  2  1  0  0  0  0
  1 24  1  0  0  0  0
  1 25  1  0  0  0  0
  1 26  1  0  0  0  0
  2  3  1  0  0  0  0
  3  4  1  0  0  0  0
  3 27  1  0  0  0  0
  3 28  1  0  0  0  0
  4  5  2  0  0  0  0
  4  6  1  0  0  0  0
  6  7  1  0  0  0  0
  6 29  1  0  0  0  0
  7 14  1  0  0  0  0
  7  8  2  0  0  0  0
  8  9  1  0  0  0  0
  8 30  1  0  0  0  0
  9 10  2  0  0  0  0
  9 31  1  0  0  0  0
 10 11  1  0  0  0  0
 10 13  1  0  0  0  0
 11 12  1  0  0  0  0
 12 32  1  0  0  0  0
 12 33  1  0  0  0  0
 12 34  1  0  0  0  0
 13 14  2  0  0  0  0
 14 15  1  0  0  0  0
 15 23  1  0  0  0  0
 15 16  1  0  0  0  0
 16 17  1  0  0  0  0
 16 35  1  0  0  0  0
 16 36  1  0  0  0  0
 17 18  1  0  0  0  0
 17 37  1  0  0  0  0
 17 38  1  0  0  0  0
 18 19  1  0  0  0  0
 18 22  1  0  0  0  0
 19 20  1  0  0  0  0
 19 21  2  0  0  0  0
 20 39  1  0  0  0  0
 20 40  1  0  0  0  0
 20 41  1  0  0  0  0
 22 23  1  0  0  0  0
 22 42  1  0  0  0  0
 22 43  1  0  0  0  0
 23 44  1  0  0  0  0
 23 45  1  0  0  0  0
M  END
> <s_m_source_file>
AV-unprocessed.smi

> <i_m_source_file_index>
1141

> <i_lp_mmshare_version>
43012

> <i_f3d_flags>
0

> <s_epik_input>
W0NIM11PW0NIMl1DKD1PKVtOSF1jMVtjSF1bY0hdYyhPW0NIM10pbmMxTjJbQ0gyXVtDSDJdTihDKD1PKVtDSDNdKVtDSDJdW0NIMl0y

> <s_epik_cmdline>
J2VwaWtfcHl0aG9uJywgJy1waCcsICc3LjAnLCAnLXRuJywgJzgnLCAnLW1hJywgJzIwMCcsICctbWV0YWxfYmluZGluZycsICctaW1hZScsICc8aW5maWxlLm1hZT4nLCAnLW9tYWUnLCAnPG91dGZpbGUubWFlPic=

> <r_lp_tautomer_probability>
1

> <r_epik_Ionization_Penalty>
0.000141552

> <r_epik_Ionization_Penalty_Charging>
0

> <r_epik_Ionization_Penalty_Neutral>
0.000141552

> <r_epik_State_Penalty>
-0

> <r_epik_Charging_Adjusted_Penalty>
0

> <i_epik_Tot_Q>
0

> <i_epik_Tot_abs_Q>
0

> <r_epik_Metal_State_Penalty>
-0

> <b_epik_Metal_Only>
0

> <s_lp_Force_Field>
OPLS_2005

> <r_lp_Energy>
39.8062

> <b_lp_Chiralities_Consistent>
1

> <s_lp_Variant>
AV-unprocessed.smi:1141-1

> <Gold.Version>
5.8.1

> <Gold.Id.Protein>
6NUR|6NUR_protein|mol2

> <Gold.PLP.Fitness>
43.5374

> <Gold.PLP.PLP>
-39.8807

> <Gold.PLP.part.hbond>
-3.0000

> <Gold.PLP.part.metal>
0.0000

> <Gold.PLP.part.buried>
-3.6064

> <Gold.PLP.part.nonpolar>
-34.7072

> <Gold.PLP.part.repulsive>
1.5049

> <Gold.PLP.ligand.clash>
0.0000

> <Gold.PLP.ligand.torsion>
1.0527

> <Gold.PLP.Chemscore.Hbond>
1.7891

> <Gold.PLP.Chemscore.CHOScore>
0.0000

> <Gold.PLP.Chemscore.Metal>
0.0000

> <Gold.Chemscore.Hbonds>
donor molecule, donor type, donor heavy atom, donor atom, acceptor molecule, acceptor atom, score
      P1  H  8011  8017       L1    11  0.38
      P1  H 10752 10765       L1     5  0.94

> <Gold.PLP.Chemscore.Internal.Correction>
0.3946

> <Gold.Rescore>
     Score         DG    S(hbond)    S(metal)    S(lipo)     H(rot)  DE(clash)    DE(int)     intcor
     12.89     -16.48       1.66        0.00      84.96       1.75       0.17       3.42       ----

> <Gold.Chemscore.Fitness>
12.8882

> <Gold.Chemscore.DG>
-16.4763

> <Gold.Chemscore.ZeroCoef>
-5.4800

> <Gold.Chemscore.Hbond>
1.6600

> <Gold.Chemscore.Metal>
0.0000

> <Gold.Chemscore.Lipo>
84.9634

> <Gold.Chemscore.Internal_Hbond>
0.0000

> <Gold.Chemscore.DEClash>
0.1667

> <Gold.Chemscore.DEInternal>
3.4215

> <Gold.Chemscore.Rot>
1.7535

> <Gold.Chemscore.Internal.Correction>
   9.000000E+99

> <Gold.Chemscore.Hbonds>
donor molecule, donor type, donor heavy atom, donor atom, acceptor molecule, acceptor atom, score
      P1  H  8011  8017       L1    11  0.06
      P1  H 10752 10765       L1     5  0.85

> <Gold.Chemscore.Hbond.Weighted>
-5.5446

> <Gold.Chemscore.Metal.Weighted>
-0.0000

> <Gold.Chemscore.Lipo.Weighted>
-9.9407

> <Gold.Chemscore.Internal_Hbond.Weighted>
0.0000

> <Gold.Chemscore.DEClash.Weighted>
0.1667

> <Gold.Chemscore.DEInternal.Weighted>
3.4215

> <Gold.Chemscore.Rot.Weighted>
4.4890

> <Gold.Chemscore.Internal.Correction.Weighted>
   9.000000E+99

> <Gold.Protein.RotatedTorsions>
[ 6907 6896 6895 6894 ] final -171.62 input  -60.11 | X-H torsion
[ 7974 7965 7964 7962 ] final  -30.15 input  175.53 | X-H torsion
[ 8008 7997 7996 7995 ] final  168.02 input   59.86 | X-H torsion
[ 10167 10162 10161 10158 ] final   41.37 input  -65.29 | X-H torsion
[ 10718 10713 10712 10709 ] final  116.73 input   66.30 | X-H torsion
[ 10763 10752 10751 10750 ] final -174.42 input  -60.55 | X-H torsion
[ 11005 11000 10999 10996 ] final   73.03 input  -57.11 | X-H torsion

> <Gold.Protein.ActiveResidues>
 VAL166  LYS551  ARG553  GLY616  TRP617  ASP618  TYR619  PRO620  LYS621  CYS622 
 ASP623  PHE694  ASN695  SER759  ASP760  ASP761  ALA762  ILE779  LEU786  VAL792 
 PHE793  MET794  SER795  GLU796  ALA797  LYS798  CYS799  TRP800  GLU811  SER814 

> <Gold.Protein.RotatedAtoms>
  151.5268  133.3456  159.2910 H   0  0  0  0  0  0  0  0  0  0  0  0  # atno 6907 bound_to 6896
  150.8618  134.7974  159.7099 H   0  0  0  0  0  0  0  0  0  0  0  0  # atno 6908 bound_to 6896
  152.4635  134.5138  159.9813 H   0  0  0  0  0  0  0  0  0  0  0  0  # atno 6909 bound_to 6896
  146.1164  140.5504  142.8755 H   0  0  0  0  0  0  0  0  0  0  0  0  # atno 7974 bound_to 7965
  156.1584  140.1601  156.8654 H   0  0  0  0  0  0  0  0  0  0  0  0  # atno 8008 bound_to 7997
  154.5136  140.0795  156.8075 H   0  0  0  0  0  0  0  0  0  0  0  0  # atno 8009 bound_to 7997
  155.3758  140.3402  155.4247 H   0  0  0  0  0  0  0  0  0  0  0  0  # atno 8010 bound_to 7997
  140.3649  144.2180  150.6136 H   0  0  0  0  0  0  0  0  0  0  0  0  # atno 10167 bound_to 10162
  157.6142  131.1029  150.7515 H   0  0  0  0  0  0  0  0  0  0  0  0  # atno 10718 bound_to 10713
  154.5964  135.2850  155.0582 H   0  0  0  0  0  0  0  0  0  0  0  0  # atno 10763 bound_to 10752
  154.1863  135.6448  153.5051 H   0  0  0  0  0  0  0  0  0  0  0  0  # atno 10764 bound_to 10752
  153.0140  135.5435  154.6667 H   0  0  0  0  0  0  0  0  0  0  0  0  # atno 10765 bound_to 10752
  139.9460  134.7311  156.0977 H   0  0  0  0  0  0  0  0  0  0  0  0  # atno 11005 bound_to 11000
  144.7557  140.5300  143.6771 LP  0  0  0  0  0  0  0  0  0  0  0  0  # atno 17320 bound_to 7965
  145.5558  139.1478  143.3369 LP  0  0  0  0  0  0  0  0  0  0  0  0  # atno 17321 bound_to 7965
  140.5090  143.2296  151.8564 LP  0  0  0  0  0  0  0  0  0  0  0  0  # atno 17342 bound_to 10162
  139.4810  144.4972  151.9109 LP  0  0  0  0  0  0  0  0  0  0  0  0  # atno 17343 bound_to 10162
  156.7886  130.4882  149.5388 LP  0  0  0  0  0  0  0  0  0  0  0  0  # atno 17370 bound_to 10713
  156.1256  130.6141  151.0259 LP  0  0  0  0  0  0  0  0  0  0  0  0  # atno 17371 bound_to 10713
  141.1111  133.6643  156.2981 LP  0  0  0  0  0  0  0  0  0  0  0  0  # atno 17394 bound_to 11000
  140.5832  134.5724  157.5484 LP  0  0  0  0  0  0  0  0  0  0  0  0  # atno 17395 bound_to 11000

$$$$
