AV-unprocessed.smi:2899|AV-procd|sdf|11145|dock4
  -GOLD-   2272016 23D 1   1.00000     0.00000
 Structure written by MMmdl.
 30 32  0  0  0  0  0  0  0  0  1 V2000
  153.3115  141.4811  160.1902 C   0  0  0  0  0  0  0  0  0  0  0  0
  152.7115  142.5058  159.2514 C   0  0  0  0  0  0  0  0  0  0  0  0
  153.0707  143.8681  159.3162 C   0  0  0  0  0  0  0  0  0  0  0  0
  152.4410  144.7209  158.3871 C   0  0  0  0  0  0  0  0  0  0  0  0
  151.5441  144.2573  157.4891 N   0  0  0  0  0  0  0  0  0  0  0  0
  151.2767  142.9492  157.5172 C   0  0  0  0  0  0  0  0  0  0  0  0
  150.3525  142.5125  156.5860 N   0  0  0  0  0  0  0  0  0  0  0  0
  149.9621  141.1202  156.3954 C   0  0  2  0  0  0  0  0  0  0  0  0
  150.4398  140.5373  155.0635 C   0  0  0  0  0  0  0  0  0  0  0  0
  149.1322  139.9886  154.4739 C   0  0  2  0  0  0  0  0  0  0  0  0
  148.2359  141.1166  153.9467 C   0  0  0  0  0  0  0  0  0  0  0  0
  147.7397  141.7504  155.2449 C   0  0  0  0  0  0  0  0  0  0  0  0
  148.4406  140.8886  156.3091 C   0  0  1  0  0  0  0  0  0  0  0  0
  148.4302  139.6316  155.6533 O   0  0  0  0  0  0  0  0  0  0  0  0
  151.8143  142.0497  158.3502 N   0  0  0  0  0  0  0  0  0  0  0  0
  154.0622  141.9330  160.8390 H   0  0  0  0  0  0  0  0  0  0  0  0
  153.7883  140.6808  159.6237 H   0  0  0  0  0  0  0  0  0  0  0  0
  152.5357  141.0432  160.8189 H   0  0  0  0  0  0  0  0  0  0  0  0
  153.7865  144.2410  160.0338 H   0  0  0  0  0  0  0  0  0  0  0  0
  152.6574  145.7787  158.3640 H   0  0  0  0  0  0  0  0  0  0  0  0
  149.8386  143.2216  156.0839 H   0  0  0  0  0  0  0  0  0  0  0  0
  150.3746  140.5208  157.2082 H   0  0  0  0  0  0  0  0  0  0  0  0
  150.9083  141.2696  154.4042 H   0  0  0  0  0  0  0  0  0  0  0  0
  151.1564  139.7340  155.2387 H   0  0  0  0  0  0  0  0  0  0  0  0
  149.2735  139.1698  153.7680 H   0  0  0  0  0  0  0  0  0  0  0  0
  148.7796  141.8180  153.3129 H   0  0  0  0  0  0  0  0  0  0  0  0
  147.3996  140.7143  153.3739 H   0  0  0  0  0  0  0  0  0  0  0  0
  147.9838  142.8100  155.3233 H   0  0  0  0  0  0  0  0  0  0  0  0
  146.6569  141.6493  155.3248 H   0  0  0  0  0  0  0  0  0  0  0  0
  147.9369  140.8876  157.2761 H   0  0  0  0  0  0  0  0  0  0  0  0
  1  2  1  0  0  0  0
  1 16  1  0  0  0  0
  1 17  1  0  0  0  0
  1 18  1  0  0  0  0
  2 15  1  0  0  0  0
  2  3  2  0  0  0  0
  3  4  1  0  0  0  0
  3 19  1  0  0  0  0
  4  5  2  0  0  0  0
  4 20  1  0  0  0  0
  5  6  1  0  0  0  0
  6  7  1  0  0  0  0
  6 15  2  0  0  0  0
  7  8  1  0  0  0  0
  7 21  1  0  0  0  0
  8 13  1  0  0  0  0
  8  9  1  0  0  0  0
  8 22  1  0  0  0  0
  9 10  1  0  0  0  0
  9 23  1  0  0  0  0
  9 24  1  0  0  0  0
 10 14  1  0  0  0  0
 10 11  1  0  0  0  0
 10 25  1  0  0  0  0
 11 12  1  0  0  0  0
 11 26  1  0  0  0  0
 11 27  1  0  0  0  0
 12 13  1  0  0  0  0
 12 28  1  0  0  0  0
 12 29  1  0  0  0  0
 13 14  1  0  0  0  0
 13 30  1  0  0  0  0
M  END
> <s_m_source_file>
AV-unprocessed.smi

> <i_m_source_file_index>
2899

> <i_lp_mmshare_version>
43012

> <i_f3d_flags>
0

> <s_epik_input>
W0NIM11jMVtjSF1bY0hdbmMobjEpW05IXVtDQEhdKFtDSDJdW0NAQEhdMjMpW0NAQEhdKE8zKVtDSDJdW0NIMl0y

> <s_epik_cmdline>
J2VwaWtfcHl0aG9uJywgJy1waCcsICc3LjAnLCAnLXRuJywgJzgnLCAnLW1hJywgJzIwMCcsICctbWV0YWxfYmluZGluZycsICctaW1hZScsICc8aW5maWxlLm1hZT4nLCAnLW9tYWUnLCAnPG91dGZpbGUubWFlPic=

> <r_lp_tautomer_probability>
1

> <r_epik_Ionization_Penalty>
0.00589655

> <r_epik_Ionization_Penalty_Charging>
0

> <r_epik_Ionization_Penalty_Neutral>
0.00589655

> <r_epik_State_Penalty>
0.00375391

> <r_epik_Charging_Adjusted_Penalty>
0.00375391

> <i_epik_Tot_Q>
0

> <i_epik_Tot_abs_Q>
0

> <r_epik_Metal_State_Penalty>
-0

> <b_epik_Metal_Only>
0

> <s_lp_Force_Field>
OPLS_2005

> <r_lp_Energy>
31.8412

> <b_lp_Chiralities_Consistent>
1

> <s_lp_Variant>
AV-unprocessed.smi:2899-3

> <Gold.Version>
5.8.1

> <Gold.Id.Protein>
6NUR|6NUR_protein|mol2

> <Gold.PLP.Fitness>
35.4145

> <Gold.PLP.PLP>
-32.6304

> <Gold.PLP.part.hbond>
-1.0000

> <Gold.PLP.part.metal>
0.0000

> <Gold.PLP.part.buried>
-2.0028

> <Gold.PLP.part.nonpolar>
-29.6205

> <Gold.PLP.part.repulsive>
0.2264

> <Gold.PLP.ligand.clash>
0.0000

> <Gold.PLP.ligand.torsion>
0.1123

> <Gold.PLP.Chemscore.Hbond>
1.0000

> <Gold.PLP.Chemscore.CHOScore>
0.0000

> <Gold.PLP.Chemscore.Metal>
0.0000

> <Gold.Chemscore.Hbonds>
donor molecule, donor type, donor heavy atom, donor atom, acceptor molecule, acceptor atom, score
      L1  H     7    21       P1  8028  1.00

> <Gold.PLP.Chemscore.Internal.Correction>
0.0086

> <Gold.Rescore>
     Score         DG    S(hbond)    S(metal)    S(lipo)     H(rot)  DE(clash)    DE(int)     intcor
     15.86     -16.31       0.99        0.00      86.10       1.00       0.33       0.12       ----

> <Gold.Chemscore.Fitness>
15.8619

> <Gold.Chemscore.DG>
-16.3118

> <Gold.Chemscore.ZeroCoef>
-5.4800

> <Gold.Chemscore.Hbond>
0.9936

> <Gold.Chemscore.Metal>
0.0000

> <Gold.Chemscore.Lipo>
86.0963

> <Gold.Chemscore.Internal_Hbond>
0.0000

> <Gold.Chemscore.DEClash>
0.3293

> <Gold.Chemscore.DEInternal>
0.1206

> <Gold.Chemscore.Rot>
1.0000

> <Gold.Chemscore.Internal.Correction>
   9.000000E+99

> <Gold.Chemscore.Hbonds>
donor molecule, donor type, donor heavy atom, donor atom, acceptor molecule, acceptor atom, score
      L1  H     7    21       P1  8028  1.00

> <Gold.Chemscore.Hbond.Weighted>
-3.3185

> <Gold.Chemscore.Metal.Weighted>
-0.0000

> <Gold.Chemscore.Lipo.Weighted>
-10.0733

> <Gold.Chemscore.Internal_Hbond.Weighted>
0.0000

> <Gold.Chemscore.DEClash.Weighted>
0.3293

> <Gold.Chemscore.DEInternal.Weighted>
0.1206

> <Gold.Chemscore.Rot.Weighted>
2.5600

> <Gold.Chemscore.Internal.Correction.Weighted>
   9.000000E+99

> <Gold.Protein.RotatedTorsions>
[ 6907 6896 6895 6894 ] final  -56.79 input  -60.11 | X-H torsion
[ 7974 7965 7964 7962 ] final  156.52 input  175.53 | X-H torsion
[ 8008 7997 7996 7995 ] final  -15.74 input   59.86 | X-H torsion
[ 10167 10162 10161 10158 ] final -123.31 input  -65.29 | X-H torsion
[ 10718 10713 10712 10709 ] final  157.01 input   66.30 | X-H torsion
[ 10763 10752 10751 10750 ] final -173.43 input  -60.55 | X-H torsion
[ 11005 11000 10999 10996 ] final  174.65 input  -57.11 | X-H torsion

> <Gold.Protein.ActiveResidues>
 VAL166  LYS551  ARG553  GLY616  TRP617  ASP618  TYR619  PRO620  LYS621  CYS622 
 ASP623  PHE694  ASN695  SER759  ASP760  ASP761  ALA762  ILE779  LEU786  VAL792 
 PHE793  MET794  SER795  GLU796  ALA797  LYS798  CYS799  TRP800  GLU811  SER814 

> <Gold.Protein.RotatedAtoms>
  150.8138  134.7309  159.6711 H   0  0  0  0  0  0  0  0  0  0  0  0  # atno 6907 bound_to 6896
  152.4258  134.5868  159.9973 H   0  0  0  0  0  0  0  0  0  0  0  0  # atno 6908 bound_to 6896
  151.6071  133.3313  159.3095 H   0  0  0  0  0  0  0  0  0  0  0  0  # atno 6909 bound_to 6896
  144.7958  139.7215  143.6202 H   0  0  0  0  0  0  0  0  0  0  0  0  # atno 7974 bound_to 7965
  154.5107  140.2188  155.9162 H   0  0  0  0  0  0  0  0  0  0  0  0  # atno 8008 bound_to 7997
  156.1548  140.3154  155.8674 H   0  0  0  0  0  0  0  0  0  0  0  0  # atno 8009 bound_to 7997
  155.3867  140.0476  157.3032 H   0  0  0  0  0  0  0  0  0  0  0  0  # atno 8010 bound_to 7997
  140.0049  143.5502  152.2288 H   0  0  0  0  0  0  0  0  0  0  0  0  # atno 10167 bound_to 10162
  157.1972  131.0668  151.2046 H   0  0  0  0  0  0  0  0  0  0  0  0  # atno 10718 bound_to 10713
  154.6080  135.2861  155.0463 H   0  0  0  0  0  0  0  0  0  0  0  0  # atno 10763 bound_to 10752
  154.1704  135.6473  153.5012 H   0  0  0  0  0  0  0  0  0  0  0  0  # atno 10764 bound_to 10752
  153.0183  135.5399  154.6823 H   0  0  0  0  0  0  0  0  0  0  0  0  # atno 10765 bound_to 10752
  140.3536  134.7174  157.4284 H   0  0  0  0  0  0  0  0  0  0  0  0  # atno 11005 bound_to 11000
  146.2226  139.5663  142.9608 LP  0  0  0  0  0  0  0  0  0  0  0  0  # atno 17320 bound_to 7965
  145.5677  141.0397  143.2191 LP  0  0  0  0  0  0  0  0  0  0  0  0  # atno 17321 bound_to 7965
  139.6246  144.7635  151.2667 LP  0  0  0  0  0  0  0  0  0  0  0  0  # atno 17342 bound_to 10162
  140.7404  143.6587  150.8183 LP  0  0  0  0  0  0  0  0  0  0  0  0  # atno 17343 bound_to 10162
  157.3803  130.7227  149.6625 LP  0  0  0  0  0  0  0  0  0  0  0  0  # atno 17370 bound_to 10713
  155.9704  130.4174  150.4279 LP  0  0  0  0  0  0  0  0  0  0  0  0  # atno 17371 bound_to 10713
  140.0683  134.5898  155.8670 LP  0  0  0  0  0  0  0  0  0  0  0  0  # atno 17394 bound_to 11000
  141.2005  133.6613  156.5899 LP  0  0  0  0  0  0  0  0  0  0  0  0  # atno 17395 bound_to 11000

$$$$
