AV-unprocessed.smi:2335|AV-procd|sdf|9324|dock6
  -GOLD-   2272012543D 1   1.00000     0.00000
 Structure written by MMmdl.
 42 43  0  0  0  0  0  0  0  0  1 V2000
  153.5040  141.2828  160.5177 C   0  0  0  0  0  0  0  0  0  0  0  0
  153.2768  142.7585  160.1728 C   0  0  0  0  0  0  0  0  0  0  0  0
  151.8292  143.1119  160.0937 C   0  0  0  0  0  0  0  0  0  0  0  0
  151.0662  143.2859  161.1801 N   0  0  0  0  0  0  0  0  0  0  0  0
  149.7629  143.6377  160.8571 N   0  0  0  0  0  0  0  0  0  0  0  0
  149.5854  143.7346  159.5324 C   0  0  0  0  0  0  0  0  0  0  0  0
  148.3505  144.0820  158.9241 N   0  0  0  0  0  0  0  0  0  0  0  0
  147.1988  143.3886  158.9190 C   0  0  0  0  0  0  0  0  0  0  0  0
  147.0176  142.3033  159.4710 O   0  0  0  0  0  0  0  0  0  0  0  0
  146.2516  144.0323  158.2227 N   0  0  0  0  0  0  0  0  0  0  0  0
  144.8936  143.5420  157.9943 C   0  0  1  0  0  0  0  0  0  0  0  0
  144.1431  143.3515  159.2975 C   0  0  0  0  0  0  0  0  0  0  0  0
  142.6734  143.4400  158.8688 C   0  0  0  0  0  0  0  0  0  0  0  0
  142.1028  142.0654  158.4795 C   0  0  0  0  0  0  0  0  0  0  0  0
  141.7969  144.1184  159.9325 C   0  0  0  0  0  0  0  0  0  0  0  0
  142.6686  144.2494  157.6939 O   0  0  0  0  0  0  0  0  0  0  0  0
  143.9884  144.5340  157.2309 C   0  0  0  0  0  0  0  0  0  0  0  0
  144.2546  146.0185  157.5572 C   0  0  0  0  0  0  0  0  0  0  0  0
  144.0167  144.2978  155.7127 C   0  0  0  0  0  0  0  0  0  0  0  0
  151.0096  143.3982  158.5632 S   0  0  0  0  0  0  0  0  0  0  0  0
  154.5688  141.0551  160.5683 H   0  0  0  0  0  0  0  0  0  0  0  0
  153.0587  140.6304  159.7661 H   0  0  0  0  0  0  0  0  0  0  0  0
  153.0627  141.0323  161.4828 H   0  0  0  0  0  0  0  0  0  0  0  0
  153.7503  143.3922  160.9231 H   0  0  0  0  0  0  0  0  0  0  0  0
  153.7516  142.9956  159.2200 H   0  0  0  0  0  0  0  0  0  0  0  0
  148.3452  144.9613  158.4291 H   0  0  0  0  0  0  0  0  0  0  0  0
  146.4890  144.9192  157.8034 H   0  0  0  0  0  0  0  0  0  0  0  0
  144.9191  142.5811  157.4765 H   0  0  0  0  0  0  0  0  0  0  0  0
  144.3894  142.4128  159.7956 H   0  0  0  0  0  0  0  0  0  0  0  0
  144.3850  144.1607  159.9888 H   0  0  0  0  0  0  0  0  0  0  0  0
  142.0955  141.3855  159.3320 H   0  0  0  0  0  0  0  0  0  0  0  0
  142.6889  141.5979  157.6879 H   0  0  0  0  0  0  0  0  0  0  0  0
  141.0781  142.1539  158.1174 H   0  0  0  0  0  0  0  0  0  0  0  0
  141.7918  143.5477  160.8616 H   0  0  0  0  0  0  0  0  0  0  0  0
  140.7649  144.2100  159.5924 H   0  0  0  0  0  0  0  0  0  0  0  0
  142.1561  145.1226  160.1600 H   0  0  0  0  0  0  0  0  0  0  0  0
  145.2321  146.3405  157.1970 H   0  0  0  0  0  0  0  0  0  0  0  0
  144.2150  146.2080  158.6300 H   0  0  0  0  0  0  0  0  0  0  0  0
  143.5097  146.6603  157.0865 H   0  0  0  0  0  0  0  0  0  0  0  0
  145.0019  144.5098  155.2974 H   0  0  0  0  0  0  0  0  0  0  0  0
  143.2979  144.9376  155.2002 H   0  0  0  0  0  0  0  0  0  0  0  0
  143.7680  143.2646  155.4686 H   0  0  0  0  0  0  0  0  0  0  0  0
  1  2  1  0  0  0  0
  1 21  1  0  0  0  0
  1 22  1  0  0  0  0
  1 23  1  0  0  0  0
  2  3  1  0  0  0  0
  2 24  1  0  0  0  0
  2 25  1  0  0  0  0
  3 20  1  0  0  0  0
  3  4  2  0  0  0  0
  4  5  1  0  0  0  0
  5  6  2  0  0  0  0
  6  7  1  0  0  0  0
  6 20  1  0  0  0  0
  7  8  1  0  0  0  0
  7 26  1  0  0  0  0
  8  9  2  0  0  0  0
  8 10  1  0  0  0  0
 10 11  1  0  0  0  0
 10 27  1  0  0  0  0
 11 17  1  0  0  0  0
 11 12  1  0  0  0  0
 11 28  1  0  0  0  0
 12 13  1  0  0  0  0
 12 29  1  0  0  0  0
 12 30  1  0  0  0  0
 13 14  1  0  0  0  0
 13 15  1  0  0  0  0
 13 16  1  0  0  0  0
 14 31  1  0  0  0  0
 14 32  1  0  0  0  0
 14 33  1  0  0  0  0
 15 34  1  0  0  0  0
 15 35  1  0  0  0  0
 15 36  1  0  0  0  0
 16 17  1  0  0  0  0
 17 18  1  0  0  0  0
 17 19  1  0  0  0  0
 18 37  1  0  0  0  0
 18 38  1  0  0  0  0
 18 39  1  0  0  0  0
 19 40  1  0  0  0  0
 19 41  1  0  0  0  0
 19 42  1  0  0  0  0
M  END
> <s_m_source_file>
AV-unprocessed.smi

> <i_m_source_file_index>
2335

> <i_lp_mmshare_version>
43012

> <i_f3d_flags>
0

> <s_epik_input>
W0NIM11bQ0gyXWMxbm5jKHMxKVtOSF1DKD1PKVtOSF1bQ0BASF0oQyhPMikoW0NIM10pW0NIM10pW0NIMl1DMihbQ0gzXSlbQ0gzXQ==

> <s_epik_cmdline>
J2VwaWtfcHl0aG9uJywgJy1waCcsICc3LjAnLCAnLXRuJywgJzgnLCAnLW1hJywgJzIwMCcsICctbWV0YWxfYmluZGluZycsICctaW1hZScsICc8aW5maWxlLm1hZT4nLCAnLW9tYWUnLCAnPG91dGZpbGUubWFlPic=

> <r_lp_tautomer_probability>
1

> <r_epik_Ionization_Penalty>
0.000542824

> <r_epik_Ionization_Penalty_Charging>
0

> <r_epik_Ionization_Penalty_Neutral>
0.000542824

> <r_epik_State_Penalty>
-0

> <r_epik_Charging_Adjusted_Penalty>
0

> <i_epik_Tot_Q>
0

> <i_epik_Tot_abs_Q>
0

> <r_epik_Metal_State_Penalty>
0.227439

> <b_epik_Metal_Only>
0

> <s_lp_Force_Field>
OPLS_2005

> <r_lp_Energy>
12.5908

> <b_lp_Chiralities_Consistent>
1

> <s_lp_Variant>
AV-unprocessed.smi:2335-2

> <Gold.Version>
5.8.1

> <Gold.Id.Protein>
6NUR|6NUR_protein|mol2

> <Gold.PLP.Fitness>
37.4153

> <Gold.PLP.PLP>
-28.3948

> <Gold.PLP.part.hbond>
-5.6568

> <Gold.PLP.part.metal>
0.0000

> <Gold.PLP.part.buried>
-3.7911

> <Gold.PLP.part.nonpolar>
-20.4336

> <Gold.PLP.part.repulsive>
0.5242

> <Gold.PLP.ligand.clash>
0.0000

> <Gold.PLP.ligand.torsion>
0.8260

> <Gold.PLP.Chemscore.Hbond>
3.5521

> <Gold.PLP.Chemscore.CHOScore>
0.0000

> <Gold.PLP.Chemscore.Metal>
0.0000

> <Gold.Chemscore.Hbonds>
donor molecule, donor type, donor heavy atom, donor atom, acceptor molecule, acceptor atom, score
      L1  H     7    26       P1  8029  1.00
      L1  H    10    27       P1  8029  0.90
      P1  H  6933  6944       L1     5  0.11
      P1  H  6934  6946       L1     9  0.80

> <Gold.PLP.Chemscore.Internal.Correction>
0.0162

> <Gold.Rescore>
     Score         DG    S(hbond)    S(metal)    S(lipo)     H(rot)  DE(clash)    DE(int)     intcor
     21.06     -22.06       3.45        0.00      69.73       1.21       0.04       0.97       ----

> <Gold.Chemscore.Fitness>
21.0568

> <Gold.Chemscore.DG>
-22.0587

> <Gold.Chemscore.ZeroCoef>
-5.4800

> <Gold.Chemscore.Hbond>
3.4459

> <Gold.Chemscore.Metal>
0.0000

> <Gold.Chemscore.Lipo>
69.7347

> <Gold.Chemscore.Internal_Hbond>
0.0000

> <Gold.Chemscore.DEClash>
0.0368

> <Gold.Chemscore.DEInternal>
0.9651

> <Gold.Chemscore.Rot>
1.2068

> <Gold.Chemscore.Internal.Correction>
   9.000000E+99

> <Gold.Chemscore.Hbonds>
donor molecule, donor type, donor heavy atom, donor atom, acceptor molecule, acceptor atom, score
      L1  H     7    26       P1  8029  0.92
      L1  H    10    27       P1  8029  0.44
      P1  H  6933  6944       L1     5  0.06
      P1  H  6934  6946       L1     9  0.79

> <Gold.Chemscore.Hbond.Weighted>
-11.5092

> <Gold.Chemscore.Metal.Weighted>
-0.0000

> <Gold.Chemscore.Lipo.Weighted>
-8.1590

> <Gold.Chemscore.Internal_Hbond.Weighted>
0.0000

> <Gold.Chemscore.DEClash.Weighted>
0.0368

> <Gold.Chemscore.DEInternal.Weighted>
0.9651

> <Gold.Chemscore.Rot.Weighted>
3.0895

> <Gold.Chemscore.Internal.Correction.Weighted>
   9.000000E+99

> <Gold.Protein.RotatedTorsions>
[ 6907 6896 6895 6894 ] final   24.45 input  -60.11 | X-H torsion
[ 7974 7965 7964 7962 ] final  176.77 input  175.53 | X-H torsion
[ 8008 7997 7996 7995 ] final -164.92 input   59.86 | X-H torsion
[ 10167 10162 10161 10158 ] final  -24.46 input  -65.29 | X-H torsion
[ 10718 10713 10712 10709 ] final  162.46 input   66.30 | X-H torsion
[ 10763 10752 10751 10750 ] final -155.38 input  -60.55 | X-H torsion
[ 11005 11000 10999 10996 ] final -100.58 input  -57.11 | X-H torsion

> <Gold.Protein.ActiveResidues>
 VAL166  LYS551  ARG553  GLY616  TRP617  ASP618  TYR619  PRO620  LYS621  CYS622 
 ASP623  PHE694  ASN695  SER759  ASP760  ASP761  ALA762  ILE779  LEU786  VAL792 
 PHE793  MET794  SER795  GLU796  ALA797  LYS798  CYS799  TRP800  GLU811  SER814 

> <Gold.Protein.RotatedAtoms>
  151.9577  135.0138  160.0545 H   0  0  0  0  0  0  0  0  0  0  0  0  # atno 6907 bound_to 6896
  152.1896  133.4759  159.5009 H   0  0  0  0  0  0  0  0  0  0  0  0  # atno 6908 bound_to 6896
  150.6932  134.1646  159.4232 H   0  0  0  0  0  0  0  0  0  0  0  0  # atno 6909 bound_to 6896
  144.7179  140.0146  143.6440 H   0  0  0  0  0  0  0  0  0  0  0  0  # atno 7974 bound_to 7965
  155.8424  140.0950  157.1726 H   0  0  0  0  0  0  0  0  0  0  0  0  # atno 8008 bound_to 7997
  154.3982  140.1398  156.3806 H   0  0  0  0  0  0  0  0  0  0  0  0  # atno 8009 bound_to 7997
  155.8050  140.3451  155.5427 H   0  0  0  0  0  0  0  0  0  0  0  0  # atno 8010 bound_to 7997
  140.7288  143.4351  151.0742 H   0  0  0  0  0  0  0  0  0  0  0  0  # atno 10167 bound_to 10162
  157.1223  131.0495  151.2409 H   0  0  0  0  0  0  0  0  0  0  0  0  # atno 10718 bound_to 10713
  154.7791  135.3169  154.8029 H   0  0  0  0  0  0  0  0  0  0  0  0  # atno 10763 bound_to 10752
  153.8745  135.6841  153.4776 H   0  0  0  0  0  0  0  0  0  0  0  0  # atno 10764 bound_to 10752
  153.1422  135.4734  154.9450 H   0  0  0  0  0  0  0  0  0  0  0  0  # atno 10765 bound_to 10752
  141.1265  133.8410  157.1120 H   0  0  0  0  0  0  0  0  0  0  0  0  # atno 11005 bound_to 11000
  146.0230  139.3268  143.0801 LP  0  0  0  0  0  0  0  0  0  0  0  0  # atno 17320 bound_to 7965
  145.8545  140.9510  143.0732 LP  0  0  0  0  0  0  0  0  0  0  0  0  # atno 17321 bound_to 7965
  139.8012  143.8081  152.3163 LP  0  0  0  0  0  0  0  0  0  0  0  0  # atno 17342 bound_to 10162
  139.8098  144.7340  150.9712 LP  0  0  0  0  0  0  0  0  0  0  0  0  # atno 17343 bound_to 10162
  157.4466  130.7574  149.7114 LP  0  0  0  0  0  0  0  0  0  0  0  0  # atno 17370 bound_to 10713
  155.9826  130.4008  150.3409 LP  0  0  0  0  0  0  0  0  0  0  0  0  # atno 17371 bound_to 10713
  140.0269  134.9920  157.0703 LP  0  0  0  0  0  0  0  0  0  0  0  0  # atno 17394 bound_to 11000
  140.4348  134.1742  155.7170 LP  0  0  0  0  0  0  0  0  0  0  0  0  # atno 17395 bound_to 11000

$$$$
