AV-unprocessed.smi:2586|AV-procd|sdf|10145|dock8
  -GOLD-   2272014153D 1   1.00000     0.00000
 Structure written by MMmdl.
 30 31  0  0  0  0  0  0  0  0  1 V2000
  147.7503  130.6124  154.1158 C   0  0  0  0  0  0  0  0  0  0  0  0
  146.8465  131.6488  154.4804 O   0  0  0  0  0  0  0  0  0  0  0  0
  147.2284  132.9870  154.1434 C   0  0  0  0  0  0  0  0  0  0  0  0
  148.5705  133.3793  154.7732 C   0  0  0  0  0  0  0  0  0  0  0  0
  148.9494  134.7330  154.3799 N   0  0  0  0  0  0  0  0  0  0  0  0
  149.5651  135.6300  155.1625 C   0  0  0  0  0  0  0  0  0  0  0  0
  149.8497  135.4228  156.3422 O   0  0  0  0  0  0  0  0  0  0  0  0
  149.8256  136.7611  154.4844 N   0  0  0  0  0  0  0  0  0  0  0  0
  150.4466  137.8875  154.9210 C   0  0  0  0  0  0  0  0  0  0  0  0
  150.4253  139.1128  154.3112 C   0  0  0  0  0  0  0  0  0  0  0  0
  151.1579  140.1036  154.9845 N   0  0  0  0  0  0  0  0  0  0  0  0
  151.7330  139.6916  156.0758 N   0  0  0  0  0  0  0  0  0  0  0  0
  151.4173  138.0702  156.3488 S   0  0  0  0  0  0  0  0  0  0  0  0
  147.0790  133.1254  152.6164 C   0  0  0  0  0  0  0  0  0  0  0  0
  145.6342  133.5825  152.8251 C   0  0  0  0  0  0  0  0  0  0  0  0
  146.0263  133.9481  154.2580 C   0  0  0  0  0  0  0  0  0  0  0  0
  147.4032  129.6719  154.5430 H   0  0  0  0  0  0  0  0  0  0  0  0
  148.7590  130.7908  154.4867 H   0  0  0  0  0  0  0  0  0  0  0  0
  147.7961  130.4759  153.0361 H   0  0  0  0  0  0  0  0  0  0  0  0
  148.4890  133.3674  155.8605 H   0  0  0  0  0  0  0  0  0  0  0  0
  149.3443  132.6483  154.5358 H   0  0  0  0  0  0  0  0  0  0  0  0
  148.7560  134.9932  153.4240 H   0  0  0  0  0  0  0  0  0  0  0  0
  149.5328  136.7771  153.5186 H   0  0  0  0  0  0  0  0  0  0  0  0
  149.9167  139.3754  153.3954 H   0  0  0  0  0  0  0  0  0  0  0  0
  147.7080  133.9139  152.2000 H   0  0  0  0  0  0  0  0  0  0  0  0
  147.1865  132.1959  152.0563 H   0  0  0  0  0  0  0  0  0  0  0  0
  145.3261  134.4253  152.2055 H   0  0  0  0  0  0  0  0  0  0  0  0
  144.9192  132.7598  152.7782 H   0  0  0  0  0  0  0  0  0  0  0  0
  145.2749  133.6929  155.0044 H   0  0  0  0  0  0  0  0  0  0  0  0
  146.3306  134.9921  154.3492 H   0  0  0  0  0  0  0  0  0  0  0  0
  1  2  1  0  0  0  0
  1 17  1  0  0  0  0
  1 18  1  0  0  0  0
  1 19  1  0  0  0  0
  2  3  1  0  0  0  0
  3 16  1  0  0  0  0
  3  4  1  0  0  0  0
  3 14  1  0  0  0  0
  4  5  1  0  0  0  0
  4 20  1  0  0  0  0
  4 21  1  0  0  0  0
  5  6  1  0  0  0  0
  5 22  1  0  0  0  0
  6  7  2  0  0  0  0
  6  8  1  0  0  0  0
  8  9  1  0  0  0  0
  8 23  1  0  0  0  0
  9 13  1  0  0  0  0
  9 10  2  0  0  0  0
 10 11  1  0  0  0  0
 10 24  1  0  0  0  0
 11 12  2  0  0  0  0
 12 13  1  0  0  0  0
 14 15  1  0  0  0  0
 14 25  1  0  0  0  0
 14 26  1  0  0  0  0
 15 16  1  0  0  0  0
 15 27  1  0  0  0  0
 15 28  1  0  0  0  0
 16 29  1  0  0  0  0
 16 30  1  0  0  0  0
M  END
> <s_m_source_file>
AV-unprocessed.smi

> <i_m_source_file_index>
2586

> <i_lp_mmshare_version>
43012

> <i_f3d_flags>
0

> <s_epik_input>
W0NIMl0xW0NIMl1bQ0gyXUMxKE9bQ0gzXSlbQ0gyXVtOSF1DKD1PKVtOSF1jMltjSF1ubnMy

> <s_epik_cmdline>
J2VwaWtfcHl0aG9uJywgJy1waCcsICc3LjAnLCAnLXRuJywgJzgnLCAnLW1hJywgJzIwMCcsICctbWV0YWxfYmluZGluZycsICctaW1hZScsICc8aW5maWxlLm1hZT4nLCAnLW9tYWUnLCAnPG91dGZpbGUubWFlPic=

> <r_lp_tautomer_probability>
1

> <r_epik_Ionization_Penalty>
2.25632e-05

> <r_epik_Ionization_Penalty_Charging>
0

> <r_epik_Ionization_Penalty_Neutral>
2.25632e-05

> <r_epik_State_Penalty>
-0

> <r_epik_Charging_Adjusted_Penalty>
0

> <i_epik_Tot_Q>
0

> <i_epik_Tot_abs_Q>
0

> <r_epik_Metal_State_Penalty>
-0

> <b_epik_Metal_Only>
0

> <s_lp_Force_Field>
OPLS_2005

> <r_lp_Energy>
14.9091

> <b_lp_Chiralities_Consistent>
1

> <s_lp_Variant>
AV-unprocessed.smi:2586-1

> <Gold.Version>
5.8.1

> <Gold.Id.Protein>
6NUR|6NUR_protein|mol2

> <Gold.PLP.Fitness>
38.5421

> <Gold.PLP.PLP>
-24.8163

> <Gold.PLP.part.hbond>
-5.9628

> <Gold.PLP.part.metal>
0.0000

> <Gold.PLP.part.buried>
-1.4104

> <Gold.PLP.part.nonpolar>
-17.5786

> <Gold.PLP.part.repulsive>
0.2701

> <Gold.PLP.ligand.clash>
0.0000

> <Gold.PLP.ligand.torsion>
0.3499

> <Gold.PLP.Chemscore.Hbond>
3.8461

> <Gold.PLP.Chemscore.CHOScore>
0.8749

> <Gold.PLP.Chemscore.Metal>
0.0000

> <Gold.Chemscore.Hbonds>
donor molecule, donor type, donor heavy atom, donor atom, acceptor molecule, acceptor atom, score
      L1  H     5    22       P1  7948  1.00
      L1  H     8    23       P1  7948  1.00
      P1  H  7989  7998       L1    11  0.65
      L1  C    10    24       P1  7957  1.00

> <Gold.PLP.Chemscore.Internal.Correction>
0.2627

> <Gold.Rescore>
     Score         DG    S(hbond)    S(metal)    S(lipo)     H(rot)  DE(clash)    DE(int)     intcor
     12.06     -12.62       1.75        0.00      46.37       1.61       0.21       0.35       ----

> <Gold.Chemscore.Fitness>
12.0594

> <Gold.Chemscore.DG>
-12.6241

> <Gold.Chemscore.ZeroCoef>
-5.4800

> <Gold.Chemscore.Hbond>
1.7516

> <Gold.Chemscore.Metal>
0.0000

> <Gold.Chemscore.Lipo>
46.3733

> <Gold.Chemscore.Internal_Hbond>
0.0000

> <Gold.Chemscore.DEClash>
0.2108

> <Gold.Chemscore.DEInternal>
0.3539

> <Gold.Chemscore.Rot>
1.6141

> <Gold.Chemscore.Internal.Correction>
   9.000000E+99

> <Gold.Chemscore.Hbonds>
donor molecule, donor type, donor heavy atom, donor atom, acceptor molecule, acceptor atom, score
      L1  H     5    22       P1  7948  0.52
      L1  H     8    23       P1  7948  0.78
      P1  H  7989  7998       L1    11  0.06

> <Gold.Chemscore.Hbond.Weighted>
-5.8505

> <Gold.Chemscore.Metal.Weighted>
-0.0000

> <Gold.Chemscore.Lipo.Weighted>
-5.4257

> <Gold.Chemscore.Internal_Hbond.Weighted>
0.0000

> <Gold.Chemscore.DEClash.Weighted>
0.2108

> <Gold.Chemscore.DEInternal.Weighted>
0.3539

> <Gold.Chemscore.Rot.Weighted>
4.1320

> <Gold.Chemscore.Internal.Correction.Weighted>
   9.000000E+99

> <Gold.Protein.RotatedTorsions>
[ 6907 6896 6895 6894 ] final   11.68 input  -60.11 | X-H torsion
[ 7974 7965 7964 7962 ] final  -67.65 input  175.53 | X-H torsion
[ 8008 7997 7996 7995 ] final  -49.46 input   59.86 | X-H torsion
[ 10167 10162 10161 10158 ] final -160.40 input  -65.29 | X-H torsion
[ 10718 10713 10712 10709 ] final   16.05 input   66.30 | X-H torsion
[ 10763 10752 10751 10750 ] final   62.96 input  -60.55 | X-H torsion
[ 11005 11000 10999 10996 ] final  149.70 input  -57.11 | X-H torsion

> <Gold.Protein.ActiveResidues>
 VAL166  LYS551  ARG553  GLY616  TRP617  ASP618  TYR619  PRO620  LYS621  CYS622 
 ASP623  PHE694  ASN695  SER759  ASP760  ASP761  ALA762  ILE779  LEU786  VAL792 
 PHE793  MET794  SER795  GLU796  ALA797  LYS798  CYS799  TRP800  GLU811  SER814 

> <Gold.Protein.RotatedAtoms>
  151.7583  135.0816  160.0341 H   0  0  0  0  0  0  0  0  0  0  0  0  # atno 6907 bound_to 6896
  152.3370  133.6019  159.5858 H   0  0  0  0  0  0  0  0  0  0  0  0  # atno 6908 bound_to 6896
  150.7456  133.9696  159.3583 H   0  0  0  0  0  0  0  0  0  0  0  0  # atno 6909 bound_to 6896
  145.7265  140.9016  143.0603 H   0  0  0  0  0  0  0  0  0  0  0  0  # atno 7974 bound_to 7965
  154.4044  140.1296  156.4507 H   0  0  0  0  0  0  0  0  0  0  0  0  # atno 8008 bound_to 7997
  155.7369  140.3490  155.5066 H   0  0  0  0  0  0  0  0  0  0  0  0  # atno 8009 bound_to 7997
  155.9075  140.1030  157.1294 H   0  0  0  0  0  0  0  0  0  0  0  0  # atno 8010 bound_to 7997
  139.6542  144.0029  152.2182 H   0  0  0  0  0  0  0  0  0  0  0  0  # atno 10167 bound_to 10162
  157.0623  130.6314  149.5788 H   0  0  0  0  0  0  0  0  0  0  0  0  # atno 10718 bound_to 10713
  153.0001  135.5446  154.6276 H   0  0  0  0  0  0  0  0  0  0  0  0  # atno 10763 bound_to 10752
  154.5561  135.2830  155.0965 H   0  0  0  0  0  0  0  0  0  0  0  0  # atno 10764 bound_to 10752
  154.2186  135.6454  153.5190 H   0  0  0  0  0  0  0  0  0  0  0  0  # atno 10765 bound_to 10752
  140.1068  134.8949  157.1877 H   0  0  0  0  0  0  0  0  0  0  0  0  # atno 11005 bound_to 11000
  144.6903  139.9272  143.7470 LP  0  0  0  0  0  0  0  0  0  0  0  0  # atno 17320 bound_to 7965
  146.0578  139.3573  143.0600 LP  0  0  0  0  0  0  0  0  0  0  0  0  # atno 17321 bound_to 7965
  139.9751  144.6467  150.7953 LP  0  0  0  0  0  0  0  0  0  0  0  0  # atno 17342 bound_to 10162
  140.7551  143.3041  151.3007 LP  0  0  0  0  0  0  0  0  0  0  0  0  # atno 17343 bound_to 10162
  155.9975  130.5046  150.7536 LP  0  0  0  0  0  0  0  0  0  0  0  0  # atno 17370 bound_to 10713
  157.4945  131.0913  151.0388 LP  0  0  0  0  0  0  0  0  0  0  0  0  # atno 17371 bound_to 10713
  140.3145  134.2985  155.7259 LP  0  0  0  0  0  0  0  0  0  0  0  0  # atno 17394 bound_to 11000
  141.2120  133.7671  156.9824 LP  0  0  0  0  0  0  0  0  0  0  0  0  # atno 17395 bound_to 11000

$$$$
