AV-unprocessed.smi:942|AV-procd|sdf|4228|dock4
  -GOLD-   22720 2133D 1   1.00000     0.00000
 Structure written by MMmdl.
 42 44  0  0  0  0  0  0  0  0  1 V2000
  149.5435  142.8627  158.7078 O   0  0  0  0  0  0  0  0  0  0  0  0
  150.2380  142.2484  157.8977 C   0  0  0  0  0  0  0  0  0  0  0  0
  151.5670  142.4039  157.8008 N   0  0  0  0  0  0  0  0  0  0  0  0
  152.3717  143.3159  158.6085 C   0  0  1  0  0  0  0  0  0  0  0  0
  152.0187  144.7905  158.3209 C   0  0  0  0  0  0  0  0  0  0  0  0
  151.3434  145.3261  159.5854 C   0  0  0  0  0  0  0  0  0  0  0  0
  151.9531  144.5032  160.7158 C   0  0  0  0  0  0  0  0  0  0  0  0
  152.0874  143.1010  160.1118 C   0  0  2  0  0  0  0  0  0  0  0  0
  153.0863  142.2796  160.7778 N   0  0  0  0  0  0  0  0  0  0  0  0
  153.8317  141.2385  160.2360 C   0  0  0  0  0  0  0  0  0  0  0  0
  154.6371  140.7618  161.2453 C   0  0  0  0  0  0  0  0  0  0  0  0
  154.4051  141.4869  162.4113 N   0  0  0  0  0  0  0  0  0  0  0  0
  153.4753  142.3650  162.0578 C   0  0  0  0  0  0  0  0  0  0  0  0
  149.5985  141.2440  156.9299 C   0  0  0  0  0  0  0  0  0  0  0  0
  150.1635  139.8239  157.1464 C   0  0  0  0  0  0  0  0  0  0  0  0
  149.5233  138.8160  156.1776 C   0  0  0  0  0  0  0  0  0  0  0  0
  149.7006  139.2570  154.7158 C   0  0  0  0  0  0  0  0  0  0  0  0
  149.1566  140.6769  154.4915 C   0  0  0  0  0  0  0  0  0  0  0  0
  149.7991  141.6807  155.4634 C   0  0  0  0  0  0  0  0  0  0  0  0
  152.0574  141.8542  157.1102 H   0  0  0  0  0  0  0  0  0  0  0  0
  153.4295  143.1564  158.3897 H   0  0  0  0  0  0  0  0  0  0  0  0
  152.9385  145.3482  158.1407 H   0  0  0  0  0  0  0  0  0  0  0  0
  151.3893  144.9239  157.4400 H   0  0  0  0  0  0  0  0  0  0  0  0
  151.4914  146.3982  159.7184 H   0  0  0  0  0  0  0  0  0  0  0  0
  150.2695  145.1407  159.5348 H   0  0  0  0  0  0  0  0  0  0  0  0
  152.9305  144.9137  160.9728 H   0  0  0  0  0  0  0  0  0  0  0  0
  151.3406  144.5127  161.6180 H   0  0  0  0  0  0  0  0  0  0  0  0
  151.1187  142.6102  160.2263 H   0  0  0  0  0  0  0  0  0  0  0  0
  153.7298  140.9301  159.2059 H   0  0  0  0  0  0  0  0  0  0  0  0
  155.3586  139.9584  161.2226 H   0  0  0  0  0  0  0  0  0  0  0  0
  153.0678  143.0886  162.7486 H   0  0  0  0  0  0  0  0  0  0  0  0
  148.5258  141.2141  157.1301 H   0  0  0  0  0  0  0  0  0  0  0  0
  151.2452  139.8220  157.0019 H   0  0  0  0  0  0  0  0  0  0  0  0
  149.9892  139.5025  158.1740 H   0  0  0  0  0  0  0  0  0  0  0  0
  149.9630  137.8290  156.3239 H   0  0  0  0  0  0  0  0  0  0  0  0
  148.4607  138.7174  156.4032 H   0  0  0  0  0  0  0  0  0  0  0  0
  150.7583  139.2253  154.4509 H   0  0  0  0  0  0  0  0  0  0  0  0
  149.1943  138.5559  154.0518 H   0  0  0  0  0  0  0  0  0  0  0  0
  149.3390  140.9865  153.4620 H   0  0  0  0  0  0  0  0  0  0  0  0
  148.0744  140.6792  154.6274 H   0  0  0  0  0  0  0  0  0  0  0  0
  149.3672  142.6695  155.3034 H   0  0  0  0  0  0  0  0  0  0  0  0
  150.8633  141.7684  155.2377 H   0  0  0  0  0  0  0  0  0  0  0  0
  1  2  2  0  0  0  0
  2  3  1  0  0  0  0
  2 14  1  0  0  0  0
  3  4  1  0  0  0  0
  3 20  1  0  0  0  0
  4  8  1  0  0  0  0
  4  5  1  0  0  0  0
  4 21  1  0  0  0  0
  5  6  1  0  0  0  0
  5 22  1  0  0  0  0
  5 23  1  0  0  0  0
  6  7  1  0  0  0  0
  6 24  1  0  0  0  0
  6 25  1  0  0  0  0
  7  8  1  0  0  0  0
  7 26  1  0  0  0  0
  7 27  1  0  0  0  0
  8  9  1  0  0  0  0
  8 28  1  0  0  0  0
  9 13  1  0  0  0  0
  9 10  1  0  0  0  0
 10 11  2  0  0  0  0
 10 29  1  0  0  0  0
 11 12  1  0  0  0  0
 11 30  1  0  0  0  0
 12 13  2  0  0  0  0
 13 31  1  0  0  0  0
 14 19  1  0  0  0  0
 14 15  1  0  0  0  0
 14 32  1  0  0  0  0
 15 16  1  0  0  0  0
 15 33  1  0  0  0  0
 15 34  1  0  0  0  0
 16 17  1  0  0  0  0
 16 35  1  0  0  0  0
 16 36  1  0  0  0  0
 17 18  1  0  0  0  0
 17 37  1  0  0  0  0
 17 38  1  0  0  0  0
 18 19  1  0  0  0  0
 18 39  1  0  0  0  0
 18 40  1  0  0  0  0
 19 41  1  0  0  0  0
 19 42  1  0  0  0  0
M  END
> <s_m_source_file>
AV-unprocessed.smi

> <i_m_source_file_index>
942

> <i_lp_mmshare_version>
43012

> <i_f3d_flags>
0

> <s_epik_input>
W0NIMl0xW0NIMl1bQ0gyXVtDSDJdW0NIMl1bQ0hdMUMoPU8pW05IXVtDQEBIXTJbQ0gyXVtDSDJdW0NIMl1bQ0BIXTJuM1tjSF1bY0hdbltjSF0z

> <s_epik_cmdline>
J2VwaWtfcHl0aG9uJywgJy1waCcsICc3LjAnLCAnLXRuJywgJzgnLCAnLW1hJywgJzIwMCcsICctbWV0YWxfYmluZGluZycsICctaW1hZScsICc8aW5maWxlLm1hZT4nLCAnLW9tYWUnLCAnPG91dGZpbGUubWFlPic=

> <r_lp_tautomer_probability>
1

> <r_epik_Ionization_Penalty>
0.778458

> <r_epik_Ionization_Penalty_Charging>
0.778458

> <r_epik_Ionization_Penalty_Neutral>
2.79355e-08

> <r_epik_State_Penalty>
0.807804

> <r_epik_Charging_Adjusted_Penalty>
1.58626

> <i_epik_Tot_Q>
0

> <i_epik_Tot_abs_Q>
0

> <r_epik_Metal_State_Penalty>
0.343007

> <b_epik_Metal_Only>
0

> <s_lp_Force_Field>
OPLS_2005

> <r_lp_Energy>
31.6658

> <b_lp_Chiralities_Consistent>
1

> <s_lp_Variant>
AV-unprocessed.smi:942-8

> <Gold.Version>
5.8.1

> <Gold.Id.Protein>
6NUR|6NUR_protein|mol2

> <Gold.PLP.Fitness>
46.4263

> <Gold.PLP.PLP>
-48.0029

> <Gold.PLP.part.hbond>
-1.0000

> <Gold.PLP.part.metal>
0.0000

> <Gold.PLP.part.buried>
-4.6829

> <Gold.PLP.part.nonpolar>
-42.1842

> <Gold.PLP.part.repulsive>
0.1881

> <Gold.PLP.ligand.clash>
0.0000

> <Gold.PLP.ligand.torsion>
0.7960

> <Gold.PLP.Chemscore.Hbond>
0.0000

> <Gold.PLP.Chemscore.CHOScore>
0.0000

> <Gold.PLP.Chemscore.Metal>
0.0000

> <Gold.PLP.Chemscore.Internal.Correction>
0.0155

> <Gold.Rescore>
     Score         DG    S(hbond)    S(metal)    S(lipo)     H(rot)  DE(clash)    DE(int)     intcor
     13.61     -15.17       0.00        0.00     114.33       1.44       0.01       1.54       ----

> <Gold.Chemscore.Fitness>
13.6148

> <Gold.Chemscore.DG>
-15.1716

> <Gold.Chemscore.ZeroCoef>
-5.4800

> <Gold.Chemscore.Hbond>
0.0000

> <Gold.Chemscore.Metal>
0.0000

> <Gold.Chemscore.Lipo>
114.3318

> <Gold.Chemscore.Internal_Hbond>
0.0000

> <Gold.Chemscore.DEClash>
0.0137

> <Gold.Chemscore.DEInternal>
1.5432

> <Gold.Chemscore.Rot>
1.4395

> <Gold.Chemscore.Internal.Correction>
   9.000000E+99

> <Gold.Chemscore.Hbond.Weighted>
-0.0000

> <Gold.Chemscore.Metal.Weighted>
-0.0000

> <Gold.Chemscore.Lipo.Weighted>
-13.3768

> <Gold.Chemscore.Internal_Hbond.Weighted>
0.0000

> <Gold.Chemscore.DEClash.Weighted>
0.0137

> <Gold.Chemscore.DEInternal.Weighted>
1.5432

> <Gold.Chemscore.Rot.Weighted>
3.6852

> <Gold.Chemscore.Internal.Correction.Weighted>
   9.000000E+99

> <Gold.Protein.RotatedTorsions>
[ 6907 6896 6895 6894 ] final   23.65 input  -60.11 | X-H torsion
[ 7974 7965 7964 7962 ] final -123.91 input  175.53 | X-H torsion
[ 8008 7997 7996 7995 ] final  131.36 input   59.86 | X-H torsion
[ 10167 10162 10161 10158 ] final -116.59 input  -65.29 | X-H torsion
[ 10718 10713 10712 10709 ] final  -29.99 input   66.30 | X-H torsion
[ 10763 10752 10751 10750 ] final  -21.90 input  -60.55 | X-H torsion
[ 11005 11000 10999 10996 ] final  -54.47 input  -57.11 | X-H torsion

> <Gold.Protein.ActiveResidues>
 VAL166  LYS551  ARG553  GLY616  TRP617  ASP618  TYR619  PRO620  LYS621  CYS622 
 ASP623  PHE694  ASN695  SER759  ASP760  ASP761  ALA762  ILE779  LEU786  VAL792 
 PHE793  MET794  SER795  GLU796  ALA797  LYS798  CYS799  TRP800  GLU811  SER814 

> <Gold.Protein.RotatedAtoms>
  151.9455  135.0193  160.0538 H   0  0  0  0  0  0  0  0  0  0  0  0  # atno 6907 bound_to 6896
  152.1999  133.4828  159.5061 H   0  0  0  0  0  0  0  0  0  0  0  0  # atno 6908 bound_to 6896
  150.6952  134.1521  159.4187 H   0  0  0  0  0  0  0  0  0  0  0  0  # atno 6909 bound_to 6896
  145.0136  140.7927  143.4423 H   0  0  0  0  0  0  0  0  0  0  0  0  # atno 7974 bound_to 7965
  156.2969  140.2573  156.2912 H   0  0  0  0  0  0  0  0  0  0  0  0  # atno 8008 bound_to 7997
  154.9507  140.0394  157.2161 H   0  0  0  0  0  0  0  0  0  0  0  0  # atno 8009 bound_to 7997
  154.8038  140.2833  155.5906 H   0  0  0  0  0  0  0  0  0  0  0  0  # atno 8010 bound_to 7997
  140.0776  143.4818  152.1944 H   0  0  0  0  0  0  0  0  0  0  0  0  # atno 10167 bound_to 10162
  156.4054  130.4398  149.7291 H   0  0  0  0  0  0  0  0  0  0  0  0  # atno 10718 bound_to 10713
  153.6434  135.6984  153.5233 H   0  0  0  0  0  0  0  0  0  0  0  0  # atno 10763 bound_to 10752
  153.2764  135.4199  155.1036 H   0  0  0  0  0  0  0  0  0  0  0  0  # atno 10764 bound_to 10752
  154.8494  135.3591  154.5978 H   0  0  0  0  0  0  0  0  0  0  0  0  # atno 10765 bound_to 10752
  141.1027  133.6616  156.4325 H   0  0  0  0  0  0  0  0  0  0  0  0  # atno 11005 bound_to 11000
  145.1990  139.2262  143.5203 LP  0  0  0  0  0  0  0  0  0  0  0  0  # atno 17320 bound_to 7965
  146.3474  140.1803  142.8589 LP  0  0  0  0  0  0  0  0  0  0  0  0  # atno 17321 bound_to 7965
  139.5799  144.7505  151.3668 LP  0  0  0  0  0  0  0  0  0  0  0  0  # atno 17342 bound_to 10162
  140.7094  143.7429  150.7540 LP  0  0  0  0  0  0  0  0  0  0  0  0  # atno 17343 bound_to 10162
  156.4290  130.7806  151.2825 LP  0  0  0  0  0  0  0  0  0  0  0  0  # atno 17370 bound_to 10713
  157.7505  131.0159  150.3525 LP  0  0  0  0  0  0  0  0  0  0  0  0  # atno 17371 bound_to 10713
  140.4981  134.6512  157.5237 LP  0  0  0  0  0  0  0  0  0  0  0  0  # atno 17394 bound_to 11000
  139.9885  134.7023  155.9732 LP  0  0  0  0  0  0  0  0  0  0  0  0  # atno 17395 bound_to 11000

$$$$
