AV-unprocessed.smi:219|AV-procd|sdf|1679|dock2
  -GOLD-   2262020113D 1   1.00000     0.00000
 Structure written by MMmdl.
 50 53  0  0  0  0  0  0  0  0  1 V2000
  145.6947  136.9937  162.5353 N   0  0  0  0  0  0  0  0  0  0  0  0
  146.9699  136.8890  162.1535 C   0  0  0  0  0  0  0  0  0  0  0  0
  147.9041  137.0311  162.9397 O   0  0  0  0  0  0  0  0  0  0  0  0
  147.2327  136.6200  160.6670 C   0  0  0  0  0  0  0  0  0  0  0  0
  147.8348  135.2203  160.3451 C   0  0  1  0  0  0  0  0  0  0  0  0
  146.8344  134.1323  160.8006 C   0  0  0  0  0  0  0  0  0  0  0  0
  147.3352  132.7156  160.4921 C   0  0  0  0  0  0  0  0  0  0  0  0
  147.6576  132.5942  158.9999 C   0  0  0  0  0  0  0  0  0  0  0  0
  148.6684  133.6724  158.5892 C   0  0  0  0  0  0  0  0  0  0  0  0
  148.1871  135.0142  158.9262 N   0  0  0  0  0  0  0  0  0  0  0  0
  148.9712  135.9607  158.3628 C   0  0  0  0  0  0  0  0  0  0  0  0
  149.8986  136.6114  159.1149 N   0  0  0  0  0  0  0  0  0  0  0  0
  150.6591  137.5592  158.5587 C   0  0  0  0  0  0  0  0  0  0  0  0
  150.6539  138.0024  157.2994 N   0  0  0  0  0  0  0  0  0  0  0  0
  149.7201  137.3519  156.5470 C   0  0  0  0  0  0  0  0  0  0  0  0
  148.8506  136.3192  156.9951 C   0  0  0  0  0  0  0  0  0  0  0  0
  148.0407  135.8879  155.9534 N   0  0  0  0  0  0  0  0  0  0  0  0
  148.4078  136.6292  154.9437 C   0  0  0  0  0  0  0  0  0  0  0  0
  149.4012  137.5445  155.2139 N   0  0  0  0  0  0  0  0  0  0  0  0
  149.9902  138.4946  154.2825 C   0  0  0  0  0  0  0  0  0  0  0  0
  149.7496  139.9747  154.6657 C   0  0  1  0  0  0  0  0  0  0  0  0
  149.8281  140.7769  153.5003 O   0  0  0  0  0  0  0  0  0  0  0  0
  148.3861  140.2014  155.3083 C   0  0  0  0  0  0  0  0  0  0  0  0
  148.6397  141.3831  156.2341 C   0  0  0  0  0  0  0  0  0  0  0  0
  149.9278  141.1019  156.7537 O   0  0  0  0  0  0  0  0  0  0  0  0
  150.7279  140.5428  155.7161 C   0  0  0  0  0  0  0  0  0  0  0  0
  145.4756  137.1655  163.5058 H   0  0  0  0  0  0  0  0  0  0  0  0
  144.9544  136.8960  161.8558 H   0  0  0  0  0  0  0  0  0  0  0  0
  146.2695  136.7301  160.1671 H   0  0  0  0  0  0  0  0  0  0  0  0
  147.8646  137.4076  160.2539 H   0  0  0  0  0  0  0  0  0  0  0  0
  148.7478  135.0877  160.9279 H   0  0  0  0  0  0  0  0  0  0  0  0
  146.6463  134.2201  161.8714 H   0  0  0  0  0  0  0  0  0  0  0  0
  145.8748  134.2887  160.3053 H   0  0  0  0  0  0  0  0  0  0  0  0
  148.2264  132.5010  161.0831 H   0  0  0  0  0  0  0  0  0  0  0  0
  146.5836  131.9790  160.7772 H   0  0  0  0  0  0  0  0  0  0  0  0
  148.0563  131.6036  158.7807 H   0  0  0  0  0  0  0  0  0  0  0  0
  146.7442  132.7013  158.4132 H   0  0  0  0  0  0  0  0  0  0  0  0
  149.6193  133.4873  159.0916 H   0  0  0  0  0  0  0  0  0  0  0  0
  148.8568  133.6044  157.5166 H   0  0  0  0  0  0  0  0  0  0  0  0
  151.3710  138.0338  159.2176 H   0  0  0  0  0  0  0  0  0  0  0  0
  147.9561  136.5297  153.9675 H   0  0  0  0  0  0  0  0  0  0  0  0
  151.0601  138.2922  154.2174 H   0  0  0  0  0  0  0  0  0  0  0  0
  149.5812  138.2930  153.2917 H   0  0  0  0  0  0  0  0  0  0  0  0
  149.6952  140.2243  152.7454 H   0  0  0  0  0  0  0  0  0  0  0  0
  147.5853  140.3825  154.5899 H   0  0  0  0  0  0  0  0  0  0  0  0
  148.1021  139.3363  155.9093 H   0  0  0  0  0  0  0  0  0  0  0  0
  148.6638  142.3209  155.6769 H   0  0  0  0  0  0  0  0  0  0  0  0
  147.8955  141.4685  157.0259 H   0  0  0  0  0  0  0  0  0  0  0  0
  151.3627  139.7741  156.1549 H   0  0  0  0  0  0  0  0  0  0  0  0
  151.3839  141.3080  155.2975 H   0  0  0  0  0  0  0  0  0  0  0  0
  1  2  1  0  0  0  0
  1 27  1  0  0  0  0
  1 28  1  0  0  0  0
  2  3  2  0  0  0  0
  2  4  1  0  0  0  0
  4  5  1  0  0  0  0
  4 29  1  0  0  0  0
  4 30  1  0  0  0  0
  5 10  1  0  0  0  0
  5  6  1  0  0  0  0
  5 31  1  0  0  0  0
  6  7  1  0  0  0  0
  6 32  1  0  0  0  0
  6 33  1  0  0  0  0
  7  8  1  0  0  0  0
  7 34  1  0  0  0  0
  7 35  1  0  0  0  0
  8  9  1  0  0  0  0
  8 36  1  0  0  0  0
  8 37  1  0  0  0  0
  9 10  1  0  0  0  0
  9 38  1  0  0  0  0
  9 39  1  0  0  0  0
 10 11  1  0  0  0  0
 11 16  1  0  0  0  0
 11 12  2  0  0  0  0
 12 13  1  0  0  0  0
 13 14  2  0  0  0  0
 13 40  1  0  0  0  0
 14 15  1  0  0  0  0
 15 19  1  0  0  0  0
 15 16  2  0  0  0  0
 16 17  1  0  0  0  0
 17 18  2  0  0  0  0
 18 19  1  0  0  0  0
 18 41  1  0  0  0  0
 19 20  1  0  0  0  0
 20 21  1  0  0  0  0
 20 42  1  0  0  0  0
 20 43  1  0  0  0  0
 21 26  1  0  0  0  0
 21 22  1  0  0  0  0
 21 23  1  0  0  0  0
 22 44  1  0  0  0  0
 23 24  1  0  0  0  0
 23 45  1  0  0  0  0
 23 46  1  0  0  0  0
 24 25  1  0  0  0  0
 24 47  1  0  0  0  0
 24 48  1  0  0  0  0
 25 26  1  0  0  0  0
 26 49  1  0  0  0  0
 26 50  1  0  0  0  0
M  END
> <s_m_source_file>
AV-unprocessed.smi

> <i_m_source_file_index>
219

> <i_lp_mmshare_version>
43012

> <i_f3d_flags>
0

> <s_epik_input>
W05IMl1DKD1PKVtDSDJdW0NAQEhdMVtDSDJdW0NIMl1bQ0gyXVtDSDJdTjFjKG5bY0hdbjIpYyhjMjMpbltjSF1uM1tDSDJdW0NAQF00KFtPSF0pW0NIMl1bQ0gyXU9bQ0gyXTQ=

> <s_epik_cmdline>
J2VwaWtfcHl0aG9uJywgJy1waCcsICc3LjAnLCAnLXRuJywgJzgnLCAnLW1hJywgJzIwMCcsICctbWV0YWxfYmluZGluZycsICctaW1hZScsICc8aW5maWxlLm1hZT4nLCAnLW9tYWUnLCAnPG91dGZpbGUubWFlPic=

> <r_lp_tautomer_probability>
1

> <r_epik_Ionization_Penalty>
0.00228532

> <r_epik_Ionization_Penalty_Charging>
0

> <r_epik_Ionization_Penalty_Neutral>
0.00228532

> <r_epik_State_Penalty>
0.00140978

> <r_epik_Charging_Adjusted_Penalty>
0.00140978

> <i_epik_Tot_Q>
0

> <i_epik_Tot_abs_Q>
0

> <r_epik_Metal_State_Penalty>
-0

> <b_epik_Metal_Only>
0

> <s_lp_Force_Field>
OPLS_2005

> <r_lp_Energy>
37.1625

> <b_lp_Chiralities_Consistent>
1

> <s_lp_Variant>
AV-unprocessed.smi:219-2

> <Gold.Version>
5.8.1

> <Gold.Id.Protein>
6NUR|6NUR_protein|mol2

> <Gold.PLP.Fitness>
40.8150

> <Gold.PLP.PLP>
-29.1741

> <Gold.PLP.part.hbond>
-4.4232

> <Gold.PLP.part.metal>
0.0000

> <Gold.PLP.part.buried>
-3.1249

> <Gold.PLP.part.nonpolar>
-21.1675

> <Gold.PLP.part.repulsive>
0.3130

> <Gold.PLP.ligand.clash>
0.0000

> <Gold.PLP.ligand.torsion>
1.1033

> <Gold.PLP.Chemscore.Hbond>
3.5888

> <Gold.PLP.Chemscore.CHOScore>
0.9271

> <Gold.PLP.Chemscore.Metal>
0.0000

> <Gold.Chemscore.Hbonds>
donor molecule, donor type, donor heavy atom, donor atom, acceptor molecule, acceptor atom, score
      L1  H    22    44       P1  7957  0.99
      P1  H  6896  6908       L1    12  0.75
      P1  H  6931  6943       L1     3  0.78
      P1  H  7989  7998       L1    22  0.30
      P1  H  8011  8017       L1    22  0.50
      L1  C    18    41       P1  7948  0.99

> <Gold.PLP.Chemscore.Internal.Correction>
0.2998

> <Gold.Rescore>
     Score         DG    S(hbond)    S(metal)    S(lipo)     H(rot)  DE(clash)    DE(int)     intcor
      7.99     -10.28       2.15        0.00      53.28       3.37       0.00       2.29       ----

> <Gold.Chemscore.Fitness>
7.9874

> <Gold.Chemscore.DG>
-10.2830

> <Gold.Chemscore.ZeroCoef>
-5.4800

> <Gold.Chemscore.Hbond>
2.1545

> <Gold.Chemscore.Metal>
0.0000

> <Gold.Chemscore.Lipo>
53.2769

> <Gold.Chemscore.Internal_Hbond>
0.0000

> <Gold.Chemscore.DEClash>
0.0021

> <Gold.Chemscore.DEInternal>
2.2935

> <Gold.Chemscore.Rot>
3.3697

> <Gold.Chemscore.Internal.Correction>
   9.000000E+99

> <Gold.Chemscore.Hbonds>
donor molecule, donor type, donor heavy atom, donor atom, acceptor molecule, acceptor atom, score
      L1  H    22    44       P1  7957  0.93
      P1  H  6896  6908       L1    12  0.10
      P1  H  6931  6943       L1     3  0.23
      P1  H  7989  7998       L1    22  0.01
      P1  H  8011  8017       L1    22  0.02

> <Gold.Chemscore.Hbond.Weighted>
-7.1960

> <Gold.Chemscore.Metal.Weighted>
-0.0000

> <Gold.Chemscore.Lipo.Weighted>
-6.2334

> <Gold.Chemscore.Internal_Hbond.Weighted>
0.0000

> <Gold.Chemscore.DEClash.Weighted>
0.0021

> <Gold.Chemscore.DEInternal.Weighted>
2.2935

> <Gold.Chemscore.Rot.Weighted>
8.6264

> <Gold.Chemscore.Internal.Correction.Weighted>
   9.000000E+99

> <Gold.Protein.RotatedTorsions>
[ 6907 6896 6895 6894 ] final -164.36 input  -60.11 | X-H torsion
[ 7974 7965 7964 7962 ] final -167.98 input  175.53 | X-H torsion
[ 8008 7997 7996 7995 ] final   78.30 input   59.86 | X-H torsion
[ 10167 10162 10161 10158 ] final  144.80 input  -65.29 | X-H torsion
[ 10718 10713 10712 10709 ] final  -58.15 input   66.30 | X-H torsion
[ 10763 10752 10751 10750 ] final -156.58 input  -60.55 | X-H torsion
[ 11005 11000 10999 10996 ] final  105.53 input  -57.11 | X-H torsion

> <Gold.Protein.ActiveResidues>
 VAL166  LYS551  ARG553  GLY616  TRP617  ASP618  TYR619  PRO620  LYS621  CYS622 
 ASP623  PHE694  ASN695  SER759  ASP760  ASP761  ALA762  ILE779  LEU786  VAL792 
 PHE793  MET794  SER795  GLU796  ALA797  LYS798  CYS799  TRP800  GLU811  SER814 

> <Gold.Protein.RotatedAtoms>
  151.4107  133.3728  159.2743 H   0  0  0  0  0  0  0  0  0  0  0  0  # atno 6907 bound_to 6896
  150.9365  134.8779  159.7596 H   0  0  0  0  0  0  0  0  0  0  0  0  # atno 6908 bound_to 6896
  152.5052  134.4055  159.9483 H   0  0  0  0  0  0  0  0  0  0  0  0  # atno 6909 bound_to 6896
  144.7212  140.2438  143.6288 H   0  0  0  0  0  0  0  0  0  0  0  0  # atno 7974 bound_to 7965
  155.8538  140.3457  155.5711 H   0  0  0  0  0  0  0  0  0  0  0  0  # atno 8008 bound_to 7997
  155.8009  140.0885  157.1977 H   0  0  0  0  0  0  0  0  0  0  0  0  # atno 8009 bound_to 7997
  154.4008  140.1466  156.3260 H   0  0  0  0  0  0  0  0  0  0  0  0  # atno 8010 bound_to 7997
  139.4939  144.5947  151.6608 H   0  0  0  0  0  0  0  0  0  0  0  0  # atno 10167 bound_to 10162
  156.1156  130.4171  150.0538 H   0  0  0  0  0  0  0  0  0  0  0  0  # atno 10718 bound_to 10713
  154.7702  135.3143  154.8206 H   0  0  0  0  0  0  0  0  0  0  0  0  # atno 10763 bound_to 10752
  153.8943  135.6822  153.4763 H   0  0  0  0  0  0  0  0  0  0  0  0  # atno 10764 bound_to 10752
  153.1314  135.4778  154.9289 H   0  0  0  0  0  0  0  0  0  0  0  0  # atno 10765 bound_to 10752
  139.8803  134.9339  156.5528 H   0  0  0  0  0  0  0  0  0  0  0  0  # atno 11005 bound_to 11000
  145.8294  139.2079  143.1891 LP  0  0  0  0  0  0  0  0  0  0  0  0  # atno 17320 bound_to 7965
  146.0444  140.8133  142.9812 LP  0  0  0  0  0  0  0  0  0  0  0  0  # atno 17321 bound_to 7965
  140.5582  144.0313  150.6157 LP  0  0  0  0  0  0  0  0  0  0  0  0  # atno 17342 bound_to 10162
  140.3390  143.3031  152.0608 LP  0  0  0  0  0  0  0  0  0  0  0  0  # atno 17343 bound_to 10162
  156.8490  130.9452  151.3627 LP  0  0  0  0  0  0  0  0  0  0  0  0  # atno 17370 bound_to 10713
  157.6339  130.8751  149.9324 LP  0  0  0  0  0  0  0  0  0  0  0  0  # atno 17371 bound_to 10713
  140.8227  133.8341  155.8910 LP  0  0  0  0  0  0  0  0  0  0  0  0  # atno 17394 bound_to 11000
  140.9403  134.1909  157.4802 LP  0  0  0  0  0  0  0  0  0  0  0  0  # atno 17395 bound_to 11000

$$$$
