AV-unprocessed.smi:2200|AV-procd|sdf|8926|dock3
  -GOLD-   2272012143D 1   1.00000     0.00000
 Structure written by MMmdl.
 30 30  0  0  0  0  0  0  0  0  2 V2000
  153.0990  143.7594  158.9714 C   0  0  0  0  0  0  0  0  0  0  0  0
  151.8813  144.6927  158.9057 C   0  0  0  0  0  0  0  0  0  0  0  0
  151.8449  145.6256  160.1289 C   0  0  0  0  0  0  0  0  0  0  0  0
  150.5785  143.8799  158.7430 C   0  0  0  0  0  0  0  0  0  0  0  0
  150.4478  143.2809  157.4188 N   0  0  0  0  0  0  0  0  0  0  0  0
  150.5622  141.9726  157.1455 C   0  0  0  0  0  0  0  0  0  0  0  0
  150.8018  141.1221  158.0040 O   0  0  0  0  0  0  0  0  0  0  0  0
  150.4107  141.5833  155.6685 C   0  0  0  0  0  0  0  0  0  0  0  0
  150.7488  140.1770  155.3951 N   0  0  0  0  0  0  0  0  0  0  0  0
  149.8562  139.4324  154.6041 C   0  0  0  0  0  0  0  0  0  0  0  0
  150.0784  138.1373  154.3096 C   0  0  0  0  0  0  0  0  0  0  0  0
  151.2833  137.5069  154.8344 C   0  0  0  0  0  0  0  0  0  0  0  0
  151.4977  136.3226  154.5830 O   0  0  0  0  0  0  0  0  0  0  0  0
  152.1231  138.2738  155.5896 N   0  5  0  0  0  0  0  0  0  0  0  0
  151.8851  139.5907  155.8797 C   0  0  0  0  0  0  0  0  0  0  0  0
  152.6565  140.2646  156.5635 O   0  0  0  0  0  0  0  0  0  0  0  0
  153.0469  143.0991  159.8377 H   0  0  0  0  0  0  0  0  0  0  0  0
  154.0269  144.3278  159.0409 H   0  0  0  0  0  0  0  0  0  0  0  0
  153.1639  143.1348  158.0799 H   0  0  0  0  0  0  0  0  0  0  0  0
  152.0039  145.3178  158.0202 H   0  0  0  0  0  0  0  0  0  0  0  0
  151.6981  145.0629  161.0511 H   0  0  0  0  0  0  0  0  0  0  0  0
  151.0405  146.3573  160.0524 H   0  0  0  0  0  0  0  0  0  0  0  0
  152.7777  146.1822  160.2244 H   0  0  0  0  0  0  0  0  0  0  0  0
  150.5199  143.0986  159.5028 H   0  0  0  0  0  0  0  0  0  0  0  0
  149.7153  144.5265  158.9043 H   0  0  0  0  0  0  0  0  0  0  0  0
  150.2535  143.9079  156.6518 H   0  0  0  0  0  0  0  0  0  0  0  0
  149.3912  141.7920  155.3388 H   0  0  0  0  0  0  0  0  0  0  0  0
  151.0430  142.2478  155.0782 H   0  0  0  0  0  0  0  0  0  0  0  0
  148.9916  139.9749  154.2509 H   0  0  0  0  0  0  0  0  0  0  0  0
  149.3839  137.5796  153.6987 H   0  0  0  0  0  0  0  0  0  0  0  0
  1  2  1  0  0  0  0
  1 17  1  0  0  0  0
  1 18  1  0  0  0  0
  1 19  1  0  0  0  0
  2  3  1  0  0  0  0
  2  4  1  0  0  0  0
  2 20  1  0  0  0  0
  3 21  1  0  0  0  0
  3 22  1  0  0  0  0
  3 23  1  0  0  0  0
  4  5  1  0  0  0  0
  4 24  1  0  0  0  0
  4 25  1  0  0  0  0
  5  6  1  0  0  0  0
  5 26  1  0  0  0  0
  6  7  2  0  0  0  0
  6  8  1  0  0  0  0
  8  9  1  0  0  0  0
  8 27  1  0  0  0  0
  8 28  1  0  0  0  0
  9 15  1  0  0  0  0
  9 10  1  0  0  0  0
 10 11  2  0  0  0  0
 10 29  1  0  0  0  0
 11 12  1  0  0  0  0
 11 30  1  0  0  0  0
 12 13  2  0  0  0  0
 12 14  1  0  0  0  0
 14 15  1  0  0  0  0
 15 16  2  0  0  0  0
M  CHG  1  14  -1
M  END
> <s_m_source_file>
AV-unprocessed.smi

> <i_m_source_file_index>
2200

> <i_lp_mmshare_version>
43012

> <i_f3d_flags>
0

> <s_epik_input>
W0NIM11bQ0hdKFtDSDNdKVtDSDJdW05IXUMoPU8pW0NIMl1uMVtjSF1bY0hdYyg9TylbbkhdYzE9Tw==

> <s_epik_cmdline>
J2VwaWtfcHl0aG9uJywgJy1waCcsICc3LjAnLCAnLXRuJywgJzgnLCAnLW1hJywgJzIwMCcsICctbWV0YWxfYmluZGluZycsICctaW1hZScsICc8aW5maWxlLm1hZT4nLCAnLW9tYWUnLCAnPG91dGZpbGUubWFlPic=

> <r_lp_tautomer_probability>
0.999537

> <r_epik_Ionization_Penalty>
3.07884

> <r_epik_Ionization_Penalty_Charging>
2.64713e-08

> <r_epik_Ionization_Penalty_Neutral>
3.07884

> <r_epik_State_Penalty>
3.07787

> <r_epik_Charging_Adjusted_Penalty>
3.07787

> <i_epik_Tot_Q>
-1

> <i_epik_Tot_abs_Q>
1

> <r_epik_Metal_State_Penalty>
0.459857

> <b_epik_Metal_Only>
1

> <s_lp_Force_Field>
OPLS_2005

> <r_lp_Energy>
13.0642

> <b_lp_Chiralities_Consistent>
1

> <s_lp_Variant>
AV-unprocessed.smi:2200-2

> <Gold.Version>
5.8.1

> <Gold.Id.Protein>
6NUR|6NUR_protein|mol2

> <Gold.PLP.Fitness>
43.5669

> <Gold.PLP.PLP>
-35.8772

> <Gold.PLP.part.hbond>
-3.0000

> <Gold.PLP.part.metal>
0.0000

> <Gold.PLP.part.buried>
-1.9667

> <Gold.PLP.part.nonpolar>
-30.0453

> <Gold.PLP.part.repulsive>
0.1934

> <Gold.PLP.ligand.clash>
0.0000

> <Gold.PLP.ligand.torsion>
0.3614

> <Gold.PLP.Chemscore.Hbond>
2.8000

> <Gold.PLP.Chemscore.CHOScore>
0.0000

> <Gold.PLP.Chemscore.Metal>
0.0000

> <Gold.Chemscore.Hbonds>
donor molecule, donor type, donor heavy atom, donor atom, acceptor molecule, acceptor atom, score
      L1  H     5    26       P1  8028  0.90
      P1  H  7997  8010       L1    16  1.00
      P1  H 10752 10763       L1    13  1.00

> <Gold.PLP.Chemscore.Internal.Correction>
0.0126

> <Gold.Rescore>
     Score         DG    S(hbond)    S(metal)    S(lipo)     H(rot)  DE(clash)    DE(int)     intcor
     13.13     -17.72       2.85        0.00      66.48       1.97       0.07       4.51       ----

> <Gold.Chemscore.Fitness>
13.1311

> <Gold.Chemscore.DG>
-17.7186

> <Gold.Chemscore.ZeroCoef>
-5.4800

> <Gold.Chemscore.Hbond>
2.8451

> <Gold.Chemscore.Metal>
0.0000

> <Gold.Chemscore.Lipo>
66.4751

> <Gold.Chemscore.Internal_Hbond>
0.0000

> <Gold.Chemscore.DEClash>
0.0727

> <Gold.Chemscore.DEInternal>
4.5148

> <Gold.Chemscore.Rot>
1.9694

> <Gold.Chemscore.Internal.Correction>
   9.000000E+99

> <Gold.Chemscore.Hbonds>
donor molecule, donor type, donor heavy atom, donor atom, acceptor molecule, acceptor atom, score
      L1  H     5    26       P1  8028  0.88
      P1  H  7997  8010       L1    16  0.95
      P1  H 10752 10763       L1    13  0.98

> <Gold.Chemscore.Hbond.Weighted>
-9.5027

> <Gold.Chemscore.Metal.Weighted>
-0.0000

> <Gold.Chemscore.Lipo.Weighted>
-7.7776

> <Gold.Chemscore.Internal_Hbond.Weighted>
0.0000

> <Gold.Chemscore.DEClash.Weighted>
0.0727

> <Gold.Chemscore.DEInternal.Weighted>
4.5148

> <Gold.Chemscore.Rot.Weighted>
5.0417

> <Gold.Chemscore.Internal.Correction.Weighted>
   9.000000E+99

> <Gold.Protein.RotatedTorsions>
[ 6907 6896 6895 6894 ] final   10.26 input  -60.11 | X-H torsion
[ 7974 7965 7964 7962 ] final  149.48 input  175.53 | X-H torsion
[ 8008 7997 7996 7995 ] final   67.20 input   59.86 | X-H torsion
[ 10167 10162 10161 10158 ] final   48.97 input  -65.29 | X-H torsion
[ 10718 10713 10712 10709 ] final  -20.22 input   66.30 | X-H torsion
[ 10763 10752 10751 10750 ] final   48.64 input  -60.55 | X-H torsion
[ 11005 11000 10999 10996 ] final    0.65 input  -57.11 | X-H torsion

> <Gold.Protein.ActiveResidues>
 VAL166  LYS551  ARG553  GLY616  TRP617  ASP618  TYR619  PRO620  LYS621  CYS622 
 ASP623  PHE694  ASN695  SER759  ASP760  ASP761  ALA762  ILE779  LEU786  VAL792 
 PHE793  MET794  SER795  GLU796  ALA797  LYS798  CYS799  TRP800  GLU811  SER814 

> <Gold.Protein.RotatedAtoms>
  151.7353  135.0866  160.0306 H   0  0  0  0  0  0  0  0  0  0  0  0  # atno 6907 bound_to 6896
  152.3514  133.6180  159.5956 H   0  0  0  0  0  0  0  0  0  0  0  0  # atno 6908 bound_to 6896
  150.7542  133.9484  159.3519 H   0  0  0  0  0  0  0  0  0  0  0  0  # atno 6909 bound_to 6896
  144.8435  139.6286  143.6006 H   0  0  0  0  0  0  0  0  0  0  0  0  # atno 7974 bound_to 7965
  155.6892  140.3496  155.4886 H   0  0  0  0  0  0  0  0  0  0  0  0  # atno 8008 bound_to 7997
  155.9539  140.1124  157.0975 H   0  0  0  0  0  0  0  0  0  0  0  0  # atno 8009 bound_to 7997
  154.4128  140.1189  156.5076 H   0  0  0  0  0  0  0  0  0  0  0  0  # atno 8010 bound_to 7997
  140.2877  144.3082  150.6248 H   0  0  0  0  0  0  0  0  0  0  0  0  # atno 10167 bound_to 10162
  156.5348  130.4664  149.6528 H   0  0  0  0  0  0  0  0  0  0  0  0  # atno 10718 bound_to 10713
  152.9791  135.5938  154.3958 H   0  0  0  0  0  0  0  0  0  0  0  0  # atno 10763 bound_to 10752
  154.3609  135.2767  155.2322 H   0  0  0  0  0  0  0  0  0  0  0  0  # atno 10764 bound_to 10752
  154.4320  135.6034  153.6130 H   0  0  0  0  0  0  0  0  0  0  0  0  # atno 10765 bound_to 10752
  140.6242  133.9633  155.8240 H   0  0  0  0  0  0  0  0  0  0  0  0  # atno 11005 bound_to 11000
  146.2723  139.6667  142.9287 LP  0  0  0  0  0  0  0  0  0  0  0  0  # atno 17320 bound_to 7965
  145.4645  141.0434  143.2733 LP  0  0  0  0  0  0  0  0  0  0  0  0  # atno 17321 bound_to 7965
  140.5758  143.2176  151.7517 LP  0  0  0  0  0  0  0  0  0  0  0  0  # atno 17342 bound_to 10162
  139.4946  144.4151  152.0039 LP  0  0  0  0  0  0  0  0  0  0  0  0  # atno 17343 bound_to 10162
  156.3026  130.7185  151.2060 LP  0  0  0  0  0  0  0  0  0  0  0  0  # atno 17370 bound_to 10713
  157.7415  131.0502  150.5089 LP  0  0  0  0  0  0  0  0  0  0  0  0  # atno 17371 bound_to 10713
  141.0721  134.0190  157.3511 LP  0  0  0  0  0  0  0  0  0  0  0  0  # atno 17394 bound_to 11000
  139.9141  135.0194  156.7811 LP  0  0  0  0  0  0  0  0  0  0  0  0  # atno 17395 bound_to 11000

$$$$
