AV-unprocessed.smi:54|AV-procd|sdf|541|dock2
  -GOLD-   2262016423D 1   1.00000     0.00000
 Structure written by MMmdl.
 44 46  0  0  0  0  0  0  0  0  1 V2000
  152.2372  143.1784  161.1967 C   0  0  0  0  0  0  0  0  0  0  0  0
  152.3314  143.9205  159.8535 C   0  0  0  0  0  0  0  0  0  0  0  0
  151.6463  145.2946  159.9255 C   0  0  0  0  0  0  0  0  0  0  0  0
  151.7287  143.0763  158.7247 C   0  0  0  0  0  0  0  0  0  0  0  0
  150.8835  143.5288  157.9516 O   0  0  0  0  0  0  0  0  0  0  0  0
  152.2282  141.7158  158.6311 N   0  0  0  0  0  0  0  0  0  0  0  0
  151.8707  140.7669  157.7348 C   0  0  0  0  0  0  0  0  0  0  0  0
  150.7181  140.7822  157.0801 N   0  0  0  0  0  0  0  0  0  0  0  0
  150.5375  139.7335  156.2217 C   0  0  0  0  0  0  0  0  0  0  0  0
  151.4195  138.6990  155.9899 C   0  0  0  0  0  0  0  0  0  0  0  0
  150.8921  137.8207  155.0501 N   0  0  0  0  0  0  0  0  0  0  0  0
  149.7334  138.3374  154.7498 C   0  0  0  0  0  0  0  0  0  0  0  0
  149.4438  139.5066  155.4137 N   0  0  0  0  0  0  0  0  0  0  0  0
  148.2234  140.3716  155.3249 C   0  0  2  0  0  0  0  0  0  0  0  0
  147.1142  139.5497  155.5360 O   0  0  0  0  0  0  0  0  0  0  0  0
  146.2234  139.5942  154.4222 C   0  0  2  0  0  0  0  0  0  0  0  0
  145.5066  138.2453  154.2347 C   0  0  0  0  0  0  0  0  0  0  0  0
  144.7016  138.2809  153.0757 O   0  0  0  0  0  0  0  0  0  0  0  0
  147.0903  140.0560  153.2417 C   0  0  2  0  0  0  0  0  0  0  0  0
  147.7378  138.9637  152.6100 O   0  0  0  0  0  0  0  0  0  0  0  0
  148.0665  141.0014  153.9282 C   0  0  2  0  0  0  0  0  0  0  0  0
  149.2680  141.1892  153.2002 O   0  0  0  0  0  0  0  0  0  0  0  0
  152.6686  138.6651  156.6940 C   0  0  0  0  0  0  0  0  0  0  0  0
  153.5651  137.8280  156.6155 O   0  0  0  0  0  0  0  0  0  0  0  0
  152.8154  139.7549  157.5621 N   0  0  0  0  0  0  0  0  0  0  0  0
  148.3381  141.1015  156.1271 H   0  0  0  0  0  0  0  0  0  0  0  0
  145.4912  140.3799  154.6179 H   0  0  0  0  0  0  0  0  0  0  0  0
  146.4956  140.5728  152.4878 H   0  0  0  0  0  0  0  0  0  0  0  0
  147.5840  141.9701  154.0640 H   0  0  0  0  0  0  0  0  0  0  0  0
  152.7126  142.1981  161.1430 H   0  0  0  0  0  0  0  0  0  0  0  0
  151.2006  143.0295  161.5016 H   0  0  0  0  0  0  0  0  0  0  0  0
  152.7356  143.7399  161.9873 H   0  0  0  0  0  0  0  0  0  0  0  0
  153.3876  144.0810  159.6320 H   0  0  0  0  0  0  0  0  0  0  0  0
  151.7168  145.8236  158.9742 H   0  0  0  0  0  0  0  0  0  0  0  0
  152.1141  145.9232  160.6834 H   0  0  0  0  0  0  0  0  0  0  0  0
  150.5891  145.2038  160.1790 H   0  0  0  0  0  0  0  0  0  0  0  0
  152.9361  141.4595  159.3033 H   0  0  0  0  0  0  0  0  0  0  0  0
  149.0633  137.8789  154.0374 H   0  0  0  0  0  0  0  0  0  0  0  0
  146.2368  137.4471  154.0985 H   0  0  0  0  0  0  0  0  0  0  0  0
  144.9031  137.9902  155.1063 H   0  0  0  0  0  0  0  0  0  0  0  0
  144.5850  139.1826  152.8183 H   0  0  0  0  0  0  0  0  0  0  0  0
  148.5120  139.2876  152.1752 H   0  0  0  0  0  0  0  0  0  0  0  0
  149.3643  140.4661  152.5991 H   0  0  0  0  0  0  0  0  0  0  0  0
  153.6736  139.7962  158.0916 H   0  0  0  0  0  0  0  0  0  0  0  0
  1  2  1  0  0  0  0
  1 30  1  0  0  0  0
  1 31  1  0  0  0  0
  1 32  1  0  0  0  0
  2  3  1  0  0  0  0
  2  4  1  0  0  0  0
  2 33  1  0  0  0  0
  3 34  1  0  0  0  0
  3 35  1  0  0  0  0
  3 36  1  0  0  0  0
  4  5  2  0  0  0  0
  4  6  1  0  0  0  0
  6 37  1  0  0  0  0
  6  7  1  0  0  0  0
  7 25  1  0  0  0  0
  7  8  2  0  0  0  0
  8  9  1  0  0  0  0
  9 13  1  0  0  0  0
  9 10  2  0  0  0  0
 10 11  1  0  0  0  0
 10 23  1  0  0  0  0
 11 12  2  0  0  0  0
 12 13  1  0  0  0  0
 12 38  1  0  0  0  0
 13 14  1  0  0  0  0
 14 26  1  0  0  0  0
 14 21  1  0  0  0  0
 14 15  1  0  0  0  0
 15 16  1  0  0  0  0
 16 27  1  0  0  0  0
 16 17  1  0  0  0  0
 16 19  1  0  0  0  0
 17 18  1  0  0  0  0
 17 39  1  0  0  0  0
 17 40  1  0  0  0  0
 18 41  1  0  0  0  0
 19 28  1  0  0  0  0
 19 20  1  0  0  0  0
 19 21  1  0  0  0  0
 20 42  1  0  0  0  0
 21 29  1  0  0  0  0
 21 22  1  0  0  0  0
 22 43  1  0  0  0  0
 23 24  2  0  0  0  0
 23 25  1  0  0  0  0
 25 44  1  0  0  0  0
M  END
> <s_m_source_file>
AV-unprocessed.smi

> <i_m_source_file_index>
54

> <i_lp_mmshare_version>
43012

> <i_f3d_flags>
0

> <s_epik_input>
W0NIM11bQ0hdKFtDSDNdKUMoPU8pW05IXWMobjEpW25IXWMoPU8pYyhjMTIpbltjSF1uMltDQEBIXTNPW0NASF0oW0NIMl1bT0hdKVtDQEBIXShbT0hdKVtDQEhdM1tPSF0=

> <s_epik_cmdline>
J2VwaWtfcHl0aG9uJywgJy1waCcsICc3LjAnLCAnLXRuJywgJzgnLCAnLW1hJywgJzIwMCcsICctbWV0YWxfYmluZGluZycsICctaW1hZScsICc8aW5maWxlLm1hZT4nLCAnLW9tYWUnLCAnPG91dGZpbGUubWFlPic=

> <r_lp_tautomer_probability>
0.85571

> <r_epik_Ionization_Penalty>
0.0316551

> <r_epik_Ionization_Penalty_Charging>
0.0316043

> <r_epik_Ionization_Penalty_Neutral>
5.07097e-05

> <r_epik_State_Penalty>
3.15494e-07

> <r_epik_Charging_Adjusted_Penalty>
0.0316047

> <i_epik_Tot_Q>
0

> <i_epik_Tot_abs_Q>
0

> <r_epik_Metal_State_Penalty>
0.421206

> <b_epik_Metal_Only>
0

> <s_epik_Chemistry_Notes>
This compound contains an acetal/aminal-like group ( X-CH(R)-Y where X, Y are N, S, or O) that may be acid/base labile, releasing an aldehyde.

> <s_lp_Force_Field>
OPLS_2005

> <r_lp_Energy>
46.8633

> <b_lp_Chiralities_Consistent>
1

> <s_lp_Variant>
AV-unprocessed.smi:54-13

> <Gold.Version>
5.8.1

> <Gold.Id.Protein>
6NUR|6NUR_protein|mol2

> <Gold.PLP.Fitness>
49.6265

> <Gold.PLP.PLP>
-36.5839

> <Gold.PLP.part.hbond>
-5.9108

> <Gold.PLP.part.metal>
0.0000

> <Gold.PLP.part.buried>
-6.0390

> <Gold.PLP.part.nonpolar>
-27.9300

> <Gold.PLP.part.repulsive>
2.7282

> <Gold.PLP.ligand.clash>
0.2586

> <Gold.PLP.ligand.torsion>
0.2811

> <Gold.PLP.Chemscore.Hbond>
3.9683

> <Gold.PLP.Chemscore.CHOScore>
0.5401

> <Gold.PLP.Chemscore.Metal>
0.0000

> <Gold.Chemscore.Hbonds>
donor molecule, donor type, donor heavy atom, donor atom, acceptor molecule, acceptor atom, score
      L1  H    18    41       P1 10175  1.00
      L1  H    20    42       P1  7957  1.00
      L1  H    22    43       P1  7957  0.89
      P1  H  8011  8017       L1    22  1.00
      L1  C    12    38       P1  7948  0.55

> <Gold.PLP.Chemscore.Internal.Correction>
0.3381

> <Gold.Rescore>
     Score         DG    S(hbond)    S(metal)    S(lipo)     H(rot)  DE(clash)    DE(int)     intcor
      9.98     -13.71       3.40        0.00      61.88       4.05       1.18       2.54       ----

> <Gold.Chemscore.Fitness>
9.9841

> <Gold.Chemscore.DG>
-13.7096

> <Gold.Chemscore.ZeroCoef>
-5.4800

> <Gold.Chemscore.Hbond>
3.4001

> <Gold.Chemscore.Metal>
0.0000

> <Gold.Chemscore.Lipo>
61.8765

> <Gold.Chemscore.Internal_Hbond>
0.0000

> <Gold.Chemscore.DEClash>
1.1826

> <Gold.Chemscore.DEInternal>
2.5429

> <Gold.Chemscore.Rot>
4.0493

> <Gold.Chemscore.Internal.Correction>
   9.000000E+99

> <Gold.Chemscore.Hbonds>
donor molecule, donor type, donor heavy atom, donor atom, acceptor molecule, acceptor atom, score
      L1  H    18    41       P1 10175  0.95
      L1  H    20    42       P1  7957  1.00
      L1  H    22    43       P1  7957  0.82
      P1  H  8011  8017       L1    22  0.34

> <Gold.Chemscore.Hbond.Weighted>
-11.3562

> <Gold.Chemscore.Metal.Weighted>
-0.0000

> <Gold.Chemscore.Lipo.Weighted>
-7.2396

> <Gold.Chemscore.Internal_Hbond.Weighted>
0.0000

> <Gold.Chemscore.DEClash.Weighted>
1.1826

> <Gold.Chemscore.DEInternal.Weighted>
2.5429

> <Gold.Chemscore.Rot.Weighted>
10.3662

> <Gold.Chemscore.Internal.Correction.Weighted>
   9.000000E+99

> <Gold.Protein.RotatedTorsions>
[ 6907 6896 6895 6894 ] final   62.48 input  -60.11 | X-H torsion
[ 7974 7965 7964 7962 ] final -122.61 input  175.53 | X-H torsion
[ 8008 7997 7996 7995 ] final  121.59 input   59.86 | X-H torsion
[ 10167 10162 10161 10158 ] final   73.03 input  -65.29 | X-H torsion
[ 10718 10713 10712 10709 ] final -122.19 input   66.30 | X-H torsion
[ 10763 10752 10751 10750 ] final  -65.46 input  -60.55 | X-H torsion
[ 11005 11000 10999 10996 ] final  160.33 input  -57.11 | X-H torsion

> <Gold.Protein.ActiveResidues>
 VAL166  LYS551  ARG553  GLY616  TRP617  ASP618  TYR619  PRO620  LYS621  CYS622 
 ASP623  PHE694  ASN695  SER759  ASP760  ASP761  ALA762  ILE779  LEU786  VAL792 
 PHE793  MET794  SER795  GLU796  ALA797  LYS798  CYS799  TRP800  GLU811  SER814 

> <Gold.Protein.RotatedAtoms>
  152.4175  134.6015  160.0001 H   0  0  0  0  0  0  0  0  0  0  0  0  # atno 6907 bound_to 6896
  151.6174  133.3336  159.3088 H   0  0  0  0  0  0  0  0  0  0  0  0  # atno 6908 bound_to 6896
  150.8063  134.7230  159.6713 H   0  0  0  0  0  0  0  0  0  0  0  0  # atno 6909 bound_to 6896
  145.0276  140.8041  143.4343 H   0  0  0  0  0  0  0  0  0  0  0  0  # atno 7974 bound_to 7965
  156.2693  140.2805  156.1332 H   0  0  0  0  0  0  0  0  0  0  0  0  # atno 8008 bound_to 7997
  155.1032  140.0390  157.2720 H   0  0  0  0  0  0  0  0  0  0  0  0  # atno 8009 bound_to 7997
  154.6799  140.2606  155.6925 H   0  0  0  0  0  0  0  0  0  0  0  0  # atno 8010 bound_to 7997
  140.0289  144.5481  150.7523 H   0  0  0  0  0  0  0  0  0  0  0  0  # atno 10167 bound_to 10162
  156.1398  130.6457  150.9753 H   0  0  0  0  0  0  0  0  0  0  0  0  # atno 10718 bound_to 10713
  154.3453  135.6148  153.5616 H   0  0  0  0  0  0  0  0  0  0  0  0  # atno 10763 bound_to 10752
  152.9801  135.5779  154.4806 H   0  0  0  0  0  0  0  0  0  0  0  0  # atno 10764 bound_to 10752
  154.4517  135.2853  155.1753 H   0  0  0  0  0  0  0  0  0  0  0  0  # atno 10765 bound_to 10752
  140.2049  134.8311  157.3058 H   0  0  0  0  0  0  0  0  0  0  0  0  # atno 11005 bound_to 11000
  145.1813  139.2350  143.5291 LP  0  0  0  0  0  0  0  0  0  0  0  0  # atno 17320 bound_to 7965
  146.3494  140.1587  142.8591 LP  0  0  0  0  0  0  0  0  0  0  0  0  # atno 17321 bound_to 7965
  140.7310  143.2690  151.3950 LP  0  0  0  0  0  0  0  0  0  0  0  0  # atno 17342 bound_to 10162
  139.6089  144.1139  152.2278 LP  0  0  0  0  0  0  0  0  0  0  0  0  # atno 17343 bound_to 10162
  157.6565  131.0888  150.7935 LP  0  0  0  0  0  0  0  0  0  0  0  0  # atno 17370 bound_to 10713
  156.8011  130.4921  149.5369 LP  0  0  0  0  0  0  0  0  0  0  0  0  # atno 17371 bound_to 10713
  140.2014  134.4250  155.7661 LP  0  0  0  0  0  0  0  0  0  0  0  0  # atno 17394 bound_to 11000
  141.2227  133.7074  156.8190 LP  0  0  0  0  0  0  0  0  0  0  0  0  # atno 17395 bound_to 11000

$$$$
