AV-unprocessed.smi:2956|AV-procd|sdf|11305|dock10
  -GOLD-   2272016203D 1   1.00000     0.00000
 Structure written by MMmdl.
 25 26  0  0  0  0  0  0  0  0  1 V2000
  150.9532  139.5096  154.1747 O   0  0  0  0  0  0  0  0  0  0  0  0
  150.4671  140.0070  155.1917 C   0  0  0  0  0  0  0  0  0  0  0  0
  151.0325  139.6760  156.5816 C   0  0  0  0  0  0  0  0  0  0  0  0
  151.3896  140.8640  157.3720 N   0  0  0  0  0  0  0  0  0  0  0  0
  150.5927  141.9676  157.1217 N   0  0  0  0  0  0  0  0  0  0  0  0
  150.8014  143.0611  157.7700 C   0  0  0  0  0  0  0  0  0  0  0  0
  151.8507  143.1829  158.7577 C   0  0  0  0  0  0  0  0  0  0  0  0
  152.0821  144.6762  159.5970 Cl  0  0  0  0  0  0  0  0  0  0  0  0
  152.6302  142.0973  158.9914 C   0  0  0  0  0  0  0  0  0  0  0  0
  153.9058  142.1660  160.1585 Cl  0  0  0  0  0  0  0  0  0  0  0  0
  152.4221  140.8339  158.2702 C   0  0  0  0  0  0  0  0  0  0  0  0
  153.1094  139.8278  158.4510 O   0  0  0  0  0  0  0  0  0  0  0  0
  149.4200  140.8444  155.1734 N   0  0  0  0  0  0  0  0  0  0  0  0
  148.7381  141.2938  154.0031 C   0  0  0  0  0  0  0  0  0  0  0  0
  147.4738  142.1029  154.1979 C   0  0  0  0  0  0  0  0  0  0  0  0
  147.3857  140.6876  153.6970 C   0  0  0  0  0  0  0  0  0  0  0  0
  150.3100  139.0671  157.1284 H   0  0  0  0  0  0  0  0  0  0  0  0
  151.9079  139.0380  156.4470 H   0  0  0  0  0  0  0  0  0  0  0  0
  150.1978  143.9542  157.6083 H   0  0  0  0  0  0  0  0  0  0  0  0
  149.0845  141.1989  156.0574 H   0  0  0  0  0  0  0  0  0  0  0  0
  149.3479  141.5669  153.1430 H   0  0  0  0  0  0  0  0  0  0  0  0
  147.1431  142.2953  155.2169 H   0  0  0  0  0  0  0  0  0  0  0  0
  147.2731  142.9005  153.4857 H   0  0  0  0  0  0  0  0  0  0  0  0
  147.1292  140.5401  152.6498 H   0  0  0  0  0  0  0  0  0  0  0  0
  146.9983  139.9351  154.3812 H   0  0  0  0  0  0  0  0  0  0  0  0
  1  2  2  0  0  0  0
  2  3  1  0  0  0  0
  2 13  1  0  0  0  0
  3  4  1  0  0  0  0
  3 17  1  0  0  0  0
  3 18  1  0  0  0  0
  4 11  1  0  0  0  0
  4  5  1  0  0  0  0
  5  6  2  0  0  0  0
  6  7  1  0  0  0  0
  6 19  1  0  0  0  0
  7  8  1  0  0  0  0
  7  9  2  0  0  0  0
  9 10  1  0  0  0  0
  9 11  1  0  0  0  0
 11 12  2  0  0  0  0
 13 14  1  0  0  0  0
 13 20  1  0  0  0  0
 14 16  1  0  0  0  0
 14 15  1  0  0  0  0
 14 21  1  0  0  0  0
 15 16  1  0  0  0  0
 15 22  1  0  0  0  0
 15 23  1  0  0  0  0
 16 24  1  0  0  0  0
 16 25  1  0  0  0  0
M  END
> <s_m_source_file>
AV-unprocessed.smi

> <i_m_source_file_index>
2956

> <i_lp_mmshare_version>
43012

> <i_f3d_flags>
0

> <s_epik_input>
W0NIMl0xW0NIMl1bQ0hdMVtOSF1DKD1PKVtDSDJdbjJuW2NIXWMoQ2wpYyhDbCljMj1P

> <s_epik_cmdline>
J2VwaWtfcHl0aG9uJywgJy1waCcsICc3LjAnLCAnLXRuJywgJzgnLCAnLW1hJywgJzIwMCcsICctbWV0YWxfYmluZGluZycsICctaW1hZScsICc8aW5maWxlLm1hZT4nLCAnLW9tYWUnLCAnPG91dGZpbGUubWFlPic=

> <r_lp_tautomer_probability>
1

> <r_epik_Ionization_Penalty>
2.06989e-08

> <r_epik_Ionization_Penalty_Charging>
2.85155e-11

> <r_epik_Ionization_Penalty_Neutral>
2.06703e-08

> <r_epik_State_Penalty>
-0

> <r_epik_Charging_Adjusted_Penalty>
2.85155e-11

> <i_epik_Tot_Q>
0

> <i_epik_Tot_abs_Q>
0

> <r_epik_Metal_State_Penalty>
-0

> <b_epik_Metal_Only>
0

> <s_lp_Force_Field>
OPLS_2005

> <r_lp_Energy>
29.5671

> <b_lp_Chiralities_Consistent>
1

> <s_lp_Variant>
AV-unprocessed.smi:2956-1

> <Gold.Version>
5.8.1

> <Gold.Id.Protein>
6NUR|6NUR_protein|mol2

> <Gold.PLP.Fitness>
41.2090

> <Gold.PLP.PLP>
-33.2463

> <Gold.PLP.part.hbond>
-2.0000

> <Gold.PLP.part.metal>
0.0000

> <Gold.PLP.part.buried>
-3.0705

> <Gold.PLP.part.nonpolar>
-28.1330

> <Gold.PLP.part.repulsive>
0.3511

> <Gold.PLP.ligand.clash>
0.0000

> <Gold.PLP.ligand.torsion>
0.5363

> <Gold.PLP.Chemscore.Hbond>
2.0000

> <Gold.PLP.Chemscore.CHOScore>
1.0000

> <Gold.PLP.Chemscore.Metal>
0.0000

> <Gold.Chemscore.Hbonds>
donor molecule, donor type, donor heavy atom, donor atom, acceptor molecule, acceptor atom, score
      P1  H  7989  7998       L1     1  1.00
      P1  H  7997  8010       L1    12  0.91
      L1  C     6    19       P1  8028  1.00

> <Gold.PLP.Chemscore.Internal.Correction>
0.0354

> <Gold.Rescore>
     Score         DG    S(hbond)    S(metal)    S(lipo)     H(rot)  DE(clash)    DE(int)     intcor
     16.15     -16.56       1.85        0.00      76.70       1.59       0.01       0.41       ----

> <Gold.Chemscore.Fitness>
16.1478

> <Gold.Chemscore.DG>
-16.5589

> <Gold.Chemscore.ZeroCoef>
-5.4800

> <Gold.Chemscore.Hbond>
1.8509

> <Gold.Chemscore.Metal>
0.0000

> <Gold.Chemscore.Lipo>
76.7048

> <Gold.Chemscore.Internal_Hbond>
0.0000

> <Gold.Chemscore.DEClash>
0.0060

> <Gold.Chemscore.DEInternal>
0.4051

> <Gold.Chemscore.Rot>
1.5928

> <Gold.Chemscore.Internal.Correction>
   9.000000E+99

> <Gold.Chemscore.Hbonds>
donor molecule, donor type, donor heavy atom, donor atom, acceptor molecule, acceptor atom, score
      P1  H  7989  7998       L1     1  0.30
      P1  H  7997  8010       L1    12  0.35

> <Gold.Chemscore.Hbond.Weighted>
-6.1819

> <Gold.Chemscore.Metal.Weighted>
-0.0000

> <Gold.Chemscore.Lipo.Weighted>
-8.9745

> <Gold.Chemscore.Internal_Hbond.Weighted>
0.0000

> <Gold.Chemscore.DEClash.Weighted>
0.0060

> <Gold.Chemscore.DEInternal.Weighted>
0.4051

> <Gold.Chemscore.Rot.Weighted>
4.0775

> <Gold.Chemscore.Internal.Correction.Weighted>
   9.000000E+99

> <Gold.Protein.RotatedTorsions>
[ 6907 6896 6895 6894 ] final -171.15 input  -60.11 | X-H torsion
[ 7974 7965 7964 7962 ] final  -12.42 input  175.53 | X-H torsion
[ 8008 7997 7996 7995 ] final   32.81 input   59.86 | X-H torsion
[ 10167 10162 10161 10158 ] final  -87.80 input  -65.29 | X-H torsion
[ 10718 10713 10712 10709 ] final   32.61 input   66.30 | X-H torsion
[ 10763 10752 10751 10750 ] final  138.04 input  -60.55 | X-H torsion
[ 11005 11000 10999 10996 ] final  159.35 input  -57.11 | X-H torsion

> <Gold.Protein.ActiveResidues>
 VAL166  LYS551  ARG553  GLY616  TRP617  ASP618  TYR619  PRO620  LYS621  CYS622 
 ASP623  PHE694  ASN695  SER759  ASP760  ASP761  ALA762  ILE779  LEU786  VAL792 
 PHE793  MET794  SER795  GLU796  ALA797  LYS798  CYS799  TRP800  GLU811  SER814 

> <Gold.Protein.RotatedAtoms>
  151.5192  133.3470  159.2898 H   0  0  0  0  0  0  0  0  0  0  0  0  # atno 6907 bound_to 6896
  150.8663  134.8030  159.7132 H   0  0  0  0  0  0  0  0  0  0  0  0  # atno 6908 bound_to 6896
  152.4667  134.5069  159.9793 H   0  0  0  0  0  0  0  0  0  0  0  0  # atno 6909 bound_to 6896
  146.2152  140.3055  142.8378 H   0  0  0  0  0  0  0  0  0  0  0  0  # atno 7974 bound_to 7965
  155.1285  140.3255  155.4480 H   0  0  0  0  0  0  0  0  0  0  0  0  # atno 8008 bound_to 7997
  156.2641  140.2014  156.6353 H   0  0  0  0  0  0  0  0  0  0  0  0  # atno 8009 bound_to 7997
  154.6630  140.0545  157.0070 H   0  0  0  0  0  0  0  0  0  0  0  0  # atno 8010 bound_to 7997
  140.3809  143.2749  151.9385 H   0  0  0  0  0  0  0  0  0  0  0  0  # atno 10167 bound_to 10162
  157.2875  130.7286  149.6591 H   0  0  0  0  0  0  0  0  0  0  0  0  # atno 10718 bound_to 10713
  153.8829  135.3042  155.3445 H   0  0  0  0  0  0  0  0  0  0  0  0  # atno 10763 bound_to 10752
  154.7753  135.4864  153.9734 H   0  0  0  0  0  0  0  0  0  0  0  0  # atno 10764 bound_to 10752
  153.1341  135.6810  153.9228 H   0  0  0  0  0  0  0  0  0  0  0  0  # atno 10765 bound_to 10752
  140.1953  134.8377  157.2958 H   0  0  0  0  0  0  0  0  0  0  0  0  # atno 11005 bound_to 11000
  144.9026  140.7661  143.5857 LP  0  0  0  0  0  0  0  0  0  0  0  0  # atno 17320 bound_to 7965
  145.2981  139.1860  143.4704 LP  0  0  0  0  0  0  0  0  0  0  0  0  # atno 17321 bound_to 7965
  139.4795  144.5819  151.7918 LP  0  0  0  0  0  0  0  0  0  0  0  0  # atno 17342 bound_to 10162
  140.4938  144.1270  150.5956 LP  0  0  0  0  0  0  0  0  0  0  0  0  # atno 17343 bound_to 10162
  155.9666  130.4319  150.4940 LP  0  0  0  0  0  0  0  0  0  0  0  0  # atno 17370 bound_to 10713
  157.2896  131.0623  151.2142 LP  0  0  0  0  0  0  0  0  0  0  0  0  # atno 17371 bound_to 10713
  140.2114  134.4134  155.7611 LP  0  0  0  0  0  0  0  0  0  0  0  0  # atno 17394 bound_to 11000
  141.2227  133.7120  156.8343 LP  0  0  0  0  0  0  0  0  0  0  0  0  # atno 17395 bound_to 11000

$$$$
