AV-unprocessed.smi:38|AV-procd|sdf|340|dock1
  -GOLD-   2262016173D 1   1.00000     0.00000
 Structure written by MMmdl.
 28 29  0  0  0  0  0  0  0  0  1 V2000
  152.9382  138.8149  157.3001 O   0  0  0  0  0  0  0  0  0  0  0  0
  152.0570  139.4441  156.7179 C   0  0  0  0  0  0  0  0  0  0  0  0
  151.3947  140.4897  157.3666 N   0  0  0  0  0  0  0  0  0  0  0  0
  150.3784  141.2713  156.8151 C   0  0  0  0  0  0  0  0  0  0  0  0
  149.8783  142.1823  157.4736 O   0  0  0  0  0  0  0  0  0  0  0  0
  149.9700  140.9694  155.4965 N   0  0  0  0  0  0  0  0  0  0  0  0
  148.8785  141.8152  154.8711 C   0  0  2  0  0  0  0  0  0  0  0  0
  147.5625  141.7000  155.6551 C   0  0  0  0  0  0  0  0  0  0  0  0
  146.5442  141.6705  154.5367 C   0  0  2  0  0  0  0  0  0  0  0  0
  145.3134  141.1106  154.9489 O   0  0  0  0  0  0  0  0  0  0  0  0
  147.2740  140.8811  153.4433 C   0  0  2  0  0  0  0  0  0  0  0  0
  147.2682  139.3472  153.6296 C   0  0  0  0  0  0  0  0  0  0  0  0
  147.7598  138.7218  152.4636 O   0  0  0  0  0  0  0  0  0  0  0  0
  148.6122  141.3665  153.5696 O   0  0  0  0  0  0  0  0  0  0  0  0
  150.6221  139.9548  154.8032 C   0  0  0  0  0  0  0  0  0  0  0  0
  151.6105  139.2068  155.3485 C   0  0  0  0  0  0  0  0  0  0  0  0
  152.1912  138.2402  154.6175 F   0  0  0  0  0  0  0  0  0  0  0  0
  151.6787  140.7002  158.3122 H   0  0  0  0  0  0  0  0  0  0  0  0
  149.2802  142.8293  154.8287 H   0  0  0  0  0  0  0  0  0  0  0  0
  146.3663  142.6887  154.1878 H   0  0  0  0  0  0  0  0  0  0  0  0
  146.8667  141.1362  152.4641 H   0  0  0  0  0  0  0  0  0  0  0  0
  147.5471  140.7663  156.2202 H   0  0  0  0  0  0  0  0  0  0  0  0
  147.4323  142.5362  156.3426 H   0  0  0  0  0  0  0  0  0  0  0  0
  144.7223  141.1065  154.2114 H   0  0  0  0  0  0  0  0  0  0  0  0
  147.8463  139.0345  154.4987 H   0  0  0  0  0  0  0  0  0  0  0  0
  146.2526  138.9798  153.7751 H   0  0  0  0  0  0  0  0  0  0  0  0
  148.6120  139.0795  152.2670 H   0  0  0  0  0  0  0  0  0  0  0  0
  150.3516  139.7308  153.7824 H   0  0  0  0  0  0  0  0  0  0  0  0
  1  2  2  0  0  0  0
  2 16  1  0  0  0  0
  2  3  1  0  0  0  0
  3 18  1  0  0  0  0
  3  4  1  0  0  0  0
  4  5  2  0  0  0  0
  4  6  1  0  0  0  0
  6  7  1  0  0  0  0
  6 15  1  0  0  0  0
  7 19  1  0  0  0  0
  7 14  1  0  0  0  0
  7  8  1  0  0  0  0
  8  9  1  0  0  0  0
  8 22  1  0  0  0  0
  8 23  1  0  0  0  0
  9 20  1  0  0  0  0
  9 10  1  0  0  0  0
  9 11  1  0  0  0  0
 10 24  1  0  0  0  0
 11 21  1  0  0  0  0
 11 12  1  0  0  0  0
 11 14  1  0  0  0  0
 12 13  1  0  0  0  0
 12 25  1  0  0  0  0
 12 26  1  0  0  0  0
 13 27  1  0  0  0  0
 15 16  2  0  0  0  0
 15 28  1  0  0  0  0
 16 17  1  0  0  0  0
M  END
> <s_m_source_file>
AV-unprocessed.smi

> <i_m_source_file_index>
38

> <i_lp_mmshare_version>
43012

> <i_f3d_flags>
0

> <s_epik_input>
Tz1jMVtuSF1jKD1PKW4oW2NIXWMxRilbQ0BIXTJbQ0gyXVtDQEhdKFtPSF0pW0NASF0oTzIpW0NIMl1bT0hd

> <s_epik_cmdline>
J2VwaWtfcHl0aG9uJywgJy1waCcsICc3LjAnLCAnLXRuJywgJzgnLCAnLW1hJywgJzIwMCcsICctbWV0YWxfYmluZGluZycsICctaW1hZScsICc8aW5maWxlLm1hZT4nLCAnLW9tYWUnLCAnPG91dGZpbGUubWFlPic=

> <r_lp_tautomer_probability>
0.999537

> <r_epik_Ionization_Penalty>
0.0357432

> <r_epik_Ionization_Penalty_Charging>
0.0357431

> <r_epik_Ionization_Penalty_Neutral>
1.19946e-07

> <r_epik_State_Penalty>
0.0298169

> <r_epik_Charging_Adjusted_Penalty>
0.06556

> <i_epik_Tot_Q>
0

> <i_epik_Tot_abs_Q>
0

> <r_epik_Metal_State_Penalty>
2.348

> <b_epik_Metal_Only>
0

> <s_epik_Chemistry_Notes>
This compound contains an acetal/aminal-like group ( X-CH(R)-Y where X, Y are N, S, or O) that may be acid/base labile, releasing an aldehyde.

> <s_lp_Force_Field>
OPLS_2005

> <r_lp_Energy>
30.3129

> <b_lp_Chiralities_Consistent>
1

> <s_lp_Variant>
AV-unprocessed.smi:38-6

> <Gold.Version>
5.8.1

> <Gold.Id.Protein>
6NUR|6NUR_protein|mol2

> <Gold.PLP.Fitness>
43.2519

> <Gold.PLP.PLP>
-29.1515

> <Gold.PLP.part.hbond>
-5.0000

> <Gold.PLP.part.metal>
0.0000

> <Gold.PLP.part.buried>
0.4179

> <Gold.PLP.part.nonpolar>
-26.1712

> <Gold.PLP.part.repulsive>
2.1236

> <Gold.PLP.ligand.clash>
0.0000

> <Gold.PLP.ligand.torsion>
0.0952

> <Gold.PLP.Chemscore.Hbond>
3.8160

> <Gold.PLP.Chemscore.CHOScore>
0.9395

> <Gold.PLP.Chemscore.Metal>
0.0000

> <Gold.Chemscore.Hbonds>
donor molecule, donor type, donor heavy atom, donor atom, acceptor molecule, acceptor atom, score
      L1  H    10    24       P1 10175  0.83
      L1  H    13    27       P1  7957  0.93
      P1  H  7997  8010       L1     1  0.85
      P1  H  8011  8017       L1    14  0.80
      L1  C    15    28       P1  7957  0.49

> <Gold.PLP.Chemscore.Internal.Correction>
0.0245

> <Gold.Rescore>
     Score         DG    S(hbond)    S(metal)    S(lipo)     H(rot)  DE(clash)    DE(int)     intcor
      8.15     -12.68       3.00        0.00      39.59       2.91       3.29       1.24       ----

> <Gold.Chemscore.Fitness>
8.1489

> <Gold.Chemscore.DG>
-12.6833

> <Gold.Chemscore.ZeroCoef>
-5.4800

> <Gold.Chemscore.Hbond>
3.0033

> <Gold.Chemscore.Metal>
0.0000

> <Gold.Chemscore.Lipo>
39.5918

> <Gold.Chemscore.Internal_Hbond>
0.0000

> <Gold.Chemscore.DEClash>
3.2947

> <Gold.Chemscore.DEInternal>
1.2396

> <Gold.Chemscore.Rot>
2.9141

> <Gold.Chemscore.Internal.Correction>
   9.000000E+99

> <Gold.Chemscore.Hbonds>
donor molecule, donor type, donor heavy atom, donor atom, acceptor molecule, acceptor atom, score
      L1  H    10    24       P1 10175  0.67
      L1  H    13    27       P1  7957  0.89
      P1  H  7997  8010       L1     1  0.14
      P1  H  8011  8017       L1    14  0.46

> <Gold.Chemscore.Hbond.Weighted>
-10.0311

> <Gold.Chemscore.Metal.Weighted>
-0.0000

> <Gold.Chemscore.Lipo.Weighted>
-4.6322

> <Gold.Chemscore.Internal_Hbond.Weighted>
0.0000

> <Gold.Chemscore.DEClash.Weighted>
3.2947

> <Gold.Chemscore.DEInternal.Weighted>
1.2396

> <Gold.Chemscore.Rot.Weighted>
7.4601

> <Gold.Chemscore.Internal.Correction.Weighted>
   9.000000E+99

> <Gold.Protein.RotatedTorsions>
[ 6907 6896 6895 6894 ] final -142.15 input  -60.11 | X-H torsion
[ 7974 7965 7964 7962 ] final -156.03 input  175.53 | X-H torsion
[ 8008 7997 7996 7995 ] final   48.44 input   59.86 | X-H torsion
[ 10167 10162 10161 10158 ] final   22.15 input  -65.29 | X-H torsion
[ 10718 10713 10712 10709 ] final  -72.02 input   66.30 | X-H torsion
[ 10763 10752 10751 10750 ] final -169.56 input  -60.55 | X-H torsion
[ 11005 11000 10999 10996 ] final  171.94 input  -57.11 | X-H torsion

> <Gold.Protein.ActiveResidues>
 VAL166  LYS551  ARG553  GLY616  TRP617  ASP618  TYR619  PRO620  LYS621  CYS622 
 ASP623  PHE694  ASN695  SER759  ASP760  ASP761  ALA762  ILE779  LEU786  VAL792 
 PHE793  MET794  SER795  GLU796  ALA797  LYS798  CYS799  TRP800  GLU811  SER814 

> <Gold.Protein.RotatedAtoms>
  151.0832  133.5373  159.2619 H   0  0  0  0  0  0  0  0  0  0  0  0  # atno 6907 bound_to 6896
  151.2269  135.0539  159.8982 H   0  0  0  0  0  0  0  0  0  0  0  0  # atno 6908 bound_to 6896
  152.5426  134.0627  159.8213 H   0  0  0  0  0  0  0  0  0  0  0  0  # atno 6909 bound_to 6896
  144.7612  140.4167  143.5975 H   0  0  0  0  0  0  0  0  0  0  0  0  # atno 7974 bound_to 7965
  155.3857  140.3431  155.4249 H   0  0  0  0  0  0  0  0  0  0  0  0  # atno 8008 bound_to 7997
  156.1586  140.1593  156.8684 H   0  0  0  0  0  0  0  0  0  0  0  0  # atno 8009 bound_to 7997
  154.5118  140.0788  156.7986 H   0  0  0  0  0  0  0  0  0  0  0  0  # atno 8010 bound_to 7997
  140.5371  143.9742  150.6498 H   0  0  0  0  0  0  0  0  0  0  0  0  # atno 10167 bound_to 10162
  156.0338  130.4363  150.2530 H   0  0  0  0  0  0  0  0  0  0  0  0  # atno 10718 bound_to 10713
  154.6509  135.2911  154.9987 H   0  0  0  0  0  0  0  0  0  0  0  0  # atno 10763 bound_to 10752
  154.1081  135.6566  153.4884 H   0  0  0  0  0  0  0  0  0  0  0  0  # atno 10764 bound_to 10752
  153.0376  135.5258  154.7417 H   0  0  0  0  0  0  0  0  0  0  0  0  # atno 10765 bound_to 10752
  140.3244  134.7410  157.4088 H   0  0  0  0  0  0  0  0  0  0  0  0  # atno 11005 bound_to 11000
  145.6613  139.1582  143.2806 LP  0  0  0  0  0  0  0  0  0  0  0  0  # atno 17320 bound_to 7965
  146.1677  140.6693  142.9248 LP  0  0  0  0  0  0  0  0  0  0  0  0  # atno 17321 bound_to 7965
  140.3132  143.3184  152.0858 LP  0  0  0  0  0  0  0  0  0  0  0  0  # atno 17342 bound_to 10162
  139.4975  144.6622  151.6438 LP  0  0  0  0  0  0  0  0  0  0  0  0  # atno 17343 bound_to 10162
  157.0631  131.0095  151.3216 LP  0  0  0  0  0  0  0  0  0  0  0  0  # atno 17370 bound_to 10713
  157.5056  130.7906  149.7650 LP  0  0  0  0  0  0  0  0  0  0  0  0  # atno 17371 bound_to 10713
  140.0914  134.5596  155.8441 LP  0  0  0  0  0  0  0  0  0  0  0  0  # atno 17394 bound_to 11000
  141.2079  133.6668  156.6334 LP  0  0  0  0  0  0  0  0  0  0  0  0  # atno 17395 bound_to 11000

$$$$
