AV-unprocessed.smi:2408|AV-procd|sdf|9521|dock3
  -GOLD-   2272013153D 1   1.00000     0.00000
 Structure written by MMmdl.
 48 50  0  0  0  0  0  0  0  0  2 V2000
  143.0638  135.2790  152.4741 C   0  0  0  0  0  0  0  0  0  0  0  0
  143.7350  134.0846  151.8209 C   0  0  0  0  0  0  0  0  0  0  0  0
  142.9973  133.3487  150.9585 N   0  3  0  0  0  0  0  0  0  0  0  0
  143.4776  132.2638  150.3143 C   0  0  0  0  0  0  0  0  0  0  0  0
  144.8050  131.8499  150.5362 C   0  0  0  0  0  0  0  0  0  0  0  0
  145.6144  132.5855  151.4255 C   0  0  0  0  0  0  0  0  0  0  0  0
  145.0836  133.7306  152.0725 C   0  0  0  0  0  0  0  0  0  0  0  0
  145.8362  134.5097  152.9940 N   0  0  0  0  0  0  0  0  0  0  0  0
  146.8460  134.1029  153.7815 C   0  0  0  0  0  0  0  0  0  0  0  0
  147.2792  132.9521  153.8341 O   0  0  0  0  0  0  0  0  0  0  0  0
  147.3561  135.1273  154.4879 N   0  0  0  0  0  0  0  0  0  0  0  0
  148.4878  135.0987  155.4336 C   0  0  0  0  0  0  0  0  0  0  0  0
  149.1688  136.4867  155.6102 C   0  0  0  0  0  0  0  0  0  0  0  0
  149.2873  136.9758  156.7345 O   0  0  0  0  0  0  0  0  0  0  0  0
  149.5955  137.1272  154.5092 N   0  0  0  0  0  0  0  0  0  0  0  0
  150.2498  138.4260  154.4992 C   0  0  0  0  0  0  0  0  0  0  0  0
  151.5191  138.4756  155.3230 C   0  0  0  0  0  0  0  0  0  0  0  0
  152.3574  139.7314  155.3657 C   0  0  0  0  0  0  0  0  0  0  0  0
  152.8770  138.5004  154.6618 C   0  0  0  0  0  0  0  0  0  0  0  0
  147.9569  134.6321  156.8105 C   0  0  0  0  0  0  0  0  0  0  0  0
  149.0574  133.7710  157.4268 C   0  0  0  0  0  0  0  0  0  0  0  0
  149.6532  133.0331  156.2354 C   0  0  0  0  0  0  0  0  0  0  0  0
  149.5184  133.9921  155.0451 C   0  0  0  0  0  0  0  0  0  0  0  0
  143.6064  136.1951  152.2382 H   0  0  0  0  0  0  0  0  0  0  0  0
  143.0458  135.1585  153.5576 H   0  0  0  0  0  0  0  0  0  0  0  0
  142.0357  135.3970  152.1293 H   0  0  0  0  0  0  0  0  0  0  0  0
  142.7886  131.7605  149.6517 H   0  0  0  0  0  0  0  0  0  0  0  0
  145.1977  130.9769  150.0352 H   0  0  0  0  0  0  0  0  0  0  0  0
  146.6249  132.2515  151.6069 H   0  0  0  0  0  0  0  0  0  0  0  0
  145.6523  135.5023  152.9812 H   0  0  0  0  0  0  0  0  0  0  0  0
  146.9238  136.0305  154.3601 H   0  0  0  0  0  0  0  0  0  0  0  0
  149.4628  136.6747  153.6167 H   0  0  0  0  0  0  0  0  0  0  0  0
  150.4739  138.7054  153.4686 H   0  0  0  0  0  0  0  0  0  0  0  0
  149.5630  139.1783  154.8901 H   0  0  0  0  0  0  0  0  0  0  0  0
  151.4523  137.9262  156.2605 H   0  0  0  0  0  0  0  0  0  0  0  0
  152.0482  140.5703  154.7450 H   0  0  0  0  0  0  0  0  0  0  0  0
  152.8142  139.9980  156.3166 H   0  0  0  0  0  0  0  0  0  0  0  0
  153.6794  137.9456  155.1437 H   0  0  0  0  0  0  0  0  0  0  0  0
  152.9114  138.5203  153.5742 H   0  0  0  0  0  0  0  0  0  0  0  0
  147.6760  135.4557  157.4696 H   0  0  0  0  0  0  0  0  0  0  0  0
  147.0637  134.0172  156.6862 H   0  0  0  0  0  0  0  0  0  0  0  0
  149.8150  134.4067  157.8868 H   0  0  0  0  0  0  0  0  0  0  0  0
  148.6815  133.0939  158.1943 H   0  0  0  0  0  0  0  0  0  0  0  0
  150.6854  132.7279  156.4105 H   0  0  0  0  0  0  0  0  0  0  0  0
  149.0720  132.1306  156.0417 H   0  0  0  0  0  0  0  0  0  0  0  0
  149.2154  133.4231  154.1657 H   0  0  0  0  0  0  0  0  0  0  0  0
  150.4943  134.4125  154.7983 H   0  0  0  0  0  0  0  0  0  0  0  0
  142.0309  133.6265  150.7861 H   0  0  0  0  0  0  0  0  0  0  0  0
  1  2  1  0  0  0  0
  1 24  1  0  0  0  0
  1 25  1  0  0  0  0
  1 26  1  0  0  0  0
  2  7  1  0  0  0  0
  2  3  2  0  0  0  0
  3  4  1  0  0  0  0
  3 48  1  0  0  0  0
  4  5  2  0  0  0  0
  4 27  1  0  0  0  0
  5  6  1  0  0  0  0
  5 28  1  0  0  0  0
  6  7  2  0  0  0  0
  6 29  1  0  0  0  0
  7  8  1  0  0  0  0
  8  9  1  0  0  0  0
  8 30  1  0  0  0  0
  9 10  2  0  0  0  0
  9 11  1  0  0  0  0
 11 12  1  0  0  0  0
 11 31  1  0  0  0  0
 12 23  1  0  0  0  0
 12 13  1  0  0  0  0
 12 20  1  0  0  0  0
 13 14  2  0  0  0  0
 13 15  1  0  0  0  0
 15 16  1  0  0  0  0
 15 32  1  0  0  0  0
 16 17  1  0  0  0  0
 16 33  1  0  0  0  0
 16 34  1  0  0  0  0
 17 19  1  0  0  0  0
 17 18  1  0  0  0  0
 17 35  1  0  0  0  0
 18 19  1  0  0  0  0
 18 36  1  0  0  0  0
 18 37  1  0  0  0  0
 19 38  1  0  0  0  0
 19 39  1  0  0  0  0
 20 21  1  0  0  0  0
 20 40  1  0  0  0  0
 20 41  1  0  0  0  0
 21 22  1  0  0  0  0
 21 42  1  0  0  0  0
 21 43  1  0  0  0  0
 22 23  1  0  0  0  0
 22 44  1  0  0  0  0
 22 45  1  0  0  0  0
 23 46  1  0  0  0  0
 23 47  1  0  0  0  0
M  CHG  1   3   1
M  END
> <s_m_source_file>
AV-unprocessed.smi

> <i_m_source_file_index>
2408

> <i_lp_mmshare_version>
43012

> <i_f3d_flags>
0

> <s_epik_input>
W0NIM11jMW5bY0hdW2NIXVtjSF1jMVtOSF1DKD1PKVtOSF1DMihbQ0gyXVtDSDJdW0NIMl1bQ0gyXTIpQyg9TylbTkhdW0NIMl1bQ0hdM1tDSDJdW0NIMl0z

> <s_epik_cmdline>
J2VwaWtfcHl0aG9uJywgJy1waCcsICc3LjAnLCAnLXRuJywgJzgnLCAnLW1hJywgJzIwMCcsICctbWV0YWxfYmluZGluZycsICctaW1hZScsICc8aW5maWxlLm1hZT4nLCAnLW9tYWUnLCAnPG91dGZpbGUubWFlPic=

> <r_epik_Ionization_Penalty>
2.1018

> <r_epik_Ionization_Penalty_Charging>
2.10178

> <r_epik_Ionization_Penalty_Neutral>
1.99712e-05

> <r_epik_State_Penalty>
2.23801

> <r_epik_Charging_Adjusted_Penalty>
4.33979

> <i_epik_Tot_Q>
1

> <i_epik_Tot_abs_Q>
1

> <r_epik_Metal_State_Penalty>
2.25493

> <b_epik_Metal_Only>
0

> <s_lp_Force_Field>
OPLS_2005

> <r_lp_Energy>
38.4503

> <b_lp_Chiralities_Consistent>
1

> <s_lp_Variant>
AV-unprocessed.smi:2408-2

> <Gold.Version>
5.8.1

> <Gold.Id.Protein>
6NUR|6NUR_protein|mol2

> <Gold.PLP.Fitness>
47.3300

> <Gold.PLP.PLP>
-40.0965

> <Gold.PLP.part.hbond>
-3.0165

> <Gold.PLP.part.metal>
0.0000

> <Gold.PLP.part.buried>
-5.1111

> <Gold.PLP.part.nonpolar>
-31.4585

> <Gold.PLP.part.repulsive>
0.2188

> <Gold.PLP.ligand.clash>
0.0039

> <Gold.PLP.ligand.torsion>
1.2045

> <Gold.PLP.Chemscore.Hbond>
3.0000

> <Gold.PLP.Chemscore.CHOScore>
0.0000

> <Gold.PLP.Chemscore.Metal>
0.0000

> <Gold.Chemscore.Hbonds>
donor molecule, donor type, donor heavy atom, donor atom, acceptor molecule, acceptor atom, score
      L1  H     3    48       P1 10186  1.70
      L1  H    15    32       P1  7948  1.00

> <Gold.PLP.Chemscore.Internal.Correction>
0.6464

> <Gold.Rescore>
     Score         DG    S(hbond)    S(metal)    S(lipo)     H(rot)  DE(clash)    DE(int)     intcor
     15.60     -18.88       1.92        0.00      95.29       1.63       0.07       3.20       ----

> <Gold.Chemscore.Fitness>
15.6050

> <Gold.Chemscore.DG>
-18.8753

> <Gold.Chemscore.ZeroCoef>
-5.4800

> <Gold.Chemscore.Hbond>
1.9208

> <Gold.Chemscore.Metal>
0.0000

> <Gold.Chemscore.Lipo>
95.2919

> <Gold.Chemscore.Internal_Hbond>
0.0000

> <Gold.Chemscore.DEClash>
0.0710

> <Gold.Chemscore.DEInternal>
3.1993

> <Gold.Chemscore.Rot>
1.6286

> <Gold.Chemscore.Internal.Correction>
   9.000000E+99

> <Gold.Chemscore.Hbonds>
donor molecule, donor type, donor heavy atom, donor atom, acceptor molecule, acceptor atom, score
      L1  H     3    48       P1 10186  0.62
      L1  H    15    32       P1  7948  0.85

> <Gold.Chemscore.Hbond.Weighted>
-6.4154

> <Gold.Chemscore.Metal.Weighted>
-0.0000

> <Gold.Chemscore.Lipo.Weighted>
-11.1492

> <Gold.Chemscore.Internal_Hbond.Weighted>
0.0000

> <Gold.Chemscore.DEClash.Weighted>
0.0710

> <Gold.Chemscore.DEInternal.Weighted>
3.1993

> <Gold.Chemscore.Rot.Weighted>
4.1692

> <Gold.Chemscore.Internal.Correction.Weighted>
   9.000000E+99

> <Gold.Protein.RotatedTorsions>
[ 6907 6896 6895 6894 ] final   91.86 input  -60.11 | X-H torsion
[ 7974 7965 7964 7962 ] final  140.29 input  175.53 | X-H torsion
[ 8008 7997 7996 7995 ] final  -76.03 input   59.86 | X-H torsion
[ 10167 10162 10161 10158 ] final  -97.70 input  -65.29 | X-H torsion
[ 10718 10713 10712 10709 ] final   39.07 input   66.30 | X-H torsion
[ 10763 10752 10751 10750 ] final -101.03 input  -60.55 | X-H torsion
[ 11005 11000 10999 10996 ] final  -23.57 input  -57.11 | X-H torsion

> <Gold.Protein.ActiveResidues>
 VAL166  LYS551  ARG553  GLY616  TRP617  ASP618  TYR619  PRO620  LYS621  CYS622 
 ASP623  PHE694  ASN695  SER759  ASP760  ASP761  ALA762  ILE779  LEU786  VAL792 
 PHE793  MET794  SER795  GLU796  ALA797  LYS798  CYS799  TRP800  GLU811  SER814 

> <Gold.Protein.RotatedAtoms>
  152.5451  134.1591  159.8550 H   0  0  0  0  0  0  0  0  0  0  0  0  # atno 6907 bound_to 6896
  151.1611  133.4837  159.2602 H   0  0  0  0  0  0  0  0  0  0  0  0  # atno 6908 bound_to 6896
  151.1372  135.0172  159.8664 H   0  0  0  0  0  0  0  0  0  0  0  0  # atno 6909 bound_to 6896
  144.9200  139.5180  143.5668 H   0  0  0  0  0  0  0  0  0  0  0  0  # atno 7974 bound_to 7965
  154.5469  140.0734  156.8604 H   0  0  0  0  0  0  0  0  0  0  0  0  # atno 8008 bound_to 7997
  155.3069  140.3388  155.4227 H   0  0  0  0  0  0  0  0  0  0  0  0  # atno 8009 bound_to 7997
  156.1926  140.1692  156.8047 H   0  0  0  0  0  0  0  0  0  0  0  0  # atno 8010 bound_to 7997
  140.2807  143.3284  152.0444 H   0  0  0  0  0  0  0  0  0  0  0  0  # atno 10167 bound_to 10162
  157.3662  130.7676  149.7084 H   0  0  0  0  0  0  0  0  0  0  0  0  # atno 10718 bound_to 10713
  154.7625  135.4913  153.9492 H   0  0  0  0  0  0  0  0  0  0  0  0  # atno 10763 bound_to 10752
  153.1269  135.6744  153.9250 H   0  0  0  0  0  0  0  0  0  0  0  0  # atno 10764 bound_to 10752
  153.8966  135.3114  155.3427 H   0  0  0  0  0  0  0  0  0  0  0  0  # atno 10765 bound_to 10752
  140.8764  133.7684  156.0248 H   0  0  0  0  0  0  0  0  0  0  0  0  # atno 11005 bound_to 11000
  146.3200  139.8072  142.8953 LP  0  0  0  0  0  0  0  0  0  0  0  0  # atno 17320 bound_to 7965
  145.3312  141.0267  143.3445 LP  0  0  0  0  0  0  0  0  0  0  0  0  # atno 17321 bound_to 7965
  139.4963  144.6594  151.6500 LP  0  0  0  0  0  0  0  0  0  0  0  0  # atno 17342 bound_to 10162
  140.5814  143.9939  150.6270 LP  0  0  0  0  0  0  0  0  0  0  0  0  # atno 17343 bound_to 10162
  155.9746  130.4100  150.3907 LP  0  0  0  0  0  0  0  0  0  0  0  0  # atno 17370 bound_to 10713
  157.1991  131.0434  151.2660 LP  0  0  0  0  0  0  0  0  0  0  0  0  # atno 17371 bound_to 10713
  140.8513  134.2950  157.5274 LP  0  0  0  0  0  0  0  0  0  0  0  0  # atno 17394 bound_to 11000
  139.8716  134.9469  156.3952 LP  0  0  0  0  0  0  0  0  0  0  0  0  # atno 17395 bound_to 11000

$$$$
