AV-unprocessed.smi:1508|AV-procd|sdf|6087|dock4
  -GOLD-   22720 6213D 1   1.00000     0.00000
 Structure written by MMmdl.
 38 39  0  0  0  0  0  0  0  0  2 V2000
  148.4152  131.5134  154.0078 C   0  0  0  0  0  0  0  0  0  0  0  0
  147.7118  132.4322  152.9974 C   0  0  0  0  0  0  0  0  0  0  0  0
  147.0092  133.6660  153.6271 C   0  0  1  0  0  0  0  0  0  0  0  0
  147.8792  134.3433  154.7241 C   0  0  0  0  0  0  0  0  0  0  0  0
  148.7244  135.4207  154.2100 N   0  0  0  0  0  0  0  0  0  0  0  0
  149.3476  136.3467  154.9527 C   0  0  0  0  0  0  0  0  0  0  0  0
  149.2827  136.3877  156.1803 O   0  0  0  0  0  0  0  0  0  0  0  0
  150.0410  137.2002  154.1824 N   0  0  0  0  0  0  0  0  0  0  0  0
  150.8389  138.2962  154.5963 C   0  0  0  0  0  0  0  0  0  0  0  0
  150.3694  139.5303  154.3802 N   0  0  0  0  0  0  0  0  0  0  0  0
  151.2477  140.5076  154.8320 N   0  0  0  0  0  0  0  0  0  0  0  0
  152.3463  139.9714  155.3722 C   0  0  0  0  0  0  0  0  0  0  0  0
  152.4193  138.2182  155.3807 S   0  0  0  0  0  0  0  0  0  0  0  0
  146.5978  134.6572  152.5860 N   0  3  0  0  0  0  0  0  0  0  0  0
  145.8513  134.1195  151.4272 C   0  0  0  0  0  0  0  0  0  0  0  0
  145.1549  135.3266  150.8102 C   0  0  0  0  0  0  0  0  0  0  0  0
  144.7642  136.1581  152.0258 C   0  0  0  0  0  0  0  0  0  0  0  0
  145.8125  135.8127  153.0923 C   0  0  0  0  0  0  0  0  0  0  0  0
  148.7869  130.6159  153.5133 H   0  0  0  0  0  0  0  0  0  0  0  0
  147.7312  131.1958  154.7952 H   0  0  0  0  0  0  0  0  0  0  0  0
  149.2714  131.9945  154.4782 H   0  0  0  0  0  0  0  0  0  0  0  0
  148.4206  132.7476  152.2316 H   0  0  0  0  0  0  0  0  0  0  0  0
  146.9814  131.8073  152.4853 H   0  0  0  0  0  0  0  0  0  0  0  0
  146.0965  133.3049  154.1042 H   0  0  0  0  0  0  0  0  0  0  0  0
  147.2334  134.7884  155.4805 H   0  0  0  0  0  0  0  0  0  0  0  0
  148.4719  133.6128  155.2744 H   0  0  0  0  0  0  0  0  0  0  0  0
  148.8246  135.4783  153.2070 H   0  0  0  0  0  0  0  0  0  0  0  0
  149.9994  137.0495  153.1853 H   0  0  0  0  0  0  0  0  0  0  0  0
  153.1194  140.6131  155.7683 H   0  0  0  0  0  0  0  0  0  0  0  0
  146.5076  133.6252  150.7102 H   0  0  0  0  0  0  0  0  0  0  0  0
  145.1073  133.3976  151.7689 H   0  0  0  0  0  0  0  0  0  0  0  0
  145.8592  135.8835  150.1909 H   0  0  0  0  0  0  0  0  0  0  0  0
  144.3013  135.0537  150.1890 H   0  0  0  0  0  0  0  0  0  0  0  0
  144.7272  137.2253  151.8042 H   0  0  0  0  0  0  0  0  0  0  0  0
  143.7741  135.8591  152.3732 H   0  0  0  0  0  0  0  0  0  0  0  0
  145.3097  135.5782  154.0317 H   0  0  0  0  0  0  0  0  0  0  0  0
  146.4837  136.6521  153.2760 H   0  0  0  0  0  0  0  0  0  0  0  0
  147.4473  135.0461  152.2022 H   0  0  0  0  0  0  0  0  0  0  0  0
  1  2  1  0  0  0  0
  1 19  1  0  0  0  0
  1 20  1  0  0  0  0
  1 21  1  0  0  0  0
  2  3  1  0  0  0  0
  2 22  1  0  0  0  0
  2 23  1  0  0  0  0
  3  4  1  0  0  0  0
  3 14  1  0  0  0  0
  3 24  1  0  0  0  0
  4  5  1  0  0  0  0
  4 25  1  0  0  0  0
  4 26  1  0  0  0  0
  5  6  1  0  0  0  0
  5 27  1  0  0  0  0
  6  7  2  0  0  0  0
  6  8  1  0  0  0  0
  8  9  1  0  0  0  0
  8 28  1  0  0  0  0
  9 13  1  0  0  0  0
  9 10  2  0  0  0  0
 10 11  1  0  0  0  0
 11 12  2  0  0  0  0
 12 13  1  0  0  0  0
 12 29  1  0  0  0  0
 14 18  1  0  0  0  0
 14 15  1  0  0  0  0
 14 38  1  0  0  0  0
 15 16  1  0  0  0  0
 15 30  1  0  0  0  0
 15 31  1  0  0  0  0
 16 17  1  0  0  0  0
 16 32  1  0  0  0  0
 16 33  1  0  0  0  0
 17 18  1  0  0  0  0
 17 34  1  0  0  0  0
 17 35  1  0  0  0  0
 18 36  1  0  0  0  0
 18 37  1  0  0  0  0
M  CHG  1  14   1
M  END
> <s_m_source_file>
AV-unprocessed.smi

> <i_m_source_file_index>
1508

> <i_lp_mmshare_version>
43012

> <i_f3d_flags>
0

> <s_epik_input>
W0NIMl0xW0NIMl1bQ0gyXVtDSDJdTjFbQ0BIXShbQ0gyXVtDSDNdKVtDSDJdW05IXUMoPU8pW05IXWMybm5bY0hdczI=

> <s_epik_cmdline>
J2VwaWtfcHl0aG9uJywgJy1waCcsICc3LjAnLCAnLXRuJywgJzgnLCAnLW1hJywgJzIwMCcsICctbWV0YWxfYmluZGluZycsICctaW1hZScsICc8aW5maWxlLm1hZT4nLCAnLW9tYWUnLCAnPG91dGZpbGUubWFlPic=

> <r_lp_tautomer_probability>
1

> <r_epik_Ionization_Penalty>
0.00193711

> <r_epik_Ionization_Penalty_Charging>
0.00115997

> <r_epik_Ionization_Penalty_Neutral>
0.000777142

> <r_epik_State_Penalty>
-0

> <r_epik_Charging_Adjusted_Penalty>
0.00115997

> <i_epik_Tot_Q>
1

> <i_epik_Tot_abs_Q>
1

> <r_epik_Metal_State_Penalty>
0.264283

> <b_epik_Metal_Only>
0

> <s_lp_Force_Field>
OPLS_2005

> <r_lp_Energy>
37.6611

> <b_lp_Chiralities_Consistent>
1

> <s_lp_Variant>
AV-unprocessed.smi:1508-2

> <Gold.Version>
5.8.1

> <Gold.Id.Protein>
6NUR|6NUR_protein|mol2

> <Gold.PLP.Fitness>
38.3997

> <Gold.PLP.PLP>
-27.2701

> <Gold.PLP.part.hbond>
-4.5661

> <Gold.PLP.part.metal>
0.0000

> <Gold.PLP.part.buried>
-1.4092

> <Gold.PLP.part.nonpolar>
-20.9873

> <Gold.PLP.part.repulsive>
0.2353

> <Gold.PLP.ligand.clash>
0.0000

> <Gold.PLP.ligand.torsion>
1.2827

> <Gold.PLP.Chemscore.Hbond>
4.5460

> <Gold.PLP.Chemscore.CHOScore>
0.0000

> <Gold.PLP.Chemscore.Metal>
0.0000

> <Gold.Chemscore.Hbonds>
donor molecule, donor type, donor heavy atom, donor atom, acceptor molecule, acceptor atom, score
      L1  H     5    27       P1  7948  0.98
      L1  H     8    28       P1  7948  0.73
      L1  H    14    38       P1  7948  2.00
      P1  H  7989  7998       L1    11  0.52

> <Gold.PLP.Chemscore.Internal.Correction>
0.0569

> <Gold.Rescore>
     Score         DG    S(hbond)    S(metal)    S(lipo)     H(rot)  DE(clash)    DE(int)     intcor
     14.30     -15.69       2.75        0.00      50.16       1.89       0.01       1.37       ----

> <Gold.Chemscore.Fitness>
14.3049

> <Gold.Chemscore.DG>
-15.6916

> <Gold.Chemscore.ZeroCoef>
-5.4800

> <Gold.Chemscore.Hbond>
2.7528

> <Gold.Chemscore.Metal>
0.0000

> <Gold.Chemscore.Lipo>
50.1571

> <Gold.Chemscore.Internal_Hbond>
0.0000

> <Gold.Chemscore.DEClash>
0.0149

> <Gold.Chemscore.DEInternal>
1.3718

> <Gold.Chemscore.Rot>
1.8950

> <Gold.Chemscore.Internal.Correction>
   9.000000E+99

> <Gold.Chemscore.Hbonds>
donor molecule, donor type, donor heavy atom, donor atom, acceptor molecule, acceptor atom, score
      L1  H     5    27       P1  7948  0.74
      L1  H     8    28       P1  7948  0.13
      L1  H    14    38       P1  7948  0.97
      P1  H  7989  7998       L1    11  0.03

> <Gold.Chemscore.Hbond.Weighted>
-9.1944

> <Gold.Chemscore.Metal.Weighted>
-0.0000

> <Gold.Chemscore.Lipo.Weighted>
-5.8684

> <Gold.Chemscore.Internal_Hbond.Weighted>
0.0000

> <Gold.Chemscore.DEClash.Weighted>
0.0149

> <Gold.Chemscore.DEInternal.Weighted>
1.3718

> <Gold.Chemscore.Rot.Weighted>
4.8511

> <Gold.Chemscore.Internal.Correction.Weighted>
   9.000000E+99

> <Gold.Protein.RotatedTorsions>
[ 6907 6896 6895 6894 ] final -175.27 input  -60.11 | X-H torsion
[ 7974 7965 7964 7962 ] final -150.52 input  175.53 | X-H torsion
[ 8008 7997 7996 7995 ] final -147.73 input   59.86 | X-H torsion
[ 10167 10162 10161 10158 ] final -143.44 input  -65.29 | X-H torsion
[ 10718 10713 10712 10709 ] final -138.90 input   66.30 | X-H torsion
[ 10763 10752 10751 10750 ] final    0.23 input  -60.55 | X-H torsion
[ 11005 11000 10999 10996 ] final   46.37 input  -57.11 | X-H torsion

> <Gold.Protein.ActiveResidues>
 VAL166  LYS551  ARG553  GLY616  TRP617  ASP618  TYR619  PRO620  LYS621  CYS622 
 ASP623  PHE694  ASN695  SER759  ASP760  ASP761  ALA762  ILE779  LEU786  VAL792 
 PHE793  MET794  SER795  GLU796  ALA797  LYS798  CYS799  TRP800  GLU811  SER814 

> <Gold.Protein.RotatedAtoms>
  151.5859  133.3372  159.3017 H   0  0  0  0  0  0  0  0  0  0  0  0  # atno 6907 bound_to 6896
  150.8287  134.7534  159.6846 H   0  0  0  0  0  0  0  0  0  0  0  0  # atno 6908 bound_to 6896
  152.4373  134.5666  159.9961 H   0  0  0  0  0  0  0  0  0  0  0  0  # atno 6909 bound_to 6896
  144.7903  140.4921  143.5777 H   0  0  0  0  0  0  0  0  0  0  0  0  # atno 7974 bound_to 7965
  155.5802  140.0642  157.2785 H   0  0  0  0  0  0  0  0  0  0  0  0  # atno 8008 bound_to 7997
  154.4335  140.1853  156.1015 H   0  0  0  0  0  0  0  0  0  0  0  0  # atno 8009 bound_to 7997
  156.0310  140.3306  155.7144 H   0  0  0  0  0  0  0  0  0  0  0  0  # atno 8010 bound_to 7997
  139.7993  143.7855  152.2657 H   0  0  0  0  0  0  0  0  0  0  0  0  # atno 10167 bound_to 10162
  156.3047  130.7448  151.1509 H   0  0  0  0  0  0  0  0  0  0  0  0  # atno 10718 bound_to 10713
  153.3234  135.6970  153.7011 H   0  0  0  0  0  0  0  0  0  0  0  0  # atno 10763 bound_to 10752
  153.5842  135.3492  155.2887 H   0  0  0  0  0  0  0  0  0  0  0  0  # atno 10764 bound_to 10752
  154.8602  135.4302  154.2404 H   0  0  0  0  0  0  0  0  0  0  0  0  # atno 10765 bound_to 10752
  140.1375  134.4626  155.8474 H   0  0  0  0  0  0  0  0  0  0  0  0  # atno 11005 bound_to 11000
  145.5813  139.1489  143.3234 LP  0  0  0  0  0  0  0  0  0  0  0  0  # atno 17320 bound_to 7965
  146.2152  140.5942  142.9042 LP  0  0  0  0  0  0  0  0  0  0  0  0  # atno 17321 bound_to 7965
  139.7970  144.7388  150.9876 LP  0  0  0  0  0  0  0  0  0  0  0  0  # atno 17342 bound_to 10162
  140.7820  143.4383  151.0590 LP  0  0  0  0  0  0  0  0  0  0  0  0  # atno 17343 bound_to 10162
  157.7376  131.0549  150.5342 LP  0  0  0  0  0  0  0  0  0  0  0  0  # atno 17370 bound_to 10713
  156.5474  130.4223  149.6124 LP  0  0  0  0  0  0  0  0  0  0  0  0  # atno 17371 bound_to 10713
  141.2180  133.6820  156.7184 LP  0  0  0  0  0  0  0  0  0  0  0  0  # atno 17394 bound_to 11000
  140.2764  134.8351  157.3894 LP  0  0  0  0  0  0  0  0  0  0  0  0  # atno 17395 bound_to 11000

$$$$
