#       Name:                AV-unprocessed.smi:2026
#       Creating user name   scv26
#       Creation time:       Fri Mar 27 10:46:31 2020


#       File generated by GOLD software.
#

@<TRIPOS>MOLECULE
AV-unprocessed.smi:2026
    53    55     1
SMALL
NO_CHARGES


@<TRIPOS>ATOM
      1 ****        -1.8758   4.7668   1.8126 C.3            1 S1                 0.0000
      2 ****        -1.5458   3.6786   0.8064 C.ar           1 S1                 0.0000
      3 ****        -1.7555   3.9276  -0.5695 C.ar           1 S1                 0.0000
      4 ****        -1.4610   2.9413  -1.5369 C.ar           1 S1                 0.0000
      5 ****        -1.5835   2.9653  -2.9165 N.2            1 S1                 0.0000
      6 ****        -1.1498   1.7510  -3.2457 C.2            1 S1                 0.0000
      7 ****        -0.7616   0.9437  -2.2405 N.pl3          1 S1                 0.0000
      8 ****        -0.2592  -0.4132  -2.3336 C.3            1 S1                 0.0000
      9 ****         1.2697  -0.4746  -2.1394 C.3            1 S1                 0.0000
     10 ****         1.9056   0.1613  -3.2298 O.3            1 S1                 0.0000
     11 ****         1.8267  -1.9076  -2.0117 C.3            1 S1                 0.0000
     12 ****         1.3099  -2.6030  -0.8255 N.am           1 S1                 0.0000
     13 ****         0.3692  -3.5673  -0.8328 C.2            1 S1                 0.0000
     14 ****        -0.1480  -3.9751  -1.8723 O.2            1 S1                 0.0000
     15 ****         0.0919  -3.9853   0.4247 N.pl3          1 S1                -1.0000
     16 ****         0.9070  -3.2348   1.3587 C.3            1 S1                 0.0000
     17 ****         0.0098  -2.4121   2.3032 C.3            1 S1                 0.0000
     18 ****         1.8330  -4.1861   2.1394 C.3            1 S1                 0.0000
     19 ****         1.6976  -2.3351   0.4263 C.2            1 S1                 0.0000
     20 ****         2.5334  -1.5084   0.7945 O.2            1 S1                 0.0000
     21 ****        -0.9495   1.6907  -1.0846 C.ar           1 S1                 0.0000
     22 ****        -0.7363   1.4308   0.2801 C.ar           1 S1                 0.0000
     23 ****        -1.0342   2.4264   1.2329 C.ar           1 S1                 0.0000
     24 ****        -0.7976   2.1339   2.7040 C.3            1 S1                 0.0000
     25 ****        -2.2068   5.6801   1.3173 H              1 S1                 0.0000
     26 ****        -0.9997   5.0124   2.4128 H              1 S1                 0.0000
     27 ****        -2.6732   4.4389   2.4799 H              1 S1                 0.0000
     28 ****        -2.1447   4.8812  -0.8945 H              1 S1                 0.0000
     29 ****        -1.1102   1.4296  -4.2762 H              1 S1                 0.0000
     30 ****        -0.7702  -0.9975  -1.5685 H              1 S1                 0.0000
     31 ****        -0.5478  -0.8400  -3.2952 H              1 S1                 0.0000
     32 ****         1.5400   0.0869  -1.2443 H              1 S1                 0.0000
     33 ****         1.6948  -0.3163  -4.0173 H              1 S1                 0.0000
     34 ****         1.6118  -2.4730  -2.9198 H              1 S1                 0.0000
     35 ****         2.9154  -1.8726  -1.9416 H              1 S1                 0.0000
     36 ****         0.6054  -1.8335   3.0102 H              1 S1                 0.0000
     37 ****        -0.6484  -3.0588   2.8843 H              1 S1                 0.0000
     38 ****        -0.6213  -1.7109   1.7550 H              1 S1                 0.0000
     39 ****         2.4494  -3.6392   2.8540 H              1 S1                 0.0000
     40 ****         2.5059  -4.7320   1.4759 H              1 S1                 0.0000
     41 ****         1.2573  -4.9229   2.7008 H              1 S1                 0.0000
     42 ****        -0.3434   0.4728   0.5881 H              1 S1                 0.0000
     43 ****        -0.4336   1.1166   2.8527 H              1 S1                 0.0000
     44 ****        -1.7224   2.2442   3.2703 H              1 S1                 0.0000
     45 ****        -0.0549   2.8184   3.1142 H              1 S1                 0.0000
     46 ****        -1.9114   3.7012  -3.5090 LP             1 S1                 0.0000
     47 ****         2.8958   0.1619  -3.0899 LP             1 S1                 0.0000
     48 ****         1.5795   1.1034  -3.3086 LP             1 S1                 0.0000
     49 ****         0.1271  -3.5887  -2.7527 LP             1 S1                 0.0000
     50 ****        -0.8434  -4.6928  -1.8367 LP             1 S1                 0.0000
     51 ****        -0.5678  -4.6960   0.6691 LP             1 S1                 0.0000
     52 ****         3.0089  -0.9436   0.1200 LP             1 S1                 0.0000
     53 ****         2.7364  -1.4021   1.7678 LP             1 S1                 0.0000
@<TRIPOS>BOND
    1    1    2 1     
    2    1   25 1     
    3    1   26 1     
    4    1   27 1     
    5    2   23 ar    
    6    2    3 ar    
    7    3    4 ar    
    8    3   28 1     
    9    4   21 ar    
   10    4    5 1     
   11    5    6 2     
   12    6    7 1     
   13    6   29 1     
   14    7    8 1     
   15    7   21 1     
   16    8    9 1     
   17    8   30 1     
   18    8   31 1     
   19    9   10 1     
   20    9   11 1     
   21    9   32 1     
   22   10   33 1     
   23   11   12 1     
   24   11   34 1     
   25   11   35 1     
   26   12   19 am    
   27   12   13 am    
   28   13   14 2     
   29   13   15 1     
   30   15   16 1     
   31   16   17 1     
   32   16   18 1     
   33   16   19 1     
   34   17   36 1     
   35   17   37 1     
   36   17   38 1     
   37   18   39 1     
   38   18   40 1     
   39   18   41 1     
   40   19   20 2     
   41   21   22 ar    
   42   22   23 ar    
   43   22   42 1     
   44   23   24 1     
   45   24   43 1     
   46   24   44 1     
   47   24   45 1     
   48    5   46 1     
   49   10   47 1     
   50   10   48 1     
   51   14   49 1     
   52   14   50 1     
   53   15   51 1     
   54   20   52 1     
   55   20   53 1     
@<TRIPOS>SUBSTRUCTURE
      1 S1             1
@<TRIPOS>SET
LONE_PAIRS      STATIC     ATOMS    <user>   **** ""
8 46 47 48 49 50 51 52 53
DONOR_HYDROGENS      STATIC     ATOMS    <user>   **** ""
1 33
ATOM$BLUE        STATIC     ATOMS    COLORGROUP SYSTEM
8 46 47 48 49 50 51 52 53
ATOM$RED        STATIC     ATOMS    COLORGROUP SYSTEM
1 33
