AV-unprocessed.smi:1244|AV-procd|sdf|5223|dock2
  -GOLD-   22720 4323D 1   1.00000     0.00000
 Structure written by MMmdl.
 54 56  0  0  0  0  0  0  0  0  1 V2000
  151.3177  142.2794  157.6380 C   0  0  0  0  0  0  0  0  0  0  0  0
  150.7414  141.6730  156.3542 C   0  0  1  0  0  0  0  0  0  0  0  0
  151.4661  140.3767  155.9504 C   0  0  0  0  0  0  0  0  0  0  0  0
  150.8671  139.7621  154.7728 N   0  0  0  0  0  0  0  0  0  0  0  0
  151.6002  138.5609  154.3795 C   0  0  0  0  0  0  0  0  0  0  0  0
  151.2884  137.3082  155.2200 C   0  0  0  0  0  0  0  0  0  0  0  0
  150.4919  136.3472  154.4667 N   0  0  0  0  0  0  0  0  0  0  0  0
  150.2437  135.0865  154.8489 C   0  0  0  0  0  0  0  0  0  0  0  0
  150.6755  134.5943  155.8913 O   0  0  0  0  0  0  0  0  0  0  0  0
  149.4871  134.4447  153.9428 N   0  0  0  0  0  0  0  0  0  0  0  0
  149.0096  133.1034  153.9795 C   0  0  0  0  0  0  0  0  0  0  0  0
  149.7546  132.0658  154.5925 C   0  0  0  0  0  0  0  0  0  0  0  0
  149.2485  130.7547  154.5857 C   0  0  0  0  0  0  0  0  0  0  0  0
  148.0089  130.5250  153.9670 C   0  0  0  0  0  0  0  0  0  0  0  0
  147.2777  131.5039  153.3977 N   0  0  0  0  0  0  0  0  0  0  0  0
  147.7447  132.7769  153.4099 C   0  0  0  0  0  0  0  0  0  0  0  0
  146.9218  133.7612  152.8150 N   0  0  0  0  0  0  0  0  0  0  0  0
  146.5821  133.6851  151.3978 C   0  0  0  0  0  0  0  0  0  0  0  0
  145.4179  134.6550  151.2183 C   0  0  0  0  0  0  0  0  0  0  0  0
  144.6584  134.4983  152.5322 C   0  0  0  0  0  0  0  0  0  0  0  0
  145.7639  134.2430  153.5622 C   0  0  0  0  0  0  0  0  0  0  0  0
  149.4557  139.4961  155.0427 C   0  0  0  0  0  0  0  0  0  0  0  0
  148.6866  140.7567  155.4879 C   0  0  2  0  0  0  0  0  0  0  0  0
  148.4099  141.7378  154.3360 C   0  0  0  0  0  0  0  0  0  0  0  0
  149.3605  141.3927  156.5755 O   0  0  0  0  0  0  0  0  0  0  0  0
  152.3732  142.5240  157.5163 H   0  0  0  0  0  0  0  0  0  0  0  0
  151.2283  141.5877  158.4763 H   0  0  0  0  0  0  0  0  0  0  0  0
  150.7927  143.1966  157.9054 H   0  0  0  0  0  0  0  0  0  0  0  0
  150.8384  142.4084  155.5549 H   0  0  0  0  0  0  0  0  0  0  0  0
  152.5155  140.6008  155.7548 H   0  0  0  0  0  0  0  0  0  0  0  0
  151.4484  139.6723  156.7837 H   0  0  0  0  0  0  0  0  0  0  0  0
  151.3598  138.3339  153.3400 H   0  0  0  0  0  0  0  0  0  0  0  0
  152.6729  138.7596  154.4007 H   0  0  0  0  0  0  0  0  0  0  0  0
  152.2064  136.8036  155.5190 H   0  0  0  0  0  0  0  0  0  0  0  0
  150.7691  137.5842  156.1394 H   0  0  0  0  0  0  0  0  0  0  0  0
  150.1018  136.6658  153.5920 H   0  0  0  0  0  0  0  0  0  0  0  0
  149.3012  134.9445  153.0858 H   0  0  0  0  0  0  0  0  0  0  0  0
  150.7016  132.2543  155.0745 H   0  0  0  0  0  0  0  0  0  0  0  0
  149.7991  129.9457  155.0421 H   0  0  0  0  0  0  0  0  0  0  0  0
  147.5881  129.5309  153.9354 H   0  0  0  0  0  0  0  0  0  0  0  0
  147.4329  133.9512  150.7699 H   0  0  0  0  0  0  0  0  0  0  0  0
  146.2589  132.6781  151.1305 H   0  0  0  0  0  0  0  0  0  0  0  0
  145.7921  135.6753  151.1231 H   0  0  0  0  0  0  0  0  0  0  0  0
  144.8095  134.4314  150.3417 H   0  0  0  0  0  0  0  0  0  0  0  0
  144.0448  135.3659  152.7764 H   0  0  0  0  0  0  0  0  0  0  0  0
  144.0025  133.6285  152.4738 H   0  0  0  0  0  0  0  0  0  0  0  0
  145.4416  133.5335  154.3256 H   0  0  0  0  0  0  0  0  0  0  0  0
  146.0303  135.1772  154.0565 H   0  0  0  0  0  0  0  0  0  0  0  0
  148.9682  139.0797  154.1619 H   0  0  0  0  0  0  0  0  0  0  0  0
  149.3746  138.7402  155.8256 H   0  0  0  0  0  0  0  0  0  0  0  0
  147.7174  140.4389  155.8732 H   0  0  0  0  0  0  0  0  0  0  0  0
  147.7945  141.2690  153.5678 H   0  0  0  0  0  0  0  0  0  0  0  0
  149.3280  142.0749  153.8555 H   0  0  0  0  0  0  0  0  0  0  0  0
  147.8769  142.6184  154.6945 H   0  0  0  0  0  0  0  0  0  0  0  0
  1  2  1  0  0  0  0
  1 26  1  0  0  0  0
  1 27  1  0  0  0  0
  1 28  1  0  0  0  0
  2 25  1  0  0  0  0
  2  3  1  0  0  0  0
  2 29  1  0  0  0  0
  3  4  1  0  0  0  0
  3 30  1  0  0  0  0
  3 31  1  0  0  0  0
  4  5  1  0  0  0  0
  4 22  1  0  0  0  0
  5  6  1  0  0  0  0
  5 32  1  0  0  0  0
  5 33  1  0  0  0  0
  6  7  1  0  0  0  0
  6 34  1  0  0  0  0
  6 35  1  0  0  0  0
  7  8  1  0  0  0  0
  7 36  1  0  0  0  0
  8  9  2  0  0  0  0
  8 10  1  0  0  0  0
 10 11  1  0  0  0  0
 10 37  1  0  0  0  0
 11 16  1  0  0  0  0
 11 12  2  0  0  0  0
 12 13  1  0  0  0  0
 12 38  1  0  0  0  0
 13 14  2  0  0  0  0
 13 39  1  0  0  0  0
 14 15  1  0  0  0  0
 14 40  1  0  0  0  0
 15 16  2  0  0  0  0
 16 17  1  0  0  0  0
 17 21  1  0  0  0  0
 17 18  1  0  0  0  0
 18 19  1  0  0  0  0
 18 41  1  0  0  0  0
 18 42  1  0  0  0  0
 19 20  1  0  0  0  0
 19 43  1  0  0  0  0
 19 44  1  0  0  0  0
 20 21  1  0  0  0  0
 20 45  1  0  0  0  0
 20 46  1  0  0  0  0
 21 47  1  0  0  0  0
 21 48  1  0  0  0  0
 22 23  1  0  0  0  0
 22 49  1  0  0  0  0
 22 50  1  0  0  0  0
 23 24  1  0  0  0  0
 23 25  1  0  0  0  0
 23 51  1  0  0  0  0
 24 52  1  0  0  0  0
 24 53  1  0  0  0  0
 24 54  1  0  0  0  0
M  END
> <s_m_source_file>
AV-unprocessed.smi

> <i_m_source_file_index>
1244

> <i_lp_mmshare_version>
43012

> <i_f3d_flags>
0

> <s_epik_input>
W0NIM11bQ0BASF0xW0NIMl1OKFtDSDJdW0NASF0oTzEpW0NIM10pW0NIMl1bQ0gyXVtOSF1DKD1PKVtOSF1jMltjSF1bY0hdW2NIXW5jMk4zW0NIMl1bQ0gyXVtDSDJdW0NIMl0z

> <s_epik_cmdline>
J2VwaWtfcHl0aG9uJywgJy1waCcsICc3LjAnLCAnLXRuJywgJzgnLCAnLW1hJywgJzIwMCcsICctbWV0YWxfYmluZGluZycsICctaW1hZScsICc8aW5maWxlLm1hZT4nLCAnLW9tYWUnLCAnPG91dGZpbGUubWFlPic=

> <r_lp_tautomer_probability>
1

> <r_epik_Ionization_Penalty>
0.363951

> <r_epik_Ionization_Penalty_Charging>
0

> <r_epik_Ionization_Penalty_Neutral>
0.363951

> <r_epik_State_Penalty>
0.349372

> <r_epik_Charging_Adjusted_Penalty>
0.349372

> <i_epik_Tot_Q>
0

> <i_epik_Tot_abs_Q>
0

> <r_epik_Metal_State_Penalty>
0.333054

> <b_epik_Metal_Only>
0

> <s_lp_Force_Field>
OPLS_2005

> <r_lp_Energy>
51.4551

> <b_lp_Chiralities_Consistent>
1

> <s_lp_Variant>
AV-unprocessed.smi:1244-3

> <Gold.Version>
5.8.1

> <Gold.Id.Protein>
6NUR|6NUR_protein|mol2

> <Gold.PLP.Fitness>
47.4124

> <Gold.PLP.PLP>
-43.8558

> <Gold.PLP.part.hbond>
-4.1594

> <Gold.PLP.part.metal>
0.0000

> <Gold.PLP.part.buried>
-4.5426

> <Gold.PLP.part.nonpolar>
-35.9999

> <Gold.PLP.part.repulsive>
0.5548

> <Gold.PLP.ligand.clash>
0.0000

> <Gold.PLP.ligand.torsion>
0.9888

> <Gold.PLP.Chemscore.Hbond>
1.7020

> <Gold.PLP.Chemscore.CHOScore>
0.0000

> <Gold.PLP.Chemscore.Metal>
0.0000

> <Gold.Chemscore.Hbonds>
donor molecule, donor type, donor heavy atom, donor atom, acceptor molecule, acceptor atom, score
      L1  H     7    36       P1  7948  0.70
      L1  H    10    37       P1  7948  0.45
      P1  H  7989  7998       L1     4  0.68

> <Gold.PLP.Chemscore.Internal.Correction>
0.4282

> <Gold.Rescore>
     Score         DG    S(hbond)    S(metal)    S(lipo)     H(rot)  DE(clash)    DE(int)     intcor
     14.99     -17.32       1.68        0.00      87.23       1.55       0.19       2.14       ----

> <Gold.Chemscore.Fitness>
14.9885

> <Gold.Chemscore.DG>
-17.3222

> <Gold.Chemscore.ZeroCoef>
-5.4800

> <Gold.Chemscore.Hbond>
1.6763

> <Gold.Chemscore.Metal>
0.0000

> <Gold.Chemscore.Lipo>
87.2304

> <Gold.Chemscore.Internal_Hbond>
0.0000

> <Gold.Chemscore.DEClash>
0.1924

> <Gold.Chemscore.DEInternal>
2.1413

> <Gold.Chemscore.Rot>
1.5479

> <Gold.Chemscore.Internal.Correction>
   9.000000E+99

> <Gold.Chemscore.Hbonds>
donor molecule, donor type, donor heavy atom, donor atom, acceptor molecule, acceptor atom, score
      L1  H     7    36       P1  7948  0.09
      L1  H    10    37       P1  7948  0.02
      P1  H  7989  7998       L1     4  0.02

> <Gold.Chemscore.Hbond.Weighted>
-5.5990

> <Gold.Chemscore.Metal.Weighted>
-0.0000

> <Gold.Chemscore.Lipo.Weighted>
-10.2060

> <Gold.Chemscore.Internal_Hbond.Weighted>
0.0000

> <Gold.Chemscore.DEClash.Weighted>
0.1924

> <Gold.Chemscore.DEInternal.Weighted>
2.1413

> <Gold.Chemscore.Rot.Weighted>
3.9627

> <Gold.Chemscore.Internal.Correction.Weighted>
   9.000000E+99

> <Gold.Protein.RotatedTorsions>
[ 6907 6896 6895 6894 ] final  -80.81 input  -60.11 | X-H torsion
[ 7974 7965 7964 7962 ] final  -51.22 input  175.53 | X-H torsion
[ 8008 7997 7996 7995 ] final   41.36 input   59.86 | X-H torsion
[ 10167 10162 10161 10158 ] final -125.51 input  -65.29 | X-H torsion
[ 10718 10713 10712 10709 ] final   32.07 input   66.30 | X-H torsion
[ 10763 10752 10751 10750 ] final  140.30 input  -60.55 | X-H torsion
[ 11005 11000 10999 10996 ] final -172.63 input  -57.11 | X-H torsion

> <Gold.Protein.ActiveResidues>
 VAL166  LYS551  ARG553  GLY616  TRP617  ASP618  TYR619  PRO620  LYS621  CYS622 
 ASP623  PHE694  ASN695  SER759  ASP760  ASP761  ALA762  ILE779  LEU786  VAL792 
 PHE793  MET794  SER795  GLU796  ALA797  LYS798  CYS799  TRP800  GLU811  SER814 

> <Gold.Protein.RotatedAtoms>
  150.6922  134.3912  159.5077 H   0  0  0  0  0  0  0  0  0  0  0  0  # atno 6907 bound_to 6896
  152.1700  134.8839  160.0544 H   0  0  0  0  0  0  0  0  0  0  0  0  # atno 6908 bound_to 6896
  151.9869  133.3742  159.4166 H   0  0  0  0  0  0  0  0  0  0  0  0  # atno 6909 bound_to 6896
  145.9213  140.7831  142.9646 H   0  0  0  0  0  0  0  0  0  0  0  0  # atno 7974 bound_to 7965
  155.2684  140.3364  155.4267 H   0  0  0  0  0  0  0  0  0  0  0  0  # atno 8008 bound_to 7997
  156.2143  140.1783  156.7665 H   0  0  0  0  0  0  0  0  0  0  0  0  # atno 8009 bound_to 7997
  154.5731  140.0666  156.8979 H   0  0  0  0  0  0  0  0  0  0  0  0  # atno 8010 bound_to 7997
  139.9814  143.5739  152.2377 H   0  0  0  0  0  0  0  0  0  0  0  0  # atno 10167 bound_to 10162
  157.2806  130.7253  149.6554 H   0  0  0  0  0  0  0  0  0  0  0  0  # atno 10718 bound_to 10713
  153.9205  135.3001  155.3448 H   0  0  0  0  0  0  0  0  0  0  0  0  # atno 10763 bound_to 10752
  154.7578  135.4949  153.9410 H   0  0  0  0  0  0  0  0  0  0  0  0  # atno 10764 bound_to 10752
  153.1144  135.6767  153.9546 H   0  0  0  0  0  0  0  0  0  0  0  0  # atno 10765 bound_to 10752
  140.4948  134.5950  157.4967 H   0  0  0  0  0  0  0  0  0  0  0  0  # atno 11005 bound_to 11000
  144.6753  140.1980  143.7390 LP  0  0  0  0  0  0  0  0  0  0  0  0  # atno 17320 bound_to 7965
  145.8546  139.2192  143.1752 LP  0  0  0  0  0  0  0  0  0  0  0  0  # atno 17321 bound_to 7965
  139.6407  144.7654  151.2344 LP  0  0  0  0  0  0  0  0  0  0  0  0  # atno 17342 bound_to 10162
  140.7488  143.6322  150.8413 LP  0  0  0  0  0  0  0  0  0  0  0  0  # atno 17343 bound_to 10162
  155.9664  130.4339  150.5027 LP  0  0  0  0  0  0  0  0  0  0  0  0  # atno 17370 bound_to 10713
  157.2970  131.0637  151.2094 LP  0  0  0  0  0  0  0  0  0  0  0  0  # atno 17371 bound_to 10713
  139.9747  134.7234  155.9972 LP  0  0  0  0  0  0  0  0  0  0  0  0  # atno 17394 bound_to 11000
  141.1465  133.6555  156.3884 LP  0  0  0  0  0  0  0  0  0  0  0  0  # atno 17395 bound_to 11000

$$$$
