AV-unprocessed.smi:45|AV-procd|sdf|409|dock7
  -GOLD-   2262016263D 1   1.00000     0.00000
 Structure written by MMmdl.
 61 64  0  0  0  0  0  0  0  0  2 V2000
  149.9563  125.5902  154.5305 C   0  0  0  0  0  0  0  0  0  0  0  0
  149.1492  126.5377  153.8468 O   0  0  0  0  0  0  0  0  0  0  0  0
  149.3559  127.8771  154.1042 C   0  0  0  0  0  0  0  0  0  0  0  0
  150.4116  128.3715  154.9110 C   0  0  0  0  0  0  0  0  0  0  0  0
  150.5475  129.7532  155.1438 C   0  0  0  0  0  0  0  0  0  0  0  0
  149.6383  130.6667  154.5764 C   0  0  0  0  0  0  0  0  0  0  0  0
  149.8088  132.1537  154.8602 C   0  0  0  0  0  0  0  0  0  0  0  0
  148.8128  132.7709  155.7309 N   0  0  0  0  0  0  0  0  0  0  0  0
  148.0514  133.8824  155.3250 C   0  0  0  0  0  0  0  0  0  0  0  0
  147.3840  133.8025  154.1510 N   0  0  0  0  0  0  0  0  0  0  0  0
  146.6329  134.8273  153.7259 C   0  0  0  0  0  0  0  0  0  0  0  0
  145.9623  134.7272  152.5098 N   0  0  0  0  0  0  0  0  0  0  0  0
  145.6142  135.9103  151.7328 C   0  0  0  0  0  0  0  0  0  0  0  0
  144.3145  135.5650  151.0078 C   0  0  0  0  0  0  0  0  0  0  0  0
  144.4142  134.0550  150.8302 C   0  0  0  0  0  0  0  0  0  0  0  0
  145.1369  133.5901  152.1032 C   0  0  1  0  0  0  0  0  0  0  0  0
  145.9572  132.3026  151.8842 C   0  0  0  0  0  0  0  0  0  0  0  0
  146.9985  132.5438  150.9625 O   0  0  0  0  0  0  0  0  0  0  0  0
  146.4965  135.9539  154.4418 N   0  3  0  0  0  0  0  0  0  0  0  0
  147.1452  136.0875  155.6227 C   0  0  0  0  0  0  0  0  0  0  0  0
  147.9561  135.0481  156.1261 C   0  0  0  0  0  0  0  0  0  0  0  0
  148.7036  135.2278  157.4206 C   0  0  0  0  0  0  0  0  0  0  0  0
  149.6852  134.5369  157.6941 O   0  0  0  0  0  0  0  0  0  0  0  0
  148.2075  136.1667  158.2420 N   0  0  0  0  0  0  0  0  0  0  0  0
  148.7916  136.5436  159.5240 C   0  0  0  0  0  0  0  0  0  0  0  0
  147.9294  136.1290  160.7043 C   0  0  0  0  0  0  0  0  0  0  0  0
  147.6988  134.8210  160.8533 N   0  0  0  0  0  0  0  0  0  0  0  0
  146.9412  134.4504  161.9082 C   0  0  0  0  0  0  0  0  0  0  0  0
  146.4164  135.3958  162.8122 C   0  0  0  0  0  0  0  0  0  0  0  0
  146.7265  136.7460  162.5531 C   0  0  0  0  0  0  0  0  0  0  0  0
  147.4848  137.1111  161.4964 N   0  0  0  0  0  0  0  0  0  0  0  0
  148.6005  130.1816  153.7519 C   0  0  0  0  0  0  0  0  0  0  0  0
  148.4565  128.7994  153.5256 C   0  0  0  0  0  0  0  0  0  0  0  0
  147.1574  128.2432  152.5329 Cl  0  0  0  0  0  0  0  0  0  0  0  0
  144.3983  133.4247  152.8891 H   0  0  0  0  0  0  0  0  0  0  0  0
  149.6655  124.5849  154.2262 H   0  0  0  0  0  0  0  0  0  0  0  0
  149.8232  125.6592  155.6111 H   0  0  0  0  0  0  0  0  0  0  0  0
  151.0121  125.7154  154.2863 H   0  0  0  0  0  0  0  0  0  0  0  0
  151.1286  127.7096  155.3723 H   0  0  0  0  0  0  0  0  0  0  0  0
  151.3527  130.1099  155.7694 H   0  0  0  0  0  0  0  0  0  0  0  0
  150.7983  132.3261  155.2854 H   0  0  0  0  0  0  0  0  0  0  0  0
  149.7912  132.6814  153.9064 H   0  0  0  0  0  0  0  0  0  0  0  0
  148.8676  132.5673  156.7193 H   0  0  0  0  0  0  0  0  0  0  0  0
  145.4912  136.7949  152.3591 H   0  0  0  0  0  0  0  0  0  0  0  0
  146.4139  136.1076  151.0184 H   0  0  0  0  0  0  0  0  0  0  0  0
  143.4601  135.8051  151.6422 H   0  0  0  0  0  0  0  0  0  0  0  0
  144.1979  136.1008  150.0654 H   0  0  0  0  0  0  0  0  0  0  0  0
  143.4426  133.5777  150.6981 H   0  0  0  0  0  0  0  0  0  0  0  0
  145.0162  133.8365  149.9466 H   0  0  0  0  0  0  0  0  0  0  0  0
  146.3829  131.9461  152.8227 H   0  0  0  0  0  0  0  0  0  0  0  0
  145.3388  131.4967  151.4923 H   0  0  0  0  0  0  0  0  0  0  0  0
  147.6544  131.8709  151.0662 H   0  0  0  0  0  0  0  0  0  0  0  0
  146.9980  137.0341  156.1228 H   0  0  0  0  0  0  0  0  0  0  0  0
  147.3893  136.6801  157.9489 H   0  0  0  0  0  0  0  0  0  0  0  0
  149.7648  136.0602  159.6146 H   0  0  0  0  0  0  0  0  0  0  0  0
  148.9804  137.6189  159.5450 H   0  0  0  0  0  0  0  0  0  0  0  0
  146.7519  133.3943  162.0311 H   0  0  0  0  0  0  0  0  0  0  0  0
  145.8105  135.1019  163.6565 H   0  0  0  0  0  0  0  0  0  0  0  0
  146.3656  137.5354  163.1956 H   0  0  0  0  0  0  0  0  0  0  0  0
  147.9000  130.8641  153.2932 H   0  0  0  0  0  0  0  0  0  0  0  0
  145.9198  136.7218  154.0972 H   0  0  0  0  0  0  0  0  0  0  0  0
  1  2  1  0  0  0  0
  1 36  1  0  0  0  0
  1 37  1  0  0  0  0
  1 38  1  0  0  0  0
  2  3  1  0  0  0  0
  3 33  1  0  0  0  0
  3  4  2  0  0  0  0
  4  5  1  0  0  0  0
  4 39  1  0  0  0  0
  5  6  2  0  0  0  0
  5 40  1  0  0  0  0
  6  7  1  0  0  0  0
  6 32  1  0  0  0  0
  7  8  1  0  0  0  0
  7 41  1  0  0  0  0
  7 42  1  0  0  0  0
  8  9  1  0  0  0  0
  8 43  1  0  0  0  0
  9 21  1  0  0  0  0
  9 10  2  0  0  0  0
 10 11  1  0  0  0  0
 11 12  1  0  0  0  0
 11 19  2  0  0  0  0
 12 16  1  0  0  0  0
 12 13  1  0  0  0  0
 13 14  1  0  0  0  0
 13 44  1  0  0  0  0
 13 45  1  0  0  0  0
 14 15  1  0  0  0  0
 14 46  1  0  0  0  0
 14 47  1  0  0  0  0
 15 16  1  0  0  0  0
 15 48  1  0  0  0  0
 15 49  1  0  0  0  0
 16 35  1  0  0  0  0
 16 17  1  0  0  0  0
 17 18  1  0  0  0  0
 17 50  1  0  0  0  0
 17 51  1  0  0  0  0
 18 52  1  0  0  0  0
 19 20  1  0  0  0  0
 19 61  1  0  0  0  0
 20 21  2  0  0  0  0
 20 53  1  0  0  0  0
 21 22  1  0  0  0  0
 22 23  2  0  0  0  0
 22 24  1  0  0  0  0
 24 25  1  0  0  0  0
 24 54  1  0  0  0  0
 25 26  1  0  0  0  0
 25 55  1  0  0  0  0
 25 56  1  0  0  0  0
 26 31  1  0  0  0  0
 26 27  2  0  0  0  0
 27 28  1  0  0  0  0
 28 29  2  0  0  0  0
 28 57  1  0  0  0  0
 29 30  1  0  0  0  0
 29 58  1  0  0  0  0
 30 31  2  0  0  0  0
 30 59  1  0  0  0  0
 32 33  2  0  0  0  0
 32 60  1  0  0  0  0
 33 34  1  0  0  0  0
M  CHG  1  19   1
M  END
> <s_m_source_file>
AV-unprocessed.smi

> <i_m_source_file_index>
45

> <i_lp_mmshare_version>
43012

> <i_f3d_flags>
0

> <s_epik_input>
W0NIM11PYzFbY0hdW2NIXWMoW2NIXWMxQ2wpW0NIMl1bTkhdYzJuYyhOM1tDSDJdW0NIMl1bQ0gyXVtDQEhdM1tDSDJdW09IXSluW2NIXWMyQyg9TylbTkhdW0NIMl1jNG5bY0hdW2NIXVtjSF1uNA==

> <s_epik_cmdline>
J2VwaWtfcHl0aG9uJywgJy1waCcsICc3LjAnLCAnLXRuJywgJzgnLCAnLW1hJywgJzIwMCcsICctbWV0YWxfYmluZGluZycsICctaW1hZScsICc8aW5maWxlLm1hZT4nLCAnLW9tYWUnLCAnPG91dGZpbGUubWFlPic=

> <r_lp_tautomer_probability>
0.575011

> <r_epik_Ionization_Penalty>
1.61454

> <r_epik_Ionization_Penalty_Charging>
1.61448

> <r_epik_Ionization_Penalty_Neutral>
6.30284e-05

> <r_epik_State_Penalty>
1.91123

> <r_epik_Charging_Adjusted_Penalty>
3.52572

> <i_epik_Tot_Q>
1

> <i_epik_Tot_abs_Q>
1

> <r_epik_Metal_State_Penalty>
1.95488

> <b_epik_Metal_Only>
0

> <s_epik_Chemistry_Notes>
This compound contains an electron-poor aromatic ring that is susceptible to covalent hydrolysis at low pH, typically resulting in measured values for nitrogen ring protonation that are around two units higher than predicted values.

> <s_lp_Force_Field>
OPLS_2005

> <r_lp_Energy>
32.8606

> <b_lp_Chiralities_Consistent>
1

> <s_lp_Variant>
AV-unprocessed.smi:45-3

> <Gold.Version>
5.8.1

> <Gold.Id.Protein>
6NUR|6NUR_protein|mol2

> <Gold.PLP.Fitness>
59.6901

> <Gold.PLP.PLP>
-51.0194

> <Gold.PLP.part.hbond>
-4.0000

> <Gold.PLP.part.metal>
0.0000

> <Gold.PLP.part.buried>
-6.9692

> <Gold.PLP.part.nonpolar>
-40.5334

> <Gold.PLP.part.repulsive>
0.2262

> <Gold.PLP.ligand.clash>
0.0000

> <Gold.PLP.ligand.torsion>
1.4283

> <Gold.PLP.Chemscore.Hbond>
3.6882

> <Gold.PLP.Chemscore.CHOScore>
0.0000

> <Gold.PLP.Chemscore.Metal>
0.0000

> <Gold.Chemscore.Hbonds>
donor molecule, donor type, donor heavy atom, donor atom, acceptor molecule, acceptor atom, score
      L1  H    18    52       P1 10747  0.94
      P1  H  6896  6909       L1    23  1.00
      P1  H  6931  6943       L1    31  0.98
      P1  H  6934  6947       L1    31  0.88

> <Gold.PLP.Chemscore.Internal.Correction>
0.4629

> <Gold.Rescore>
     Score         DG    S(hbond)    S(metal)    S(lipo)     H(rot)  DE(clash)    DE(int)     intcor
     15.99     -19.58       2.79        0.00     105.10       2.94       0.01       3.58       ----

> <Gold.Chemscore.Fitness>
15.9905

> <Gold.Chemscore.DG>
-19.5760

> <Gold.Chemscore.ZeroCoef>
-5.4800

> <Gold.Chemscore.Hbond>
2.7919

> <Gold.Chemscore.Metal>
0.0000

> <Gold.Chemscore.Lipo>
105.0965

> <Gold.Chemscore.Internal_Hbond>
0.0000

> <Gold.Chemscore.DEClash>
0.0050

> <Gold.Chemscore.DEInternal>
3.5805

> <Gold.Chemscore.Rot>
2.9395

> <Gold.Chemscore.Internal.Correction>
   9.000000E+99

> <Gold.Chemscore.Hbonds>
donor molecule, donor type, donor heavy atom, donor atom, acceptor molecule, acceptor atom, score
      L1  H    18    52       P1 10747  0.91
      P1  H  6896  6909       L1    23  0.95
      P1  H  6931  6943       L1    31  0.52
      P1  H  6934  6947       L1    31  0.70

> <Gold.Chemscore.Hbond.Weighted>
-9.3249

> <Gold.Chemscore.Metal.Weighted>
-0.0000

> <Gold.Chemscore.Lipo.Weighted>
-12.2963

> <Gold.Chemscore.Internal_Hbond.Weighted>
0.0000

> <Gold.Chemscore.DEClash.Weighted>
0.0050

> <Gold.Chemscore.DEInternal.Weighted>
3.5805

> <Gold.Chemscore.Rot.Weighted>
7.5251

> <Gold.Chemscore.Internal.Correction.Weighted>
   9.000000E+99

> <Gold.Protein.RotatedTorsions>
[ 6907 6896 6895 6894 ] final   26.85 input  -60.11 | X-H torsion
[ 7974 7965 7964 7962 ] final   69.34 input  175.53 | X-H torsion
[ 8008 7997 7996 7995 ] final  138.24 input   59.86 | X-H torsion
[ 10167 10162 10161 10158 ] final  137.90 input  -65.29 | X-H torsion
[ 10718 10713 10712 10709 ] final   70.95 input   66.30 | X-H torsion
[ 10763 10752 10751 10750 ] final   18.98 input  -60.55 | X-H torsion
[ 11005 11000 10999 10996 ] final -143.39 input  -57.11 | X-H torsion

> <Gold.Protein.ActiveResidues>
 VAL166  LYS551  ARG553  GLY616  TRP617  ASP618  TYR619  PRO620  LYS621  CYS622 
 ASP623  PHE694  ASN695  SER759  ASP760  ASP761  ALA762  ILE779  LEU786  VAL792 
 PHE793  MET794  SER795  GLU796  ALA797  LYS798  CYS799  TRP800  GLU811  SER814 

> <Gold.Protein.RotatedAtoms>
  151.9935  134.9966  160.0562 H   0  0  0  0  0  0  0  0  0  0  0  0  # atno 6907 bound_to 6896
  152.1586  133.4562  159.4857 H   0  0  0  0  0  0  0  0  0  0  0  0  # atno 6908 bound_to 6896
  150.6884  134.2018  159.4368 H   0  0  0  0  0  0  0  0  0  0  0  0  # atno 6909 bound_to 6896
  145.7916  139.2936  143.1207 H   0  0  0  0  0  0  0  0  0  0  0  0  # atno 7974 bound_to 7965
  156.2998  140.2399  156.4041 H   0  0  0  0  0  0  0  0  0  0  0  0  # atno 8008 bound_to 7997
  154.8501  140.0424  157.1618 H   0  0  0  0  0  0  0  0  0  0  0  0  # atno 8009 bound_to 7997
  154.9008  140.2976  155.5322 H   0  0  0  0  0  0  0  0  0  0  0  0  # atno 8010 bound_to 7997
  139.5129  144.6384  151.5635 H   0  0  0  0  0  0  0  0  0  0  0  0  # atno 10167 bound_to 10162
  157.6426  130.9503  150.0721 H   0  0  0  0  0  0  0  0  0  0  0  0  # atno 10718 bound_to 10713
  153.1202  135.6717  153.9349 H   0  0  0  0  0  0  0  0  0  0  0  0  # atno 10763 bound_to 10752
  153.8866  135.3052  155.3448 H   0  0  0  0  0  0  0  0  0  0  0  0  # atno 10764 bound_to 10752
  154.7614  135.4986  153.9551 H   0  0  0  0  0  0  0  0  0  0  0  0  # atno 10765 bound_to 10752
  140.8130  134.2722  157.4933 H   0  0  0  0  0  0  0  0  0  0  0  0  # atno 11005 bound_to 11000
  145.9971  140.8552  143.0037 LP  0  0  0  0  0  0  0  0  0  0  0  0  # atno 17320 bound_to 7965
  144.6781  140.2299  143.7356 LP  0  0  0  0  0  0  0  0  0  0  0  0  # atno 17321 bound_to 7965
  140.6141  143.9380  150.6475 LP  0  0  0  0  0  0  0  0  0  0  0  0  # atno 17342 bound_to 10162
  140.2633  143.3508  152.1303 LP  0  0  0  0  0  0  0  0  0  0  0  0  # atno 17343 bound_to 10162
  156.1722  130.3647  149.9149 LP  0  0  0  0  0  0  0  0  0  0  0  0  # atno 17370 bound_to 10713
  156.7122  130.8974  151.3610 LP  0  0  0  0  0  0  0  0  0  0  0  0  # atno 17371 bound_to 10713
  139.8713  134.9493  156.4023 LP  0  0  0  0  0  0  0  0  0  0  0  0  # atno 17394 bound_to 11000
  140.9178  133.7666  155.9869 LP  0  0  0  0  0  0  0  0  0  0  0  0  # atno 17395 bound_to 11000

$$$$
