#       Name:                AV-unprocessed.smi:1718
#       Creating user name   scv26
#       Creation time:       Fri Mar 27 08:13:39 2020


#       File generated by GOLD software.
#

@<TRIPOS>MOLECULE
AV-unprocessed.smi:1718
    48    49     1
SMALL
NO_CHARGES


@<TRIPOS>ATOM
      1 ****        -1.1514  -2.3704  -2.3217 C.3            1 S1                 0.0000
      2 ****        -0.7363  -1.6238  -1.0451 C.3            1 S1                 0.0000
      3 ****         0.6880  -1.6184  -0.9984 O.3            1 S1                 0.0000
      4 ****         1.2584  -1.2306   0.2466 C.3            1 S1                 0.0000
      5 ****         2.7819  -1.3744   0.1534 C.3            1 S1                 0.0000
      6 ****         3.2689  -2.8149   0.0141 C.3            1 S1                 0.0000
      7 ****         4.6940  -2.6972   0.5044 C.3            1 S1                 0.0000
      8 ****         4.5614  -1.6810   1.6374 C.3            1 S1                 0.0000
      9 ****         3.4044  -0.9004   1.3433 O.3            1 S1                 0.0000
     10 ****        -1.2770  -0.1844  -1.0350 C.2            1 S1                 0.0000
     11 ****        -1.0682   0.5462  -2.0035 O.2            1 S1                 0.0000
     12 ****        -1.9599   0.1670   0.0723 N.am           1 S1                 0.0000
     13 ****        -2.5337   1.4029   0.4155 C.2            1 S1                 0.0000
     14 ****        -2.2292   2.5920  -0.1743 C.2            1 S1                 0.0000
     15 ****        -2.8449   3.8474   0.2369 C.2            1 S1                 0.0000
     16 ****        -2.6038   5.1734  -0.4627 C.3            1 S1                 0.0000
     17 ****        -3.7126   5.9132  -0.4830 F              1 S1                 0.0000
     18 ****        -1.6589   5.8596   0.1783 F              1 S1                 0.0000
     19 ****        -2.2007   4.9849  -1.7192 F              1 S1                 0.0000
     20 ****        -3.7528   3.6742   1.2634 C.2            1 S1                 0.0000
     21 ****        -4.0900   2.5420   1.9189 N.pl3          1 S1                -1.0000
     22 ****        -3.5065   1.3742   1.5274 C.2            1 S1                 0.0000
     23 ****        -3.7713   0.3051   2.0785 O.2            1 S1                 0.0000
     24 ****        -2.2364  -2.4016  -2.4274 H              1 S1                 0.0000
     25 ****        -0.7936  -3.3999  -2.2995 H              1 S1                 0.0000
     26 ****        -0.7397  -1.8994  -3.2151 H              1 S1                 0.0000
     27 ****        -1.1246  -2.1748  -0.1861 H              1 S1                 0.0000
     28 ****         1.0095  -0.1945   0.4778 H              1 S1                 0.0000
     29 ****         0.8677  -1.8489   1.0561 H              1 S1                 0.0000
     30 ****         3.1624  -0.7786  -0.6780 H              1 S1                 0.0000
     31 ****         2.7020  -3.4797   0.6677 H              1 S1                 0.0000
     32 ****         3.1959  -3.1920  -1.0063 H              1 S1                 0.0000
     33 ****         5.1171  -3.6477   0.8305 H              1 S1                 0.0000
     34 ****         5.3272  -2.2955  -0.2878 H              1 S1                 0.0000
     35 ****         4.4044  -2.1866   2.5907 H              1 S1                 0.0000
     36 ****         5.4481  -1.0535   1.7299 H              1 S1                 0.0000
     37 ****        -2.1134  -0.5636   0.7525 H              1 S1                 0.0000
     38 ****        -1.4955   2.6479  -0.9612 H              1 S1                 0.0000
     39 ****        -4.2927   4.5823   1.6073 H              1 S1                 0.0000
     40 ****         1.0169  -0.9849  -1.6987 LP             1 S1                 0.0000
     41 ****         1.0068  -2.5426  -1.2088 LP             1 S1                 0.0000
     42 ****         2.7584  -0.9677   2.1036 LP             1 S1                 0.0000
     43 ****         3.6732   0.0546   1.2178 LP             1 S1                 0.0000
     44 ****        -0.5511   0.2020  -2.7872 LP             1 S1                 0.0000
     45 ****        -1.4156   1.4839  -2.0065 LP             1 S1                 0.0000
     46 ****        -4.7494   2.5603   2.6705 LP             1 S1                 0.0000
     47 ****        -3.3287  -0.5380   1.7731 LP             1 S1                 0.0000
     48 ****        -4.4289   0.2801   2.8315 LP             1 S1                 0.0000
@<TRIPOS>BOND
    1    1    2 1     
    2    1   24 1     
    3    1   25 1     
    4    1   26 1     
    5    2    3 1     
    6    2   10 1     
    7    2   27 1     
    8    3    4 1     
    9    4    5 1     
   10    4   28 1     
   11    4   29 1     
   12    5    9 1     
   13    5    6 1     
   14    5   30 1     
   15    6    7 1     
   16    6   31 1     
   17    6   32 1     
   18    7    8 1     
   19    7   33 1     
   20    7   34 1     
   21    8    9 1     
   22    8   35 1     
   23    8   36 1     
   24   10   11 2     
   25   10   12 am    
   26   12   13 1     
   27   12   37 1     
   28   13   22 1     
   29   13   14 2     
   30   14   15 1     
   31   14   38 1     
   32   15   16 1     
   33   15   20 2     
   34   16   17 1     
   35   16   18 1     
   36   16   19 1     
   37   20   21 1     
   38   20   39 1     
   39   21   22 1     
   40   22   23 2     
   41    3   40 1     
   42    3   41 1     
   43    9   42 1     
   44    9   43 1     
   45   11   44 1     
   46   11   45 1     
   47   21   46 1     
   48   23   47 1     
   49   23   48 1     
@<TRIPOS>SUBSTRUCTURE
      1 S1             1
@<TRIPOS>SET
LONE_PAIRS      STATIC     ATOMS    <user>   **** ""
9 40 41 42 43 44 45 46 47 48
DONOR_HYDROGENS      STATIC     ATOMS    <user>   **** ""
1 37
ATOM$BLUE        STATIC     ATOMS    COLORGROUP SYSTEM
9 40 41 42 43 44 45 46 47 48
ATOM$RED        STATIC     ATOMS    COLORGROUP SYSTEM
1 37
