#       Name:                AV-unprocessed.smi:1824
#       Creating user name   scv26
#       Creation time:       Fri Mar 27 09:08:47 2020


#       File generated by GOLD software.
#

@<TRIPOS>MOLECULE
AV-unprocessed.smi:1824
    50    52     1
SMALL
NO_CHARGES


@<TRIPOS>ATOM
      1 ****        -3.0531   2.6336   3.0967 C.3            1 S1                 0.0000
      2 ****        -2.7245   2.4445   1.6120 C.3            1 S1                 0.0000
      3 ****        -2.1038   1.0641   1.3286 C.3            1 S1                 0.0000
      4 ****        -1.8781   0.8469  -0.0981 N.3            1 S1                 0.0000
      5 ****        -1.2814  -0.4589  -0.3850 C.3            1 S1                 0.0000
      6 ****         0.1847  -0.6295   0.0599 C.3            1 S1                 0.0000
      7 ****         0.9885   0.2274  -0.7271 O.3            1 S1                 0.0000
      8 ****         0.6599  -2.0856  -0.1109 C.3            1 S1                 0.0000
      9 ****         2.0591  -2.2822   0.2959 N.pl3          1 S1                 0.0000
     10 ****         2.5782  -2.5259   1.5299 C.2            1 S1                 0.0000
     11 ****         3.9294  -2.6303   1.3945 N.pl3          1 S1                 1.0000
     12 ****         4.2797  -2.4485   0.0546 C.ar           1 S1                 0.0000
     13 ****         5.5214  -2.4613  -0.5727 C.ar           1 S1                 0.0000
     14 ****         5.5324  -2.2349  -1.9649 C.ar           1 S1                 0.0000
     15 ****         6.7146  -2.2349  -2.6252 F              1 S1                 0.0000
     16 ****         4.3380  -2.0077  -2.6809 C.ar           1 S1                 0.0000
     17 ****         4.3933  -1.7927  -4.0167 F              1 S1                 0.0000
     18 ****         3.0849  -1.9987  -2.0337 C.ar           1 S1                 0.0000
     19 ****         3.0829  -2.2238  -0.6575 C.ar           1 S1                 0.0000
     20 ****        -3.1455   1.0034  -0.8041 C.3            1 S1                 0.0000
     21 ****        -3.8152   2.3658  -0.5363 C.3            1 S1                 0.0000
     22 ****        -3.1144   3.5396  -1.2421 C.3            1 S1                 0.0000
     23 ****        -3.9343   2.5860   0.8699 O.3            1 S1                 0.0000
     24 ****        -2.1559   2.5514   3.7107 H              1 S1                 0.0000
     25 ****        -3.7655   1.8837   3.4418 H              1 S1                 0.0000
     26 ****        -3.4901   3.6161   3.2770 H              1 S1                 0.0000
     27 ****        -2.0246   3.2258   1.3142 H              1 S1                 0.0000
     28 ****        -1.1664   0.9920   1.8779 H              1 S1                 0.0000
     29 ****        -2.7568   0.2829   1.7213 H              1 S1                 0.0000
     30 ****        -1.8909  -1.2367   0.0781 H              1 S1                 0.0000
     31 ****        -1.3297  -0.6491  -1.4585 H              1 S1                 0.0000
     32 ****         0.3101  -0.3515   1.1055 H              1 S1                 0.0000
     33 ****         0.6617   1.1095  -0.6315 H              1 S1                 0.0000
     34 ****         0.0522  -2.7471   0.5079 H              1 S1                 0.0000
     35 ****         0.5314  -2.4281  -1.1378 H              1 S1                 0.0000
     36 ****         2.0192  -2.6190   2.4501 H              1 S1                 0.0000
     37 ****         6.4384  -2.6337  -0.0289 H              1 S1                 0.0000
     38 ****         2.1787  -1.8162  -2.5917 H              1 S1                 0.0000
     39 ****        -2.9939   0.8788  -1.8772 H              1 S1                 0.0000
     40 ****        -3.8297   0.2103  -0.4980 H              1 S1                 0.0000
     41 ****        -4.8324   2.3219  -0.9264 H              1 S1                 0.0000
     42 ****        -3.1371   3.4101  -2.3243 H              1 S1                 0.0000
     43 ****        -2.0690   3.6308  -0.9476 H              1 S1                 0.0000
     44 ****        -3.6099   4.4830  -1.0120 H              1 S1                 0.0000
     45 ****         4.5632  -2.8106   2.1628 H              1 S1                 0.0000
     46 ****        -1.2187   1.5281  -0.4162 LP             1 S1                 0.0000
     47 ****         0.9396  -0.0495  -1.6868 LP             1 S1                 0.0000
     48 ****         1.9375   0.1823  -0.4151 LP             1 S1                 0.0000
     49 ****        -4.2758   3.5154   1.0095 LP             1 S1                 0.0000
     50 ****        -4.5969   1.9297   1.2307 LP             1 S1                 0.0000
@<TRIPOS>BOND
    1    1    2 1     
    2    1   24 1     
    3    1   25 1     
    4    1   26 1     
    5    2   23 1     
    6    2    3 1     
    7    2   27 1     
    8    3    4 1     
    9    3   28 1     
   10    3   29 1     
   11    4    5 1     
   12    4   20 1     
   13    5    6 1     
   14    5   30 1     
   15    5   31 1     
   16    6    7 1     
   17    6    8 1     
   18    6   32 1     
   19    7   33 1     
   20    8    9 1     
   21    8   34 1     
   22    8   35 1     
   23    9   19 1     
   24    9   10 1     
   25   10   11 2     
   26   10   36 1     
   27   11   12 1     
   28   11   45 1     
   29   12   19 ar    
   30   12   13 ar    
   31   13   14 ar    
   32   13   37 1     
   33   14   15 1     
   34   14   16 ar    
   35   16   17 1     
   36   16   18 ar    
   37   18   19 ar    
   38   18   38 1     
   39   20   21 1     
   40   20   39 1     
   41   20   40 1     
   42   21   22 1     
   43   21   23 1     
   44   21   41 1     
   45   22   42 1     
   46   22   43 1     
   47   22   44 1     
   48    4   46 1     
   49    7   47 1     
   50    7   48 1     
   51   23   49 1     
   52   23   50 1     
@<TRIPOS>SUBSTRUCTURE
      1 S1             1
@<TRIPOS>SET
LONE_PAIRS      STATIC     ATOMS    <user>   **** ""
5 46 47 48 49 50
DONOR_HYDROGENS      STATIC     ATOMS    <user>   **** ""
2 33 45
ATOM$BLUE        STATIC     ATOMS    COLORGROUP SYSTEM
5 46 47 48 49 50
ATOM$RED        STATIC     ATOMS    COLORGROUP SYSTEM
2 33 45
