AV-unprocessed.smi:3014|AV-procd|sdf|11466|dock5
  -GOLD-   2272016403D 1   1.00000     0.00000
 Structure written by MMmdl.
 45 46  0  0  0  0  0  0  0  0  1 V2000
  144.9341  138.9394  155.5967 C   0  0  0  0  0  0  0  0  0  0  0  0
  145.8221  140.1802  155.4269 C   0  0  2  0  0  0  0  0  0  0  0  0
  144.9761  141.4553  155.2456 C   0  0  0  0  0  0  0  0  0  0  0  0
  145.8587  142.7000  155.0633 C   0  0  0  0  0  0  0  0  0  0  0  0
  146.8428  142.5218  153.8953 C   0  0  0  0  0  0  0  0  0  0  0  0
  147.7016  141.2559  154.0616 C   0  0  1  0  0  0  0  0  0  0  0  0
  148.5453  141.4547  155.1890 O   0  0  0  0  0  0  0  0  0  0  0  0
  149.9386  141.4635  154.9019 C   0  0  0  0  0  0  0  0  0  0  0  0
  150.7332  141.6354  156.1990 C   0  0  0  0  0  0  0  0  0  0  0  0
  151.4160  140.6964  156.6078 O   0  0  0  0  0  0  0  0  0  0  0  0
  150.6385  142.8326  156.8092 N   0  0  0  0  0  0  0  0  0  0  0  0
  151.2352  143.2493  158.0267 C   0  0  0  0  0  0  0  0  0  0  0  0
  151.0417  144.6033  158.3749 C   0  0  0  0  0  0  0  0  0  0  0  0
  151.6184  145.0435  159.5816 C   0  0  0  0  0  0  0  0  0  0  0  0
  152.3243  144.2132  160.3760 N   0  0  0  0  0  0  0  0  0  0  0  0
  152.4591  142.9439  159.9733 C   0  0  0  0  0  0  0  0  0  0  0  0
  153.1854  142.0783  160.7959 N   0  0  0  0  0  0  0  0  0  0  0  0
  153.3614  142.3593  162.2180 C   0  0  0  0  0  0  0  0  0  0  0  0
  153.8184  140.8776  160.2584 C   0  0  0  0  0  0  0  0  0  0  0  0
  151.9493  142.4369  158.8435 N   0  0  0  0  0  0  0  0  0  0  0  0
  146.8050  140.0131  154.2504 C   0  0  0  0  0  0  0  0  0  0  0  0
  144.3196  138.7674  154.7125 H   0  0  0  0  0  0  0  0  0  0  0  0
  144.2653  139.0498  156.4507 H   0  0  0  0  0  0  0  0  0  0  0  0
  145.5357  138.0456  155.7637 H   0  0  0  0  0  0  0  0  0  0  0  0
  146.4063  140.2906  156.3418 H   0  0  0  0  0  0  0  0  0  0  0  0
  144.3237  141.3442  154.3785 H   0  0  0  0  0  0  0  0  0  0  0  0
  144.3226  141.5953  156.1074 H   0  0  0  0  0  0  0  0  0  0  0  0
  145.2329  143.5758  154.8903 H   0  0  0  0  0  0  0  0  0  0  0  0
  146.4112  142.8944  155.9834 H   0  0  0  0  0  0  0  0  0  0  0  0
  146.2837  142.4593  152.9608 H   0  0  0  0  0  0  0  0  0  0  0  0
  147.4837  143.4000  153.8104 H   0  0  0  0  0  0  0  0  0  0  0  0
  148.3138  141.1381  153.1658 H   0  0  0  0  0  0  0  0  0  0  0  0
  150.2474  140.5338  154.4242 H   0  0  0  0  0  0  0  0  0  0  0  0
  150.1803  142.2838  154.2249 H   0  0  0  0  0  0  0  0  0  0  0  0
  150.0546  143.5171  156.3510 H   0  0  0  0  0  0  0  0  0  0  0  0
  150.4769  145.2784  157.7488 H   0  0  0  0  0  0  0  0  0  0  0  0
  151.5114  146.0664  159.9107 H   0  0  0  0  0  0  0  0  0  0  0  0
  152.3931  142.4561  162.7107 H   0  0  0  0  0  0  0  0  0  0  0  0
  153.9108  143.2913  162.3547 H   0  0  0  0  0  0  0  0  0  0  0  0
  153.9135  141.5682  162.7253 H   0  0  0  0  0  0  0  0  0  0  0  0
  154.5167  141.1394  159.4627 H   0  0  0  0  0  0  0  0  0  0  0  0
  153.0663  140.2031  159.8479 H   0  0  0  0  0  0  0  0  0  0  0  0
  154.3744  140.3330  161.0216 H   0  0  0  0  0  0  0  0  0  0  0  0
  147.4112  139.1190  154.3934 H   0  0  0  0  0  0  0  0  0  0  0  0
  146.2404  139.8432  153.3325 H   0  0  0  0  0  0  0  0  0  0  0  0
  1  2  1  0  0  0  0
  1 22  1  0  0  0  0
  1 23  1  0  0  0  0
  1 24  1  0  0  0  0
  2 21  1  0  0  0  0
  2  3  1  0  0  0  0
  2 25  1  0  0  0  0
  3  4  1  0  0  0  0
  3 26  1  0  0  0  0
  3 27  1  0  0  0  0
  4  5  1  0  0  0  0
  4 28  1  0  0  0  0
  4 29  1  0  0  0  0
  5  6  1  0  0  0  0
  5 30  1  0  0  0  0
  5 31  1  0  0  0  0
  6  7  1  0  0  0  0
  6 21  1  0  0  0  0
  6 32  1  0  0  0  0
  7  8  1  0  0  0  0
  8  9  1  0  0  0  0
  8 33  1  0  0  0  0
  8 34  1  0  0  0  0
  9 10  2  0  0  0  0
  9 11  1  0  0  0  0
 11 12  1  0  0  0  0
 11 35  1  0  0  0  0
 12 20  1  0  0  0  0
 12 13  2  0  0  0  0
 13 14  1  0  0  0  0
 13 36  1  0  0  0  0
 14 15  2  0  0  0  0
 14 37  1  0  0  0  0
 15 16  1  0  0  0  0
 16 17  1  0  0  0  0
 16 20  2  0  0  0  0
 17 18  1  0  0  0  0
 17 19  1  0  0  0  0
 18 38  1  0  0  0  0
 18 39  1  0  0  0  0
 18 40  1  0  0  0  0
 19 41  1  0  0  0  0
 19 42  1  0  0  0  0
 19 43  1  0  0  0  0
 21 44  1  0  0  0  0
 21 45  1  0  0  0  0
M  END
> <s_m_source_file>
AV-unprocessed.smi

> <i_m_source_file_index>
3014

> <i_lp_mmshare_version>
43012

> <i_f3d_flags>
0

> <s_epik_input>
W0NIM11bQ0BASF0xW0NIMl1bQ0gyXVtDSDJdW0NASF0oW0NIMl0xKU9bQ0gyXUMoPU8pW05IXWMyW2NIXVtjSF1uYyhuMilOKFtDSDNdKVtDSDNd

> <s_epik_cmdline>
J2VwaWtfcHl0aG9uJywgJy1waCcsICc3LjAnLCAnLXRuJywgJzgnLCAnLW1hJywgJzIwMCcsICctbWV0YWxfYmluZGluZycsICctaW1hZScsICc8aW5maWxlLm1hZT4nLCAnLW9tYWUnLCAnPG91dGZpbGUubWFlPic=

> <r_lp_tautomer_probability>
1

> <r_epik_Ionization_Penalty>
0.000308195

> <r_epik_Ionization_Penalty_Charging>
0

> <r_epik_Ionization_Penalty_Neutral>
0.000308195

> <r_epik_State_Penalty>
-0

> <r_epik_Charging_Adjusted_Penalty>
0

> <i_epik_Tot_Q>
0

> <i_epik_Tot_abs_Q>
0

> <r_epik_Metal_State_Penalty>
-0

> <b_epik_Metal_Only>
0

> <s_lp_Force_Field>
OPLS_2005

> <r_lp_Energy>
6.70314

> <b_lp_Chiralities_Consistent>
1

> <s_lp_Variant>
AV-unprocessed.smi:3014-1

> <Gold.Version>
5.8.1

> <Gold.Id.Protein>
6NUR|6NUR_protein|mol2

> <Gold.PLP.Fitness>
47.3793

> <Gold.PLP.PLP>
-46.4532

> <Gold.PLP.part.hbond>
-1.0000

> <Gold.PLP.part.metal>
0.0000

> <Gold.PLP.part.buried>
-6.3021

> <Gold.PLP.part.nonpolar>
-38.8006

> <Gold.PLP.part.repulsive>
0.2186

> <Gold.PLP.ligand.clash>
0.0000

> <Gold.PLP.ligand.torsion>
1.0507

> <Gold.PLP.Chemscore.Hbond>
1.0000

> <Gold.PLP.Chemscore.CHOScore>
0.0000

> <Gold.PLP.Chemscore.Metal>
0.0000

> <Gold.Chemscore.Hbonds>
donor molecule, donor type, donor heavy atom, donor atom, acceptor molecule, acceptor atom, score
      L1  H    11    35       P1  8028  1.00

> <Gold.PLP.Chemscore.Internal.Correction>
0.0276

> <Gold.Rescore>
     Score         DG    S(hbond)    S(metal)    S(lipo)     H(rot)  DE(clash)    DE(int)     intcor
     12.19     -14.48       1.00        0.00      79.78       1.43       0.04       2.25       ----

> <Gold.Chemscore.Fitness>
12.1854

> <Gold.Chemscore.DG>
-14.4833

> <Gold.Chemscore.ZeroCoef>
-5.4800

> <Gold.Chemscore.Hbond>
0.9975

> <Gold.Chemscore.Metal>
0.0000

> <Gold.Chemscore.Lipo>
79.7845

> <Gold.Chemscore.Internal_Hbond>
0.0000

> <Gold.Chemscore.DEClash>
0.0436

> <Gold.Chemscore.DEInternal>
2.2544

> <Gold.Chemscore.Rot>
1.4310

> <Gold.Chemscore.Internal.Correction>
   9.000000E+99

> <Gold.Chemscore.Hbonds>
donor molecule, donor type, donor heavy atom, donor atom, acceptor molecule, acceptor atom, score
      L1  H    11    35       P1  8028  1.00

> <Gold.Chemscore.Hbond.Weighted>
-3.3318

> <Gold.Chemscore.Metal.Weighted>
-0.0000

> <Gold.Chemscore.Lipo.Weighted>
-9.3348

> <Gold.Chemscore.Internal_Hbond.Weighted>
0.0000

> <Gold.Chemscore.DEClash.Weighted>
0.0436

> <Gold.Chemscore.DEInternal.Weighted>
2.2544

> <Gold.Chemscore.Rot.Weighted>
3.6632

> <Gold.Chemscore.Internal.Correction.Weighted>
   9.000000E+99

> <Gold.Protein.RotatedTorsions>
[ 6907 6896 6895 6894 ] final  129.19 input  -60.11 | X-H torsion
[ 7974 7965 7964 7962 ] final  177.02 input  175.53 | X-H torsion
[ 8008 7997 7996 7995 ] final  -32.38 input   59.86 | X-H torsion
[ 10167 10162 10161 10158 ] final  -57.86 input  -65.29 | X-H torsion
[ 10718 10713 10712 10709 ] final -159.18 input   66.30 | X-H torsion
[ 10763 10752 10751 10750 ] final  157.15 input  -60.55 | X-H torsion
[ 11005 11000 10999 10996 ] final  -57.67 input  -57.11 | X-H torsion

> <Gold.Protein.ActiveResidues>
 VAL166  LYS551  ARG553  GLY616  TRP617  ASP618  TYR619  PRO620  LYS621  CYS622 
 ASP623  PHE694  ASN695  SER759  ASP760  ASP761  ALA762  ILE779  LEU786  VAL792 
 PHE793  MET794  SER795  GLU796  ALA797  LYS798  CYS799  TRP800  GLU811  SER814 

> <Gold.Protein.RotatedAtoms>
  152.3648  133.6342  159.6041 H   0  0  0  0  0  0  0  0  0  0  0  0  # atno 6907 bound_to 6896
  150.7626  133.9366  159.3452 H   0  0  0  0  0  0  0  0  0  0  0  0  # atno 6908 bound_to 6896
  151.7198  135.0897  160.0333 H   0  0  0  0  0  0  0  0  0  0  0  0  # atno 6909 bound_to 6896
  144.7175  140.0184  143.6440 H   0  0  0  0  0  0  0  0  0  0  0  0  # atno 7974 bound_to 7965
  154.4182  140.1739  156.1718 H   0  0  0  0  0  0  0  0  0  0  0  0  # atno 8008 bound_to 7997
  155.9754  140.3382  155.6590 H   0  0  0  0  0  0  0  0  0  0  0  0  # atno 8009 bound_to 7997
  155.6570  140.0696  157.2558 H   0  0  0  0  0  0  0  0  0  0  0  0  # atno 8010 bound_to 7997
  140.6232  143.2428  151.5428 H   0  0  0  0  0  0  0  0  0  0  0  0  # atno 10167 bound_to 10162
  156.5645  130.8662  151.2819 H   0  0  0  0  0  0  0  0  0  0  0  0  # atno 10718 bound_to 10713
  154.1957  135.2792  155.3007 H   0  0  0  0  0  0  0  0  0  0  0  0  # atno 10763 bound_to 10752
  154.5894  135.5564  153.7267 H   0  0  0  0  0  0  0  0  0  0  0  0  # atno 10764 bound_to 10752
  153.0101  135.6364  154.2095 H   0  0  0  0  0  0  0  0  0  0  0  0  # atno 10765 bound_to 10752
  141.1175  133.6610  156.4804 H   0  0  0  0  0  0  0  0  0  0  0  0  # atno 11005 bound_to 11000
  146.0201  139.3243  143.0818 LP  0  0  0  0  0  0  0  0  0  0  0  0  # atno 17320 bound_to 7965
  145.8578  140.9492  143.0716 LP  0  0  0  0  0  0  0  0  0  0  0  0  # atno 17321 bound_to 7965
  139.5457  144.2528  152.1437 LP  0  0  0  0  0  0  0  0  0  0  0  0  # atno 17342 bound_to 10162
  140.1753  144.4896  150.6557 LP  0  0  0  0  0  0  0  0  0  0  0  0  # atno 17343 bound_to 10162
  157.7361  130.9774  150.2120 LP  0  0  0  0  0  0  0  0  0  0  0  0  # atno 17370 bound_to 10713
  156.2769  130.3728  149.7974 LP  0  0  0  0  0  0  0  0  0  0  0  0  # atno 17371 bound_to 10713
  140.4605  134.6846  157.5083 LP  0  0  0  0  0  0  0  0  0  0  0  0  # atno 17394 bound_to 11000
  140.0107  134.6695  155.9386 LP  0  0  0  0  0  0  0  0  0  0  0  0  # atno 17395 bound_to 11000

$$$$
