AV-unprocessed.smi:2772|AV-procd|sdf|10673|dock10
  -GOLD-   2272015123D 1   1.00000     0.00000
 Structure written by MMmdl.
 56 58  0  0  0  0  0  0  0  0  4 V2000
  151.2096  142.8890  156.8859 C   0  0  0  0  0  0  0  0  0  0  0  0
  150.5561  141.8473  156.0026 C   0  0  0  0  0  0  0  0  0  0  0  0
  151.1466  140.5910  155.7528 C   0  0  0  0  0  0  0  0  0  0  0  0
  150.4786  139.6704  154.9193 C   0  0  0  0  0  0  0  0  0  0  0  0
  149.2297  140.0123  154.3558 C   0  0  0  0  0  0  0  0  0  0  0  0
  148.5998  139.0560  153.5130 N   0  0  0  0  0  0  0  0  0  0  0  0
  147.2938  138.7486  153.4266 C   0  0  0  0  0  0  0  0  0  0  0  0
  146.3991  139.2565  154.1014 O   0  0  0  0  0  0  0  0  0  0  0  0
  147.0823  137.7923  152.5110 N   0  0  0  0  0  0  0  0  0  0  0  0
  145.7873  137.2097  152.1678 C   0  0  2  0  0  0  0  0  0  0  0  0
  145.4057  136.1349  153.2030 C   0  0  0  0  0  0  0  0  0  0  0  0
  144.1381  135.3712  152.7731 C   0  0  0  0  0  0  0  0  0  0  0  0
  144.2931  134.7524  151.4249 N   0  3  2  0  0  0  0  0  0  0  0  0
  145.2231  133.5715  151.3611 C   0  0  2  0  0  0  0  0  0  0  0  0
  144.7517  132.5062  150.3385 C   0  0  0  0  0  0  0  0  0  0  0  0
  145.6524  131.2592  150.3262 C   0  0  0  0  0  0  0  0  0  0  0  0
  145.7427  130.6511  151.6731 N   0  3  1  0  0  0  0  0  0  0  0  0
  146.4995  129.3803  151.6699 C   0  0  0  0  0  0  0  0  0  0  0  0
  146.2645  131.6180  152.6655 C   0  0  0  0  0  0  0  0  0  0  0  0
  145.3791  132.8741  152.7366 C   0  0  0  0  0  0  0  0  0  0  0  0
  144.5554  135.8285  150.4260 C   0  0  0  0  0  0  0  0  0  0  0  0
  145.8435  136.6096  150.7508 C   0  0  0  0  0  0  0  0  0  0  0  0
  148.6941  141.2947  154.6344 C   0  0  0  0  0  0  0  0  0  0  0  0
  149.3665  142.1483  155.4369 N   0  3  0  0  0  0  0  0  0  0  0  0
  152.1515  142.5225  157.2949 H   0  0  0  0  0  0  0  0  0  0  0  0
  150.5549  143.1466  157.7190 H   0  0  0  0  0  0  0  0  0  0  0  0
  151.4156  143.7954  156.3160 H   0  0  0  0  0  0  0  0  0  0  0  0
  152.0994  140.3329  156.1918 H   0  0  0  0  0  0  0  0  0  0  0  0
  150.9237  138.7060  154.7209 H   0  0  0  0  0  0  0  0  0  0  0  0
  149.2238  138.5038  152.9428 H   0  0  0  0  0  0  0  0  0  0  0  0
  147.8840  137.4366  152.0108 H   0  0  0  0  0  0  0  0  0  0  0  0
  145.0077  137.9738  152.1761 H   0  0  0  0  0  0  0  0  0  0  0  0
  146.2307  135.4360  153.3457 H   0  0  0  0  0  0  0  0  0  0  0  0
  145.2376  136.6041  154.1732 H   0  0  0  0  0  0  0  0  0  0  0  0
  143.8433  134.6467  153.5289 H   0  0  0  0  0  0  0  0  0  0  0  0
  143.3033  136.0723  152.7291 H   0  0  0  0  0  0  0  0  0  0  0  0
  146.2088  133.9174  151.0494 H   0  0  0  0  0  0  0  0  0  0  0  0
  143.7243  132.2112  150.5572 H   0  0  0  0  0  0  0  0  0  0  0  0
  144.7551  132.9063  149.3257 H   0  0  0  0  0  0  0  0  0  0  0  0
  145.2509  130.5284  149.6227 H   0  0  0  0  0  0  0  0  0  0  0  0
  146.6518  131.5208  149.9745 H   0  0  0  0  0  0  0  0  0  0  0  0
  147.5370  129.5414  151.3737 H   0  0  0  0  0  0  0  0  0  0  0  0
  146.0521  128.6674  150.9764 H   0  0  0  0  0  0  0  0  0  0  0  0
  146.4930  128.9258  152.6613 H   0  0  0  0  0  0  0  0  0  0  0  0
  146.3042  131.1458  153.6481 H   0  0  0  0  0  0  0  0  0  0  0  0
  147.2878  131.8938  152.4055 H   0  0  0  0  0  0  0  0  0  0  0  0
  145.8369  133.5412  153.4655 H   0  0  0  0  0  0  0  0  0  0  0  0
  144.3973  132.6056  153.1295 H   0  0  0  0  0  0  0  0  0  0  0  0
  144.5735  135.4505  149.4060 H   0  0  0  0  0  0  0  0  0  0  0  0
  143.7111  136.5196  150.4434 H   0  0  0  0  0  0  0  0  0  0  0  0
  145.9805  137.4076  150.0199 H   0  0  0  0  0  0  0  0  0  0  0  0
  146.7105  135.9560  150.6495 H   0  0  0  0  0  0  0  0  0  0  0  0
  147.7652  141.6808  154.2435 H   0  0  0  0  0  0  0  0  0  0  0  0
  143.3822  134.3836  151.1904 H   0  0  0  0  0  0  0  0  0  0  0  0
  144.8005  130.4202  151.9551 H   0  0  0  0  0  0  0  0  0  0  0  0
  148.9569  143.0642  155.6221 H   0  0  0  0  0  0  0  0  0  0  0  0
  1  2  1  0  0  0  0
  1 25  1  0  0  0  0
  1 26  1  0  0  0  0
  1 27  1  0  0  0  0
  2 24  1  0  0  0  0
  2  3  2  0  0  0  0
  3  4  1  0  0  0  0
  3 28  1  0  0  0  0
  4  5  2  0  0  0  0
  4 29  1  0  0  0  0
  5  6  1  0  0  0  0
  5 23  1  0  0  0  0
  6  7  1  0  0  0  0
  6 30  1  0  0  0  0
  7  8  2  0  0  0  0
  7  9  1  0  0  0  0
  9 10  1  0  0  0  0
  9 31  1  0  0  0  0
 10 22  1  0  0  0  0
 10 11  1  0  0  0  0
 10 32  1  0  0  0  0
 11 12  1  0  0  0  0
 11 33  1  0  0  0  0
 11 34  1  0  0  0  0
 12 13  1  0  0  0  0
 12 35  1  0  0  0  0
 12 36  1  0  0  0  0
 13 14  1  0  0  0  0
 13 21  1  0  0  0  0
 13 54  1  0  0  0  0
 14 20  1  0  0  0  0
 14 15  1  0  0  0  0
 14 37  1  0  0  0  0
 15 16  1  0  0  0  0
 15 38  1  0  0  0  0
 15 39  1  0  0  0  0
 16 17  1  0  0  0  0
 16 40  1  0  0  0  0
 16 41  1  0  0  0  0
 17 18  1  0  0  0  0
 17 19  1  0  0  0  0
 17 55  1  0  0  0  0
 18 42  1  0  0  0  0
 18 43  1  0  0  0  0
 18 44  1  0  0  0  0
 19 20  1  0  0  0  0
 19 45  1  0  0  0  0
 19 46  1  0  0  0  0
 20 47  1  0  0  0  0
 20 48  1  0  0  0  0
 21 22  1  0  0  0  0
 21 49  1  0  0  0  0
 21 50  1  0  0  0  0
 22 51  1  0  0  0  0
 22 52  1  0  0  0  0
 23 24  2  0  0  0  0
 23 53  1  0  0  0  0
 24 56  1  0  0  0  0
M  CHG  1  13   1
M  CHG  1  17   1
M  CHG  1  24   1
M  END
> <s_m_source_file>
AV-unprocessed.smi

> <i_m_source_file_index>
2772

> <i_lp_mmshare_version>
43012

> <i_f3d_flags>
0

> <s_epik_input>
W0NIM11jMVtjSF1bY0hdYyhbY0hdbjEpW05IXUMoPU8pW05IXVtDSF0yW0NIMl1bQ0gyXU4oW0NIMl1bQ0gyXTIpW0NIXTNbQ0gyXVtDSDJdTihbQ0gzXSlbQ0gyXVtDSDJdMw==

> <s_epik_cmdline>
J2VwaWtfcHl0aG9uJywgJy1waCcsICc3LjAnLCAnLXRuJywgJzgnLCAnLW1hJywgJzIwMCcsICctbWV0YWxfYmluZGluZycsICctaW1hZScsICc8aW5maWxlLm1hZT4nLCAnLW9tYWUnLCAnPG91dGZpbGUubWFlPic=

> <r_epik_Ionization_Penalty>
2.34117

> <r_epik_Ionization_Penalty_Charging>
2.34115

> <r_epik_Ionization_Penalty_Neutral>
2.22786e-05

> <r_epik_State_Penalty>
2.43944

> <r_epik_Charging_Adjusted_Penalty>
4.78059

> <i_epik_Tot_Q>
3

> <i_epik_Tot_abs_Q>
3

> <r_epik_Metal_State_Penalty>
2.45906

> <b_epik_Metal_Only>
0

> <s_lp_Force_Field>
OPLS_2005

> <r_lp_Energy>
52.8488

> <b_lp_Chiralities_Consistent>
1

> <s_lp_Variant>
AV-unprocessed.smi:2772-10

> <Gold.Version>
5.8.1

> <Gold.Id.Protein>
6NUR|6NUR_protein|mol2

> <Gold.PLP.Fitness>
47.8399

> <Gold.PLP.PLP>
-41.6545

> <Gold.PLP.part.hbond>
-3.0620

> <Gold.PLP.part.metal>
0.0000

> <Gold.PLP.part.buried>
-2.8636

> <Gold.PLP.part.nonpolar>
-36.4500

> <Gold.PLP.part.repulsive>
0.4682

> <Gold.PLP.ligand.clash>
0.0000

> <Gold.PLP.ligand.torsion>
1.4165

> <Gold.PLP.Chemscore.Hbond>
2.9920

> <Gold.PLP.Chemscore.CHOScore>
0.0000

> <Gold.PLP.Chemscore.Metal>
0.0000

> <Gold.Chemscore.Hbonds>
donor molecule, donor type, donor heavy atom, donor atom, acceptor molecule, acceptor atom, score
      L1  H     9    31       P1  7948  0.96
      L1  H    24    56       P1  8028  2.00

> <Gold.PLP.Chemscore.Internal.Correction>
0.0425

> <Gold.Rescore>
     Score         DG    S(hbond)    S(metal)    S(lipo)     H(rot)  DE(clash)    DE(int)     intcor
     20.76     -22.73       1.92        0.00     119.24       1.22       0.95       1.02       ----

> <Gold.Chemscore.Fitness>
20.7562

> <Gold.Chemscore.DG>
-22.7288

> <Gold.Chemscore.ZeroCoef>
-5.4800

> <Gold.Chemscore.Hbond>
1.9241

> <Gold.Chemscore.Metal>
0.0000

> <Gold.Chemscore.Lipo>
119.2398

> <Gold.Chemscore.Internal_Hbond>
0.0000

> <Gold.Chemscore.DEClash>
0.9503

> <Gold.Chemscore.DEInternal>
1.0223

> <Gold.Chemscore.Rot>
1.2222

> <Gold.Chemscore.Internal.Correction>
   9.000000E+99

> <Gold.Chemscore.Hbonds>
donor molecule, donor type, donor heavy atom, donor atom, acceptor molecule, acceptor atom, score
      L1  H     6    30       P1  7948  0.01
      L1  H     9    31       P1  7948  0.91
      L1  H    24    56       P1  8028  0.99

> <Gold.Chemscore.Hbond.Weighted>
-6.4266

> <Gold.Chemscore.Metal.Weighted>
-0.0000

> <Gold.Chemscore.Lipo.Weighted>
-13.9511

> <Gold.Chemscore.Internal_Hbond.Weighted>
0.0000

> <Gold.Chemscore.DEClash.Weighted>
0.9503

> <Gold.Chemscore.DEInternal.Weighted>
1.0223

> <Gold.Chemscore.Rot.Weighted>
3.1289

> <Gold.Chemscore.Internal.Correction.Weighted>
   9.000000E+99

> <Gold.Protein.RotatedTorsions>
[ 6907 6896 6895 6894 ] final   41.59 input  -60.11 | X-H torsion
[ 7974 7965 7964 7962 ] final  -68.33 input  175.53 | X-H torsion
[ 8008 7997 7996 7995 ] final -112.19 input   59.86 | X-H torsion
[ 10167 10162 10161 10158 ] final  -37.07 input  -65.29 | X-H torsion
[ 10718 10713 10712 10709 ] final -119.15 input   66.30 | X-H torsion
[ 10763 10752 10751 10750 ] final  -50.19 input  -60.55 | X-H torsion
[ 11005 11000 10999 10996 ] final  -51.61 input  -57.11 | X-H torsion

> <Gold.Protein.ActiveResidues>
 VAL166  LYS551  ARG553  GLY616  TRP617  ASP618  TYR619  PRO620  LYS621  CYS622 
 ASP623  PHE694  ASN695  SER759  ASP760  ASP761  ALA762  ILE779  LEU786  VAL792 
 PHE793  MET794  SER795  GLU796  ALA797  LYS798  CYS799  TRP800  GLU811  SER814 

> <Gold.Protein.RotatedAtoms>
  152.1972  134.8620  160.0511 H   0  0  0  0  0  0  0  0  0  0  0  0  # atno 6907 bound_to 6896
  151.9487  133.3654  159.4000 H   0  0  0  0  0  0  0  0  0  0  0  0  # atno 6908 bound_to 6896
  150.6947  134.4287  159.5282 H   0  0  0  0  0  0  0  0  0  0  0  0  # atno 6909 bound_to 6896
  145.7179  140.9051  143.0646 H   0  0  0  0  0  0  0  0  0  0  0  0  # atno 7974 bound_to 7965
  155.0013  140.0394  157.2361 H   0  0  0  0  0  0  0  0  0  0  0  0  # atno 8008 bound_to 7997
  154.7541  140.2772  155.6245 H   0  0  0  0  0  0  0  0  0  0  0  0  # atno 8009 bound_to 7997
  156.2891  140.2641  156.2302 H   0  0  0  0  0  0  0  0  0  0  0  0  # atno 8010 bound_to 7997
  140.7127  143.3366  151.2449 H   0  0  0  0  0  0  0  0  0  0  0  0  # atno 10167 bound_to 10162
  156.1160  130.6286  150.9381 H   0  0  0  0  0  0  0  0  0  0  0  0  # atno 10718 bound_to 10713
  154.1063  135.6556  153.4877 H   0  0  0  0  0  0  0  0  0  0  0  0  # atno 10763 bound_to 10752
  153.0271  135.5237  154.7237 H   0  0  0  0  0  0  0  0  0  0  0  0  # atno 10764 bound_to 10752
  154.6403  135.2987  155.0080 H   0  0  0  0  0  0  0  0  0  0  0  0  # atno 10765 bound_to 10752
  141.0880  133.6638  156.3903 H   0  0  0  0  0  0  0  0  0  0  0  0  # atno 11005 bound_to 11000
  144.6924  139.9163  143.7466 LP  0  0  0  0  0  0  0  0  0  0  0  0  # atno 17320 bound_to 7965
  146.0653  139.3644  143.0556 LP  0  0  0  0  0  0  0  0  0  0  0  0  # atno 17321 bound_to 7965
  139.6862  143.9769  152.2835 LP  0  0  0  0  0  0  0  0  0  0  0  0  # atno 17342 bound_to 10162
  139.9415  144.6678  150.8261 LP  0  0  0  0  0  0  0  0  0  0  0  0  # atno 17343 bound_to 10162
  157.6343  131.0918  150.8380 LP  0  0  0  0  0  0  0  0  0  0  0  0  # atno 17370 bound_to 10713
  156.8483  130.5072  149.5314 LP  0  0  0  0  0  0  0  0  0  0  0  0  # atno 17371 bound_to 10713
  140.5317  134.6206  157.5352 LP  0  0  0  0  0  0  0  0  0  0  0  0  # atno 17394 bound_to 11000
  139.9702  134.7306  156.0058 LP  0  0  0  0  0  0  0  0  0  0  0  0  # atno 17395 bound_to 11000

$$$$
