AV-unprocessed.smi:102|AV-procd|sdf|956|dock7
  -GOLD-   2262017493D 1   1.00000     0.00000
 Structure written by MMmdl.
 44 45  0  0  0  0  0  0  0  0  1 V2000
  155.5516  134.9110  159.2127 C   0  0  0  0  0  0  0  0  0  0  0  0
  154.5560  135.5013  158.2231 C   0  0  0  0  0  0  0  0  0  0  0  0
  154.6337  135.2667  157.0167 O   0  0  0  0  0  0  0  0  0  0  0  0
  153.6306  136.2716  158.8239 O   0  0  0  0  0  0  0  0  0  0  0  0
  152.5343  136.7897  158.0827 C   0  0  0  0  0  0  0  0  0  0  0  0
  151.6101  137.6380  158.9772 C   0  0  1  0  0  0  0  0  0  0  0  0
  152.0382  138.9935  158.9792 O   0  0  0  0  0  0  0  0  0  0  0  0
  151.4236  139.6606  157.9271 C   0  0  2  0  0  0  0  0  0  0  0  0
  151.3316  141.1266  158.2621 N   0  0  0  0  0  0  0  0  0  0  0  0
  151.8874  141.6303  159.4300 C   0  0  0  0  0  0  0  0  0  0  0  0
  151.8127  142.9375  159.7749 C   0  0  0  0  0  0  0  0  0  0  0  0
  152.3741  143.3542  160.9224 F   0  0  0  0  0  0  0  0  0  0  0  0
  151.1196  143.8952  158.9174 C   0  0  0  0  0  0  0  0  0  0  0  0
  151.0031  145.0984  159.1416 O   0  0  0  0  0  0  0  0  0  0  0  0
  150.5566  143.3373  157.7652 N   0  0  0  0  0  0  0  0  0  0  0  0
  150.6222  141.9911  157.4006 C   0  0  0  0  0  0  0  0  0  0  0  0
  150.0682  141.6038  156.3726 O   0  0  0  0  0  0  0  0  0  0  0  0
  150.0296  139.0564  157.7716 C   0  0  1  0  0  0  0  0  0  0  0  0
  149.6934  138.9447  156.3958 O   0  0  0  0  0  0  0  0  0  0  0  0
  150.6250  138.5705  155.5045 C   0  0  0  0  0  0  0  0  0  0  0  0
  150.2500  138.9533  154.0793 C   0  0  0  0  0  0  0  0  0  0  0  0
  151.6792  137.9879  155.7592 O   0  0  0  0  0  0  0  0  0  0  0  0
  150.1721  137.6871  158.4319 C   0  0  2  0  0  0  0  0  0  0  0  0
  149.2122  137.5722  159.4748 O   0  0  0  0  0  0  0  0  0  0  0  0
  148.7446  136.3646  159.8365 C   0  0  0  0  0  0  0  0  0  0  0  0
  147.8639  136.4317  161.0769 C   0  0  0  0  0  0  0  0  0  0  0  0
  148.9779  135.2971  159.2695 O   0  0  0  0  0  0  0  0  0  0  0  0
  150.0555  143.9603  157.1484 H   0  0  0  0  0  0  0  0  0  0  0  0
  155.0670  134.1542  159.8295 H   0  0  0  0  0  0  0  0  0  0  0  0
  155.9473  135.6896  159.8652 H   0  0  0  0  0  0  0  0  0  0  0  0
  156.3851  134.4462  158.6857 H   0  0  0  0  0  0  0  0  0  0  0  0
  152.8658  137.3440  157.2036 H   0  0  0  0  0  0  0  0  0  0  0  0
  151.9740  135.9325  157.7090 H   0  0  0  0  0  0  0  0  0  0  0  0
  151.6351  137.2436  159.9938 H   0  0  0  0  0  0  0  0  0  0  0  0
  152.0571  139.5558  157.0433 H   0  0  0  0  0  0  0  0  0  0  0  0
  152.3980  140.9589  160.1055 H   0  0  0  0  0  0  0  0  0  0  0  0
  149.3171  139.6787  158.3169 H   0  0  0  0  0  0  0  0  0  0  0  0
  149.2771  138.5364  153.8182 H   0  0  0  0  0  0  0  0  0  0  0  0
  150.9892  138.5741  153.3735 H   0  0  0  0  0  0  0  0  0  0  0  0
  150.2014  140.0377  153.9796 H   0  0  0  0  0  0  0  0  0  0  0  0
  150.0157  136.8986  157.6935 H   0  0  0  0  0  0  0  0  0  0  0  0
  147.0375  137.1249  160.9191 H   0  0  0  0  0  0  0  0  0  0  0  0
  148.4443  136.7730  161.9341 H   0  0  0  0  0  0  0  0  0  0  0  0
  147.4517  135.4492  161.3077 H   0  0  0  0  0  0  0  0  0  0  0  0
  1  2  1  0  0  0  0
  1 29  1  0  0  0  0
  1 30  1  0  0  0  0
  1 31  1  0  0  0  0
  2  3  2  0  0  0  0
  2  4  1  0  0  0  0
  4  5  1  0  0  0  0
  5  6  1  0  0  0  0
  5 32  1  0  0  0  0
  5 33  1  0  0  0  0
  6 23  1  0  0  0  0
  6  7  1  0  0  0  0
  6 34  1  0  0  0  0
  7  8  1  0  0  0  0
  8  9  1  0  0  0  0
  8 18  1  0  0  0  0
  8 35  1  0  0  0  0
  9 16  1  0  0  0  0
  9 10  1  0  0  0  0
 10 11  2  0  0  0  0
 10 36  1  0  0  0  0
 11 12  1  0  0  0  0
 11 13  1  0  0  0  0
 13 14  2  0  0  0  0
 13 15  1  0  0  0  0
 15 28  1  0  0  0  0
 15 16  1  0  0  0  0
 16 17  2  0  0  0  0
 18 19  1  0  0  0  0
 18 23  1  0  0  0  0
 18 37  1  0  0  0  0
 19 20  1  0  0  0  0
 20 21  1  0  0  0  0
 20 22  2  0  0  0  0
 21 38  1  0  0  0  0
 21 39  1  0  0  0  0
 21 40  1  0  0  0  0
 23 24  1  0  0  0  0
 23 41  1  0  0  0  0
 24 25  1  0  0  0  0
 25 26  1  0  0  0  0
 25 27  2  0  0  0  0
 26 42  1  0  0  0  0
 26 43  1  0  0  0  0
 26 44  1  0  0  0  0
M  END
> <s_m_source_file>
AV-unprocessed.smi

> <i_m_source_file_index>
102

> <i_lp_mmshare_version>
43012

> <i_f3d_flags>
0

> <s_epik_input>
W0NIM11DKD1PKU9bQ0gyXVtDQEBIXTFPW0NASF0oW0NAQEhdKE9DKD1PKVtDSDNdKVtDQEhdMU9DKD1PKVtDSDNdKW4yW2NIXWMoRiljKD1PKVtuSF1jMj1P

> <s_epik_cmdline>
J2VwaWtfcHl0aG9uJywgJy1waCcsICc3LjAnLCAnLXRuJywgJzgnLCAnLW1hJywgJzIwMCcsICctbWV0YWxfYmluZGluZycsICctaW1hZScsICc8aW5maWxlLm1hZT4nLCAnLW9tYWUnLCAnPG91dGZpbGUubWFlPic=

> <r_lp_tautomer_probability>
0.999537

> <r_epik_Ionization_Penalty>
0.058267

> <r_epik_Ionization_Penalty_Charging>
0.058267

> <r_epik_Ionization_Penalty_Neutral>
6.57791e-16

> <r_epik_State_Penalty>
0.0503774

> <r_epik_Charging_Adjusted_Penalty>
0.108644

> <i_epik_Tot_Q>
0

> <i_epik_Tot_abs_Q>
0

> <r_epik_Metal_State_Penalty>
2.6644

> <b_epik_Metal_Only>
0

> <s_epik_Chemistry_Notes>
This compound has an ester and may undergo hydrolysis at high or low pH. This compound contains an acetal/aminal-like group ( X-CH(R)-Y where X, Y are N, S, or O) that may be acid/base labile, releasing an aldehyde.

> <s_lp_Force_Field>
OPLS_2005

> <r_lp_Energy>
12.7651

> <b_lp_Chiralities_Consistent>
1

> <s_lp_Variant>
AV-unprocessed.smi:102-12

> <Gold.Version>
5.8.1

> <Gold.Id.Protein>
6NUR|6NUR_protein|mol2

> <Gold.PLP.Fitness>
46.3707

> <Gold.PLP.PLP>
-39.7054

> <Gold.PLP.part.hbond>
-4.7243

> <Gold.PLP.part.metal>
0.0000

> <Gold.PLP.part.buried>
-6.1883

> <Gold.PLP.part.nonpolar>
-28.7091

> <Gold.PLP.part.repulsive>
0.2442

> <Gold.PLP.ligand.clash>
0.0000

> <Gold.PLP.ligand.torsion>
1.2350

> <Gold.PLP.Chemscore.Hbond>
3.0000

> <Gold.PLP.Chemscore.CHOScore>
0.0000

> <Gold.PLP.Chemscore.Metal>
0.0000

> <Gold.Chemscore.Hbonds>
donor molecule, donor type, donor heavy atom, donor atom, acceptor molecule, acceptor atom, score
      L1  H    15    28       P1  8028  1.00
      P1  H  6896  6908       L1    27  1.00
      P1  H 10752 10764       L1     3  1.00

> <Gold.PLP.Chemscore.Internal.Correction>
0.1352

> <Gold.Rescore>
     Score         DG    S(hbond)    S(metal)    S(lipo)     H(rot)  DE(clash)    DE(int)     intcor
      4.10     -10.82       2.98        0.00      49.25       4.05       0.12       6.59       ----

> <Gold.Chemscore.Fitness>
4.1019

> <Gold.Chemscore.DG>
-10.8164

> <Gold.Chemscore.ZeroCoef>
-5.4800

> <Gold.Chemscore.Hbond>
2.9781

> <Gold.Chemscore.Metal>
0.0000

> <Gold.Chemscore.Lipo>
49.2543

> <Gold.Chemscore.Internal_Hbond>
0.0000

> <Gold.Chemscore.DEClash>
0.1212

> <Gold.Chemscore.DEInternal>
6.5934

> <Gold.Chemscore.Rot>
4.0520

> <Gold.Chemscore.Internal.Correction>
   9.000000E+99

> <Gold.Chemscore.Hbonds>
donor molecule, donor type, donor heavy atom, donor atom, acceptor molecule, acceptor atom, score
      L1  H    15    28       P1  8028  0.86
      P1  H  6896  6908       L1    27  0.96
      P1  H 10752 10764       L1     3  0.98

> <Gold.Chemscore.Hbond.Weighted>
-9.9469

> <Gold.Chemscore.Metal.Weighted>
-0.0000

> <Gold.Chemscore.Lipo.Weighted>
-5.7628

> <Gold.Chemscore.Internal_Hbond.Weighted>
0.0000

> <Gold.Chemscore.DEClash.Weighted>
0.1212

> <Gold.Chemscore.DEInternal.Weighted>
6.5934

> <Gold.Chemscore.Rot.Weighted>
10.3732

> <Gold.Chemscore.Internal.Correction.Weighted>
   9.000000E+99

> <Gold.Protein.RotatedTorsions>
[ 6907 6896 6895 6894 ] final  153.92 input  -60.11 | X-H torsion
[ 7974 7965 7964 7962 ] final   42.98 input  175.53 | X-H torsion
[ 8008 7997 7996 7995 ] final  -48.58 input   59.86 | X-H torsion
[ 10167 10162 10161 10158 ] final  -96.53 input  -65.29 | X-H torsion
[ 10718 10713 10712 10709 ] final -107.67 input   66.30 | X-H torsion
[ 10763 10752 10751 10750 ] final   52.90 input  -60.55 | X-H torsion
[ 11005 11000 10999 10996 ] final -139.68 input  -57.11 | X-H torsion

> <Gold.Protein.ActiveResidues>
 VAL166  LYS551  ARG553  GLY616  TRP617  ASP618  TYR619  PRO620  LYS621  CYS622 
 ASP623  PHE694  ASN695  SER759  ASP760  ASP761  ALA762  ILE779  LEU786  VAL792 
 PHE793  MET794  SER795  GLU796  ALA797  LYS798  CYS799  TRP800  GLU811  SER814 

> <Gold.Protein.RotatedAtoms>
  152.0659  133.4083  159.4437 H   0  0  0  0  0  0  0  0  0  0  0  0  # atno 6907 bound_to 6896
  150.6865  134.3147  159.4770 H   0  0  0  0  0  0  0  0  0  0  0  0  # atno 6908 bound_to 6896
  152.0973  134.9365  160.0621 H   0  0  0  0  0  0  0  0  0  0  0  0  # atno 6909 bound_to 6896
  146.0694  139.5238  142.9607 H   0  0  0  0  0  0  0  0  0  0  0  0  # atno 7974 bound_to 7965
  154.4031  140.1318  156.4362 H   0  0  0  0  0  0  0  0  0  0  0  0  # atno 8008 bound_to 7997
  155.7503  140.3488  155.5127 H   0  0  0  0  0  0  0  0  0  0  0  0  # atno 8009 bound_to 7997
  155.8956  140.1010  157.1377 H   0  0  0  0  0  0  0  0  0  0  0  0  # atno 8010 bound_to 7997
  140.2929  143.3210  152.0327 H   0  0  0  0  0  0  0  0  0  0  0  0  # atno 10167 bound_to 10162
  156.0448  130.5674  150.7854 H   0  0  0  0  0  0  0  0  0  0  0  0  # atno 10718 bound_to 10713
  152.9791  135.5797  154.4654 H   0  0  0  0  0  0  0  0  0  0  0  0  # atno 10763 bound_to 10752
  154.4224  135.2772  155.1968 H   0  0  0  0  0  0  0  0  0  0  0  0  # atno 10764 bound_to 10752
  154.3712  135.6167  153.5795 H   0  0  0  0  0  0  0  0  0  0  0  0  # atno 10765 bound_to 10752
  140.8496  134.2302  157.4767 H   0  0  0  0  0  0  0  0  0  0  0  0  # atno 11005 bound_to 11000
  145.6418  141.0282  143.1807 LP  0  0  0  0  0  0  0  0  0  0  0  0  # atno 17320 bound_to 7965
  144.7222  139.7991  143.7378 LP  0  0  0  0  0  0  0  0  0  0  0  0  # atno 17321 bound_to 7965
  139.4933  144.6512  151.6672 LP  0  0  0  0  0  0  0  0  0  0  0  0  # atno 17342 bound_to 10162
  140.5717  144.0097  150.6220 LP  0  0  0  0  0  0  0  0  0  0  0  0  # atno 17343 bound_to 10162
  157.5310  131.0936  150.9955 LP  0  0  0  0  0  0  0  0  0  0  0  0  # atno 17370 bound_to 10713
  157.0261  130.5693  149.5337 LP  0  0  0  0  0  0  0  0  0  0  0  0  # atno 17371 bound_to 10713
  139.8704  134.9676  156.4604 LP  0  0  0  0  0  0  0  0  0  0  0  0  # atno 17394 bound_to 11000
  140.8805  133.7921  155.9461 LP  0  0  0  0  0  0  0  0  0  0  0  0  # atno 17395 bound_to 11000

$$$$
