#       Name:                AV-unprocessed.smi:153
#       Creating user name   scv26
#       Creation time:       Thu Mar 26 18:51:54 2020


#       File generated by GOLD software.
#

@<TRIPOS>MOLECULE
AV-unprocessed.smi:153
    71    74     1
SMALL
NO_CHARGES


@<TRIPOS>ATOM
      1 ****        -3.8078   0.4084   0.4769 C.3            1 S1                 0.0000
      2 ****        -3.9124  -1.1254   0.4790 C.3            1 S1                 0.0000
      3 ****        -5.1593  -1.4066   1.1187 O.3            1 S1                 0.0000
      4 ****        -5.9117  -2.3441   0.3652 C.3            1 S1                 0.0000
      5 ****        -5.4676  -2.0944  -1.0686 C.3            1 S1                 0.0000
      6 ****        -3.9790  -1.8206  -0.9100 C.3            1 S1                 0.0000
      7 ****        -3.3311  -3.0769  -0.8004 O.3            1 S1                 0.0000
      8 ****        -3.3786  -1.0805  -2.1376 C.3            1 S1                 0.0000
      9 ****        -1.9941  -0.6384  -1.9988 N.pl3          1 S1                 0.0000
     10 ****        -0.8819  -1.4045  -1.7250 C.2            1 S1                 0.0000
     11 ****         0.2459  -0.7520  -1.6751 N.2            1 S1                 0.0000
     12 ****        -0.0997   0.5639  -1.9583 C.ar           1 S1                 0.0000
     13 ****         0.6262   1.7882  -2.0699 C.ar           1 S1                 0.0000
     14 ****         1.9653   1.9062  -1.8468 N.pl3          1 S1                 0.0000
     15 ****         2.6380   3.1166  -2.3133 C.3            1 S1                 0.0000
     16 ****         2.5275   1.2383  -0.6724 C.3            1 S1                 0.0000
     17 ****         2.1199   1.8994   0.6643 C.3            1 S1                 0.0000
     18 ****         0.8386   1.4646   1.0750 O.3            1 S1                 0.0000
     19 ****         3.1240   1.6421   1.8108 C.3            1 S1                 0.0000
     20 ****         3.7142   0.3017   1.8858 N.3            1 S1                 0.0000
     21 ****         2.7491  -0.7300   2.2610 C.3            1 S1                 0.0000
     22 ****         3.4023  -2.1196   2.3604 C.3            1 S1                 0.0000
     23 ****         4.4847  -2.0770   3.2841 O.3            1 S1                 0.0000
     24 ****         5.4718  -1.1160   2.9261 C.3            1 S1                 0.0000
     25 ****         4.8234   0.2758   2.8338 C.3            1 S1                 0.0000
     26 ****        -0.0848   2.8959  -2.4149 N.ar           1 S1                 0.0000
     27 ****        -1.4028   2.8264  -2.6155 C.ar           1 S1                 0.0000
     28 ****        -2.2035   1.7648  -2.5264 N.ar           1 S1                 0.0000
     29 ****        -1.5032   0.6433  -2.1925 C.ar           1 S1                 0.0000
     30 ****        -2.8215   0.7473   0.1680 H              1 S1                 0.0000
     31 ****        -3.9704   0.8038   1.4796 H              1 S1                 0.0000
     32 ****        -4.5509   0.8607  -0.1803 H              1 S1                 0.0000
     33 ****        -3.0995  -1.5318   1.0831 H              1 S1                 0.0000
     34 ****        -5.6533  -3.3547   0.6842 H              1 S1                 0.0000
     35 ****        -6.9836  -2.2042   0.5061 H              1 S1                 0.0000
     36 ****        -5.6941  -2.9253  -1.7381 H              1 S1                 0.0000
     37 ****        -5.9765  -1.2089  -1.4520 H              1 S1                 0.0000
     38 ****        -3.4813  -3.5623  -1.5970 H              1 S1                 0.0000
     39 ****        -3.4368  -1.7166  -3.0216 H              1 S1                 0.0000
     40 ****        -3.9920  -0.2084  -2.3651 H              1 S1                 0.0000
     41 ****        -0.9190  -2.4707  -1.5616 H              1 S1                 0.0000
     42 ****         2.4089   3.3089  -3.3622 H              1 S1                 0.0000
     43 ****         3.7199   3.0146  -2.2275 H              1 S1                 0.0000
     44 ****         2.3325   3.9831  -1.7259 H              1 S1                 0.0000
     45 ****         2.3212   0.1704  -0.6666 H              1 S1                 0.0000
     46 ****         3.6116   1.3060  -0.7703 H              1 S1                 0.0000
     47 ****         2.0544   2.9798   0.5313 H              1 S1                 0.0000
     48 ****         0.8696   0.5294   1.2068 H              1 S1                 0.0000
     49 ****         3.9381   2.3534   1.6649 H              1 S1                 0.0000
     50 ****         2.6768   1.9122   2.7689 H              1 S1                 0.0000
     51 ****         2.2884  -0.4768   3.2170 H              1 S1                 0.0000
     52 ****         1.9452  -0.7822   1.5282 H              1 S1                 0.0000
     53 ****         2.6748  -2.8578   2.6980 H              1 S1                 0.0000
     54 ****         3.7614  -2.4468   1.3832 H              1 S1                 0.0000
     55 ****         6.2608  -1.1175   3.6780 H              1 S1                 0.0000
     56 ****         5.9324  -1.3920   1.9761 H              1 S1                 0.0000
     57 ****         5.5801   1.0037   2.5390 H              1 S1                 0.0000
     58 ****         4.4722   0.5751   3.8226 H              1 S1                 0.0000
     59 ****        -1.8851   3.7558  -2.8801 H              1 S1                 0.0000
     60 ****        -5.6827  -0.5587   1.2038 LP             1 S1                 0.0000
     61 ****        -4.9836  -1.7826   2.0285 LP             1 S1                 0.0000
     62 ****        -3.7041  -3.5820  -0.0222 LP             1 S1                 0.0000
     63 ****        -2.3493  -2.9397  -0.6691 LP             1 S1                 0.0000
     64 ****         1.1558  -1.1167  -1.4774 LP             1 S1                 0.0000
     65 ****         0.1650   1.6842   0.3692 LP             1 S1                 0.0000
     66 ****         0.5859   1.9181   1.9296 LP             1 S1                 0.0000
     67 ****         4.0408   0.0963   0.9632 LP             1 S1                 0.0000
     68 ****         4.9136  -2.9797   3.3169 LP             1 S1                 0.0000
     69 ****         4.1254  -1.8456   4.1881 LP             1 S1                 0.0000
     70 ****         0.3855   3.7723  -2.5194 LP             1 S1                 0.0000
     71 ****        -3.1907   1.7877  -2.6841 LP             1 S1                 0.0000
@<TRIPOS>BOND
    1    1    2 1     
    2    1   30 1     
    3    1   31 1     
    4    1   32 1     
    5    2    6 1     
    6    2    3 1     
    7    2   33 1     
    8    3    4 1     
    9    4    5 1     
   10    4   34 1     
   11    4   35 1     
   12    5    6 1     
   13    5   36 1     
   14    5   37 1     
   15    6    7 1     
   16    6    8 1     
   17    7   38 1     
   18    8    9 1     
   19    8   39 1     
   20    8   40 1     
   21    9   29 1     
   22    9   10 1     
   23   10   11 2     
   24   10   41 1     
   25   11   12 1     
   26   12   29 ar    
   27   12   13 ar    
   28   13   14 1     
   29   13   26 ar    
   30   14   15 1     
   31   14   16 1     
   32   15   42 1     
   33   15   43 1     
   34   15   44 1     
   35   16   17 1     
   36   16   45 1     
   37   16   46 1     
   38   17   18 1     
   39   17   19 1     
   40   17   47 1     
   41   18   48 1     
   42   19   20 1     
   43   19   49 1     
   44   19   50 1     
   45   20   25 1     
   46   20   21 1     
   47   21   22 1     
   48   21   51 1     
   49   21   52 1     
   50   22   23 1     
   51   22   53 1     
   52   22   54 1     
   53   23   24 1     
   54   24   25 1     
   55   24   55 1     
   56   24   56 1     
   57   25   57 1     
   58   25   58 1     
   59   26   27 ar    
   60   27   28 ar    
   61   27   59 1     
   62   28   29 ar    
   63    3   60 1     
   64    3   61 1     
   65    7   62 1     
   66    7   63 1     
   67   11   64 1     
   68   18   65 1     
   69   18   66 1     
   70   20   67 1     
   71   23   68 1     
   72   23   69 1     
   73   26   70 1     
   74   28   71 1     
@<TRIPOS>SUBSTRUCTURE
      1 S1             1
@<TRIPOS>SET
LONE_PAIRS      STATIC     ATOMS    <user>   **** ""
12 60 61 62 63 64 65 66 67 68 69 70 71
DONOR_HYDROGENS      STATIC     ATOMS    <user>   **** ""
2 38 48
ATOM$BLUE        STATIC     ATOMS    COLORGROUP SYSTEM
12 60 61 62 63 64 65 66 67 68 69 70 71
ATOM$RED        STATIC     ATOMS    COLORGROUP SYSTEM
2 38 48
