AV-unprocessed.smi:2973|AV-procd|sdf|11350|dock3
  -GOLD-   2272016263D 1   1.00000     0.00000
 Structure written by MMmdl.
 49 51  0  0  0  0  0  0  0  0  3 V2000
  151.9319  138.3720  159.1119 C   0  0  0  0  0  0  0  0  0  0  0  0
  151.6850  139.8942  159.0268 C   0  0  1  0  0  0  0  0  0  0  0  0
  152.8121  140.6731  159.7393 C   0  0  0  0  0  0  0  0  0  0  0  0
  152.5349  142.1834  159.7649 C   0  0  0  0  0  0  0  0  0  0  0  0
  152.3280  142.7322  158.3474 C   0  0  0  0  0  0  0  0  0  0  0  0
  151.2027  141.9785  157.6180 C   0  0  0  0  0  0  0  0  0  0  0  0
  151.4316  140.4445  157.5854 C   0  0  1  0  0  0  0  0  0  0  0  0
  152.5226  140.1208  156.6797 N   0  5  0  0  0  0  0  0  0  0  0  0
  152.0383  139.3934  155.6468 C   0  0  0  0  0  0  0  0  0  0  0  0
  152.6757  138.9667  154.6850 O   0  0  0  0  0  0  0  0  0  0  0  0
  150.7146  139.1858  155.7818 N   0  0  0  0  0  0  0  0  0  0  0  0
  149.8640  138.4768  154.8128 C   0  0  0  0  0  0  0  0  0  0  0  0
  149.2899  137.1422  155.3213 C   0  0  0  0  0  0  0  0  0  0  0  0
  148.7376  137.1071  156.4207 O   0  0  0  0  0  0  0  0  0  0  0  0
  149.4021  136.0603  154.5319 N   0  0  0  0  0  0  0  0  0  0  0  0
  148.8806  134.7349  154.8352 C   0  0  0  0  0  0  0  0  0  0  0  0
  149.2580  133.7240  153.7402 C   0  0  0  0  0  0  0  0  0  0  0  0
  148.0828  133.3774  152.8481 C   0  0  0  0  0  0  0  0  0  0  0  0
  147.5275  132.0802  152.8064 C   0  0  0  0  0  0  0  0  0  0  0  0
  146.4310  131.8275  151.9558 C   0  0  0  0  0  0  0  0  0  0  0  0
  145.9126  132.8759  151.1676 C   0  0  0  0  0  0  0  0  0  0  0  0
  146.5058  134.1524  151.2491 C   0  0  0  0  0  0  0  0  0  0  0  0
  147.5555  134.3545  152.0754 N   0  3  0  0  0  0  0  0  0  0  0  0
  150.2567  139.7647  156.8976 C   0  0  0  0  0  0  0  0  0  0  0  0
  149.0965  139.7808  157.3117 O   0  0  0  0  0  0  0  0  0  0  0  0
  152.8356  138.0813  158.5756 H   0  0  0  0  0  0  0  0  0  0  0  0
  151.1008  137.8006  158.6988 H   0  0  0  0  0  0  0  0  0  0  0  0
  152.0524  138.0563  160.1483 H   0  0  0  0  0  0  0  0  0  0  0  0
  150.7757  140.0822  159.6007 H   0  0  0  0  0  0  0  0  0  0  0  0
  152.9239  140.3123  160.7621 H   0  0  0  0  0  0  0  0  0  0  0  0
  153.7653  140.4847  159.2437 H   0  0  0  0  0  0  0  0  0  0  0  0
  151.6484  142.3829  160.3680 H   0  0  0  0  0  0  0  0  0  0  0  0
  153.3620  142.7047  160.2472 H   0  0  0  0  0  0  0  0  0  0  0  0
  152.0923  143.7956  158.3920 H   0  0  0  0  0  0  0  0  0  0  0  0
  153.2568  142.6477  157.7820 H   0  0  0  0  0  0  0  0  0  0  0  0
  150.2608  142.1960  158.1243 H   0  0  0  0  0  0  0  0  0  0  0  0
  151.0954  142.3748  156.6066 H   0  0  0  0  0  0  0  0  0  0  0  0
  149.0331  139.1137  154.5060 H   0  0  0  0  0  0  0  0  0  0  0  0
  150.4319  138.2819  153.9017 H   0  0  0  0  0  0  0  0  0  0  0  0
  149.8784  136.1739  153.6479 H   0  0  0  0  0  0  0  0  0  0  0  0
  149.2982  134.4200  155.7919 H   0  0  0  0  0  0  0  0  0  0  0  0
  147.7983  134.7804  154.9665 H   0  0  0  0  0  0  0  0  0  0  0  0
  150.0631  134.1195  153.1191 H   0  0  0  0  0  0  0  0  0  0  0  0
  149.6432  132.8103  154.1952 H   0  0  0  0  0  0  0  0  0  0  0  0
  147.9346  131.2883  153.4187 H   0  0  0  0  0  0  0  0  0  0  0  0
  145.9922  130.8415  151.9090 H   0  0  0  0  0  0  0  0  0  0  0  0
  145.0732  132.7030  150.5098 H   0  0  0  0  0  0  0  0  0  0  0  0
  146.1753  135.0109  150.6827 H   0  0  0  0  0  0  0  0  0  0  0  0
  147.9694  135.2862  152.1197 H   0  0  0  0  0  0  0  0  0  0  0  0
  1  2  1  0  0  0  0
  1 26  1  0  0  0  0
  1 27  1  0  0  0  0
  1 28  1  0  0  0  0
  2  7  1  0  0  0  0
  2  3  1  0  0  0  0
  2 29  1  0  0  0  0
  3  4  1  0  0  0  0
  3 30  1  0  0  0  0
  3 31  1  0  0  0  0
  4  5  1  0  0  0  0
  4 32  1  0  0  0  0
  4 33  1  0  0  0  0
  5  6  1  0  0  0  0
  5 34  1  0  0  0  0
  5 35  1  0  0  0  0
  6  7  1  0  0  0  0
  6 36  1  0  0  0  0
  6 37  1  0  0  0  0
  7 24  1  0  0  0  0
  7  8  1  0  0  0  0
  8  9  1  0  0  0  0
  9 10  2  0  0  0  0
  9 11  1  0  0  0  0
 11 12  1  0  0  0  0
 11 24  1  0  0  0  0
 12 13  1  0  0  0  0
 12 38  1  0  0  0  0
 12 39  1  0  0  0  0
 13 14  2  0  0  0  0
 13 15  1  0  0  0  0
 15 16  1  0  0  0  0
 15 40  1  0  0  0  0
 16 17  1  0  0  0  0
 16 41  1  0  0  0  0
 16 42  1  0  0  0  0
 17 18  1  0  0  0  0
 17 43  1  0  0  0  0
 17 44  1  0  0  0  0
 18 23  1  0  0  0  0
 18 19  2  0  0  0  0
 19 20  1  0  0  0  0
 19 45  1  0  0  0  0
 20 21  2  0  0  0  0
 20 46  1  0  0  0  0
 21 22  1  0  0  0  0
 21 47  1  0  0  0  0
 22 23  2  0  0  0  0
 22 48  1  0  0  0  0
 23 49  1  0  0  0  0
 24 25  2  0  0  0  0
M  CHG  1   8  -1
M  CHG  1  23   1
M  END
> <s_m_source_file>
AV-unprocessed.smi

> <i_m_source_file_index>
2973

> <i_lp_mmshare_version>
43012

> <i_f3d_flags>
0

> <s_epik_input>
W0NIMl0xW0NIMl1bQ0gyXVtDSDJdW0NAQEhdKFtDSDNdKVtDQF0xMltOSF1DKD1PKU4oQzI9TylbQ0gyXUMoPU8pW05IXVtDSDJdW0NIMl1jM1tjSF1bY0hdW2NIXVtjSF1uMw==

> <s_epik_cmdline>
J2VwaWtfcHl0aG9uJywgJy1waCcsICc3LjAnLCAnLXRuJywgJzgnLCAnLW1hJywgJzIwMCcsICctbWV0YWxfYmluZGluZycsICctaW1hZScsICc8aW5maWxlLm1hZT4nLCAnLW9tYWUnLCAnPG91dGZpbGUubWFlPic=

> <r_lp_tautomer_probability>
1

> <r_epik_Ionization_Penalty>
7.89073

> <r_epik_Ionization_Penalty_Charging>
7.89073

> <r_epik_Ionization_Penalty_Neutral>
1.56557e-07

> <r_epik_State_Penalty>
8.01193

> <r_epik_Charging_Adjusted_Penalty>
15.9027

> <i_epik_Tot_Q>
0

> <i_epik_Tot_abs_Q>
2

> <r_epik_Metal_State_Penalty>
3.98737

> <b_epik_Metal_Only>
1

> <s_lp_Force_Field>
OPLS_2005

> <r_lp_Energy>
20.3817

> <b_lp_Chiralities_Consistent>
1

> <s_lp_Variant>
AV-unprocessed.smi:2973-14

> <Gold.Version>
5.8.1

> <Gold.Id.Protein>
6NUR|6NUR_protein|mol2

> <Gold.PLP.Fitness>
53.0148

> <Gold.PLP.PLP>
-40.0363

> <Gold.PLP.part.hbond>
-3.2691

> <Gold.PLP.part.metal>
0.0000

> <Gold.PLP.part.buried>
-4.5255

> <Gold.PLP.part.nonpolar>
-32.1209

> <Gold.PLP.part.repulsive>
0.0926

> <Gold.PLP.ligand.clash>
0.0000

> <Gold.PLP.ligand.torsion>
0.5320

> <Gold.PLP.Chemscore.Hbond>
4.6503

> <Gold.PLP.Chemscore.CHOScore>
0.0000

> <Gold.PLP.Chemscore.Metal>
0.0000

> <Gold.Chemscore.Hbonds>
donor molecule, donor type, donor heavy atom, donor atom, acceptor molecule, acceptor atom, score
      L1  H    15    40       P1  7948  0.44
      L1  H    23    49       P1  7948  1.11
      P1  H  7997  8009       L1     8  2.00

> <Gold.PLP.Chemscore.Internal.Correction>
0.0917

> <Gold.Rescore>
     Score         DG    S(hbond)    S(metal)    S(lipo)     H(rot)  DE(clash)    DE(int)     intcor
     17.28     -19.13       2.32        0.00      92.25       1.92       0.10       1.75       ----

> <Gold.Chemscore.Fitness>
17.2797

> <Gold.Chemscore.DG>
-19.1286

> <Gold.Chemscore.ZeroCoef>
-5.4800

> <Gold.Chemscore.Hbond>
2.3245

> <Gold.Chemscore.Metal>
0.0000

> <Gold.Chemscore.Lipo>
92.2512

> <Gold.Chemscore.Internal_Hbond>
0.0000

> <Gold.Chemscore.DEClash>
0.0966

> <Gold.Chemscore.DEInternal>
1.7523

> <Gold.Chemscore.Rot>
1.9175

> <Gold.Chemscore.Internal.Correction>
   9.000000E+99

> <Gold.Chemscore.Hbonds>
donor molecule, donor type, donor heavy atom, donor atom, acceptor molecule, acceptor atom, score
      L1  H    15    40       P1  7948  0.07
      L1  H    23    49       P1  7948  0.48
      P1  H  7997  8009       L1     8  0.59

> <Gold.Chemscore.Hbond.Weighted>
-7.7639

> <Gold.Chemscore.Metal.Weighted>
-0.0000

> <Gold.Chemscore.Lipo.Weighted>
-10.7934

> <Gold.Chemscore.Internal_Hbond.Weighted>
0.0000

> <Gold.Chemscore.DEClash.Weighted>
0.0966

> <Gold.Chemscore.DEInternal.Weighted>
1.7523

> <Gold.Chemscore.Rot.Weighted>
4.9087

> <Gold.Chemscore.Internal.Correction.Weighted>
   9.000000E+99

> <Gold.Protein.RotatedTorsions>
[ 6907 6896 6895 6894 ] final   41.55 input  -60.11 | X-H torsion
[ 7974 7965 7964 7962 ] final   32.98 input  175.53 | X-H torsion
[ 8008 7997 7996 7995 ] final -172.48 input   59.86 | X-H torsion
[ 10167 10162 10161 10158 ] final -145.91 input  -65.29 | X-H torsion
[ 10718 10713 10712 10709 ] final   94.91 input   66.30 | X-H torsion
[ 10763 10752 10751 10750 ] final  -90.04 input  -60.55 | X-H torsion
[ 11005 11000 10999 10996 ] final -108.05 input  -57.11 | X-H torsion

> <Gold.Protein.ActiveResidues>
 VAL166  LYS551  ARG553  GLY616  TRP617  ASP618  TYR619  PRO620  LYS621  CYS622 
 ASP623  PHE694  ASN695  SER759  ASP760  ASP761  ALA762  ILE779  LEU786  VAL792 
 PHE793  MET794  SER795  GLU796  ALA797  LYS798  CYS799  TRP800  GLU811  SER814 

> <Gold.Protein.RotatedAtoms>
  152.1967  134.8624  160.0511 H   0  0  0  0  0  0  0  0  0  0  0  0  # atno 6907 bound_to 6896
  151.9492  133.3656  159.4002 H   0  0  0  0  0  0  0  0  0  0  0  0  # atno 6908 bound_to 6896
  150.6946  134.4282  159.5280 H   0  0  0  0  0  0  0  0  0  0  0  0  # atno 6909 bound_to 6896
  146.1451  139.6456  142.9137 H   0  0  0  0  0  0  0  0  0  0  0  0  # atno 7974 bound_to 7965
  155.9451  140.1116  157.1023 H   0  0  0  0  0  0  0  0  0  0  0  0  # atno 8008 bound_to 7997
  154.4097  140.1211  156.5044 H   0  0  0  0  0  0  0  0  0  0  0  0  # atno 8009 bound_to 7997
  155.6913  140.3472  155.4897 H   0  0  0  0  0  0  0  0  0  0  0  0  # atno 8010 bound_to 7997
  139.7762  143.8167  152.2632 H   0  0  0  0  0  0  0  0  0  0  0  0  # atno 10167 bound_to 10162
  157.6944  131.0528  150.4258 H   0  0  0  0  0  0  0  0  0  0  0  0  # atno 10718 bound_to 10713
  154.6616  135.5319  153.8025 H   0  0  0  0  0  0  0  0  0  0  0  0  # atno 10763 bound_to 10752
  153.0446  135.6507  154.0862 H   0  0  0  0  0  0  0  0  0  0  0  0  # atno 10764 bound_to 10752
  154.0770  135.2950  155.3277 H   0  0  0  0  0  0  0  0  0  0  0  0  # atno 10765 bound_to 10752
  141.0922  133.9035  157.2049 H   0  0  0  0  0  0  0  0  0  0  0  0  # atno 11005 bound_to 11000
  145.4956  141.0438  143.2569 LP  0  0  0  0  0  0  0  0  0  0  0  0  # atno 17320 bound_to 7965
  144.7837  139.6472  143.7143 LP  0  0  0  0  0  0  0  0  0  0  0  0  # atno 17321 bound_to 7965
  139.8216  144.7293  150.9566 LP  0  0  0  0  0  0  0  0  0  0  0  0  # atno 17342 bound_to 10162
  140.7816  143.4154  151.0926 LP  0  0  0  0  0  0  0  0  0  0  0  0  # atno 17343 bound_to 10162
  156.4629  130.4036  149.6565 LP  0  0  0  0  0  0  0  0  0  0  0  0  # atno 17370 bound_to 10713
  156.3674  130.7513  151.2492 LP  0  0  0  0  0  0  0  0  0  0  0  0  # atno 17371 bound_to 10713
  139.9750  135.0116  156.9608 LP  0  0  0  0  0  0  0  0  0  0  0  0  # atno 17394 bound_to 11000
  140.5225  134.0893  155.7295 LP  0  0  0  0  0  0  0  0  0  0  0  0  # atno 17395 bound_to 11000

$$$$
