AV-unprocessed.smi:3083|AV-procd|sdf|11744|dock2
  -GOLD-   2272017133D 1   1.00000     0.00000
 Structure written by MMmdl.
 28 29  0  0  0  0  0  0  0  0  2 V2000
  151.5625  144.5337  157.1351 N   0  3  0  0  0  0  0  0  0  0  0  0
  151.4881  143.8412  158.4349 C   0  0  2  0  0  0  0  0  0  0  0  0
  152.1060  144.7192  159.5392 C   0  0  0  0  0  0  0  0  0  0  0  0
  152.0591  144.0186  160.9059 C   0  0  0  0  0  0  0  0  0  0  0  0
  152.7519  142.6487  160.8513 C   0  0  0  0  0  0  0  0  0  0  0  0
  152.1447  141.7627  159.7524 C   0  0  0  0  0  0  0  0  0  0  0  0
  152.1866  142.4576  158.3756 C   0  0  1  0  0  0  0  0  0  0  0  0
  151.6264  141.5870  157.3485 N   0  0  0  0  0  0  0  0  0  0  0  0
  150.4865  141.7853  156.5967 C   0  0  0  0  0  0  0  0  0  0  0  0
  150.3700  140.7269  155.7421 C   0  0  0  0  0  0  0  0  0  0  0  0
  151.5100  139.9283  156.0355 C   0  0  0  0  0  0  0  0  0  0  0  0
  152.2621  140.4477  156.9921 N   0  0  0  0  0  0  0  0  0  0  0  0
  152.2954  144.1247  156.5738 H   0  0  0  0  0  0  0  0  0  0  0  0
  151.7579  145.5131  157.2855 H   0  0  0  0  0  0  0  0  0  0  0  0
  150.4304  143.7037  158.6650 H   0  0  0  0  0  0  0  0  0  0  0  0
  153.1417  144.9553  159.2898 H   0  0  0  0  0  0  0  0  0  0  0  0
  151.5785  145.6721  159.6000 H   0  0  0  0  0  0  0  0  0  0  0  0
  152.5343  144.6453  161.6612 H   0  0  0  0  0  0  0  0  0  0  0  0
  151.0215  143.8917  161.2172 H   0  0  0  0  0  0  0  0  0  0  0  0
  153.8181  142.7841  160.6652 H   0  0  0  0  0  0  0  0  0  0  0  0
  152.6681  142.1511  161.8181 H   0  0  0  0  0  0  0  0  0  0  0  0
  152.6830  140.8151  159.7091 H   0  0  0  0  0  0  0  0  0  0  0  0
  151.1142  141.5187  160.0153 H   0  0  0  0  0  0  0  0  0  0  0  0
  153.2347  142.6194  158.1169 H   0  0  0  0  0  0  0  0  0  0  0  0
  149.8587  142.6542  156.7296 H   0  0  0  0  0  0  0  0  0  0  0  0
  149.5932  140.5536  155.0120 H   0  0  0  0  0  0  0  0  0  0  0  0
  151.8128  138.9951  155.5835 H   0  0  0  0  0  0  0  0  0  0  0  0
  150.6778  144.4374  156.6568 H   0  0  0  0  0  0  0  0  0  0  0  0
  1  2  1  0  0  0  0
  1 13  1  0  0  0  0
  1 14  1  0  0  0  0
  1 28  1  0  0  0  0
  2  7  1  0  0  0  0
  2  3  1  0  0  0  0
  2 15  1  0  0  0  0
  3  4  1  0  0  0  0
  3 16  1  0  0  0  0
  3 17  1  0  0  0  0
  4  5  1  0  0  0  0
  4 18  1  0  0  0  0
  4 19  1  0  0  0  0
  5  6  1  0  0  0  0
  5 20  1  0  0  0  0
  5 21  1  0  0  0  0
  6  7  1  0  0  0  0
  6 22  1  0  0  0  0
  6 23  1  0  0  0  0
  7  8  1  0  0  0  0
  7 24  1  0  0  0  0
  8 12  1  0  0  0  0
  8  9  1  0  0  0  0
  9 10  2  0  0  0  0
  9 25  1  0  0  0  0
 10 11  1  0  0  0  0
 10 26  1  0  0  0  0
 11 12  2  0  0  0  0
 11 27  1  0  0  0  0
M  CHG  1   1   1
M  END
> <s_m_source_file>
AV-unprocessed.smi

> <i_m_source_file_index>
3083

> <i_lp_mmshare_version>
43012

> <i_f3d_flags>
0

> <s_epik_input>
W05IMl1bQ0BASF0xW0NIMl1bQ0gyXVtDSDJdW0NIMl1bQ0BIXTFuMltjSF1bY0hdW2NIXW4y

> <s_epik_cmdline>
J2VwaWtfcHl0aG9uJywgJy1waCcsICc3LjAnLCAnLXRuJywgJzgnLCAnLW1hJywgJzIwMCcsICctbWV0YWxfYmluZGluZycsICctaW1hZScsICc8aW5maWxlLm1hZT4nLCAnLW9tYWUnLCAnPG91dGZpbGUubWFlPic=

> <r_lp_tautomer_probability>
1

> <r_epik_Ionization_Penalty>
0.00385053

> <r_epik_Ionization_Penalty_Charging>
0.0038389

> <r_epik_Ionization_Penalty_Neutral>
1.16305e-05

> <r_epik_State_Penalty>
-0

> <r_epik_Charging_Adjusted_Penalty>
0.0038389

> <i_epik_Tot_Q>
1

> <i_epik_Tot_abs_Q>
1

> <r_epik_Metal_State_Penalty>
-0

> <b_epik_Metal_Only>
0

> <s_lp_Force_Field>
OPLS_2005

> <r_lp_Energy>
13.574

> <b_lp_Chiralities_Consistent>
1

> <s_lp_Variant>
AV-unprocessed.smi:3083-1

> <Gold.Version>
5.8.1

> <Gold.Id.Protein>
6NUR|6NUR_protein|mol2

> <Gold.PLP.Fitness>
40.4116

> <Gold.PLP.PLP>
-29.4194

> <Gold.PLP.part.hbond>
-2.0000

> <Gold.PLP.part.metal>
0.0000

> <Gold.PLP.part.buried>
-1.1240

> <Gold.PLP.part.nonpolar>
-25.2589

> <Gold.PLP.part.repulsive>
0.0528

> <Gold.PLP.ligand.clash>
0.0000

> <Gold.PLP.ligand.torsion>
0.1475

> <Gold.PLP.Chemscore.Hbond>
2.7823

> <Gold.PLP.Chemscore.CHOScore>
0.9706

> <Gold.PLP.Chemscore.Metal>
0.0000

> <Gold.Chemscore.Hbonds>
donor molecule, donor type, donor heavy atom, donor atom, acceptor molecule, acceptor atom, score
      L1  H     1    28       P1  8028  1.95
      P1  H  7997  8009       L1    12  0.64
      L1  C     9    25       P1  8028  1.00

> <Gold.PLP.Chemscore.Internal.Correction>
0.0284

> <Gold.Rescore>
     Score         DG    S(hbond)    S(metal)    S(lipo)     H(rot)  DE(clash)    DE(int)     intcor
     17.77     -18.88       1.79        0.00      85.29       1.00       0.07       1.05       ----

> <Gold.Chemscore.Fitness>
17.7699

> <Gold.Chemscore.DG>
-18.8843

> <Gold.Chemscore.ZeroCoef>
-5.4800

> <Gold.Chemscore.Hbond>
1.7922

> <Gold.Chemscore.Metal>
0.0000

> <Gold.Chemscore.Lipo>
85.2864

> <Gold.Chemscore.Internal_Hbond>
0.0000

> <Gold.Chemscore.DEClash>
0.0666

> <Gold.Chemscore.DEInternal>
1.0479

> <Gold.Chemscore.Rot>
1.0000

> <Gold.Chemscore.Internal.Correction>
   9.000000E+99

> <Gold.Chemscore.Hbonds>
donor molecule, donor type, donor heavy atom, donor atom, acceptor molecule, acceptor atom, score
      L1  H     1    28       P1  8028  0.91
      P1  H  7997  8009       L1    12  0.44

> <Gold.Chemscore.Hbond.Weighted>
-5.9858

> <Gold.Chemscore.Metal.Weighted>
-0.0000

> <Gold.Chemscore.Lipo.Weighted>
-9.9785

> <Gold.Chemscore.Internal_Hbond.Weighted>
0.0000

> <Gold.Chemscore.DEClash.Weighted>
0.0666

> <Gold.Chemscore.DEInternal.Weighted>
1.0479

> <Gold.Chemscore.Rot.Weighted>
2.5600

> <Gold.Chemscore.Internal.Correction.Weighted>
   9.000000E+99

> <Gold.Protein.RotatedTorsions>
[ 6907 6896 6895 6894 ] final  -22.85 input  -60.11 | X-H torsion
[ 7974 7965 7964 7962 ] final  -59.48 input  175.53 | X-H torsion
[ 8008 7997 7996 7995 ] final -170.88 input   59.86 | X-H torsion
[ 10167 10162 10161 10158 ] final  -49.23 input  -65.29 | X-H torsion
[ 10718 10713 10712 10709 ] final  -31.30 input   66.30 | X-H torsion
[ 10763 10752 10751 10750 ] final  -64.12 input  -60.55 | X-H torsion
[ 11005 11000 10999 10996 ] final   60.40 input  -57.11 | X-H torsion

> <Gold.Protein.ActiveResidues>
 VAL166  LYS551  ARG553  GLY616  TRP617  ASP618  TYR619  PRO620  LYS621  CYS622 
 ASP623  PHE694  ASN695  SER759  ASP760  ASP761  ALA762  ILE779  LEU786  VAL792 
 PHE793  MET794  SER795  GLU796  ALA797  LYS798  CYS799  TRP800  GLU811  SER814 

> <Gold.Protein.RotatedAtoms>
  151.2126  135.0487  159.8917 H   0  0  0  0  0  0  0  0  0  0  0  0  # atno 6907 bound_to 6896
  152.5423  134.0728  159.8212 H   0  0  0  0  0  0  0  0  0  0  0  0  # atno 6908 bound_to 6896
  151.0883  133.5287  159.2648 H   0  0  0  0  0  0  0  0  0  0  0  0  # atno 6909 bound_to 6896
  145.8270  140.8504  143.0103 H   0  0  0  0  0  0  0  0  0  0  0  0  # atno 7974 bound_to 7965
  155.9242  140.1079  157.1183 H   0  0  0  0  0  0  0  0  0  0  0  0  # atno 8008 bound_to 7997
  154.4059  140.1250  156.4784 H   0  0  0  0  0  0  0  0  0  0  0  0  # atno 8009 bound_to 7997
  155.7159  140.3470  155.4996 H   0  0  0  0  0  0  0  0  0  0  0  0  # atno 8010 bound_to 7997
  140.6694  143.2706  151.4186 H   0  0  0  0  0  0  0  0  0  0  0  0  # atno 10167 bound_to 10162
  156.3890  130.4369  149.7409 H   0  0  0  0  0  0  0  0  0  0  0  0  # atno 10718 bound_to 10713
  154.3254  135.6187  153.5526 H   0  0  0  0  0  0  0  0  0  0  0  0  # atno 10763 bound_to 10752
  152.9816  135.5734  154.5023 H   0  0  0  0  0  0  0  0  0  0  0  0  # atno 10764 bound_to 10752
  154.4699  135.2859  155.1627 H   0  0  0  0  0  0  0  0  0  0  0  0  # atno 10765 bound_to 10752
  140.0235  134.6118  155.9606 H   0  0  0  0  0  0  0  0  0  0  0  0  # atno 11005 bound_to 11000
  144.6743  140.0616  143.7476 LP  0  0  0  0  0  0  0  0  0  0  0  0  # atno 17320 bound_to 7965
  145.9613  139.2802  143.1154 LP  0  0  0  0  0  0  0  0  0  0  0  0  # atno 17321 bound_to 7965
  139.5956  144.1404  152.2140 LP  0  0  0  0  0  0  0  0  0  0  0  0  # atno 17342 bound_to 10162
  140.0772  144.5730  150.7148 LP  0  0  0  0  0  0  0  0  0  0  0  0  # atno 17343 bound_to 10162
  156.4470  130.7888  151.2910 LP  0  0  0  0  0  0  0  0  0  0  0  0  # atno 17370 bound_to 10713
  157.7498  131.0107  150.3317 LP  0  0  0  0  0  0  0  0  0  0  0  0  # atno 17371 bound_to 10713
  141.1788  133.6543  156.4936 LP  0  0  0  0  0  0  0  0  0  0  0  0  # atno 17394 bound_to 11000
  140.4347  134.7070  157.4960 LP  0  0  0  0  0  0  0  0  0  0  0  0  # atno 17395 bound_to 11000

$$$$
