#       Name:                AV-unprocessed.smi:2228
#       Creating user name   scv26
#       Creation time:       Fri Mar 27 12:23:01 2020


#       File generated by GOLD software.
#

@<TRIPOS>MOLECULE
AV-unprocessed.smi:2228
    45    46     1
SMALL
NO_CHARGES


@<TRIPOS>ATOM
      1 ****        -2.8370  -1.0718   2.2473 C.3            1 S1                 0.0000
      2 ****        -2.6741  -1.9978   1.1844 O.3            1 S1                 0.0000
      3 ****        -3.3952  -1.6453   0.0103 C.3            1 S1                 0.0000
      4 ****        -3.4826  -2.8264  -0.9538 C.3            1 S1                 0.0000
      5 ****        -3.8559  -2.1835  -2.2890 C.3            1 S1                 0.0000
      6 ****        -3.1986  -0.7954  -2.2793 C.3            1 S1                 0.0000
      7 ****        -2.7544  -0.5223  -0.8283 C.3            1 S1                 0.0000
      8 ****        -1.2939  -0.5605  -0.7351 N.am           1 S1                 0.0000
      9 ****        -0.5077   0.4287  -0.2868 C.2            1 S1                 0.0000
     10 ****        -0.9335   1.5190   0.0957 O.2            1 S1                 0.0000
     11 ****         0.7867   0.0660  -0.3137 N.am           1 S1                 0.0000
     12 ****         1.9169   0.8118   0.1142 C.ar           1 S1                 0.0000
     13 ****         3.1623   0.1707  -0.0707 C.ar           1 S1                 0.0000
     14 ****         4.3461   0.8249   0.3256 C.ar           1 S1                 0.0000
     15 ****         5.6910   0.1559   0.1344 C.3            1 S1                 0.0000
     16 ****         4.2508   2.1073   0.8992 C.ar           1 S1                 0.0000
     17 ****         2.9703   2.6743   1.0500 C.ar           1 S1                 0.0000
     18 ****         2.7940   4.0490   1.6598 C.3            1 S1                 0.0000
     19 ****         1.8372   2.0471   0.6684 N.ar           1 S1                 0.0000
     20 ****        -2.2497  -1.3966   3.1059 H              1 S1                 0.0000
     21 ****        -3.8804  -1.0099   2.5590 H              1 S1                 0.0000
     22 ****        -2.4979  -0.0738   1.9693 H              1 S1                 0.0000
     23 ****        -4.4158  -1.3600   0.2744 H              1 S1                 0.0000
     24 ****        -2.5087  -3.3108  -1.0385 H              1 S1                 0.0000
     25 ****        -4.2031  -3.5789  -0.6323 H              1 S1                 0.0000
     26 ****        -3.5393  -2.7875  -3.1396 H              1 S1                 0.0000
     27 ****        -4.9394  -2.0733  -2.3496 H              1 S1                 0.0000
     28 ****        -2.3553  -0.7620  -2.9711 H              1 S1                 0.0000
     29 ****        -3.9104  -0.0407  -2.6156 H              1 S1                 0.0000
     30 ****        -3.1354   0.4447  -0.4960 H              1 S1                 0.0000
     31 ****        -0.8506  -1.4209  -1.0219 H              1 S1                 0.0000
     32 ****         0.9861  -0.8564  -0.6712 H              1 S1                 0.0000
     33 ****         3.2124  -0.8142  -0.5125 H              1 S1                 0.0000
     34 ****         6.4942   0.7466   0.5759 H              1 S1                 0.0000
     35 ****         5.9021   0.0310  -0.9279 H              1 S1                 0.0000
     36 ****         5.6947  -0.8279   0.6046 H              1 S1                 0.0000
     37 ****         5.1347   2.6420   1.2152 H              1 S1                 0.0000
     38 ****         3.7254   4.4092   2.0976 H              1 S1                 0.0000
     39 ****         2.0380   4.0245   2.4453 H              1 S1                 0.0000
     40 ****         2.4757   4.7613   0.8982 H              1 S1                 0.0000
     41 ****        -2.9916  -2.8941   1.4938 LP             1 S1                 0.0000
     42 ****        -1.7020  -2.0493   0.9554 LP             1 S1                 0.0000
     43 ****        -1.9160   1.7048   0.0822 LP             1 S1                 0.0000
     44 ****        -0.2968   2.2187   0.4197 LP             1 S1                 0.0000
     45 ****         0.9487   2.4887   0.7930 LP             1 S1                 0.0000
@<TRIPOS>BOND
    1    1    2 1     
    2    1   20 1     
    3    1   21 1     
    4    1   22 1     
    5    2    3 1     
    6    3    7 1     
    7    3    4 1     
    8    3   23 1     
    9    4    5 1     
   10    4   24 1     
   11    4   25 1     
   12    5    6 1     
   13    5   26 1     
   14    5   27 1     
   15    6    7 1     
   16    6   28 1     
   17    6   29 1     
   18    7    8 1     
   19    7   30 1     
   20    8    9 am    
   21    8   31 1     
   22    9   10 2     
   23    9   11 am    
   24   11   12 1     
   25   11   32 1     
   26   12   19 ar    
   27   12   13 ar    
   28   13   14 ar    
   29   13   33 1     
   30   14   15 1     
   31   14   16 ar    
   32   15   34 1     
   33   15   35 1     
   34   15   36 1     
   35   16   17 ar    
   36   16   37 1     
   37   17   18 1     
   38   17   19 ar    
   39   18   38 1     
   40   18   39 1     
   41   18   40 1     
   42    2   41 1     
   43    2   42 1     
   44   10   43 1     
   45   10   44 1     
   46   19   45 1     
@<TRIPOS>SUBSTRUCTURE
      1 S1             1
@<TRIPOS>SET
LONE_PAIRS      STATIC     ATOMS    <user>   **** ""
5 41 42 43 44 45
DONOR_HYDROGENS      STATIC     ATOMS    <user>   **** ""
2 31 32
ATOM$BLUE        STATIC     ATOMS    COLORGROUP SYSTEM
5 41 42 43 44 45
ATOM$RED        STATIC     ATOMS    COLORGROUP SYSTEM
2 31 32
