AV-unprocessed.smi:3267|AV-procd|sdf|12506|dock3
  -GOLD-   2272018413D 1   1.00000     0.00000
 Structure written by MMmdl.
 38 39  0  0  0  0  0  0  0  0  1 V2000
  147.8080  140.7739  154.1119 C   0  0  0  0  0  0  0  0  0  0  0  0
  148.4885  139.4419  154.4578 C   0  0  2  0  0  0  0  0  0  0  0  0
  150.0326  139.5498  154.3988 C   0  0  0  0  0  0  0  0  0  0  0  0
  150.5612  140.3630  155.4776 N   0  0  0  0  0  0  0  0  0  0  0  0
  150.2785  141.6789  155.7765 C   0  0  0  0  0  0  0  0  0  0  0  0
  151.0237  142.0154  156.8701 C   0  0  0  0  0  0  0  0  0  0  0  0
  151.7396  140.8229  157.1708 C   0  0  0  0  0  0  0  0  0  0  0  0
  151.4603  139.8348  156.3359 N   0  0  0  0  0  0  0  0  0  0  0  0
  147.9969  138.4038  153.5551 N   0  0  0  0  0  0  0  0  0  0  0  0
  146.7135  138.0361  153.4302 C   0  0  0  0  0  0  0  0  0  0  0  0
  145.7883  138.5260  154.0782 O   0  0  0  0  0  0  0  0  0  0  0  0
  146.5602  137.0639  152.5214 N   0  0  0  0  0  0  0  0  0  0  0  0
  145.2915  136.4246  152.1924 C   0  0  0  0  0  0  0  0  0  0  0  0
  145.4743  135.3293  151.1291 C   0  0  1  0  0  0  0  0  0  0  0  0
  146.3147  134.1449  151.6046 C   0  0  0  0  0  0  0  0  0  0  0  0
  145.8055  133.0325  150.7172 C   0  0  0  0  0  0  0  0  0  0  0  0
  144.3154  133.3507  150.6518 C   0  0  0  0  0  0  0  0  0  0  0  0
  144.2140  134.7679  150.7656 O   0  0  0  0  0  0  0  0  0  0  0  0
  148.1214  141.5609  154.7985 H   0  0  0  0  0  0  0  0  0  0  0  0
  146.7229  140.6916  154.1807 H   0  0  0  0  0  0  0  0  0  0  0  0
  148.0555  141.0961  153.0999 H   0  0  0  0  0  0  0  0  0  0  0  0
  148.1750  139.1758  155.4698 H   0  0  0  0  0  0  0  0  0  0  0  0
  150.5051  138.5677  154.4533 H   0  0  0  0  0  0  0  0  0  0  0  0
  150.3611  139.9819  153.4523 H   0  0  0  0  0  0  0  0  0  0  0  0
  149.5822  142.2603  155.1900 H   0  0  0  0  0  0  0  0  0  0  0  0
  151.0546  142.9688  157.3759 H   0  0  0  0  0  0  0  0  0  0  0  0
  152.4500  140.6473  157.9651 H   0  0  0  0  0  0  0  0  0  0  0  0
  148.6832  137.9372  152.9806 H   0  0  0  0  0  0  0  0  0  0  0  0
  147.3801  136.7231  152.0411 H   0  0  0  0  0  0  0  0  0  0  0  0
  144.8421  136.0051  153.0940 H   0  0  0  0  0  0  0  0  0  0  0  0
  144.6032  137.1890  151.8309 H   0  0  0  0  0  0  0  0  0  0  0  0
  145.9293  135.7428  150.2274 H   0  0  0  0  0  0  0  0  0  0  0  0
  147.3866  134.3174  151.5036 H   0  0  0  0  0  0  0  0  0  0  0  0
  146.1018  133.9139  152.6495 H   0  0  0  0  0  0  0  0  0  0  0  0
  146.2517  133.1097  149.7247 H   0  0  0  0  0  0  0  0  0  0  0  0
  146.0130  132.0373  151.1111 H   0  0  0  0  0  0  0  0  0  0  0  0
  143.8517  132.9888  149.7338 H   0  0  0  0  0  0  0  0  0  0  0  0
  143.7934  132.8986  151.4960 H   0  0  0  0  0  0  0  0  0  0  0  0
  1  2  1  0  0  0  0
  1 19  1  0  0  0  0
  1 20  1  0  0  0  0
  1 21  1  0  0  0  0
  2  3  1  0  0  0  0
  2  9  1  0  0  0  0
  2 22  1  0  0  0  0
  3  4  1  0  0  0  0
  3 23  1  0  0  0  0
  3 24  1  0  0  0  0
  4  8  1  0  0  0  0
  4  5  1  0  0  0  0
  5  6  2  0  0  0  0
  5 25  1  0  0  0  0
  6  7  1  0  0  0  0
  6 26  1  0  0  0  0
  7  8  2  0  0  0  0
  7 27  1  0  0  0  0
  9 10  1  0  0  0  0
  9 28  1  0  0  0  0
 10 11  2  0  0  0  0
 10 12  1  0  0  0  0
 12 13  1  0  0  0  0
 12 29  1  0  0  0  0
 13 14  1  0  0  0  0
 13 30  1  0  0  0  0
 13 31  1  0  0  0  0
 14 18  1  0  0  0  0
 14 15  1  0  0  0  0
 14 32  1  0  0  0  0
 15 16  1  0  0  0  0
 15 33  1  0  0  0  0
 15 34  1  0  0  0  0
 16 17  1  0  0  0  0
 16 35  1  0  0  0  0
 16 36  1  0  0  0  0
 17 18  1  0  0  0  0
 17 37  1  0  0  0  0
 17 38  1  0  0  0  0
M  END
> <s_m_source_file>
AV-unprocessed.smi

> <i_m_source_file_index>
3267

> <i_lp_mmshare_version>
43012

> <i_f3d_flags>
0

> <s_epik_input>
bjFbY0hdW2NIXVtjSF1uMVtDSDJdW0NAQEhdKFtDSDNdKVtOSF1DKD1PKVtOSF1bQ0gyXVtDQEBIXTJbQ0gyXVtDSDJdW0NIMl1PMg==

> <s_epik_cmdline>
J2VwaWtfcHl0aG9uJywgJy1waCcsICc3LjAnLCAnLXRuJywgJzgnLCAnLW1hJywgJzIwMCcsICctbWV0YWxfYmluZGluZycsICctaW1hZScsICc8aW5maWxlLm1hZT4nLCAnLW9tYWUnLCAnPG91dGZpbGUubWFlPic=

> <r_lp_tautomer_probability>
1

> <r_epik_Ionization_Penalty>
6.24796e-05

> <r_epik_Ionization_Penalty_Charging>
0

> <r_epik_Ionization_Penalty_Neutral>
6.24796e-05

> <r_epik_State_Penalty>
-0

> <r_epik_Charging_Adjusted_Penalty>
0

> <i_epik_Tot_Q>
0

> <i_epik_Tot_abs_Q>
0

> <r_epik_Metal_State_Penalty>
-0

> <b_epik_Metal_Only>
0

> <s_lp_Force_Field>
OPLS_2005

> <r_lp_Energy>
17.3536

> <b_lp_Chiralities_Consistent>
1

> <s_lp_Variant>
AV-unprocessed.smi:3267-3

> <Gold.Version>
5.8.1

> <Gold.Id.Protein>
6NUR|6NUR_protein|mol2

> <Gold.PLP.Fitness>
40.3866

> <Gold.PLP.PLP>
-32.6347

> <Gold.PLP.part.hbond>
-2.4586

> <Gold.PLP.part.metal>
0.0000

> <Gold.PLP.part.buried>
-4.7247

> <Gold.PLP.part.nonpolar>
-26.7715

> <Gold.PLP.part.repulsive>
0.4634

> <Gold.PLP.ligand.clash>
0.0000

> <Gold.PLP.ligand.torsion>
0.0791

> <Gold.PLP.Chemscore.Hbond>
1.7956

> <Gold.PLP.Chemscore.CHOScore>
0.8351

> <Gold.PLP.Chemscore.Metal>
0.0000

> <Gold.Chemscore.Hbonds>
donor molecule, donor type, donor heavy atom, donor atom, acceptor molecule, acceptor atom, score
      L1  H     9    28       P1  7948  0.84
      L1  H    12    29       P1  7948  1.00
      L1  C     5    25       P1  8028  0.78

> <Gold.PLP.Chemscore.Internal.Correction>
0.0182

> <Gold.Rescore>
     Score         DG    S(hbond)    S(metal)    S(lipo)     H(rot)  DE(clash)    DE(int)     intcor
     15.15     -15.54       1.80        0.00      75.51       1.87       0.25       0.13       ----

> <Gold.Chemscore.Fitness>
15.1529

> <Gold.Chemscore.DG>
-15.5350

> <Gold.Chemscore.ZeroCoef>
-5.4800

> <Gold.Chemscore.Hbond>
1.8006

> <Gold.Chemscore.Metal>
0.0000

> <Gold.Chemscore.Lipo>
75.5068

> <Gold.Chemscore.Internal_Hbond>
0.0000

> <Gold.Chemscore.DEClash>
0.2543

> <Gold.Chemscore.DEInternal>
0.1278

> <Gold.Chemscore.Rot>
1.8724

> <Gold.Chemscore.Internal.Correction>
   9.000000E+99

> <Gold.Chemscore.Hbonds>
donor molecule, donor type, donor heavy atom, donor atom, acceptor molecule, acceptor atom, score
      L1  H     9    28       P1  7948  0.78
      L1  H    12    29       P1  7948  0.99

> <Gold.Chemscore.Hbond.Weighted>
-6.0140

> <Gold.Chemscore.Metal.Weighted>
-0.0000

> <Gold.Chemscore.Lipo.Weighted>
-8.8343

> <Gold.Chemscore.Internal_Hbond.Weighted>
0.0000

> <Gold.Chemscore.DEClash.Weighted>
0.2543

> <Gold.Chemscore.DEInternal.Weighted>
0.1278

> <Gold.Chemscore.Rot.Weighted>
4.7933

> <Gold.Chemscore.Internal.Correction.Weighted>
   9.000000E+99

> <Gold.Protein.RotatedTorsions>
[ 6907 6896 6895 6894 ] final   33.39 input  -60.11 | X-H torsion
[ 7974 7965 7964 7962 ] final   63.69 input  175.53 | X-H torsion
[ 8008 7997 7996 7995 ] final -147.67 input   59.86 | X-H torsion
[ 10167 10162 10161 10158 ] final   71.70 input  -65.29 | X-H torsion
[ 10718 10713 10712 10709 ] final  -34.26 input   66.30 | X-H torsion
[ 10763 10752 10751 10750 ] final -155.43 input  -60.55 | X-H torsion
[ 11005 11000 10999 10996 ] final  158.02 input  -57.11 | X-H torsion

> <Gold.Protein.ActiveResidues>
 VAL166  LYS551  ARG553  GLY616  TRP617  ASP618  TYR619  PRO620  LYS621  CYS622 
 ASP623  PHE694  ASN695  SER759  ASP760  ASP761  ALA762  ILE779  LEU786  VAL792 
 PHE793  MET794  SER795  GLU796  ALA797  LYS798  CYS799  TRP800  GLU811  SER814 

> <Gold.Protein.RotatedAtoms>
  152.0878  134.9427  160.0572 H   0  0  0  0  0  0  0  0  0  0  0  0  # atno 6907 bound_to 6896
  152.0691  133.4093  159.4459 H   0  0  0  0  0  0  0  0  0  0  0  0  # atno 6908 bound_to 6896
  150.6836  134.3032  159.4759 H   0  0  0  0  0  0  0  0  0  0  0  0  # atno 6909 bound_to 6896
  145.8590  139.3302  143.0830 H   0  0  0  0  0  0  0  0  0  0  0  0  # atno 7974 bound_to 7965
  155.5793  140.0642  157.2787 H   0  0  0  0  0  0  0  0  0  0  0  0  # atno 8008 bound_to 7997
  154.4337  140.1855  156.1006 H   0  0  0  0  0  0  0  0  0  0  0  0  # atno 8009 bound_to 7997
  156.0317  140.3305  155.7151 H   0  0  0  0  0  0  0  0  0  0  0  0  # atno 8010 bound_to 7997
  140.0433  144.5371  150.7417 H   0  0  0  0  0  0  0  0  0  0  0  0  # atno 10167 bound_to 10162
  156.3527  130.4311  149.7690 H   0  0  0  0  0  0  0  0  0  0  0  0  # atno 10718 bound_to 10713
  154.7787  135.3168  154.8036 H   0  0  0  0  0  0  0  0  0  0  0  0  # atno 10763 bound_to 10752
  153.8752  135.6840  153.4775 H   0  0  0  0  0  0  0  0  0  0  0  0  # atno 10764 bound_to 10752
  153.1418  135.4736  154.9444 H   0  0  0  0  0  0  0  0  0  0  0  0  # atno 10765 bound_to 10752
  140.1825  134.8465  157.2820 H   0  0  0  0  0  0  0  0  0  0  0  0  # atno 11005 bound_to 11000
  145.9271  140.9075  143.0375 LP  0  0  0  0  0  0  0  0  0  0  0  0  # atno 17320 bound_to 7965
  144.6727  140.1367  143.7440 LP  0  0  0  0  0  0  0  0  0  0  0  0  # atno 17321 bound_to 7965
  140.7250  143.2627  151.4151 LP  0  0  0  0  0  0  0  0  0  0  0  0  # atno 17342 bound_to 10162
  139.6000  144.1316  152.2187 LP  0  0  0  0  0  0  0  0  0  0  0  0  # atno 17343 bound_to 10162
  156.4885  130.8074  151.3085 LP  0  0  0  0  0  0  0  0  0  0  0  0  # atno 17370 bound_to 10713
  157.7463  130.9983  150.2847 LP  0  0  0  0  0  0  0  0  0  0  0  0  # atno 17371 bound_to 10713
  140.2251  134.3977  155.7548 LP  0  0  0  0  0  0  0  0  0  0  0  0  # atno 17394 bound_to 11000
  141.2223  133.7186  156.8551 LP  0  0  0  0  0  0  0  0  0  0  0  0  # atno 17395 bound_to 11000

$$$$
