#       Name:                AV-unprocessed.smi:212
#       Creating user name   scv26
#       Creation time:       Thu Mar 26 19:55:57 2020


#       File generated by GOLD software.
#

@<TRIPOS>MOLECULE
AV-unprocessed.smi:212
    74    77     1
SMALL
NO_CHARGES


@<TRIPOS>ATOM
      1 ****        -3.5260  -0.4303  -0.6900 C.3            1 S1                 0.0000
      2 ****        -2.1222   0.0161  -1.1324 C.3            1 S1                 0.0000
      3 ****        -2.1668   0.9424  -2.3670 C.3            1 S1                 0.0000
      4 ****        -2.6741   2.2966  -2.0227 N.4            1 S1                 1.0000
      5 ****        -2.8398   3.1782  -3.2086 C.3            1 S1                 0.0000
      6 ****        -4.2309   3.8528  -3.2621 C.3            1 S1                 0.0000
      7 ****        -4.3385   4.7399  -4.5136 C.3            1 S1                 0.0000
      8 ****        -5.3791   2.8268  -3.2355 C.3            1 S1                 0.0000
      9 ****        -4.3763   4.7116  -2.1486 O.3            1 S1                 0.0000
     10 ****        -1.8912   2.9256  -0.9279 C.3            1 S1                 0.0000
     11 ****        -1.8420   2.0129   0.3108 C.3            1 S1                 0.0000
     12 ****        -1.3934   0.6645  -0.0398 N.pl3          1 S1                 0.0000
     13 ****        -0.0690   0.3726   0.0475 C.ar           1 S1                 0.0000
     14 ****         0.8536   1.3665  -0.0529 N.ar           1 S1                 0.0000
     15 ****         2.1582   1.0883   0.0214 C.ar           1 S1                 0.0000
     16 ****         2.7495  -0.0943   0.1968 N.ar           1 S1                 0.0000
     17 ****         1.8308  -1.0954   0.3097 C.ar           1 S1                 0.0000
     18 ****         0.4160  -0.9518   0.2430 C.ar           1 S1                 0.0000
     19 ****        -0.1928  -2.1913   0.4034 N.2            1 S1                 0.0000
     20 ****         0.8044  -3.0200   0.5543 C.2            1 S1                 0.0000
     21 ****         2.0543  -2.4443   0.5233 N.pl3          1 S1                 0.0000
     22 ****         3.3276  -3.1273   0.6777 C.3            1 S1                 0.0000
     23 ****         3.5638  -3.6727   2.1082 C.3            1 S1                 0.0000
     24 ****         4.9215  -4.4107   2.1885 C.3            1 S1                 0.0000
     25 ****         4.8820  -5.6078   1.4397 O.3            1 S1                 0.0000
     26 ****         3.3810  -2.5865   3.2069 C.3            1 S1                 0.0000
     27 ****         4.4143  -1.4621   3.2080 C.3            1 S1                 0.0000
     28 ****         4.5271  -1.1090   4.6844 C.3            1 S1                 0.0000
     29 ****         4.4360  -2.3770   5.3105 O.3            1 S1                 0.0000
     30 ****         3.4063  -3.1070   4.6556 C.3            1 S1                 0.0000
     31 ****        -4.0345  -0.9661  -1.4917 H              1 S1                 0.0000
     32 ****        -4.1564   0.4134  -0.4090 H              1 S1                 0.0000
     33 ****        -3.4675  -1.1028   0.1665 H              1 S1                 0.0000
     34 ****        -1.5952  -0.8873  -1.4391 H              1 S1                 0.0000
     35 ****        -1.1652   1.0398  -2.7892 H              1 S1                 0.0000
     36 ****        -2.7918   0.4948  -3.1409 H              1 S1                 0.0000
     37 ****        -2.0461   3.9269  -3.2362 H              1 S1                 0.0000
     38 ****        -2.7129   2.5924  -4.1204 H              1 S1                 0.0000
     39 ****        -4.2436   4.1491  -5.4254 H              1 S1                 0.0000
     40 ****        -3.5565   5.5003  -4.5330 H              1 S1                 0.0000
     41 ****        -5.2984   5.2559  -4.5569 H              1 S1                 0.0000
     42 ****        -5.3014   2.1287  -4.0698 H              1 S1                 0.0000
     43 ****        -6.3504   3.3176  -3.3081 H              1 S1                 0.0000
     44 ****        -5.3816   2.2417  -2.3150 H              1 S1                 0.0000
     45 ****        -5.2060   5.1599  -2.2189 H              1 S1                 0.0000
     46 ****        -0.8810   3.1345  -1.2826 H              1 S1                 0.0000
     47 ****        -2.3301   3.8843  -0.6528 H              1 S1                 0.0000
     48 ****        -1.2071   2.4486   1.0834 H              1 S1                 0.0000
     49 ****        -2.8359   1.9409   0.7525 H              1 S1                 0.0000
     50 ****         2.8236   1.9339  -0.0721 H              1 S1                 0.0000
     51 ****         0.6555  -4.0798   0.7035 H              1 S1                 0.0000
     52 ****         3.3573  -3.9395  -0.0495 H              1 S1                 0.0000
     53 ****         4.1285  -2.4406   0.4015 H              1 S1                 0.0000
     54 ****         2.7875  -4.4158   2.2984 H              1 S1                 0.0000
     55 ****         5.7323  -3.7898   1.8073 H              1 S1                 0.0000
     56 ****         5.1782  -4.6722   3.2141 H              1 S1                 0.0000
     57 ****         5.7247  -6.0309   1.5052 H              1 S1                 0.0000
     58 ****         2.4006  -2.1260   3.0809 H              1 S1                 0.0000
     59 ****         5.3836  -1.8051   2.8490 H              1 S1                 0.0000
     60 ****         4.1156  -0.6101   2.5977 H              1 S1                 0.0000
     61 ****         5.4612  -0.6028   4.9282 H              1 S1                 0.0000
     62 ****         3.6955  -0.4780   5.0030 H              1 S1                 0.0000
     63 ****         2.4556  -2.8984   5.1487 H              1 S1                 0.0000
     64 ****         3.5834  -4.1791   4.7368 H              1 S1                 0.0000
     65 ****        -3.6049   2.1529  -1.6577 H              1 S1                 0.0000
     66 ****        -3.6323   5.3797  -2.1392 LP             1 S1                 0.0000
     67 ****        -4.3536   4.1756  -1.3047 LP             1 S1                 0.0000
     68 ****         0.5537   2.3116  -0.1831 LP             1 S1                 0.0000
     69 ****         3.7394  -0.2293   0.2400 LP             1 S1                 0.0000
     70 ****        -1.1708  -2.4002   0.4033 LP             1 S1                 0.0000
     71 ****         4.6824  -5.4001   0.4821 LP             1 S1                 0.0000
     72 ****         4.1726  -6.2107   1.8049 LP             1 S1                 0.0000
     73 ****         4.2112  -2.2640   6.2784 LP             1 S1                 0.0000
     74 ****         5.3058  -2.8628   5.2249 LP             1 S1                 0.0000
@<TRIPOS>BOND
    1    1    2 1     
    2    1   31 1     
    3    1   32 1     
    4    1   33 1     
    5    2   12 1     
    6    2    3 1     
    7    2   34 1     
    8    3    4 1     
    9    3   35 1     
   10    3   36 1     
   11    4    5 1     
   12    4   10 1     
   13    4   65 1     
   14    5    6 1     
   15    5   37 1     
   16    5   38 1     
   17    6    7 1     
   18    6    8 1     
   19    6    9 1     
   20    7   39 1     
   21    7   40 1     
   22    7   41 1     
   23    8   42 1     
   24    8   43 1     
   25    8   44 1     
   26    9   45 1     
   27   10   11 1     
   28   10   46 1     
   29   10   47 1     
   30   11   12 1     
   31   11   48 1     
   32   11   49 1     
   33   12   13 1     
   34   13   18 ar    
   35   13   14 ar    
   36   14   15 ar    
   37   15   16 ar    
   38   15   50 1     
   39   16   17 ar    
   40   17   21 1     
   41   17   18 ar    
   42   18   19 1     
   43   19   20 2     
   44   20   21 1     
   45   20   51 1     
   46   21   22 1     
   47   22   23 1     
   48   22   52 1     
   49   22   53 1     
   50   23   24 1     
   51   23   26 1     
   52   23   54 1     
   53   24   25 1     
   54   24   55 1     
   55   24   56 1     
   56   25   57 1     
   57   26   30 1     
   58   26   27 1     
   59   26   58 1     
   60   27   28 1     
   61   27   59 1     
   62   27   60 1     
   63   28   29 1     
   64   28   61 1     
   65   28   62 1     
   66   29   30 1     
   67   30   63 1     
   68   30   64 1     
   69    9   66 1     
   70    9   67 1     
   71   14   68 1     
   72   16   69 1     
   73   19   70 1     
   74   25   71 1     
   75   25   72 1     
   76   29   73 1     
   77   29   74 1     
@<TRIPOS>SUBSTRUCTURE
      1 S1             1
@<TRIPOS>SET
LONE_PAIRS      STATIC     ATOMS    <user>   **** ""
9 66 67 68 69 70 71 72 73 74
DONOR_HYDROGENS      STATIC     ATOMS    <user>   **** ""
3 65 45 57
ATOM$BLUE        STATIC     ATOMS    COLORGROUP SYSTEM
9 66 67 68 69 70 71 72 73 74
ATOM$RED        STATIC     ATOMS    COLORGROUP SYSTEM
3 65 45 57
