#       Name:                AV-unprocessed.smi:2061
#       Creating user name   scv26
#       Creation time:       Fri Mar 27 11:05:43 2020


#       File generated by GOLD software.
#

@<TRIPOS>MOLECULE
AV-unprocessed.smi:2061
    53    54     1
SMALL
NO_CHARGES


@<TRIPOS>ATOM
      1 ****        -4.2226   5.9960   3.4124 C.3            1 S1                 0.0000
      2 ****        -4.0020   5.0351   2.2946 C.2            1 S1                 0.0000
      3 ****        -2.8730   4.5161   1.7273 C.2            1 S1                 0.0000
      4 ****        -3.3832   3.6583   0.7147 C.2            1 S1                 0.0000
      5 ****        -2.6520   2.9221  -0.1362 N.pl3          1 S1                -1.0000
      6 ****        -2.1870   1.7081   0.2395 C.2            1 S1                 0.0000
      7 ****        -2.3689   1.1628   1.3303 O.2            1 S1                 0.0000
      8 ****        -1.4595   1.0958  -0.7065 N.am           1 S1                 0.0000
      9 ****        -0.8251  -0.2176  -0.6046 C.3            1 S1                 0.0000
     10 ****         0.7290  -0.1461  -0.5947 C.3            1 S1                 0.0000
     11 ****         1.1871   0.7615   0.5756 C.3            1 S1                 0.0000
     12 ****         1.3775  -1.4797  -0.5691 N.3            1 S1                 0.0000
     13 ****         2.8425  -1.3926  -0.5936 C.3            1 S1                 0.0000
     14 ****         3.5458  -2.7646  -0.5928 C.3            1 S1                 0.0000
     15 ****         3.4948  -3.4750   0.7709 C.3            1 S1                 0.0000
     16 ****         3.0352  -3.5854  -1.6405 O.3            1 S1                 0.0000
     17 ****         1.6193  -3.7290  -1.6459 C.3            1 S1                 0.0000
     18 ****         1.2340  -4.5792  -2.8613 C.3            1 S1                 0.0000
     19 ****         0.9588  -2.3390  -1.6804 C.3            1 S1                 0.0000
     20 ****        -4.7044   3.6704   0.6600 N.2            1 S1                 0.0000
     21 ****        -5.1095   4.5463   1.6743 O.3            1 S1                 0.0000
     22 ****        -3.9361   7.0046   3.1150 H              1 S1                 0.0000
     23 ****        -3.6280   5.7177   4.2825 H              1 S1                 0.0000
     24 ****        -5.2704   6.0164   3.7129 H              1 S1                 0.0000
     25 ****        -1.8459   4.7133   1.9954 H              1 S1                 0.0000
     26 ****        -1.3389   1.5878  -1.5795 H              1 S1                 0.0000
     27 ****        -1.1809  -0.7734   0.2643 H              1 S1                 0.0000
     28 ****        -1.1888  -0.7541  -1.4785 H              1 S1                 0.0000
     29 ****         1.0268   0.3534  -1.5179 H              1 S1                 0.0000
     30 ****         0.6898   1.7302   0.5695 H              1 S1                 0.0000
     31 ****         2.2492   0.9957   0.5321 H              1 S1                 0.0000
     32 ****         0.9819   0.2945   1.5394 H              1 S1                 0.0000
     33 ****         3.1549  -0.8366  -1.4789 H              1 S1                 0.0000
     34 ****         3.2147  -0.8407   0.2673 H              1 S1                 0.0000
     35 ****         4.5985  -2.5994  -0.8233 H              1 S1                 0.0000
     36 ****         4.0093  -2.8881   1.5320 H              1 S1                 0.0000
     37 ****         3.9807  -4.4494   0.7205 H              1 S1                 0.0000
     38 ****         2.4723  -3.6276   1.1160 H              1 S1                 0.0000
     39 ****         1.3038  -4.2586  -0.7466 H              1 S1                 0.0000
     40 ****         0.1555  -4.7329  -2.9070 H              1 S1                 0.0000
     41 ****         1.7074  -5.5604  -2.8161 H              1 S1                 0.0000
     42 ****         1.5441  -4.1020  -3.7914 H              1 S1                 0.0000
     43 ****        -0.1156  -2.5073  -1.6520 H              1 S1                 0.0000
     44 ****         1.1799  -1.8485  -2.6295 H              1 S1                 0.0000
     45 ****        -2.4501   3.2718  -1.0510 LP             1 S1                 0.0000
     46 ****        -2.9056   1.6243   2.0367 LP             1 S1                 0.0000
     47 ****        -1.9798   0.2591   1.5086 LP             1 S1                 0.0000
     48 ****         1.0775  -1.8855   0.2942 LP             1 S1                 0.0000
     49 ****         3.4403  -4.4951  -1.5493 LP             1 S1                 0.0000
     50 ****         3.3110  -3.1836  -2.5137 LP             1 S1                 0.0000
     51 ****        -5.2898   3.1620   0.0284 LP             1 S1                 0.0000
     52 ****        -5.6342   5.3001   1.2786 LP             1 S1                 0.0000
     53 ****        -5.6772   4.0561   2.3357 LP             1 S1                 0.0000
@<TRIPOS>BOND
    1    1    2 1     
    2    1   22 1     
    3    1   23 1     
    4    1   24 1     
    5    2   21 1     
    6    2    3 2     
    7    3    4 1     
    8    3   25 1     
    9    4    5 1     
   10    4   20 2     
   11    5    6 1     
   12    6    7 2     
   13    6    8 am    
   14    8    9 1     
   15    8   26 1     
   16    9   10 1     
   17    9   27 1     
   18    9   28 1     
   19   10   11 1     
   20   10   12 1     
   21   10   29 1     
   22   11   30 1     
   23   11   31 1     
   24   11   32 1     
   25   12   19 1     
   26   12   13 1     
   27   13   14 1     
   28   13   33 1     
   29   13   34 1     
   30   14   15 1     
   31   14   16 1     
   32   14   35 1     
   33   15   36 1     
   34   15   37 1     
   35   15   38 1     
   36   16   17 1     
   37   17   18 1     
   38   17   19 1     
   39   17   39 1     
   40   18   40 1     
   41   18   41 1     
   42   18   42 1     
   43   19   43 1     
   44   19   44 1     
   45   20   21 1     
   46    5   45 1     
   47    7   46 1     
   48    7   47 1     
   49   12   48 1     
   50   16   49 1     
   51   16   50 1     
   52   20   51 1     
   53   21   52 1     
   54   21   53 1     
@<TRIPOS>SUBSTRUCTURE
      1 S1             1
@<TRIPOS>SET
LONE_PAIRS      STATIC     ATOMS    <user>   **** ""
9 45 46 47 48 49 50 51 52 53
DONOR_HYDROGENS      STATIC     ATOMS    <user>   **** ""
1 26
ATOM$BLUE        STATIC     ATOMS    COLORGROUP SYSTEM
9 45 46 47 48 49 50 51 52 53
ATOM$RED        STATIC     ATOMS    COLORGROUP SYSTEM
1 26
