AV-unprocessed.smi:1701|AV-procd|sdf|6838|dock8
  -GOLD-   22720 8 13D 1   1.00000     0.00000
 Structure written by MMmdl.
 54 56  0  0  0  0  0  0  0  0  4 V2000
  152.0461  144.6480  158.0025 C   0  0  0  0  0  0  0  0  0  0  0  0
  151.5085  143.2114  157.9087 C   0  0  0  0  0  0  0  0  0  0  0  0
  152.3001  142.2456  158.6708 N   0  0  0  0  0  0  0  0  0  0  0  0
  153.4091  142.7224  159.5006 C   0  0  0  0  0  0  0  0  0  0  0  0
  153.1741  142.5117  161.0034 C   0  0  0  0  0  0  0  0  0  0  0  0
  151.8831  140.8944  158.7574 C   0  0  0  0  0  0  0  0  0  0  0  0
  152.6775  139.8644  159.3218 C   0  0  0  0  0  0  0  0  0  0  0  0
  152.1886  138.5431  159.3708 C   0  0  0  0  0  0  0  0  0  0  0  0
  150.9039  138.2516  158.8703 C   0  0  0  0  0  0  0  0  0  0  0  0
  150.4590  136.9032  158.9216 N   0  0  0  0  0  0  0  0  0  0  0  0
  149.1937  136.4172  158.8843 C   0  0  0  0  0  0  0  0  0  0  0  0
  148.2515  137.2063  158.8522 O   0  0  0  0  0  0  0  0  0  0  0  0
  148.9830  135.0669  158.9124 N   0  5  0  0  0  0  0  0  0  0  0  0
  147.7714  134.3034  158.5672 C   0  0  1  0  0  0  0  0  0  0  0  0
  148.0794  132.8010  158.5809 C   0  0  0  0  0  0  0  0  0  0  0  0
  147.9064  132.3539  160.0455 C   0  0  0  0  0  0  0  0  0  0  0  0
  147.1221  133.4079  160.7397 N   0  3  1  0  0  0  0  0  0  0  0  0
  147.8369  133.9687  161.9231 C   0  0  0  0  0  0  0  0  0  0  0  0
  147.1398  135.2099  162.4921 C   0  0  0  0  0  0  0  0  0  0  0  0
  147.0568  136.2983  161.4200 C   0  0  0  0  0  0  0  0  0  0  0  0
  146.2549  135.7773  160.2201 C   0  0  0  0  0  0  0  0  0  0  0  0
  146.7202  134.3904  159.6938 C   0  0  1  0  0  0  0  0  0  0  0  0
  150.1527  139.3064  158.3030 C   0  0  0  0  0  0  0  0  0  0  0  0
  150.6613  140.5570  158.2752 N   0  3  0  0  0  0  0  0  0  0  0  0
  151.4139  145.3299  157.4337 H   0  0  0  0  0  0  0  0  0  0  0  0
  153.0540  144.7282  157.5984 H   0  0  0  0  0  0  0  0  0  0  0  0
  152.0702  145.0056  159.0317 H   0  0  0  0  0  0  0  0  0  0  0  0
  150.4658  143.1717  158.2230 H   0  0  0  0  0  0  0  0  0  0  0  0
  151.5011  142.9083  156.8615 H   0  0  0  0  0  0  0  0  0  0  0  0
  154.3406  142.2447  159.1960 H   0  0  0  0  0  0  0  0  0  0  0  0
  153.5588  143.7856  159.3107 H   0  0  0  0  0  0  0  0  0  0  0  0
  154.0449  142.8335  161.5748 H   0  0  0  0  0  0  0  0  0  0  0  0
  152.9952  141.4624  161.2388 H   0  0  0  0  0  0  0  0  0  0  0  0
  152.3218  143.0872  161.3614 H   0  0  0  0  0  0  0  0  0  0  0  0
  153.6616  140.0587  159.7194 H   0  0  0  0  0  0  0  0  0  0  0  0
  152.7979  137.7599  159.7978 H   0  0  0  0  0  0  0  0  0  0  0  0
  151.1828  136.2123  159.0539 H   0  0  0  0  0  0  0  0  0  0  0  0
  147.3403  134.6078  157.6124 H   0  0  0  0  0  0  0  0  0  0  0  0
  147.3466  132.2828  157.9607 H   0  0  0  0  0  0  0  0  0  0  0  0
  149.0643  132.5562  158.1801 H   0  0  0  0  0  0  0  0  0  0  0  0
  147.3820  131.3996  160.1029 H   0  0  0  0  0  0  0  0  0  0  0  0
  148.8812  132.2082  160.5155 H   0  0  0  0  0  0  0  0  0  0  0  0
  147.9079  133.1965  162.6895 H   0  0  0  0  0  0  0  0  0  0  0  0
  148.8607  134.2323  161.6524 H   0  0  0  0  0  0  0  0  0  0  0  0
  146.1415  134.9523  162.8480 H   0  0  0  0  0  0  0  0  0  0  0  0
  147.6934  135.5822  163.3546 H   0  0  0  0  0  0  0  0  0  0  0  0
  146.5815  137.1912  161.8264 H   0  0  0  0  0  0  0  0  0  0  0  0
  148.0590  136.5957  161.1092 H   0  0  0  0  0  0  0  0  0  0  0  0
  145.2178  135.6794  160.5442 H   0  0  0  0  0  0  0  0  0  0  0  0
  146.2346  136.5246  159.4245 H   0  0  0  0  0  0  0  0  0  0  0  0
  145.8231  133.9517  159.2523 H   0  0  0  0  0  0  0  0  0  0  0  0
  149.1739  139.2016  157.8593 H   0  0  0  0  0  0  0  0  0  0  0  0
  146.2710  132.9931  161.0898 H   0  0  0  0  0  0  0  0  0  0  0  0
  150.0894  141.2926  157.8605 H   0  0  0  0  0  0  0  0  0  0  0  0
  1  2  1  0  0  0  0
  1 25  1  0  0  0  0
  1 26  1  0  0  0  0
  1 27  1  0  0  0  0
  2  3  1  0  0  0  0
  2 28  1  0  0  0  0
  2 29  1  0  0  0  0
  3  4  1  0  0  0  0
  3  6  1  0  0  0  0
  4  5  1  0  0  0  0
  4 30  1  0  0  0  0
  4 31  1  0  0  0  0
  5 32  1  0  0  0  0
  5 33  1  0  0  0  0
  5 34  1  0  0  0  0
  6 24  1  0  0  0  0
  6  7  2  0  0  0  0
  7  8  1  0  0  0  0
  7 35  1  0  0  0  0
  8  9  2  0  0  0  0
  8 36  1  0  0  0  0
  9 10  1  0  0  0  0
  9 23  1  0  0  0  0
 10 11  1  0  0  0  0
 10 37  1  0  0  0  0
 11 12  2  0  0  0  0
 11 13  1  0  0  0  0
 13 14  1  0  0  0  0
 14 22  1  0  0  0  0
 14 15  1  0  0  0  0
 14 38  1  0  0  0  0
 15 16  1  0  0  0  0
 15 39  1  0  0  0  0
 15 40  1  0  0  0  0
 16 17  1  0  0  0  0
 16 41  1  0  0  0  0
 16 42  1  0  0  0  0
 17 22  1  0  0  0  0
 17 18  1  0  0  0  0
 17 53  1  0  0  0  0
 18 19  1  0  0  0  0
 18 43  1  0  0  0  0
 18 44  1  0  0  0  0
 19 20  1  0  0  0  0
 19 45  1  0  0  0  0
 19 46  1  0  0  0  0
 20 21  1  0  0  0  0
 20 47  1  0  0  0  0
 20 48  1  0  0  0  0
 21 22  1  0  0  0  0
 21 49  1  0  0  0  0
 21 50  1  0  0  0  0
 22 51  1  0  0  0  0
 23 24  2  0  0  0  0
 23 52  1  0  0  0  0
 24 54  1  0  0  0  0
M  CHG  1  13  -1
M  CHG  1  17   1
M  CHG  1  24   1
M  END
> <s_m_source_file>
AV-unprocessed.smi

> <i_m_source_file_index>
1701

> <i_lp_mmshare_version>
43012

> <i_f3d_flags>
0

> <s_epik_input>
W0NIM11bQ0gyXU4oW0NIMl1bQ0gzXSljMVtjSF1bY0hdYyhbY0hdbjEpW05IXUMoPU8pW05IXVtDQEhdKFtDSDJdW0NIMl0yKVtDQEBIXShOMjMpW0NIMl1bQ0gyXVtDSDJdW0NIMl0z

> <s_epik_cmdline>
J2VwaWtfcHl0aG9uJywgJy1waCcsICc3LjAnLCAnLXRuJywgJzgnLCAnLW1hJywgJzIwMCcsICctbWV0YWxfYmluZGluZycsICctaW1hZScsICc8aW5maWxlLm1hZT4nLCAnLW9tYWUnLCAnPG91dGZpbGUubWFlPic=

> <r_lp_tautomer_probability>
0.999994

> <r_epik_Ionization_Penalty>
7.37095

> <r_epik_Ionization_Penalty_Charging>
7.37095

> <r_epik_Ionization_Penalty_Neutral>
3.78969e-06

> <r_epik_State_Penalty>
6.83842

> <r_epik_Charging_Adjusted_Penalty>
14.2094

> <i_epik_Tot_Q>
1

> <i_epik_Tot_abs_Q>
3

> <r_epik_Metal_State_Penalty>
2.78552

> <b_epik_Metal_Only>
1

> <s_lp_Force_Field>
OPLS_2005

> <r_lp_Energy>
56.1591

> <b_lp_Chiralities_Consistent>
1

> <s_lp_Variant>
AV-unprocessed.smi:1701-18

> <Gold.Version>
5.8.1

> <Gold.Id.Protein>
6NUR|6NUR_protein|mol2

> <Gold.PLP.Fitness>
46.5497

> <Gold.PLP.PLP>
-41.2547

> <Gold.PLP.part.hbond>
-1.0000

> <Gold.PLP.part.metal>
0.0000

> <Gold.PLP.part.buried>
-6.4047

> <Gold.PLP.part.nonpolar>
-34.2436

> <Gold.PLP.part.repulsive>
0.3373

> <Gold.PLP.ligand.clash>
0.0000

> <Gold.PLP.ligand.torsion>
0.4401

> <Gold.PLP.Chemscore.Hbond>
2.0000

> <Gold.PLP.Chemscore.CHOScore>
0.0000

> <Gold.PLP.Chemscore.Metal>
0.0000

> <Gold.Chemscore.Hbonds>
donor molecule, donor type, donor heavy atom, donor atom, acceptor molecule, acceptor atom, score
      P1  H  6896  6909       L1    13  2.00

> <Gold.PLP.Chemscore.Internal.Correction>
0.1752

> <Gold.Rescore>
     Score         DG    S(hbond)    S(metal)    S(lipo)     H(rot)  DE(clash)    DE(int)     intcor
     13.12     -17.23       0.77        0.00     106.51       1.28       0.10       4.02       ----

> <Gold.Chemscore.Fitness>
13.1163

> <Gold.Chemscore.DG>
-17.2332

> <Gold.Chemscore.ZeroCoef>
-5.4800

> <Gold.Chemscore.Hbond>
0.7719

> <Gold.Chemscore.Metal>
0.0000

> <Gold.Chemscore.Lipo>
106.5103

> <Gold.Chemscore.Internal_Hbond>
0.0000

> <Gold.Chemscore.DEClash>
0.0958

> <Gold.Chemscore.DEInternal>
4.0211

> <Gold.Chemscore.Rot>
1.2838

> <Gold.Chemscore.Internal.Correction>
   9.000000E+99

> <Gold.Chemscore.Hbonds>
donor molecule, donor type, donor heavy atom, donor atom, acceptor molecule, acceptor atom, score
      P1  H  6896  6909       L1    13  0.63

> <Gold.Chemscore.Hbond.Weighted>
-2.5780

> <Gold.Chemscore.Metal.Weighted>
-0.0000

> <Gold.Chemscore.Lipo.Weighted>
-12.4617

> <Gold.Chemscore.Internal_Hbond.Weighted>
0.0000

> <Gold.Chemscore.DEClash.Weighted>
0.0958

> <Gold.Chemscore.DEInternal.Weighted>
4.0211

> <Gold.Chemscore.Rot.Weighted>
3.2865

> <Gold.Chemscore.Internal.Correction.Weighted>
   9.000000E+99

> <Gold.Protein.RotatedTorsions>
[ 6907 6896 6895 6894 ] final   25.65 input  -60.11 | X-H torsion
[ 7974 7965 7964 7962 ] final -177.98 input  175.53 | X-H torsion
[ 8008 7997 7996 7995 ] final   38.77 input   59.86 | X-H torsion
[ 10167 10162 10161 10158 ] final  158.68 input  -65.29 | X-H torsion
[ 10718 10713 10712 10709 ] final -131.83 input   66.30 | X-H torsion
[ 10763 10752 10751 10750 ] final  -30.63 input  -60.55 | X-H torsion
[ 11005 11000 10999 10996 ] final  148.20 input  -57.11 | X-H torsion

> <Gold.Protein.ActiveResidues>
 VAL166  LYS551  ARG553  GLY616  TRP617  ASP618  TYR619  PRO620  LYS621  CYS622 
 ASP623  PHE694  ASN695  SER759  ASP760  ASP761  ALA762  ILE779  LEU786  VAL792 
 PHE793  MET794  SER795  GLU796  ALA797  LYS798  CYS799  TRP800  GLU811  SER814 

> <Gold.Protein.RotatedAtoms>
  151.9758  135.0054  160.0554 H   0  0  0  0  0  0  0  0  0  0  0  0  # atno 6907 bound_to 6896
  152.1742  133.4659  159.4933 H   0  0  0  0  0  0  0  0  0  0  0  0  # atno 6908 bound_to 6896
  150.6906  134.1832  159.4300 H   0  0  0  0  0  0  0  0  0  0  0  0  # atno 6909 bound_to 6896
  144.7129  140.0938  143.6420 H   0  0  0  0  0  0  0  0  0  0  0  0  # atno 7974 bound_to 7965
  155.2257  140.3334  155.4310 H   0  0  0  0  0  0  0  0  0  0  0  0  # atno 8008 bound_to 7997
  156.2315  140.1853  156.7276 H   0  0  0  0  0  0  0  0  0  0  0  0  # atno 8009 bound_to 7997
  154.5986  140.0626  156.9323 H   0  0  0  0  0  0  0  0  0  0  0  0  # atno 8010 bound_to 7997
  139.4828  144.4801  151.8456 H   0  0  0  0  0  0  0  0  0  0  0  0  # atno 10167 bound_to 10162
  156.2284  130.7022  151.0832 H   0  0  0  0  0  0  0  0  0  0  0  0  # atno 10718 bound_to 10713
  153.7841  135.6903  153.4883 H   0  0  0  0  0  0  0  0  0  0  0  0  # atno 10763 bound_to 10752
  153.1792  135.4513  155.0004 H   0  0  0  0  0  0  0  0  0  0  0  0  # atno 10764 bound_to 10752
  154.8070  135.3361  154.7342 H   0  0  0  0  0  0  0  0  0  0  0  0  # atno 10765 bound_to 10752
  140.0939  134.9024  157.1694 H   0  0  0  0  0  0  0  0  0  0  0  0  # atno 11005 bound_to 11000
  145.9597  139.2792  143.1163 LP  0  0  0  0  0  0  0  0  0  0  0  0  # atno 17320 bound_to 7965
  145.9234  140.9099  143.0393 LP  0  0  0  0  0  0  0  0  0  0  0  0  # atno 17321 bound_to 7965
  140.4277  144.2158  150.5887 LP  0  0  0  0  0  0  0  0  0  0  0  0  # atno 17342 bound_to 10162
  140.4811  143.2379  151.8954 LP  0  0  0  0  0  0  0  0  0  0  0  0  # atno 17343 bound_to 10162
  157.7121  131.0728  150.6461 LP  0  0  0  0  0  0  0  0  0  0  0  0  # atno 17370 bound_to 10713
  156.6528  130.4490  149.5714 LP  0  0  0  0  0  0  0  0  0  0  0  0  # atno 17371 bound_to 10713
  140.3313  134.2807  155.7227 LP  0  0  0  0  0  0  0  0  0  0  0  0  # atno 17394 bound_to 11000
  141.2086  133.7772  157.0047 LP  0  0  0  0  0  0  0  0  0  0  0  0  # atno 17395 bound_to 11000

$$$$
