AV-unprocessed.smi:844|AV-procd|sdf|3923|dock7
  -GOLD-   22720 1383D 1   1.00000     0.00000
 Structure written by MMmdl.
 32 34  0  0  0  0  0  0  0  0  1 V2000
  151.2785  143.9990  157.3793 O   0  0  0  0  0  0  0  0  0  0  0  0
  151.4977  142.6877  157.8587 C   0  0  2  0  0  0  0  0  0  0  0  0
  150.1749  141.9062  157.7380 C   0  0  0  0  0  0  0  0  0  0  0  0
  149.9355  141.4407  156.3841 N   0  0  0  0  0  0  0  0  0  0  0  0
  150.7911  140.7646  155.5932 C   0  0  0  0  0  0  0  0  0  0  0  0
  150.3692  140.4442  154.3734 N   0  0  0  0  0  0  0  0  0  0  0  0
  149.0888  140.9707  154.3735 C   0  0  0  0  0  0  0  0  0  0  0  0
  148.0969  140.9718  153.3665 C   0  0  0  0  0  0  0  0  0  0  0  0
  146.8455  141.5805  153.5970 C   0  0  0  0  0  0  0  0  0  0  0  0
  146.5666  142.1963  154.8346 C   0  0  0  0  0  0  0  0  0  0  0  0
  147.5389  142.2079  155.8531 C   0  0  0  0  0  0  0  0  0  0  0  0
  148.7859  141.5993  155.6188 C   0  0  0  0  0  0  0  0  0  0  0  0
  152.0462  142.6766  159.2815 C   0  0  0  0  0  0  0  0  0  0  0  0
  152.8143  141.5827  159.7395 C   0  0  0  0  0  0  0  0  0  0  0  0
  153.3386  141.5775  161.0463 C   0  0  0  0  0  0  0  0  0  0  0  0
  153.1015  142.6678  161.9044 C   0  0  0  0  0  0  0  0  0  0  0  0
  153.6067  142.6636  163.1606 F   0  0  0  0  0  0  0  0  0  0  0  0
  152.3408  143.7634  161.4539 C   0  0  0  0  0  0  0  0  0  0  0  0
  151.8151  143.7706  160.1471 C   0  0  0  0  0  0  0  0  0  0  0  0
  151.0950  144.8388  159.7271 F   0  0  0  0  0  0  0  0  0  0  0  0
  150.6083  143.9662  156.7135 H   0  0  0  0  0  0  0  0  0  0  0  0
  152.2342  142.2431  157.1886 H   0  0  0  0  0  0  0  0  0  0  0  0
  150.1668  141.0497  158.4139 H   0  0  0  0  0  0  0  0  0  0  0  0
  149.3344  142.5393  158.0258 H   0  0  0  0  0  0  0  0  0  0  0  0
  151.7831  140.5002  155.9293 H   0  0  0  0  0  0  0  0  0  0  0  0
  148.2997  140.5033  152.4149 H   0  0  0  0  0  0  0  0  0  0  0  0
  146.0953  141.5753  152.8199 H   0  0  0  0  0  0  0  0  0  0  0  0
  145.6053  142.6598  155.0016 H   0  0  0  0  0  0  0  0  0  0  0  0
  147.3299  142.6790  156.8020 H   0  0  0  0  0  0  0  0  0  0  0  0
  153.0090  140.7437  159.0874 H   0  0  0  0  0  0  0  0  0  0  0  0
  153.9249  140.7376  161.3893 H   0  0  0  0  0  0  0  0  0  0  0  0
  152.1624  144.6018  162.1111 H   0  0  0  0  0  0  0  0  0  0  0  0
  1  2  1  0  0  0  0
  1 21  1  0  0  0  0
  2  3  1  0  0  0  0
  2 13  1  0  0  0  0
  2 22  1  0  0  0  0
  3  4  1  0  0  0  0
  3 23  1  0  0  0  0
  3 24  1  0  0  0  0
  4 12  1  0  0  0  0
  4  5  1  0  0  0  0
  5  6  2  0  0  0  0
  5 25  1  0  0  0  0
  6  7  1  0  0  0  0
  7 12  2  0  0  0  0
  7  8  1  0  0  0  0
  8  9  2  0  0  0  0
  8 26  1  0  0  0  0
  9 10  1  0  0  0  0
  9 27  1  0  0  0  0
 10 11  2  0  0  0  0
 10 28  1  0  0  0  0
 11 12  1  0  0  0  0
 11 29  1  0  0  0  0
 13 19  1  0  0  0  0
 13 14  2  0  0  0  0
 14 15  1  0  0  0  0
 14 30  1  0  0  0  0
 15 16  2  0  0  0  0
 15 31  1  0  0  0  0
 16 17  1  0  0  0  0
 16 18  1  0  0  0  0
 18 19  2  0  0  0  0
 18 32  1  0  0  0  0
 19 20  1  0  0  0  0
M  END
> <s_m_source_file>
AV-unprocessed.smi

> <i_m_source_file_index>
844

> <i_lp_mmshare_version>
43012

> <i_f3d_flags>
0

> <s_epik_input>
RmMxW2NIXWMoRilbY0hdW2NIXWMxW0NASF0oW09IXSlbQ0gyXW4oW2NIXW4yKWMoYzIzKVtjSF1bY0hdW2NIXVtjSF0z

> <s_epik_cmdline>
J2VwaWtfcHl0aG9uJywgJy1waCcsICc3LjAnLCAnLXRuJywgJzgnLCAnLW1hJywgJzIwMCcsICctbWV0YWxfYmluZGluZycsICctaW1hZScsICc8aW5maWxlLm1hZT4nLCAnLW9tYWUnLCAnPG91dGZpbGUubWFlPic=

> <r_epik_Ionization_Penalty>
0.0696514

> <r_epik_Ionization_Penalty_Charging>
0

> <r_epik_Ionization_Penalty_Neutral>
0.0696514

> <r_epik_State_Penalty>
0.0610247

> <r_epik_Charging_Adjusted_Penalty>
0.0610247

> <i_epik_Tot_Q>
0

> <i_epik_Tot_abs_Q>
0

> <r_epik_Metal_State_Penalty>
6.42746e-05

> <b_epik_Metal_Only>
0

> <s_lp_Force_Field>
OPLS_2005

> <r_lp_Energy>
12.41

> <b_lp_Chiralities_Consistent>
1

> <s_lp_Variant>
AV-unprocessed.smi:844-1

> <Gold.Version>
5.8.1

> <Gold.Id.Protein>
6NUR|6NUR_protein|mol2

> <Gold.PLP.Fitness>
56.2933

> <Gold.PLP.PLP>
-52.2286

> <Gold.PLP.part.hbond>
-2.0000

> <Gold.PLP.part.metal>
0.0000

> <Gold.PLP.part.buried>
-2.3172

> <Gold.PLP.part.nonpolar>
-47.3838

> <Gold.PLP.part.repulsive>
0.1109

> <Gold.PLP.ligand.clash>
0.0000

> <Gold.PLP.ligand.torsion>
0.9737

> <Gold.PLP.Chemscore.Hbond>
2.0000

> <Gold.PLP.Chemscore.CHOScore>
0.0000

> <Gold.PLP.Chemscore.Metal>
0.0000

> <Gold.Chemscore.Hbonds>
donor molecule, donor type, donor heavy atom, donor atom, acceptor molecule, acceptor atom, score
      L1  H     1    21       P1  8028  0.73
      P1  H  7989  7998       L1     6  0.98

> <Gold.PLP.Chemscore.Internal.Correction>
0.0120

> <Gold.Rescore>
     Score         DG    S(hbond)    S(metal)    S(lipo)     H(rot)  DE(clash)    DE(int)     intcor
     15.45     -19.80       1.62        0.00     120.00       2.00       1.75       2.60       ----

> <Gold.Chemscore.Fitness>
15.4467

> <Gold.Chemscore.DG>
-19.7957

> <Gold.Chemscore.ZeroCoef>
-5.4800

> <Gold.Chemscore.Hbond>
1.6186

> <Gold.Chemscore.Metal>
0.0000

> <Gold.Chemscore.Lipo>
119.9980

> <Gold.Chemscore.Internal_Hbond>
0.0000

> <Gold.Chemscore.DEClash>
1.7515

> <Gold.Chemscore.DEInternal>
2.5975

> <Gold.Chemscore.Rot>
2.0040

> <Gold.Chemscore.Internal.Correction>
   9.000000E+99

> <Gold.Chemscore.Hbonds>
donor molecule, donor type, donor heavy atom, donor atom, acceptor molecule, acceptor atom, score
      L1  H     1    21       P1  8028  0.71
      P1  H  7989  7998       L1     6  0.27

> <Gold.Chemscore.Hbond.Weighted>
-5.4062

> <Gold.Chemscore.Metal.Weighted>
-0.0000

> <Gold.Chemscore.Lipo.Weighted>
-14.0398

> <Gold.Chemscore.Internal_Hbond.Weighted>
0.0000

> <Gold.Chemscore.DEClash.Weighted>
1.7515

> <Gold.Chemscore.DEInternal.Weighted>
2.5975

> <Gold.Chemscore.Rot.Weighted>
5.1303

> <Gold.Chemscore.Internal.Correction.Weighted>
   9.000000E+99

> <Gold.Protein.RotatedTorsions>
[ 6907 6896 6895 6894 ] final  164.51 input  -60.11 | X-H torsion
[ 7974 7965 7964 7962 ] final   75.52 input  175.53 | X-H torsion
[ 8008 7997 7996 7995 ] final   64.89 input   59.86 | X-H torsion
[ 10167 10162 10161 10158 ] final   18.80 input  -65.29 | X-H torsion
[ 10718 10713 10712 10709 ] final  119.46 input   66.30 | X-H torsion
[ 10763 10752 10751 10750 ] final  137.63 input  -60.55 | X-H torsion
[ 11005 11000 10999 10996 ] final -138.36 input  -57.11 | X-H torsion

> <Gold.Protein.ActiveResidues>
 VAL166  LYS551  ARG553  GLY616  TRP617  ASP618  TYR619  PRO620  LYS621  CYS622 
 ASP623  PHE694  ASN695  SER759  ASP760  ASP761  ALA762  ILE779  LEU786  VAL792 
 PHE793  MET794  SER795  GLU796  ALA797  LYS798  CYS799  TRP800  GLU811  SER814 

> <Gold.Protein.RotatedAtoms>
  151.9087  133.3556  159.3855 H   0  0  0  0  0  0  0  0  0  0  0  0  # atno 6907 bound_to 6896
  150.7063  134.4754  159.5454 H   0  0  0  0  0  0  0  0  0  0  0  0  # atno 6908 bound_to 6896
  152.2356  134.8279  160.0518 H   0  0  0  0  0  0  0  0  0  0  0  0  # atno 6909 bound_to 6896
  145.7145  139.2626  143.1631 H   0  0  0  0  0  0  0  0  0  0  0  0  # atno 7974 bound_to 7965
  155.6532  140.3497  155.4756 H   0  0  0  0  0  0  0  0  0  0  0  0  # atno 8008 bound_to 7997
  155.9830  140.1178  157.0732 H   0  0  0  0  0  0  0  0  0  0  0  0  # atno 8009 bound_to 7997
  154.4197  140.1134  156.5448 H   0  0  0  0  0  0  0  0  0  0  0  0  # atno 8010 bound_to 7997
  140.5626  143.9309  150.6653 H   0  0  0  0  0  0  0  0  0  0  0  0  # atno 10167 bound_to 10162
  157.5960  131.1058  150.7899 H   0  0  0  0  0  0  0  0  0  0  0  0  # atno 10718 bound_to 10713
  153.8762  135.3050  155.3444 H   0  0  0  0  0  0  0  0  0  0  0  0  # atno 10763 bound_to 10752
  154.7782  135.4849  153.9792 H   0  0  0  0  0  0  0  0  0  0  0  0  # atno 10764 bound_to 10752
  153.1377  135.6817  153.9173 H   0  0  0  0  0  0  0  0  0  0  0  0  # atno 10765 bound_to 10752
  140.8623  134.2154  157.4700 H   0  0  0  0  0  0  0  0  0  0  0  0  # atno 11005 bound_to 11000
  146.0682  140.7897  142.9701 LP  0  0  0  0  0  0  0  0  0  0  0  0  # atno 17320 bound_to 7965
  144.6933  140.3301  143.7217 LP  0  0  0  0  0  0  0  0  0  0  0  0  # atno 17321 bound_to 7965
  140.2763  143.3420  152.1192 LP  0  0  0  0  0  0  0  0  0  0  0  0  # atno 17342 bound_to 10162
  139.5077  144.6837  151.5941 LP  0  0  0  0  0  0  0  0  0  0  0  0  # atno 17343 bound_to 10162
  156.8309  130.5015  149.5331 LP  0  0  0  0  0  0  0  0  0  0  0  0  # atno 17370 bound_to 10713
  156.1023  130.5978  150.9914 LP  0  0  0  0  0  0  0  0  0  0  0  0  # atno 17371 bound_to 10713
  139.8707  134.9735  156.4812 LP  0  0  0  0  0  0  0  0  0  0  0  0  # atno 17394 bound_to 11000
  140.8669  133.8018  155.9323 LP  0  0  0  0  0  0  0  0  0  0  0  0  # atno 17395 bound_to 11000

$$$$
