#       Name:                AV-unprocessed.smi:1696
#       Creating user name   scv26
#       Creation time:       Fri Mar 27 07:56:42 2020


#       File generated by GOLD software.
#

@<TRIPOS>MOLECULE
AV-unprocessed.smi:1696
    42    43     1
SMALL
NO_CHARGES


@<TRIPOS>ATOM
      1 ****        -1.2207   1.4303  -1.3181 C.3            1 S1                 0.0000
      2 ****        -1.5051   0.4920  -0.1337 C.3            1 S1                 0.0000
      3 ****        -0.7542  -0.8668  -0.1828 C.3            1 S1                 0.0000
      4 ****         0.7851  -0.7020  -0.0741 C.3            1 S1                 0.0000
      5 ****         1.1816   0.0276   1.1283 N.am           1 S1                 0.0000
      6 ****         1.7837   1.2259   1.1520 C.2            1 S1                 0.0000
      7 ****         2.0922   1.8523   0.1382 O.2            1 S1                 0.0000
      8 ****         1.9924   1.6401   2.4140 N.am           1 S1                 0.0000
      9 ****         2.5768   2.8576   2.8519 C.2            1 S1                 0.0000
     10 ****         3.0418   3.8088   2.0337 N.2            1 S1                 0.0000
     11 ****         3.5600   4.8987   2.7379 C.2            1 S1                 0.0000
     12 ****         3.4803   4.7594   4.1012 C.2            1 S1                 0.0000
     13 ****         2.7477   3.2447   4.5578 S.3            1 S1                 0.0000
     14 ****        -1.1304  -1.6632  -1.3887 N.4            1 S1                 1.0000
     15 ****        -0.4981  -3.0028  -1.4921 C.3            1 S1                 0.0000
     16 ****        -1.5195  -3.9409  -2.1515 C.3            1 S1                 0.0000
     17 ****        -2.6722  -3.0368  -2.5742 C.3            1 S1                 0.0000
     18 ****        -2.5801  -1.8717  -1.5962 C.3            1 S1                 0.0000
     19 ****        -1.7873   2.3561  -1.2170 H              1 S1                 0.0000
     20 ****        -1.5025   0.9768  -2.2681 H              1 S1                 0.0000
     21 ****        -0.1672   1.7006  -1.3772 H              1 S1                 0.0000
     22 ****        -1.2592   1.0153   0.7905 H              1 S1                 0.0000
     23 ****        -2.5799   0.3230  -0.0683 H              1 S1                 0.0000
     24 ****        -1.0801  -1.4401   0.6869 H              1 S1                 0.0000
     25 ****         1.2741  -1.6735  -0.0115 H              1 S1                 0.0000
     26 ****         1.1790  -0.2320  -0.9763 H              1 S1                 0.0000
     27 ****         0.9733  -0.4120   2.0131 H              1 S1                 0.0000
     28 ****         1.6888   1.0181   3.1485 H              1 S1                 0.0000
     29 ****         3.9671   5.7339   2.1873 H              1 S1                 0.0000
     30 ****         3.8070   5.4536   4.8611 H              1 S1                 0.0000
     31 ****         0.4175  -2.9306  -2.0801 H              1 S1                 0.0000
     32 ****        -0.2330  -3.3937  -0.5087 H              1 S1                 0.0000
     33 ****        -1.0987  -4.4904  -2.9939 H              1 S1                 0.0000
     34 ****        -1.8713  -4.6722  -1.4229 H              1 S1                 0.0000
     35 ****        -2.5080  -2.6786  -3.5915 H              1 S1                 0.0000
     36 ****        -3.6395  -3.5393  -2.5461 H              1 S1                 0.0000
     37 ****        -3.0532  -2.1437  -0.6511 H              1 S1                 0.0000
     38 ****        -3.0755  -0.9808  -1.9828 H              1 S1                 0.0000
     39 ****        -0.8115  -1.1438  -2.1943 H              1 S1                 0.0000
     40 ****         1.8949   1.4706  -0.7648 LP             1 S1                 0.0000
     41 ****         2.5400   2.7429   0.2176 LP             1 S1                 0.0000
     42 ****         3.0209   3.7469   1.0358 LP             1 S1                 0.0000
@<TRIPOS>BOND
    1    1    2 1     
    2    1   19 1     
    3    1   20 1     
    4    1   21 1     
    5    2    3 1     
    6    2   22 1     
    7    2   23 1     
    8    3    4 1     
    9    3   14 1     
   10    3   24 1     
   11    4    5 1     
   12    4   25 1     
   13    4   26 1     
   14    5    6 am    
   15    5   27 1     
   16    6    7 2     
   17    6    8 am    
   18    8    9 1     
   19    8   28 1     
   20    9   13 1     
   21    9   10 2     
   22   10   11 1     
   23   11   12 2     
   24   11   29 1     
   25   12   13 1     
   26   12   30 1     
   27   14   18 1     
   28   14   15 1     
   29   14   39 1     
   30   15   16 1     
   31   15   31 1     
   32   15   32 1     
   33   16   17 1     
   34   16   33 1     
   35   16   34 1     
   36   17   18 1     
   37   17   35 1     
   38   17   36 1     
   39   18   37 1     
   40   18   38 1     
   41    7   40 1     
   42    7   41 1     
   43   10   42 1     
@<TRIPOS>SUBSTRUCTURE
      1 S1             1
@<TRIPOS>SET
LONE_PAIRS      STATIC     ATOMS    <user>   **** ""
3 40 41 42
DONOR_HYDROGENS      STATIC     ATOMS    <user>   **** ""
3 27 28 39
ATOM$BLUE        STATIC     ATOMS    COLORGROUP SYSTEM
3 40 41 42
ATOM$RED        STATIC     ATOMS    COLORGROUP SYSTEM
3 27 28 39
