AV-unprocessed.smi:212|AV-procd|sdf|1626|dock2
  -GOLD-   2262019573D 1   1.00000     0.00000
 Structure written by MMmdl.
 65 68  0  0  0  0  0  0  0  0  2 V2000
  142.5520  134.8147  152.6517 C   0  0  0  0  0  0  0  0  0  0  0  0
  143.8596  135.0882  153.4144 C   0  0  1  0  0  0  0  0  0  0  0  0
  144.8399  133.8983  153.3343 C   0  0  0  0  0  0  0  0  0  0  0  0
  145.4500  133.7804  151.9844 N   0  3  2  0  0  0  0  0  0  0  0  0
  146.3033  132.5737  151.8260 C   0  0  0  0  0  0  0  0  0  0  0  0
  145.7699  131.6193  150.7333 C   0  0  0  0  0  0  0  0  0  0  0  0
  144.2410  131.4922  150.8391 C   0  0  0  0  0  0  0  0  0  0  0  0
  146.1708  132.0699  149.3161 C   0  0  0  0  0  0  0  0  0  0  0  0
  146.3006  130.3277  150.9576 O   0  0  0  0  0  0  0  0  0  0  0  0
  146.1206  135.0343  151.5573 C   0  0  0  0  0  0  0  0  0  0  0  0
  145.1544  136.2305  151.6335 C   0  0  0  0  0  0  0  0  0  0  0  0
  144.5127  136.3139  152.9469 N   0  0  0  0  0  0  0  0  0  0  0  0
  145.0863  137.0862  153.9074 C   0  0  0  0  0  0  0  0  0  0  0  0
  144.8258  136.8433  155.2198 N   0  0  0  0  0  0  0  0  0  0  0  0
  145.3758  137.6038  156.1712 C   0  0  0  0  0  0  0  0  0  0  0  0
  146.2035  138.6413  156.0347 N   0  0  0  0  0  0  0  0  0  0  0  0
  146.4751  138.8860  154.7214 C   0  0  0  0  0  0  0  0  0  0  0  0
  145.9656  138.1645  153.6052 C   0  0  0  0  0  0  0  0  0  0  0  0
  146.4758  138.6968  152.4261 N   0  0  0  0  0  0  0  0  0  0  0  0
  147.2383  139.6793  152.8228 C   0  0  0  0  0  0  0  0  0  0  0  0
  147.2882  139.8680  154.1855 N   0  0  0  0  0  0  0  0  0  0  0  0
  148.0499  140.8757  154.9014 C   0  0  0  0  0  0  0  0  0  0  0  0
  148.4776  140.4143  156.3198 C   0  0  2  0  0  0  0  0  0  0  0  0
  148.6546  141.6148  157.2795 C   0  0  0  0  0  0  0  0  0  0  0  0
  147.6808  142.6094  157.0403 O   0  0  0  0  0  0  0  0  0  0  0  0
  149.7285  139.4902  156.3010 C   0  0  1  0  0  0  0  0  0  0  0  0
  149.6551  138.3760  155.2525 C   0  0  0  0  0  0  0  0  0  0  0  0
  150.9489  138.5207  154.4527 C   0  0  0  0  0  0  0  0  0  0  0  0
  151.3003  139.8838  154.6203 O   0  0  0  0  0  0  0  0  0  0  0  0
  151.0541  140.1989  155.9809 C   0  0  0  0  0  0  0  0  0  0  0  0
  142.0457  133.9358  153.0513 H   0  0  0  0  0  0  0  0  0  0  0  0
  142.7238  134.6388  151.5897 H   0  0  0  0  0  0  0  0  0  0  0  0
  141.8655  135.6567  152.7433 H   0  0  0  0  0  0  0  0  0  0  0  0
  143.5855  135.1950  154.4637 H   0  0  0  0  0  0  0  0  0  0  0  0
  145.6357  134.0276  154.0700 H   0  0  0  0  0  0  0  0  0  0  0  0
  144.3220  132.9730  153.5905 H   0  0  0  0  0  0  0  0  0  0  0  0
  147.3313  132.8655  151.6033 H   0  0  0  0  0  0  0  0  0  0  0  0
  146.3581  132.0298  152.7706 H   0  0  0  0  0  0  0  0  0  0  0  0
  143.7532  132.4537  150.6752 H   0  0  0  0  0  0  0  0  0  0  0  0
  143.9372  131.1338  151.8234 H   0  0  0  0  0  0  0  0  0  0  0  0
  143.8456  130.7945  150.0997 H   0  0  0  0  0  0  0  0  0  0  0  0
  145.7955  133.0711  149.1015 H   0  0  0  0  0  0  0  0  0  0  0  0
  145.7655  131.3984  148.5581 H   0  0  0  0  0  0  0  0  0  0  0  0
  147.2533  132.0887  149.1851 H   0  0  0  0  0  0  0  0  0  0  0  0
  147.2439  130.3892  150.9848 H   0  0  0  0  0  0  0  0  0  0  0  0
  146.9908  135.2102  152.1909 H   0  0  0  0  0  0  0  0  0  0  0  0
  146.4895  134.9280  150.5367 H   0  0  0  0  0  0  0  0  0  0  0  0
  145.6738  137.1586  151.3908 H   0  0  0  0  0  0  0  0  0  0  0  0
  144.3768  136.1224  150.8772 H   0  0  0  0  0  0  0  0  0  0  0  0
  145.1158  137.3444  157.1870 H   0  0  0  0  0  0  0  0  0  0  0  0
  147.7849  140.3001  152.1277 H   0  0  0  0  0  0  0  0  0  0  0  0
  148.9154  141.1247  154.2881 H   0  0  0  0  0  0  0  0  0  0  0  0
  147.4481  141.7830  154.9566 H   0  0  0  0  0  0  0  0  0  0  0  0
  147.6571  139.8173  156.7215 H   0  0  0  0  0  0  0  0  0  0  0  0
  148.5985  141.2978  158.3207 H   0  0  0  0  0  0  0  0  0  0  0  0
  149.6283  142.0845  157.1437 H   0  0  0  0  0  0  0  0  0  0  0  0
  147.9847  143.1665  156.3400 H   0  0  0  0  0  0  0  0  0  0  0  0
  149.8271  139.0179  157.2789 H   0  0  0  0  0  0  0  0  0  0  0  0
  149.5777  137.3876  155.7069 H   0  0  0  0  0  0  0  0  0  0  0  0
  148.7916  138.4928  154.5979 H   0  0  0  0  0  0  0  0  0  0  0  0
  151.7350  137.8895  154.8700 H   0  0  0  0  0  0  0  0  0  0  0  0
  150.8243  138.2633  153.4005 H   0  0  0  0  0  0  0  0  0  0  0  0
  151.0338  141.2757  156.1468 H   0  0  0  0  0  0  0  0  0  0  0  0
  151.8616  139.7885  156.5898 H   0  0  0  0  0  0  0  0  0  0  0  0
  144.6775  133.6498  151.3469 H   0  0  0  0  0  0  0  0  0  0  0  0
  1  2  1  0  0  0  0
  1 31  1  0  0  0  0
  1 32  1  0  0  0  0
  1 33  1  0  0  0  0
  2 12  1  0  0  0  0
  2  3  1  0  0  0  0
  2 34  1  0  0  0  0
  3  4  1  0  0  0  0
  3 35  1  0  0  0  0
  3 36  1  0  0  0  0
  4  5  1  0  0  0  0
  4 10  1  0  0  0  0
  4 65  1  0  0  0  0
  5  6  1  0  0  0  0
  5 37  1  0  0  0  0
  5 38  1  0  0  0  0
  6  7  1  0  0  0  0
  6  8  1  0  0  0  0
  6  9  1  0  0  0  0
  7 39  1  0  0  0  0
  7 40  1  0  0  0  0
  7 41  1  0  0  0  0
  8 42  1  0  0  0  0
  8 43  1  0  0  0  0
  8 44  1  0  0  0  0
  9 45  1  0  0  0  0
 10 11  1  0  0  0  0
 10 46  1  0  0  0  0
 10 47  1  0  0  0  0
 11 12  1  0  0  0  0
 11 48  1  0  0  0  0
 11 49  1  0  0  0  0
 12 13  1  0  0  0  0
 13 18  1  0  0  0  0
 13 14  2  0  0  0  0
 14 15  1  0  0  0  0
 15 16  2  0  0  0  0
 15 50  1  0  0  0  0
 16 17  1  0  0  0  0
 17 21  1  0  0  0  0
 17 18  2  0  0  0  0
 18 19  1  0  0  0  0
 19 20  2  0  0  0  0
 20 21  1  0  0  0  0
 20 51  1  0  0  0  0
 21 22  1  0  0  0  0
 22 23  1  0  0  0  0
 22 52  1  0  0  0  0
 22 53  1  0  0  0  0
 23 24  1  0  0  0  0
 23 26  1  0  0  0  0
 23 54  1  0  0  0  0
 24 25  1  0  0  0  0
 24 55  1  0  0  0  0
 24 56  1  0  0  0  0
 25 57  1  0  0  0  0
 26 30  1  0  0  0  0
 26 27  1  0  0  0  0
 26 58  1  0  0  0  0
 27 28  1  0  0  0  0
 27 59  1  0  0  0  0
 27 60  1  0  0  0  0
 28 29  1  0  0  0  0
 28 61  1  0  0  0  0
 28 62  1  0  0  0  0
 29 30  1  0  0  0  0
 30 63  1  0  0  0  0
 30 64  1  0  0  0  0
M  CHG  1   4   1
M  END
> <s_m_source_file>
AV-unprocessed.smi

> <i_m_source_file_index>
212

> <i_lp_mmshare_version>
43012

> <i_f3d_flags>
0

> <s_epik_input>
W0NIM11bQ0BASF0xW0NIMl1OKFtDSDJdQyhbQ0gzXSkoW0NIM10pW09IXSlbQ0gyXVtDSDJdTjFjKG5bY0hdbjIpYyhjMjMpbltjSF1uM1tDSDJdW0NASF0oW0NIMl1bT0hdKVtDQEBIXTRbQ0gyXVtDSDJdT1tDSDJdNA==

> <s_epik_cmdline>
J2VwaWtfcHl0aG9uJywgJy1waCcsICc3LjAnLCAnLXRuJywgJzgnLCAnLW1hJywgJzIwMCcsICctbWV0YWxfYmluZGluZycsICctaW1hZScsICc8aW5maWxlLm1hZT4nLCAnLW9tYWUnLCAnPG91dGZpbGUubWFlPic=

> <r_lp_tautomer_probability>
1

> <r_epik_Ionization_Penalty>
0.00182193

> <r_epik_Ionization_Penalty_Charging>
0.00173996

> <r_epik_Ionization_Penalty_Neutral>
8.19718e-05

> <r_epik_State_Penalty>
-0

> <r_epik_Charging_Adjusted_Penalty>
0.00173996

> <i_epik_Tot_Q>
1

> <i_epik_Tot_abs_Q>
1

> <r_epik_Metal_State_Penalty>
-0

> <b_epik_Metal_Only>
0

> <s_lp_Force_Field>
OPLS_2005

> <r_lp_Energy>
61.088

> <b_lp_Chiralities_Consistent>
1

> <s_lp_Variant>
AV-unprocessed.smi:212-10

> <Gold.Version>
5.8.1

> <Gold.Id.Protein>
6NUR|6NUR_protein|mol2

> <Gold.PLP.Fitness>
45.5213

> <Gold.PLP.PLP>
-36.5139

> <Gold.PLP.part.hbond>
-2.9852

> <Gold.PLP.part.metal>
0.0000

> <Gold.PLP.part.buried>
-2.6018

> <Gold.PLP.part.nonpolar>
-30.7176

> <Gold.PLP.part.repulsive>
0.4161

> <Gold.PLP.ligand.clash>
0.0000

> <Gold.PLP.ligand.torsion>
2.0571

> <Gold.PLP.Chemscore.Hbond>
2.9913

> <Gold.PLP.Chemscore.CHOScore>
1.0000

> <Gold.PLP.Chemscore.Metal>
0.0000

> <Gold.Chemscore.Hbonds>
donor molecule, donor type, donor heavy atom, donor atom, acceptor molecule, acceptor atom, score
      L1  H     9    45       P1 10747  1.00
      L1  H    25    57       P1  8028  1.00
      P1  H  7989  7998       L1    29  0.99
      L1  C    20    51       P1  7957  1.00

> <Gold.PLP.Chemscore.Internal.Correction>
1.1479

> <Gold.Rescore>
     Score         DG    S(hbond)    S(metal)    S(lipo)     H(rot)  DE(clash)    DE(int)     intcor
      9.22     -15.15       2.13        0.00      96.31       3.40       0.51       5.43       ----

> <Gold.Chemscore.Fitness>
9.2223

> <Gold.Chemscore.DG>
-15.1546

> <Gold.Chemscore.ZeroCoef>
-5.4800

> <Gold.Chemscore.Hbond>
2.1279

> <Gold.Chemscore.Metal>
0.0000

> <Gold.Chemscore.Lipo>
96.3082

> <Gold.Chemscore.Internal_Hbond>
0.0000

> <Gold.Chemscore.DEClash>
0.5051

> <Gold.Chemscore.DEInternal>
5.4272

> <Gold.Chemscore.Rot>
3.3986

> <Gold.Chemscore.Internal.Correction>
   9.000000E+99

> <Gold.Chemscore.Hbonds>
donor molecule, donor type, donor heavy atom, donor atom, acceptor molecule, acceptor atom, score
      L1  H     9    45       P1 10747  0.97
      L1  H    25    57       P1  8028  0.25
      P1  H  7989  7998       L1    29  0.92

> <Gold.Chemscore.Hbond.Weighted>
-7.1071

> <Gold.Chemscore.Metal.Weighted>
-0.0000

> <Gold.Chemscore.Lipo.Weighted>
-11.2681

> <Gold.Chemscore.Internal_Hbond.Weighted>
0.0000

> <Gold.Chemscore.DEClash.Weighted>
0.5051

> <Gold.Chemscore.DEInternal.Weighted>
5.4272

> <Gold.Chemscore.Rot.Weighted>
8.7005

> <Gold.Chemscore.Internal.Correction.Weighted>
   9.000000E+99

> <Gold.Protein.RotatedTorsions>
[ 6907 6896 6895 6894 ] final  172.50 input  -60.11 | X-H torsion
[ 7974 7965 7964 7962 ] final -148.06 input  175.53 | X-H torsion
[ 8008 7997 7996 7995 ] final   62.86 input   59.86 | X-H torsion
[ 10167 10162 10161 10158 ] final -134.05 input  -65.29 | X-H torsion
[ 10718 10713 10712 10709 ] final  -33.22 input   66.30 | X-H torsion
[ 10763 10752 10751 10750 ] final -157.82 input  -60.55 | X-H torsion
[ 11005 11000 10999 10996 ] final   34.58 input  -57.11 | X-H torsion

> <Gold.Protein.ActiveResidues>
 VAL166  LYS551  ARG553  GLY616  TRP617  ASP618  TYR619  PRO620  LYS621  CYS622 
 ASP623  PHE694  ASN695  SER759  ASP760  ASP761  ALA762  ILE779  LEU786  VAL792 
 PHE793  MET794  SER795  GLU796  ALA797  LYS798  CYS799  TRP800  GLU811  SER814 

> <Gold.Protein.RotatedAtoms>
  151.7834  133.3352  159.3477 H   0  0  0  0  0  0  0  0  0  0  0  0  # atno 6907 bound_to 6896
  150.7418  134.5910  159.5997 H   0  0  0  0  0  0  0  0  0  0  0  0  # atno 6908 bound_to 6896
  152.3260  134.7321  160.0353 H   0  0  0  0  0  0  0  0  0  0  0  0  # atno 6909 bound_to 6896
  144.8054  140.5246  143.5679 H   0  0  0  0  0  0  0  0  0  0  0  0  # atno 7974 bound_to 7965
  155.6210  140.3495  155.4652 H   0  0  0  0  0  0  0  0  0  0  0  0  # atno 8008 bound_to 7997
  156.0079  140.1227  157.0507 H   0  0  0  0  0  0  0  0  0  0  0  0  # atno 8009 bound_to 7997
  154.4270  140.1087  156.5774 H   0  0  0  0  0  0  0  0  0  0  0  0  # atno 8010 bound_to 7997
  139.8920  143.6711  152.2610 H   0  0  0  0  0  0  0  0  0  0  0  0  # atno 10167 bound_to 10162
  156.3653  130.4330  149.7590 H   0  0  0  0  0  0  0  0  0  0  0  0  # atno 10718 bound_to 10713
  154.7605  135.3116  154.8386 H   0  0  0  0  0  0  0  0  0  0  0  0  # atno 10763 bound_to 10752
  153.9148  135.6802  153.4754 H   0  0  0  0  0  0  0  0  0  0  0  0  # atno 10764 bound_to 10752
  153.1206  135.4824  154.9120 H   0  0  0  0  0  0  0  0  0  0  0  0  # atno 10765 bound_to 10752
  140.2514  134.3298  155.7889 H   0  0  0  0  0  0  0  0  0  0  0  0  # atno 11005 bound_to 11000
  145.5452  139.1476  143.3425 LP  0  0  0  0  0  0  0  0  0  0  0  0  # atno 17320 bound_to 7965
  146.2344  140.5591  142.8961 LP  0  0  0  0  0  0  0  0  0  0  0  0  # atno 17321 bound_to 7965
  139.7101  144.7621  151.1126 LP  0  0  0  0  0  0  0  0  0  0  0  0  # atno 17342 bound_to 10162
  140.7724  143.5342  150.9388 LP  0  0  0  0  0  0  0  0  0  0  0  0  # atno 17343 bound_to 10162
  156.4738  130.8009  151.3026 LP  0  0  0  0  0  0  0  0  0  0  0  0  # atno 17370 bound_to 10713
  157.7478  131.0027  150.3012 LP  0  0  0  0  0  0  0  0  0  0  0  0  # atno 17371 bound_to 10713
  141.2201  133.7356  156.9043 LP  0  0  0  0  0  0  0  0  0  0  0  0  # atno 17394 bound_to 11000
  140.1554  134.9202  157.2647 LP  0  0  0  0  0  0  0  0  0  0  0  0  # atno 17395 bound_to 11000

$$$$
