AV-unprocessed.smi:1997|AV-procd|sdf|8089|dock10
  -GOLD-   2272010303D 1   1.00000     0.00000
 Structure written by MMmdl.
 36 38  0  0  0  0  0  0  0  0  2 V2000
  150.8938  140.1539  157.4315 O   0  0  0  0  0  0  0  0  0  0  0  0
  152.0633  140.0982  157.8191 C   0  0  0  0  0  0  0  0  0  0  0  0
  152.9448  139.1041  157.5656 N   0  5  0  0  0  0  0  0  0  0  0  0
  152.5029  137.9061  157.1486 C   0  0  0  0  0  0  0  0  0  0  0  0
  153.3276  136.9581  156.6818 N   0  0  0  0  0  0  0  0  0  0  0  0
  152.6664  135.7974  156.3072 N   0  0  0  0  0  0  0  0  0  0  0  0
  151.3486  135.8832  156.5024 C   0  0  0  0  0  0  0  0  0  0  0  0
  150.4165  134.7654  156.1739 C   0  0  0  0  0  0  0  0  0  0  0  0
  150.9471  133.4042  155.7866 C   0  0  0  0  0  0  0  0  0  0  0  0
  150.2571  134.2609  154.7562 C   0  0  0  0  0  0  0  0  0  0  0  0
  150.8106  137.4120  157.1798 S   0  0  0  0  0  0  0  0  0  0  0  0
  152.5666  141.0877  158.5730 N   0  0  0  0  0  0  0  0  0  0  0  0
  151.8519  142.2881  159.0163 C   0  0  1  0  0  0  0  0  0  0  0  0
  152.9014  143.2780  159.5719 C   0  0  0  0  0  0  0  0  0  0  0  0
  152.3204  144.3163  160.5479 C   0  0  0  0  0  0  0  0  0  0  0  0
  151.3113  145.2960  159.9299 C   0  0  0  0  0  0  0  0  0  0  0  0
  150.0447  144.6163  159.3822 C   0  0  0  0  0  0  0  0  0  0  0  0
  150.2792  143.9818  158.0919 N   0  0  0  0  0  0  0  0  0  0  0  0
  151.1012  142.9521  157.8383 C   0  0  0  0  0  0  0  0  0  0  0  0
  151.2553  142.5519  156.6846 O   0  0  0  0  0  0  0  0  0  0  0  0
  149.5286  134.8081  156.8016 H   0  0  0  0  0  0  0  0  0  0  0  0
  152.0259  133.2883  155.7023 H   0  0  0  0  0  0  0  0  0  0  0  0
  150.4111  132.5330  156.1577 H   0  0  0  0  0  0  0  0  0  0  0  0
  149.2600  133.9620  154.4400 H   0  0  0  0  0  0  0  0  0  0  0  0
  150.8794  134.7007  153.9797 H   0  0  0  0  0  0  0  0  0  0  0  0
  153.5311  141.0037  158.8582 H   0  0  0  0  0  0  0  0  0  0  0  0
  151.1471  142.0106  159.8018 H   0  0  0  0  0  0  0  0  0  0  0  0
  153.6615  142.7182  160.1192 H   0  0  0  0  0  0  0  0  0  0  0  0
  153.4355  143.7775  158.7617 H   0  0  0  0  0  0  0  0  0  0  0  0
  151.8557  143.8001  161.3889 H   0  0  0  0  0  0  0  0  0  0  0  0
  153.1438  144.8912  160.9724 H   0  0  0  0  0  0  0  0  0  0  0  0
  151.0144  146.0065  160.7018 H   0  0  0  0  0  0  0  0  0  0  0  0
  151.7898  145.8870  159.1478 H   0  0  0  0  0  0  0  0  0  0  0  0
  149.6404  143.8969  160.0959 H   0  0  0  0  0  0  0  0  0  0  0  0
  149.2701  145.3687  159.2333 H   0  0  0  0  0  0  0  0  0  0  0  0
  149.7941  144.3832  157.3027 H   0  0  0  0  0  0  0  0  0  0  0  0
  1  2  2  0  0  0  0
  2  3  1  0  0  0  0
  2 12  1  0  0  0  0
  3  4  1  0  0  0  0
  4 11  1  0  0  0  0
  4  5  2  0  0  0  0
  5  6  1  0  0  0  0
  6  7  2  0  0  0  0
  7  8  1  0  0  0  0
  7 11  1  0  0  0  0
  8 10  1  0  0  0  0
  8  9  1  0  0  0  0
  8 21  1  0  0  0  0
  9 10  1  0  0  0  0
  9 22  1  0  0  0  0
  9 23  1  0  0  0  0
 10 24  1  0  0  0  0
 10 25  1  0  0  0  0
 12 13  1  0  0  0  0
 12 26  1  0  0  0  0
 13 19  1  0  0  0  0
 13 14  1  0  0  0  0
 13 27  1  0  0  0  0
 14 15  1  0  0  0  0
 14 28  1  0  0  0  0
 14 29  1  0  0  0  0
 15 16  1  0  0  0  0
 15 30  1  0  0  0  0
 15 31  1  0  0  0  0
 16 17  1  0  0  0  0
 16 32  1  0  0  0  0
 16 33  1  0  0  0  0
 17 18  1  0  0  0  0
 17 34  1  0  0  0  0
 17 35  1  0  0  0  0
 18 19  1  0  0  0  0
 18 36  1  0  0  0  0
 19 20  2  0  0  0  0
M  CHG  1   3  -1
M  END
> <s_m_source_file>
AV-unprocessed.smi

> <i_m_source_file_index>
1997

> <i_lp_mmshare_version>
43012

> <i_f3d_flags>
0

> <s_epik_input>
W0NIMl0xW0NIMl1bQ0hdMWMoczIpbm5jMltOSF1DKD1PKVtOSF1bQ0BASF0zW0NIMl1bQ0gyXVtDSDJdW0NIMl1bTkhdQzM9Tw==

> <s_epik_cmdline>
J2VwaWtfcHl0aG9uJywgJy1waCcsICc3LjAnLCAnLXRuJywgJzgnLCAnLW1hJywgJzIwMCcsICctbWV0YWxfYmluZGluZycsICctaW1hZScsICc8aW5maWxlLm1hZT4nLCAnLW9tYWUnLCAnPG91dGZpbGUubWFlPic=

> <r_lp_tautomer_probability>
1

> <r_epik_Ionization_Penalty>
4.47229

> <r_epik_Ionization_Penalty_Charging>
4.32584

> <r_epik_Ionization_Penalty_Neutral>
0.146443

> <r_epik_State_Penalty>
4.32544

> <r_epik_Charging_Adjusted_Penalty>
8.65129

> <i_epik_Tot_Q>
-1

> <i_epik_Tot_abs_Q>
1

> <r_epik_Metal_State_Penalty>
0.738743

> <b_epik_Metal_Only>
1

> <s_lp_Force_Field>
OPLS_2005

> <r_lp_Energy>
7.41149

> <b_lp_Chiralities_Consistent>
1

> <s_lp_Variant>
AV-unprocessed.smi:1997-4

> <Gold.Version>
5.8.1

> <Gold.Id.Protein>
6NUR|6NUR_protein|mol2

> <Gold.PLP.Fitness>
42.4587

> <Gold.PLP.PLP>
-30.9653

> <Gold.PLP.part.hbond>
-4.3895

> <Gold.PLP.part.metal>
0.0000

> <Gold.PLP.part.buried>
-5.2057

> <Gold.PLP.part.nonpolar>
-21.8904

> <Gold.PLP.part.repulsive>
0.2364

> <Gold.PLP.ligand.clash>
0.0000

> <Gold.PLP.ligand.torsion>
0.3186

> <Gold.PLP.Chemscore.Hbond>
4.0000

> <Gold.PLP.Chemscore.CHOScore>
0.0000

> <Gold.PLP.Chemscore.Metal>
0.0000

> <Gold.Chemscore.Hbonds>
donor molecule, donor type, donor heavy atom, donor atom, acceptor molecule, acceptor atom, score
      L1  H    18    36       P1  8028  1.00
      P1  H  7997  8010       L1     3  2.00
      P1  H 10752 10765       L1     6  0.60

> <Gold.PLP.Chemscore.Internal.Correction>
0.1307

> <Gold.Rescore>
     Score         DG    S(hbond)    S(metal)    S(lipo)     H(rot)  DE(clash)    DE(int)     intcor
      9.68     -15.65       1.43        0.00      73.96       1.27       0.16       5.81       ----

> <Gold.Chemscore.Fitness>
9.6768

> <Gold.Chemscore.DG>
-15.6475

> <Gold.Chemscore.ZeroCoef>
-5.4800

> <Gold.Chemscore.Hbond>
1.4298

> <Gold.Chemscore.Metal>
0.0000

> <Gold.Chemscore.Lipo>
73.9577

> <Gold.Chemscore.Internal_Hbond>
0.0000

> <Gold.Chemscore.DEClash>
0.1567

> <Gold.Chemscore.DEInternal>
5.8140

> <Gold.Chemscore.Rot>
1.2738

> <Gold.Chemscore.Internal.Correction>
   9.000000E+99

> <Gold.Chemscore.Hbonds>
donor molecule, donor type, donor heavy atom, donor atom, acceptor molecule, acceptor atom, score
      L1  H    18    36       P1  8028  0.30
      P1  H  7997  8010       L1     3  0.34
      P1  H 10752 10765       L1     6  0.32

> <Gold.Chemscore.Hbond.Weighted>
-4.7754

> <Gold.Chemscore.Metal.Weighted>
-0.0000

> <Gold.Chemscore.Lipo.Weighted>
-8.6530

> <Gold.Chemscore.Internal_Hbond.Weighted>
0.0000

> <Gold.Chemscore.DEClash.Weighted>
0.1567

> <Gold.Chemscore.DEInternal.Weighted>
5.8140

> <Gold.Chemscore.Rot.Weighted>
3.2610

> <Gold.Chemscore.Internal.Correction.Weighted>
   9.000000E+99

> <Gold.Protein.RotatedTorsions>
[ 6907 6896 6895 6894 ] final  -14.84 input  -60.11 | X-H torsion
[ 7974 7965 7964 7962 ] final   71.23 input  175.53 | X-H torsion
[ 8008 7997 7996 7995 ] final   57.29 input   59.86 | X-H torsion
[ 10167 10162 10161 10158 ] final  -76.00 input  -65.29 | X-H torsion
[ 10718 10713 10712 10709 ] final -160.97 input   66.30 | X-H torsion
[ 10763 10752 10751 10750 ] final -150.64 input  -60.55 | X-H torsion
[ 11005 11000 10999 10996 ] final -108.91 input  -57.11 | X-H torsion

> <Gold.Protein.ActiveResidues>
 VAL166  LYS551  ARG553  GLY616  TRP617  ASP618  TYR619  PRO620  LYS621  CYS622 
 ASP623  PHE694  ASN695  SER759  ASP760  ASP761  ALA762  ILE779  LEU786  VAL792 
 PHE793  MET794  SER795  GLU796  ALA797  LYS798  CYS799  TRP800  GLU811  SER814 

> <Gold.Protein.RotatedAtoms>
  151.3332  135.0846  159.9345 H   0  0  0  0  0  0  0  0  0  0  0  0  # atno 6907 bound_to 6896
  152.5229  133.9522  159.7688 H   0  0  0  0  0  0  0  0  0  0  0  0  # atno 6908 bound_to 6896
  150.9865  133.6140  159.2744 H   0  0  0  0  0  0  0  0  0  0  0  0  # atno 6909 bound_to 6896
  145.7684  139.2832  143.1335 H   0  0  0  0  0  0  0  0  0  0  0  0  # atno 7974 bound_to 7965
  155.5314  140.3482  155.4427 H   0  0  0  0  0  0  0  0  0  0  0  0  # atno 8008 bound_to 7997
  156.0716  140.1364  156.9849 H   0  0  0  0  0  0  0  0  0  0  0  0  # atno 8009 bound_to 7997
  154.4531  140.0964  156.6652 H   0  0  0  0  0  0  0  0  0  0  0  0  # atno 8010 bound_to 7997
  140.4895  143.2383  151.7930 H   0  0  0  0  0  0  0  0  0  0  0  0  # atno 10167 bound_to 10162
  156.5897  130.8764  151.2886 H   0  0  0  0  0  0  0  0  0  0  0  0  # atno 10718 bound_to 10713
  154.8107  135.3279  154.7313 H   0  0  0  0  0  0  0  0  0  0  0  0  # atno 10763 bound_to 10752
  153.7963  135.6907  153.4867 H   0  0  0  0  0  0  0  0  0  0  0  0  # atno 10764 bound_to 10752
  153.1883  135.4560  155.0063 H   0  0  0  0  0  0  0  0  0  0  0  0  # atno 10765 bound_to 10752
  141.0876  133.9112  157.2150 H   0  0  0  0  0  0  0  0  0  0  0  0  # atno 11005 bound_to 11000
  146.0194  140.8362  142.9931 LP  0  0  0  0  0  0  0  0  0  0  0  0  # atno 17320 bound_to 7965
  144.6817  140.2607  143.7319 LP  0  0  0  0  0  0  0  0  0  0  0  0  # atno 17321 bound_to 7965
  139.4848  144.4668  151.9474 LP  0  0  0  0  0  0  0  0  0  0  0  0  # atno 17342 bound_to 10162
  140.3755  144.2802  150.5914 LP  0  0  0  0  0  0  0  0  0  0  0  0  # atno 17343 bound_to 10162
  157.7307  130.9689  150.1844 LP  0  0  0  0  0  0  0  0  0  0  0  0  # atno 17370 bound_to 10713
  156.2561  130.3705  149.8180 LP  0  0  0  0  0  0  0  0  0  0  0  0  # atno 17371 bound_to 10713
  139.9696  135.0132  156.9478 LP  0  0  0  0  0  0  0  0  0  0  0  0  # atno 17394 bound_to 11000
  140.5327  134.0797  155.7320 LP  0  0  0  0  0  0  0  0  0  0  0  0  # atno 17395 bound_to 11000

$$$$
