AV-unprocessed.smi:1836|AV-procd|sdf|7480|dock4
  -GOLD-   22720 9173D 1   1.00000     0.00000
 Structure written by MMmdl.
 32 33  0  0  0  0  0  0  0  0  2 V2000
  154.3916  140.5643  161.2382 C   0  0  0  0  0  0  0  0  0  0  0  0
  153.3102  141.2647  160.4046 C   0  0  1  0  0  0  0  0  0  0  0  0
  153.4118  142.8006  160.5423 C   0  0  0  0  0  0  0  0  0  0  0  0
  152.4036  143.5005  159.7468 N   0  0  0  0  0  0  0  0  0  0  0  0
  152.7423  144.0630  158.4502 C   0  0  0  0  0  0  0  0  0  0  0  0
  151.5182  144.8983  158.0509 C   0  0  0  0  0  0  0  0  0  0  0  0
  150.3838  144.4363  158.9712 C   0  0  0  0  0  0  0  0  0  0  0  0
  151.1063  143.6436  160.0470 C   0  0  0  0  0  0  0  0  0  0  0  0
  150.5384  143.2093  161.0479 O   0  0  0  0  0  0  0  0  0  0  0  0
  153.4608  140.8487  159.0103 N   0  0  0  0  0  0  0  0  0  0  0  0
  152.6302  140.0480  158.3252 C   0  0  0  0  0  0  0  0  0  0  0  0
  151.6312  139.5782  158.8754 O   0  0  0  0  0  0  0  0  0  0  0  0
  152.9974  139.8560  157.0381 N   0  5  0  0  0  0  0  0  0  0  0  0
  152.0604  139.7964  156.0778 C   0  0  0  0  0  0  0  0  0  0  0  0
  151.1850  140.7917  155.8642 N   0  0  0  0  0  0  0  0  0  0  0  0
  150.2999  140.5267  154.8277 N   0  0  0  0  0  0  0  0  0  0  0  0
  150.5281  139.3296  154.2880 C   0  0  0  0  0  0  0  0  0  0  0  0
  151.8410  138.4150  154.9992 S   0  0  0  0  0  0  0  0  0  0  0  0
  154.2976  140.8165  162.2947 H   0  0  0  0  0  0  0  0  0  0  0  0
  155.3922  140.8528  160.9145 H   0  0  0  0  0  0  0  0  0  0  0  0
  154.3128  139.4799  161.1520 H   0  0  0  0  0  0  0  0  0  0  0  0
  152.3458  140.9355  160.7953 H   0  0  0  0  0  0  0  0  0  0  0  0
  153.2666  143.0845  161.5855 H   0  0  0  0  0  0  0  0  0  0  0  0
  154.4141  143.1421  160.2774 H   0  0  0  0  0  0  0  0  0  0  0  0
  153.6463  144.6709  158.5015 H   0  0  0  0  0  0  0  0  0  0  0  0
  152.9132  143.2530  157.7399 H   0  0  0  0  0  0  0  0  0  0  0  0
  151.7195  145.9573  158.2185 H   0  0  0  0  0  0  0  0  0  0  0  0
  151.2689  144.7734  156.9969 H   0  0  0  0  0  0  0  0  0  0  0  0
  149.8321  145.2741  159.3992 H   0  0  0  0  0  0  0  0  0  0  0  0
  149.6846  143.7837  158.4475 H   0  0  0  0  0  0  0  0  0  0  0  0
  154.2599  141.2130  158.5125 H   0  0  0  0  0  0  0  0  0  0  0  0
  149.9172  138.9812  153.4689 H   0  0  0  0  0  0  0  0  0  0  0  0
  1  2  1  0  0  0  0
  1 19  1  0  0  0  0
  1 20  1  0  0  0  0
  1 21  1  0  0  0  0
  2  3  1  0  0  0  0
  2 10  1  0  0  0  0
  2 22  1  0  0  0  0
  3  4  1  0  0  0  0
  3 23  1  0  0  0  0
  3 24  1  0  0  0  0
  4  8  1  0  0  0  0
  4  5  1  0  0  0  0
  5  6  1  0  0  0  0
  5 25  1  0  0  0  0
  5 26  1  0  0  0  0
  6  7  1  0  0  0  0
  6 27  1  0  0  0  0
  6 28  1  0  0  0  0
  7  8  1  0  0  0  0
  7 29  1  0  0  0  0
  7 30  1  0  0  0  0
  8  9  2  0  0  0  0
 10 11  1  0  0  0  0
 10 31  1  0  0  0  0
 11 12  2  0  0  0  0
 11 13  1  0  0  0  0
 13 14  1  0  0  0  0
 14 18  1  0  0  0  0
 14 15  2  0  0  0  0
 15 16  1  0  0  0  0
 16 17  2  0  0  0  0
 17 18  1  0  0  0  0
 17 32  1  0  0  0  0
M  CHG  1  13  -1
M  END
> <s_m_source_file>
AV-unprocessed.smi

> <i_m_source_file_index>
1836

> <i_lp_mmshare_version>
43012

> <i_f3d_flags>
0

> <s_epik_input>
Tz1DMVtDSDJdW0NIMl1bQ0gyXU4xW0NIMl1bQ0BASF0oW0NIM10pW05IXUMoPU8pW05IXWMybm5bY0hdczI=

> <s_epik_cmdline>
J2VwaWtfcHl0aG9uJywgJy1waCcsICc3LjAnLCAnLXRuJywgJzgnLCAnLW1hJywgJzIwMCcsICctbWV0YWxfYmluZGluZycsICctaW1hZScsICc8aW5maWxlLm1hZT4nLCAnLW9tYWUnLCAnPG91dGZpbGUubWFlPic=

> <r_lp_tautomer_probability>
1

> <r_epik_Ionization_Penalty>
3.44722

> <r_epik_Ionization_Penalty_Charging>
3.40341

> <r_epik_Ionization_Penalty_Neutral>
0.0438099

> <r_epik_State_Penalty>
3.40151

> <r_epik_Charging_Adjusted_Penalty>
6.80491

> <i_epik_Tot_Q>
-1

> <i_epik_Tot_abs_Q>
1

> <r_epik_Metal_State_Penalty>
0.49534

> <b_epik_Metal_Only>
1

> <s_lp_Force_Field>
OPLS_2005

> <r_lp_Energy>
17.1678

> <b_lp_Chiralities_Consistent>
1

> <s_lp_Variant>
AV-unprocessed.smi:1836-4

> <Gold.Version>
5.8.1

> <Gold.Id.Protein>
6NUR|6NUR_protein|mol2

> <Gold.PLP.Fitness>
45.6316

> <Gold.PLP.PLP>
-38.4099

> <Gold.PLP.part.hbond>
-3.5744

> <Gold.PLP.part.metal>
0.0000

> <Gold.PLP.part.buried>
-4.9705

> <Gold.PLP.part.nonpolar>
-30.3754

> <Gold.PLP.part.repulsive>
0.3363

> <Gold.PLP.ligand.clash>
0.0000

> <Gold.PLP.ligand.torsion>
1.1631

> <Gold.PLP.Chemscore.Hbond>
2.1680

> <Gold.PLP.Chemscore.CHOScore>
0.9651

> <Gold.PLP.Chemscore.Metal>
0.0000

> <Gold.Chemscore.Hbonds>
donor molecule, donor type, donor heavy atom, donor atom, acceptor molecule, acceptor atom, score
      P1  H  7997  8008       L1    13  1.90
      L1  C    17    32       P1  7957  0.92

> <Gold.PLP.Chemscore.Internal.Correction>
0.1485

> <Gold.Rescore>
     Score         DG    S(hbond)    S(metal)    S(lipo)     H(rot)  DE(clash)    DE(int)     intcor
     12.00     -13.54       0.89        0.00      81.43       1.73       0.49       1.05       ----

> <Gold.Chemscore.Fitness>
12.0036

> <Gold.Chemscore.DG>
-13.5445

> <Gold.Chemscore.ZeroCoef>
-5.4800

> <Gold.Chemscore.Hbond>
0.8882

> <Gold.Chemscore.Metal>
0.0000

> <Gold.Chemscore.Lipo>
81.4289

> <Gold.Chemscore.Internal_Hbond>
0.0000

> <Gold.Chemscore.DEClash>
0.4933

> <Gold.Chemscore.DEInternal>
1.0476

> <Gold.Chemscore.Rot>
1.7302

> <Gold.Chemscore.Internal.Correction>
   9.000000E+99

> <Gold.Chemscore.Hbonds>
donor molecule, donor type, donor heavy atom, donor atom, acceptor molecule, acceptor atom, score
      P1  H  6933  6945       L1     9  0.03
      P1  H  7997  8008       L1    13  0.63

> <Gold.Chemscore.Hbond.Weighted>
-2.9667

> <Gold.Chemscore.Metal.Weighted>
-0.0000

> <Gold.Chemscore.Lipo.Weighted>
-9.5272

> <Gold.Chemscore.Internal_Hbond.Weighted>
0.0000

> <Gold.Chemscore.DEClash.Weighted>
0.4933

> <Gold.Chemscore.DEInternal.Weighted>
1.0476

> <Gold.Chemscore.Rot.Weighted>
4.4294

> <Gold.Chemscore.Internal.Correction.Weighted>
   9.000000E+99

> <Gold.Protein.RotatedTorsions>
[ 6907 6896 6895 6894 ] final -129.01 input  -60.11 | X-H torsion
[ 7974 7965 7964 7962 ] final  153.77 input  175.53 | X-H torsion
[ 8008 7997 7996 7995 ] final  -77.04 input   59.86 | X-H torsion
[ 10167 10162 10161 10158 ] final  -19.66 input  -65.29 | X-H torsion
[ 10718 10713 10712 10709 ] final  -48.03 input   66.30 | X-H torsion
[ 10763 10752 10751 10750 ] final   70.95 input  -60.55 | X-H torsion
[ 11005 11000 10999 10996 ] final   -1.61 input  -57.11 | X-H torsion

> <Gold.Protein.ActiveResidues>
 VAL166  LYS551  ARG553  GLY616  TRP617  ASP618  TYR619  PRO620  LYS621  CYS622 
 ASP623  PHE694  ASN695  SER759  ASP760  ASP761  ALA762  ILE779  LEU786  VAL792 
 PHE793  MET794  SER795  GLU796  ALA797  LYS798  CYS799  TRP800  GLU811  SER814 

> <Gold.Protein.RotatedAtoms>
  150.9240  133.6846  159.2825 H   0  0  0  0  0  0  0  0  0  0  0  0  # atno 6907 bound_to 6896
  151.4291  135.1006  159.9646 H   0  0  0  0  0  0  0  0  0  0  0  0  # atno 6908 bound_to 6896
  152.4994  133.8674  159.7336 H   0  0  0  0  0  0  0  0  0  0  0  0  # atno 6909 bound_to 6896
  144.8132  139.6845  143.6132 H   0  0  0  0  0  0  0  0  0  0  0  0  # atno 7974 bound_to 7965
  154.5559  140.0717  156.8743 H   0  0  0  0  0  0  0  0  0  0  0  0  # atno 8008 bound_to 7997
  155.2903  140.3377  155.4235 H   0  0  0  0  0  0  0  0  0  0  0  0  # atno 8009 bound_to 7997
  156.2002  140.1719  156.7901 H   0  0  0  0  0  0  0  0  0  0  0  0  # atno 8010 bound_to 7997
  140.7270  143.4797  151.0134 H   0  0  0  0  0  0  0  0  0  0  0  0  # atno 10167 bound_to 10162
  156.2027  130.4157  149.9219 H   0  0  0  0  0  0  0  0  0  0  0  0  # atno 10718 bound_to 10713
  153.0371  135.5155  154.7520 H   0  0  0  0  0  0  0  0  0  0  0  0  # atno 10763 bound_to 10752
  154.6487  135.2922  155.0016 H   0  0  0  0  0  0  0  0  0  0  0  0  # atno 10764 bound_to 10752
  154.0907  135.6650  153.4904 H   0  0  0  0  0  0  0  0  0  0  0  0  # atno 10765 bound_to 10752
  140.6492  133.9420  155.8370 H   0  0  0  0  0  0  0  0  0  0  0  0  # atno 11005 bound_to 11000
  146.2433  139.6046  142.9477 LP  0  0  0  0  0  0  0  0  0  0  0  0  # atno 17320 bound_to 7965
  145.5275  141.0429  143.2401 LP  0  0  0  0  0  0  0  0  0  0  0  0  # atno 17321 bound_to 7965
  139.8495  143.7457  152.3178 LP  0  0  0  0  0  0  0  0  0  0  0  0  # atno 17342 bound_to 10162
  139.7634  144.7499  151.0330 LP  0  0  0  0  0  0  0  0  0  0  0  0  # atno 17343 bound_to 10162
  156.6923  130.8900  151.3589 LP  0  0  0  0  0  0  0  0  0  0  0  0  # atno 17370 bound_to 10713
  157.6995  130.9317  150.0742 LP  0  0  0  0  0  0  0  0  0  0  0  0  # atno 17371 bound_to 10713
  141.0549  134.0430  157.3735 LP  0  0  0  0  0  0  0  0  0  0  0  0  # atno 17394 bound_to 11000
  139.9052  135.0177  156.7452 LP  0  0  0  0  0  0  0  0  0  0  0  0  # atno 17395 bound_to 11000

$$$$
