#       Name:                AV-unprocessed.smi:72
#       Creating user name   scv26
#       Creation time:       Thu Mar 26 17:02:59 2020


#       File generated by GOLD software.
#

@<TRIPOS>MOLECULE
AV-unprocessed.smi:72
    41    42     1
SMALL
NO_CHARGES


@<TRIPOS>ATOM
      1 ****        -5.0310   0.0482  -0.1198 N.pl3          1 S1                 0.0000
      2 ****        -3.7057  -0.3332  -0.0984 C.2            1 S1                 0.0000
      3 ****        -2.7872   0.4996  -0.7104 N.pl3          1 S1                 1.0000
      4 ****        -1.4665   0.2810  -0.7706 C.2            1 S1                 0.0000
      5 ****        -0.9669  -0.7952  -0.1925 N.am           1 S1                 0.0000
      6 ****         0.5108  -1.1141  -0.2327 C.3            1 S1                 0.0000
      7 ****         1.1446  -0.1354  -0.9963 O.3            1 S1                 0.0000
      8 ****         1.6179   0.8960  -0.1366 C.3            1 S1                 0.0000
      9 ****         2.6189   1.8135  -0.8592 C.3            1 S1                 0.0000
     10 ****         1.9185   2.7889  -1.6016 O.3            1 S1                 0.0000
     11 ****         2.1754   0.0844   1.0368 C.3            1 S1                 0.0000
     12 ****         3.4736  -0.4008   0.7326 O.3            1 S1                 0.0000
     13 ****         1.1413  -1.0353   1.1771 C.3            1 S1                 0.0000
     14 ****         1.7158  -2.2567   1.6018 O.3            1 S1                 0.0000
     15 ****        -1.8397  -1.7324   0.4198 C.2            1 S1                 0.0000
     16 ****        -1.3950  -2.7698   0.9084 O.2            1 S1                 0.0000
     17 ****        -3.2051  -1.4126   0.4351 N.2            1 S1                 0.0000
     18 ****         0.5843  -2.0882  -0.7197 H              1 S1                 0.0000
     19 ****         0.7740   1.4839   0.2302 H              1 S1                 0.0000
     20 ****         2.2437   0.6851   1.9446 H              1 S1                 0.0000
     21 ****         0.3830  -0.7332   1.9009 H              1 S1                 0.0000
     22 ****        -5.7706  -0.5002   0.2959 H              1 S1                 0.0000
     23 ****        -5.3687   0.8946  -0.5554 H              1 S1                 0.0000
     24 ****        -0.8489   0.9927  -1.3024 H              1 S1                 0.0000
     25 ****         3.2404   2.3381  -0.1328 H              1 S1                 0.0000
     26 ****         3.2842   1.2468  -1.5114 H              1 S1                 0.0000
     27 ****         2.5482   3.3494  -2.0293 H              1 S1                 0.0000
     28 ****         3.7759  -0.9220   1.4611 H              1 S1                 0.0000
     29 ****         2.3797  -2.5090   0.9779 H              1 S1                 0.0000
     30 ****        -3.1443   1.3348  -1.1520 H              1 S1                 0.0000
     31 ****         0.4957   0.2484  -1.6534 LP             1 S1                 0.0000
     32 ****         1.9153  -0.5414  -1.4874 LP             1 S1                 0.0000
     33 ****         1.3450   3.3322  -0.9884 LP             1 S1                 0.0000
     34 ****         1.3436   2.3425  -2.2874 LP             1 S1                 0.0000
     35 ****         4.0958   0.3683   0.5864 LP             1 S1                 0.0000
     36 ****         3.4389  -0.9631  -0.0936 LP             1 S1                 0.0000
     37 ****         1.0099  -2.9635   1.6475 LP             1 S1                 0.0000
     38 ****         2.1288  -2.1391   2.5048 LP             1 S1                 0.0000
     39 ****        -0.4133  -2.9571   0.8757 LP             1 S1                 0.0000
     40 ****        -2.0152  -3.4259   1.3383 LP             1 S1                 0.0000
     41 ****        -3.8324  -2.0505   0.8818 LP             1 S1                 0.0000
@<TRIPOS>BOND
    1    1    2 1     
    2    1   22 1     
    3    1   23 1     
    4    2   17 2     
    5    2    3 1     
    6    3    4 2     
    7    3   30 1     
    8    4    5 1     
    9    4   24 1     
   10    5    6 1     
   11    5   15 am    
   12    6   18 1     
   13    6   13 1     
   14    6    7 1     
   15    7    8 1     
   16    8   19 1     
   17    8    9 1     
   18    8   11 1     
   19    9   10 1     
   20    9   25 1     
   21    9   26 1     
   22   10   27 1     
   23   11   20 1     
   24   11   12 1     
   25   11   13 1     
   26   12   28 1     
   27   13   21 1     
   28   13   14 1     
   29   14   29 1     
   30   15   16 2     
   31   15   17 1     
   32    7   31 1     
   33    7   32 1     
   34   10   33 1     
   35   10   34 1     
   36   12   35 1     
   37   12   36 1     
   38   14   37 1     
   39   14   38 1     
   40   16   39 1     
   41   16   40 1     
   42   17   41 1     
@<TRIPOS>SUBSTRUCTURE
      1 S1             1
@<TRIPOS>SET
LONE_PAIRS      STATIC     ATOMS    <user>   **** ""
11 31 32 33 34 35 36 37 38 39 40 41
DONOR_HYDROGENS      STATIC     ATOMS    <user>   **** ""
6 22 23 30 27 28 29
ATOM$BLUE        STATIC     ATOMS    COLORGROUP SYSTEM
11 31 32 33 34 35 36 37 38 39 40 41
ATOM$RED        STATIC     ATOMS    COLORGROUP SYSTEM
6 22 23 30 27 28 29
