AV-unprocessed.smi:1794|AV-procd|sdf|7235|dock1
  -GOLD-   22720 8483D 1   1.00000     0.00000
 Structure written by MMmdl.
 56 58  0  0  0  0  0  0  0  0  3 V2000
  147.3945  141.4749  153.3609 C   0  0  0  0  0  0  0  0  0  0  0  0
  147.0240  141.4765  154.8647 C   0  0  0  0  0  0  0  0  0  0  0  0
  145.8328  142.4514  155.0664 C   0  0  0  0  0  0  0  0  0  0  0  0
  146.5519  140.0563  155.2965 C   0  0  0  0  0  0  0  0  0  0  0  0
  145.3531  139.6075  154.5933 N   0  0  0  0  0  0  0  0  0  0  0  0
  144.8289  138.3800  154.6993 C   0  0  0  0  0  0  0  0  0  0  0  0
  145.2998  137.5014  155.4209 O   0  0  0  0  0  0  0  0  0  0  0  0
  143.7532  138.2390  153.9071 N   0  0  0  0  0  0  0  0  0  0  0  0
  142.9747  137.0675  153.6880 C   0  0  0  0  0  0  0  0  0  0  0  0
  143.5699  135.7797  153.6730 C   0  0  0  0  0  0  0  0  0  0  0  0
  142.7774  134.6420  153.4301 C   0  0  0  0  0  0  0  0  0  0  0  0
  141.3994  134.8077  153.2103 C   0  0  0  0  0  0  0  0  0  0  0  0
  140.8597  136.0434  153.2515 N   0  3  0  0  0  0  0  0  0  0  0  0
  141.5669  137.1752  153.4946 C   0  0  0  0  0  0  0  0  0  0  0  0
  140.8634  138.4010  153.5189 N   0  0  0  0  0  0  0  0  0  0  0  0
  139.4947  138.4784  153.0219 C   0  0  0  0  0  0  0  0  0  0  0  0
  138.9688  139.8204  153.5237 C   0  0  0  0  0  0  0  0  0  0  0  0
  139.6473  139.9495  154.8841 C   0  0  0  0  0  0  0  0  0  0  0  0
  141.0094  139.2788  154.6759 C   0  0  0  0  0  0  0  0  0  0  0  0
  148.2006  141.8859  155.7195 N   0  3  0  0  0  0  0  0  0  0  0  0
  148.0139  141.7171  157.1904 C   0  0  0  0  0  0  0  0  0  0  0  0
  149.1941  142.3227  157.9666 C   0  0  0  0  0  0  0  0  0  0  0  0
  150.4000  141.6985  157.5535 O   0  0  0  0  0  0  0  0  0  0  0  0
  150.6563  141.9247  156.1759 C   0  0  0  0  0  0  0  0  0  0  0  0
  149.5250  141.3239  155.3236 C   0  0  0  0  0  0  0  0  0  0  0  0
  146.5212  141.2872  152.7355 H   0  0  0  0  0  0  0  0  0  0  0  0
  148.1231  140.7012  153.1189 H   0  0  0  0  0  0  0  0  0  0  0  0
  147.8069  142.4324  153.0430 H   0  0  0  0  0  0  0  0  0  0  0  0
  144.9310  142.1159  154.5541 H   0  0  0  0  0  0  0  0  0  0  0  0
  146.0379  143.4426  154.6621 H   0  0  0  0  0  0  0  0  0  0  0  0
  145.5812  142.5604  156.1221 H   0  0  0  0  0  0  0  0  0  0  0  0
  147.3184  139.3072  155.1038 H   0  0  0  0  0  0  0  0  0  0  0  0
  146.3584  140.0379  156.3706 H   0  0  0  0  0  0  0  0  0  0  0  0
  144.9063  140.2714  153.9780 H   0  0  0  0  0  0  0  0  0  0  0  0
  143.5417  139.0203  153.3041 H   0  0  0  0  0  0  0  0  0  0  0  0
  144.6264  135.6457  153.8487 H   0  0  0  0  0  0  0  0  0  0  0  0
  143.2220  133.6575  153.4104 H   0  0  0  0  0  0  0  0  0  0  0  0
  140.7151  133.9955  153.0122 H   0  0  0  0  0  0  0  0  0  0  0  0
  139.4609  138.4108  151.9342 H   0  0  0  0  0  0  0  0  0  0  0  0
  138.8911  137.6704  153.4371 H   0  0  0  0  0  0  0  0  0  0  0  0
  139.3023  140.6230  152.8644 H   0  0  0  0  0  0  0  0  0  0  0  0
  137.8806  139.8576  153.5813 H   0  0  0  0  0  0  0  0  0  0  0  0
  139.7303  140.9827  155.2227 H   0  0  0  0  0  0  0  0  0  0  0  0
  139.0761  139.3963  155.6311 H   0  0  0  0  0  0  0  0  0  0  0  0
  141.3243  138.7354  155.5676 H   0  0  0  0  0  0  0  0  0  0  0  0
  141.7645  140.0329  154.4523 H   0  0  0  0  0  0  0  0  0  0  0  0
  147.1039  142.1974  157.5415 H   0  0  0  0  0  0  0  0  0  0  0  0
  147.9346  140.6588  157.4410 H   0  0  0  0  0  0  0  0  0  0  0  0
  149.2517  143.4018  157.8157 H   0  0  0  0  0  0  0  0  0  0  0  0
  149.0631  142.1574  159.0362 H   0  0  0  0  0  0  0  0  0  0  0  0
  150.7620  142.9939  155.9840 H   0  0  0  0  0  0  0  0  0  0  0  0
  151.6077  141.4610  155.9150 H   0  0  0  0  0  0  0  0  0  0  0  0
  149.5186  140.2389  155.4301 H   0  0  0  0  0  0  0  0  0  0  0  0
  149.7636  141.5472  154.2855 H   0  0  0  0  0  0  0  0  0  0  0  0
  148.2903  142.8813  155.5717 H   0  0  0  0  0  0  0  0  0  0  0  0
  139.8549  136.1296  153.0979 H   0  0  0  0  0  0  0  0  0  0  0  0
  1  2  1  0  0  0  0
  1 26  1  0  0  0  0
  1 27  1  0  0  0  0
  1 28  1  0  0  0  0
  2  3  1  0  0  0  0
  2  4  1  0  0  0  0
  2 20  1  0  0  0  0
  3 29  1  0  0  0  0
  3 30  1  0  0  0  0
  3 31  1  0  0  0  0
  4  5  1  0  0  0  0
  4 32  1  0  0  0  0
  4 33  1  0  0  0  0
  5  6  1  0  0  0  0
  5 34  1  0  0  0  0
  6  7  2  0  0  0  0
  6  8  1  0  0  0  0
  8  9  1  0  0  0  0
  8 35  1  0  0  0  0
  9 14  1  0  0  0  0
  9 10  2  0  0  0  0
 10 11  1  0  0  0  0
 10 36  1  0  0  0  0
 11 12  2  0  0  0  0
 11 37  1  0  0  0  0
 12 13  1  0  0  0  0
 12 38  1  0  0  0  0
 13 14  2  0  0  0  0
 13 56  1  0  0  0  0
 14 15  1  0  0  0  0
 15 19  1  0  0  0  0
 15 16  1  0  0  0  0
 16 17  1  0  0  0  0
 16 39  1  0  0  0  0
 16 40  1  0  0  0  0
 17 18  1  0  0  0  0
 17 41  1  0  0  0  0
 17 42  1  0  0  0  0
 18 19  1  0  0  0  0
 18 43  1  0  0  0  0
 18 44  1  0  0  0  0
 19 45  1  0  0  0  0
 19 46  1  0  0  0  0
 20 25  1  0  0  0  0
 20 21  1  0  0  0  0
 20 55  1  0  0  0  0
 21 22  1  0  0  0  0
 21 47  1  0  0  0  0
 21 48  1  0  0  0  0
 22 23  1  0  0  0  0
 22 49  1  0  0  0  0
 22 50  1  0  0  0  0
 23 24  1  0  0  0  0
 24 25  1  0  0  0  0
 24 51  1  0  0  0  0
 24 52  1  0  0  0  0
 25 53  1  0  0  0  0
 25 54  1  0  0  0  0
M  CHG  1  13   1
M  CHG  1  20   1
M  END
> <s_m_source_file>
AV-unprocessed.smi

> <i_m_source_file_index>
1794

> <i_lp_mmshare_version>
43012

> <i_f3d_flags>
0

> <s_epik_input>
W0NIMl0xW0NIMl1PW0NIMl1bQ0gyXU4xQyhbQ0gzXSkoW0NIM10pW0NIMl1bTkhdQyg9TylbTkhdYzJbY0hdW2NIXVtjSF1uYzJOM1tDSDJdW0NIMl1bQ0gyXVtDSDJdMw==

> <s_epik_cmdline>
J2VwaWtfcHl0aG9uJywgJy1waCcsICc3LjAnLCAnLXRuJywgJzgnLCAnLW1hJywgJzIwMCcsICctbWV0YWxfYmluZGluZycsICctaW1hZScsICc8aW5maWxlLm1hZT4nLCAnLW9tYWUnLCAnPG91dGZpbGUubWFlPic=

> <r_lp_tautomer_probability>
0.999994

> <r_epik_Ionization_Penalty>
1.80144

> <r_epik_Ionization_Penalty_Charging>
1.80142

> <r_epik_Ionization_Penalty_Neutral>
2.02981e-05

> <r_epik_State_Penalty>
1.84115

> <r_epik_Charging_Adjusted_Penalty>
3.64257

> <i_epik_Tot_Q>
2

> <i_epik_Tot_abs_Q>
2

> <r_epik_Metal_State_Penalty>
1.92426

> <b_epik_Metal_Only>
0

> <s_lp_Force_Field>
OPLS_2005

> <r_lp_Energy>
63.0658

> <b_lp_Chiralities_Consistent>
1

> <s_lp_Variant>
AV-unprocessed.smi:1794-4

> <Gold.Version>
5.8.1

> <Gold.Id.Protein>
6NUR|6NUR_protein|mol2

> <Gold.PLP.Fitness>
45.1226

> <Gold.PLP.PLP>
-34.5108

> <Gold.PLP.part.hbond>
-3.7968

> <Gold.PLP.part.metal>
0.0000

> <Gold.PLP.part.buried>
-3.5772

> <Gold.PLP.part.nonpolar>
-26.8782

> <Gold.PLP.part.repulsive>
0.4363

> <Gold.PLP.ligand.clash>
0.0000

> <Gold.PLP.ligand.torsion>
0.8060

> <Gold.PLP.Chemscore.Hbond>
3.9120

> <Gold.PLP.Chemscore.CHOScore>
0.0000

> <Gold.PLP.Chemscore.Metal>
0.0000

> <Gold.Chemscore.Hbonds>
donor molecule, donor type, donor heavy atom, donor atom, acceptor molecule, acceptor atom, score
      L1  H     5    34       P1 10175  0.91
      L1  H     8    35       P1 10175  1.00
      L1  H    20    55       P1  8028  2.00

> <Gold.PLP.Chemscore.Internal.Correction>
0.4879

> <Gold.Rescore>
     Score         DG    S(hbond)    S(metal)    S(lipo)     H(rot)  DE(clash)    DE(int)     intcor
     18.28     -20.39       2.88        0.00      80.89       1.64       0.23       1.88       ----

> <Gold.Chemscore.Fitness>
18.2790

> <Gold.Chemscore.DG>
-20.3887

> <Gold.Chemscore.ZeroCoef>
-5.4800

> <Gold.Chemscore.Hbond>
2.8831

> <Gold.Chemscore.Metal>
0.0000

> <Gold.Chemscore.Lipo>
80.8937

> <Gold.Chemscore.Internal_Hbond>
0.0000

> <Gold.Chemscore.DEClash>
0.2250

> <Gold.Chemscore.DEInternal>
1.8847

> <Gold.Chemscore.Rot>
1.6350

> <Gold.Chemscore.Internal.Correction>
   9.000000E+99

> <Gold.Chemscore.Hbonds>
donor molecule, donor type, donor heavy atom, donor atom, acceptor molecule, acceptor atom, score
      L1  H     5    34       P1 10175  0.87
      L1  H     8    35       P1 10175  1.00
      L1  H    20    55       P1  8028  0.97

> <Gold.Chemscore.Hbond.Weighted>
-9.6297

> <Gold.Chemscore.Metal.Weighted>
-0.0000

> <Gold.Chemscore.Lipo.Weighted>
-9.4646

> <Gold.Chemscore.Internal_Hbond.Weighted>
0.0000

> <Gold.Chemscore.DEClash.Weighted>
0.2250

> <Gold.Chemscore.DEInternal.Weighted>
1.8847

> <Gold.Chemscore.Rot.Weighted>
4.1856

> <Gold.Chemscore.Internal.Correction.Weighted>
   9.000000E+99

> <Gold.Protein.RotatedTorsions>
[ 6907 6896 6895 6894 ] final   37.67 input  -60.11 | X-H torsion
[ 7974 7965 7964 7962 ] final   -8.19 input  175.53 | X-H torsion
[ 8008 7997 7996 7995 ] final -108.94 input   59.86 | X-H torsion
[ 10167 10162 10161 10158 ] final  -90.71 input  -65.29 | X-H torsion
[ 10718 10713 10712 10709 ] final -174.38 input   66.30 | X-H torsion
[ 10763 10752 10751 10750 ] final -115.67 input  -60.55 | X-H torsion
[ 11005 11000 10999 10996 ] final  116.96 input  -57.11 | X-H torsion

> <Gold.Protein.ActiveResidues>
 VAL166  LYS551  ARG553  GLY616  TRP617  ASP618  TYR619  PRO620  LYS621  CYS622 
 ASP623  PHE694  ASN695  SER759  ASP760  ASP761  ALA762  ILE779  LEU786  VAL792 
 PHE793  MET794  SER795  GLU796  ALA797  LYS798  CYS799  TRP800  GLU811  SER814 

> <Gold.Protein.RotatedAtoms>
  152.1463  134.9023  160.0550 H   0  0  0  0  0  0  0  0  0  0  0  0  # atno 6907 bound_to 6896
  152.0072  133.3843  159.4213 H   0  0  0  0  0  0  0  0  0  0  0  0  # atno 6908 bound_to 6896
  150.6870  134.3691  159.5028 H   0  0  0  0  0  0  0  0  0  0  0  0  # atno 6909 bound_to 6896
  146.2287  140.2431  142.8344 H   0  0  0  0  0  0  0  0  0  0  0  0  # atno 7974 bound_to 7965
  154.9518  140.0400  157.2148 H   0  0  0  0  0  0  0  0  0  0  0  0  # atno 8008 bound_to 7997
  154.7971  140.2845  155.5926 H   0  0  0  0  0  0  0  0  0  0  0  0  # atno 8009 bound_to 7997
  156.2957  140.2562  156.2831 H   0  0  0  0  0  0  0  0  0  0  0  0  # atno 8010 bound_to 7997
  140.3522  143.2885  151.9713 H   0  0  0  0  0  0  0  0  0  0  0  0  # atno 10167 bound_to 10162
  156.7842  130.9494  151.3120 H   0  0  0  0  0  0  0  0  0  0  0  0  # atno 10718 bound_to 10713
  154.8490  135.4373  154.1700 H   0  0  0  0  0  0  0  0  0  0  0  0  # atno 10763 bound_to 10752
  153.2815  135.6954  153.7386 H   0  0  0  0  0  0  0  0  0  0  0  0  # atno 10764 bound_to 10752
  153.6588  135.3438  155.3096 H   0  0  0  0  0  0  0  0  0  0  0  0  # atno 10765 bound_to 10752
  139.9058  134.9604  156.7278 H   0  0  0  0  0  0  0  0  0  0  0  0  # atno 11005 bound_to 11000
  144.9469  140.8137  143.5596 LP  0  0  0  0  0  0  0  0  0  0  0  0  # atno 17320 bound_to 7965
  145.2388  139.2082  143.5003 LP  0  0  0  0  0  0  0  0  0  0  0  0  # atno 17321 bound_to 7965
  139.4825  144.6066  151.7509 LP  0  0  0  0  0  0  0  0  0  0  0  0  # atno 17342 bound_to 10162
  140.5208  144.0881  150.6022 LP  0  0  0  0  0  0  0  0  0  0  0  0  # atno 17343 bound_to 10162
  157.6631  130.8984  149.9874 LP  0  0  0  0  0  0  0  0  0  0  0  0  # atno 17370 bound_to 10713
  156.1199  130.3646  149.9905 LP  0  0  0  0  0  0  0  0  0  0  0  0  # atno 17371 bound_to 10713
  140.6949  133.9357  155.7988 LP  0  0  0  0  0  0  0  0  0  0  0  0  # atno 17394 bound_to 11000
  141.0414  134.0615  157.3897 LP  0  0  0  0  0  0  0  0  0  0  0  0  # atno 17395 bound_to 11000

$$$$
