AV-unprocessed.smi:3191|AV-procd|sdf|12198|dock5
  -GOLD-   2272018 33D 1   1.00000     0.00000
 Structure written by MMmdl.
 35 36  0  0  0  0  0  0  0  0  1 V2000
  148.7142  139.2619  154.3153 C   0  0  0  0  0  0  0  0  0  0  0  0
  150.1224  138.9778  154.5110 N   0  0  0  0  0  0  0  0  0  0  0  0
  150.7848  137.8849  154.1080 C   0  0  0  0  0  0  0  0  0  0  0  0
  152.0737  137.8759  154.4205 N   0  0  0  0  0  0  0  0  0  0  0  0
  152.2599  139.0814  155.0916 C   0  0  0  0  0  0  0  0  0  0  0  0
  151.0691  139.7707  155.1549 C   0  0  0  0  0  0  0  0  0  0  0  0
  150.7648  141.1037  155.7590 C   0  0  0  0  0  0  0  0  0  0  0  0
  150.8186  141.0899  157.2950 C   0  0  0  0  0  0  0  0  0  0  0  0
  151.4446  142.2976  157.8192 N   0  0  0  0  0  0  0  0  0  0  0  0
  152.4224  142.3190  158.7378 C   0  0  0  0  0  0  0  0  0  0  0  0
  152.8858  141.2947  159.2417 O   0  0  0  0  0  0  0  0  0  0  0  0
  152.8869  143.6986  159.0882 C   0  0  1  0  0  0  0  0  0  0  0  0
  152.5031  144.8368  158.1650 C   0  0  0  0  0  0  0  0  0  0  0  0
  151.8841  144.7568  159.5428 C   0  0  0  0  0  0  0  0  0  0  0  0
  150.3910  144.4808  159.6751 C   0  0  0  0  0  0  0  0  0  0  0  0
  152.3218  145.7327  160.6209 C   0  0  0  0  0  0  0  0  0  0  0  0
  153.8738  143.7539  159.5458 H   0  0  0  0  0  0  0  0  0  0  0  0
  148.2383  138.4510  153.7629 H   0  0  0  0  0  0  0  0  0  0  0  0
  148.5974  140.1879  153.7523 H   0  0  0  0  0  0  0  0  0  0  0  0
  148.2218  139.3661  155.2823 H   0  0  0  0  0  0  0  0  0  0  0  0
  150.3116  137.0749  153.5724 H   0  0  0  0  0  0  0  0  0  0  0  0
  153.2309  139.3607  155.4731 H   0  0  0  0  0  0  0  0  0  0  0  0
  151.4598  141.8469  155.3670 H   0  0  0  0  0  0  0  0  0  0  0  0
  149.7744  141.4258  155.4354 H   0  0  0  0  0  0  0  0  0  0  0  0
  149.8086  141.0241  157.7005 H   0  0  0  0  0  0  0  0  0  0  0  0
  151.3528  140.2093  157.6552 H   0  0  0  0  0  0  0  0  0  0  0  0
  151.1148  143.1795  157.4543 H   0  0  0  0  0  0  0  0  0  0  0  0
  153.2596  145.5980  157.9850 H   0  0  0  0  0  0  0  0  0  0  0  0
  151.8634  144.6236  157.3103 H   0  0  0  0  0  0  0  0  0  0  0  0
  149.8394  145.4155  159.7802 H   0  0  0  0  0  0  0  0  0  0  0  0
  150.1976  143.8651  160.5537 H   0  0  0  0  0  0  0  0  0  0  0  0
  149.9964  143.9688  158.7984 H   0  0  0  0  0  0  0  0  0  0  0  0
  151.7874  146.6778  160.5197 H   0  0  0  0  0  0  0  0  0  0  0  0
  153.3904  145.9378  160.5480 H   0  0  0  0  0  0  0  0  0  0  0  0
  152.1188  145.3210  161.6100 H   0  0  0  0  0  0  0  0  0  0  0  0
  1  2  1  0  0  0  0
  1 18  1  0  0  0  0
  1 19  1  0  0  0  0
  1 20  1  0  0  0  0
  2  6  1  0  0  0  0
  2  3  1  0  0  0  0
  3  4  2  0  0  0  0
  3 21  1  0  0  0  0
  4  5  1  0  0  0  0
  5  6  2  0  0  0  0
  5 22  1  0  0  0  0
  6  7  1  0  0  0  0
  7  8  1  0  0  0  0
  7 23  1  0  0  0  0
  7 24  1  0  0  0  0
  8  9  1  0  0  0  0
  8 25  1  0  0  0  0
  8 26  1  0  0  0  0
  9 10  1  0  0  0  0
  9 27  1  0  0  0  0
 10 11  2  0  0  0  0
 10 12  1  0  0  0  0
 12 17  1  0  0  0  0
 12 14  1  0  0  0  0
 12 13  1  0  0  0  0
 13 14  1  0  0  0  0
 13 28  1  0  0  0  0
 13 29  1  0  0  0  0
 14 15  1  0  0  0  0
 14 16  1  0  0  0  0
 15 30  1  0  0  0  0
 15 31  1  0  0  0  0
 15 32  1  0  0  0  0
 16 33  1  0  0  0  0
 16 34  1  0  0  0  0
 16 35  1  0  0  0  0
M  END
> <s_m_source_file>
AV-unprocessed.smi

> <i_m_source_file_index>
3191

> <i_lp_mmshare_version>
43012

> <i_f3d_flags>
0

> <s_epik_input>
W0NIM11uMVtjSF1uW2NIXWMxW0NIMl1bQ0gyXVtOSF1DKD1PKVtDQEBIXShbQ0gyXTIpQzIoW0NIM10pW0NIM10=

> <s_epik_cmdline>
J2VwaWtfcHl0aG9uJywgJy1waCcsICc3LjAnLCAnLXRuJywgJzgnLCAnLW1hJywgJzIwMCcsICctbWV0YWxfYmluZGluZycsICctaW1hZScsICc8aW5maWxlLm1hZT4nLCAnLW9tYWUnLCAnPG91dGZpbGUubWFlPic=

> <r_lp_tautomer_probability>
1

> <r_epik_Ionization_Penalty>
0.874249

> <r_epik_Ionization_Penalty_Charging>
0.874249

> <r_epik_Ionization_Penalty_Neutral>
1.97773e-08

> <r_epik_State_Penalty>
0.911868

> <r_epik_Charging_Adjusted_Penalty>
1.78612

> <i_epik_Tot_Q>
0

> <i_epik_Tot_abs_Q>
0

> <r_epik_Metal_State_Penalty>
0.361186

> <b_epik_Metal_Only>
0

> <s_lp_Force_Field>
OPLS_2005

> <r_lp_Energy>
11.7772

> <b_lp_Chiralities_Consistent>
1

> <s_lp_Variant>
AV-unprocessed.smi:3191-3

> <Gold.Version>
5.8.1

> <Gold.Id.Protein>
6NUR|6NUR_protein|mol2

> <Gold.PLP.Fitness>
45.2428

> <Gold.PLP.PLP>
-41.2877

> <Gold.PLP.part.hbond>
-1.0000

> <Gold.PLP.part.metal>
0.0000

> <Gold.PLP.part.buried>
-3.4960

> <Gold.PLP.part.nonpolar>
-36.2188

> <Gold.PLP.part.repulsive>
0.1266

> <Gold.PLP.ligand.clash>
0.0000

> <Gold.PLP.ligand.torsion>
0.6639

> <Gold.PLP.Chemscore.Hbond>
0.7040

> <Gold.PLP.Chemscore.CHOScore>
1.0263

> <Gold.PLP.Chemscore.Metal>
0.0000

> <Gold.Chemscore.Hbonds>
donor molecule, donor type, donor heavy atom, donor atom, acceptor molecule, acceptor atom, score
      P1  H 10752 10764       L1     4  0.11
      L1  C     3    21       P1  7948  0.75
      L1  C     3    21       P1  7949  0.27

> <Gold.PLP.Chemscore.Internal.Correction>
0.0921

> <Gold.Rescore>
     Score         DG    S(hbond)    S(metal)    S(lipo)     H(rot)  DE(clash)    DE(int)     intcor
     13.79     -14.46       0.89        0.00      88.45       1.69       0.02       0.65       ----

> <Gold.Chemscore.Fitness>
13.7895

> <Gold.Chemscore.DG>
-14.4559

> <Gold.Chemscore.ZeroCoef>
-5.4800

> <Gold.Chemscore.Hbond>
0.8857

> <Gold.Chemscore.Metal>
0.0000

> <Gold.Chemscore.Lipo>
88.4517

> <Gold.Chemscore.Internal_Hbond>
0.0000

> <Gold.Chemscore.DEClash>
0.0186

> <Gold.Chemscore.DEInternal>
0.6478

> <Gold.Chemscore.Rot>
1.6919

> <Gold.Chemscore.Internal.Correction>
   9.000000E+99

> <Gold.Chemscore.Hbonds>
donor molecule, donor type, donor heavy atom, donor atom, acceptor molecule, acceptor atom, score
      P1  H 10752 10764       L1     4  0.09

> <Gold.Chemscore.Hbond.Weighted>
-2.9582

> <Gold.Chemscore.Metal.Weighted>
-0.0000

> <Gold.Chemscore.Lipo.Weighted>
-10.3489

> <Gold.Chemscore.Internal_Hbond.Weighted>
0.0000

> <Gold.Chemscore.DEClash.Weighted>
0.0186

> <Gold.Chemscore.DEInternal.Weighted>
0.6478

> <Gold.Chemscore.Rot.Weighted>
4.3312

> <Gold.Chemscore.Internal.Correction.Weighted>
   9.000000E+99

> <Gold.Protein.RotatedTorsions>
[ 6907 6896 6895 6894 ] final -137.99 input  -60.11 | X-H torsion
[ 7974 7965 7964 7962 ] final -105.60 input  175.53 | X-H torsion
[ 8008 7997 7996 7995 ] final  -71.11 input   59.86 | X-H torsion
[ 10167 10162 10161 10158 ] final   20.63 input  -65.29 | X-H torsion
[ 10718 10713 10712 10709 ] final -106.72 input   66.30 | X-H torsion
[ 10763 10752 10751 10750 ] final  -76.89 input  -60.55 | X-H torsion
[ 11005 11000 10999 10996 ] final -100.81 input  -57.11 | X-H torsion

> <Gold.Protein.ActiveResidues>
 VAL166  LYS551  ARG553  GLY616  TRP617  ASP618  TYR619  PRO620  LYS621  CYS622 
 ASP623  PHE694  ASN695  SER759  ASP760  ASP761  ALA762  ILE779  LEU786  VAL792 
 PHE793  MET794  SER795  GLU796  ALA797  LYS798  CYS799  TRP800  GLU811  SER814 

> <Gold.Protein.RotatedAtoms>
  151.0294  133.5804  159.2662 H   0  0  0  0  0  0  0  0  0  0  0  0  # atno 6907 bound_to 6896
  151.2892  135.0736  159.9207 H   0  0  0  0  0  0  0  0  0  0  0  0  # atno 6908 bound_to 6896
  152.5341  133.9995  159.7942 H   0  0  0  0  0  0  0  0  0  0  0  0  # atno 6909 bound_to 6896
  145.2284  140.9161  143.3219 H   0  0  0  0  0  0  0  0  0  0  0  0  # atno 7974 bound_to 7965
  154.5063  140.0822  156.7900 H   0  0  0  0  0  0  0  0  0  0  0  0  # atno 8008 bound_to 7997
  155.3887  140.3431  155.4232 H   0  0  0  0  0  0  0  0  0  0  0  0  # atno 8009 bound_to 7997
  156.1519  140.1561  156.8744 H   0  0  0  0  0  0  0  0  0  0  0  0  # atno 8010 bound_to 7997
  140.5489  143.9545  150.6565 H   0  0  0  0  0  0  0  0  0  0  0  0  # atno 10167 bound_to 10162
  156.0403  130.5627  150.7721 H   0  0  0  0  0  0  0  0  0  0  0  0  # atno 10718 bound_to 10713
  154.5058  135.5782  153.6566 H   0  0  0  0  0  0  0  0  0  0  0  0  # atno 10763 bound_to 10752
  152.9887  135.6146  154.2944 H   0  0  0  0  0  0  0  0  0  0  0  0  # atno 10764 bound_to 10752
  154.2855  135.2850  155.2658 H   0  0  0  0  0  0  0  0  0  0  0  0  # atno 10765 bound_to 10752
  141.1256  133.8428  157.1151 H   0  0  0  0  0  0  0  0  0  0  0  0  # atno 11005 bound_to 11000
  144.9700  139.3890  143.6314 LP  0  0  0  0  0  0  0  0  0  0  0  0  # atno 17320 bound_to 7965
  146.3359  139.8793  142.8827 LP  0  0  0  0  0  0  0  0  0  0  0  0  # atno 17321 bound_to 7965
  140.2966  143.3288  152.1012 LP  0  0  0  0  0  0  0  0  0  0  0  0  # atno 17342 bound_to 10162
  139.5019  144.6723  151.6214 LP  0  0  0  0  0  0  0  0  0  0  0  0  # atno 17343 bound_to 10162
  157.5212  131.0931  151.0076 LP  0  0  0  0  0  0  0  0  0  0  0  0  # atno 17370 bound_to 10713
  157.0406  130.5747  149.5355 LP  0  0  0  0  0  0  0  0  0  0  0  0  # atno 17371 bound_to 10713
  140.0251  134.9927  157.0670 LP  0  0  0  0  0  0  0  0  0  0  0  0  # atno 17394 bound_to 11000
  140.4376  134.1715  155.7171 LP  0  0  0  0  0  0  0  0  0  0  0  0  # atno 17395 bound_to 11000

$$$$
