AV-unprocessed.smi:215|AV-procd|sdf|1650|dock3
  -GOLD-   2262020 33D 1   1.00000     0.00000
 Structure written by MMmdl.
 59 62  0  0  0  0  0  0  0  0  2 V2000
  144.4377  134.4659  154.8935 C   0  0  0  0  0  0  0  0  0  0  0  0
  143.7140  135.3235  153.8337 C   0  0  2  0  0  0  0  0  0  0  0  0
  143.1747  134.6036  152.5730 C   0  0  2  0  0  0  0  0  0  0  0  0
  143.6960  133.2190  152.3575 N   0  3  2  0  0  0  0  0  0  0  0  0
  145.1774  133.1115  152.2838 C   0  0  0  0  0  0  0  0  0  0  0  0
  143.0075  132.5128  151.2441 C   0  0  0  0  0  0  0  0  0  0  0  0
  143.8527  132.4433  149.9600 C   0  0  0  0  0  0  0  0  0  0  0  0
  143.0536  132.0232  148.8745 O   0  0  0  0  0  0  0  0  0  0  0  0
  143.4156  135.5903  151.4111 C   0  0  0  0  0  0  0  0  0  0  0  0
  143.8004  136.8889  152.1180 C   0  0  0  0  0  0  0  0  0  0  0  0
  144.4797  136.4598  153.3325 N   0  0  0  0  0  0  0  0  0  0  0  0
  144.7725  137.4201  154.2407 C   0  0  0  0  0  0  0  0  0  0  0  0
  144.1456  137.4438  155.4464 N   0  0  0  0  0  0  0  0  0  0  0  0
  144.4578  138.3847  156.3429 C   0  0  0  0  0  0  0  0  0  0  0  0
  145.3479  139.3743  156.2390 N   0  0  0  0  0  0  0  0  0  0  0  0
  145.9758  139.3548  155.0279 C   0  0  0  0  0  0  0  0  0  0  0  0
  145.7526  138.4149  153.9839 C   0  0  0  0  0  0  0  0  0  0  0  0
  146.5849  138.6897  152.9077 N   0  0  0  0  0  0  0  0  0  0  0  0
  147.2705  139.7297  153.2977 C   0  0  0  0  0  0  0  0  0  0  0  0
  146.9462  140.2178  154.5461 N   0  0  0  0  0  0  0  0  0  0  0  0
  147.5550  141.3227  155.2383 C   0  0  0  0  0  0  0  0  0  0  0  0
  148.9644  141.7906  154.8549 C   0  0  0  0  0  0  0  0  0  0  0  0
  149.5474  141.0770  156.0928 C   0  0  0  0  0  0  0  0  0  0  0  0
  150.0620  139.6454  155.8390 C   0  0  0  0  0  0  0  0  0  0  0  0
  150.9746  139.6073  154.7602 O   0  0  0  0  0  0  0  0  0  0  0  0
  150.6176  141.8672  156.8642 C   0  0  0  0  0  0  0  0  0  0  0  0
  150.1802  143.1806  157.1500 O   0  0  0  0  0  0  0  0  0  0  0  0
  148.1140  141.1710  156.6596 C   0  0  0  0  0  0  0  0  0  0  0  0
  142.8441  135.7494  154.3381 H   0  0  0  0  0  0  0  0  0  0  0  0
  142.0980  134.5259  152.7312 H   0  0  0  0  0  0  0  0  0  0  0  0
  143.8338  133.6035  155.1765 H   0  0  0  0  0  0  0  0  0  0  0  0
  144.6169  135.0393  155.8034 H   0  0  0  0  0  0  0  0  0  0  0  0
  145.4044  134.1025  154.5487 H   0  0  0  0  0  0  0  0  0  0  0  0
  145.5431  133.3007  151.2741 H   0  0  0  0  0  0  0  0  0  0  0  0
  145.5010  132.1119  152.5730 H   0  0  0  0  0  0  0  0  0  0  0  0
  145.6739  133.8149  152.9514 H   0  0  0  0  0  0  0  0  0  0  0  0
  142.7626  131.4926  151.5427 H   0  0  0  0  0  0  0  0  0  0  0  0
  142.0570  133.0075  151.0393 H   0  0  0  0  0  0  0  0  0  0  0  0
  144.2490  133.4322  149.7276 H   0  0  0  0  0  0  0  0  0  0  0  0
  144.7117  131.7818  150.0676 H   0  0  0  0  0  0  0  0  0  0  0  0
  142.2531  132.5269  148.8758 H   0  0  0  0  0  0  0  0  0  0  0  0
  144.2371  135.2902  150.7632 H   0  0  0  0  0  0  0  0  0  0  0  0
  142.5358  135.7118  150.7787 H   0  0  0  0  0  0  0  0  0  0  0  0
  144.4463  137.5112  151.4976 H   0  0  0  0  0  0  0  0  0  0  0  0
  142.9014  137.4601  152.3547 H   0  0  0  0  0  0  0  0  0  0  0  0
  143.9175  138.3390  157.2769 H   0  0  0  0  0  0  0  0  0  0  0  0
  148.0320  140.1689  152.6706 H   0  0  0  0  0  0  0  0  0  0  0  0
  146.8354  142.1403  155.1804 H   0  0  0  0  0  0  0  0  0  0  0  0
  149.3402  141.4117  153.9042 H   0  0  0  0  0  0  0  0  0  0  0  0
  149.0655  142.8764  154.9038 H   0  0  0  0  0  0  0  0  0  0  0  0
  150.5697  139.2463  156.7168 H   0  0  0  0  0  0  0  0  0  0  0  0
  149.2424  138.9575  155.6297 H   0  0  0  0  0  0  0  0  0  0  0  0
  150.9759  138.7337  154.3996 H   0  0  0  0  0  0  0  0  0  0  0  0
  150.8491  141.3815  157.8126 H   0  0  0  0  0  0  0  0  0  0  0  0
  151.5558  141.9181  156.3112 H   0  0  0  0  0  0  0  0  0  0  0  0
  149.7225  143.5155  156.3941 H   0  0  0  0  0  0  0  0  0  0  0  0
  147.9543  142.0702  157.2575 H   0  0  0  0  0  0  0  0  0  0  0  0
  147.7862  140.2899  157.2098 H   0  0  0  0  0  0  0  0  0  0  0  0
  143.4240  132.7165  153.1908 H   0  0  0  0  0  0  0  0  0  0  0  0
  1  2  1  0  0  0  0
  1 31  1  0  0  0  0
  1 32  1  0  0  0  0
  1 33  1  0  0  0  0
  2 29  1  0  0  0  0
  2 11  1  0  0  0  0
  2  3  1  0  0  0  0
  3 30  1  0  0  0  0
  3  4  1  0  0  0  0
  3  9  1  0  0  0  0
  4  5  1  0  0  0  0
  4  6  1  0  0  0  0
  4 59  1  0  0  0  0
  5 34  1  0  0  0  0
  5 35  1  0  0  0  0
  5 36  1  0  0  0  0
  6  7  1  0  0  0  0
  6 37  1  0  0  0  0
  6 38  1  0  0  0  0
  7  8  1  0  0  0  0
  7 39  1  0  0  0  0
  7 40  1  0  0  0  0
  8 41  1  0  0  0  0
  9 10  1  0  0  0  0
  9 42  1  0  0  0  0
  9 43  1  0  0  0  0
 10 11  1  0  0  0  0
 10 44  1  0  0  0  0
 10 45  1  0  0  0  0
 11 12  1  0  0  0  0
 12 17  1  0  0  0  0
 12 13  2  0  0  0  0
 13 14  1  0  0  0  0
 14 15  2  0  0  0  0
 14 46  1  0  0  0  0
 15 16  1  0  0  0  0
 16 20  1  0  0  0  0
 16 17  2  0  0  0  0
 17 18  1  0  0  0  0
 18 19  2  0  0  0  0
 19 20  1  0  0  0  0
 19 47  1  0  0  0  0
 20 21  1  0  0  0  0
 21 28  1  0  0  0  0
 21 22  1  0  0  0  0
 21 48  1  0  0  0  0
 22 23  1  0  0  0  0
 22 49  1  0  0  0  0
 22 50  1  0  0  0  0
 23 24  1  0  0  0  0
 23 26  1  0  0  0  0
 23 28  1  0  0  0  0
 24 25  1  0  0  0  0
 24 51  1  0  0  0  0
 24 52  1  0  0  0  0
 25 53  1  0  0  0  0
 26 27  1  0  0  0  0
 26 54  1  0  0  0  0
 26 55  1  0  0  0  0
 27 56  1  0  0  0  0
 28 57  1  0  0  0  0
 28 58  1  0  0  0  0
M  CHG  1   4   1
M  END
> <s_m_source_file>
AV-unprocessed.smi

> <i_m_source_file_index>
215

> <i_lp_mmshare_version>
43012

> <i_f3d_flags>
0

> <s_epik_input>
W09IXVtDSDJdW0NIMl1OKFtDSDNdKVtDQEBIXShbQ0BIXTFbQ0gzXSlbQ0gyXVtDSDJdTjFjKG5bY0hdbjIpYyhjMjMpbltjSF1uM1tDSF0oW0NIMl00KVtDSDJdQzQoW0NIMl1bT0hdKVtDSDJdW09IXQ==

> <s_epik_cmdline>
J2VwaWtfcHl0aG9uJywgJy1waCcsICc3LjAnLCAnLXRuJywgJzgnLCAnLW1hJywgJzIwMCcsICctbWV0YWxfYmluZGluZycsICctaW1hZScsICc8aW5maWxlLm1hZT4nLCAnLW9tYWUnLCAnPG91dGZpbGUubWFlPic=

> <r_lp_tautomer_probability>
1

> <r_epik_Ionization_Penalty>
0.0036237

> <r_epik_Ionization_Penalty_Charging>
0.0032725

> <r_epik_Ionization_Penalty_Neutral>
0.000351196

> <r_epik_State_Penalty>
-0

> <r_epik_Charging_Adjusted_Penalty>
0.0032725

> <i_epik_Tot_Q>
1

> <i_epik_Tot_abs_Q>
1

> <r_epik_Metal_State_Penalty>
-0

> <b_epik_Metal_Only>
0

> <s_lp_Force_Field>
OPLS_2005

> <r_lp_Energy>
76.3744

> <b_lp_Chiralities_Consistent>
1

> <s_lp_Variant>
AV-unprocessed.smi:215-1

> <Gold.Version>
5.8.1

> <Gold.Id.Protein>
6NUR|6NUR_protein|mol2

> <Gold.PLP.Fitness>
50.9599

> <Gold.PLP.PLP>
-33.4287

> <Gold.PLP.part.hbond>
-6.0000

> <Gold.PLP.part.metal>
0.0000

> <Gold.PLP.part.buried>
-3.5207

> <Gold.PLP.part.nonpolar>
-26.2329

> <Gold.PLP.part.repulsive>
0.4053

> <Gold.PLP.ligand.clash>
0.0000

> <Gold.PLP.ligand.torsion>
1.5889

> <Gold.PLP.Chemscore.Hbond>
5.6400

> <Gold.PLP.Chemscore.CHOScore>
1.0000

> <Gold.PLP.Chemscore.Metal>
0.0000

> <Gold.Chemscore.Hbonds>
donor molecule, donor type, donor heavy atom, donor atom, acceptor molecule, acceptor atom, score
      L1  H     4    59       P1 10957  2.00
      L1  H     8    41       P1 10186  0.21
      L1  H    27    56       P1  8028  0.99
      P1  H  7989  7998       L1    25  1.00
      P1  H 10785 10796       L1     8  1.00
      L1  C    19    47       P1  7957  1.00

> <Gold.PLP.Chemscore.Internal.Correction>
0.7891

> <Gold.Rescore>
     Score         DG    S(hbond)    S(metal)    S(lipo)     H(rot)  DE(clash)    DE(int)     intcor
     11.48     -15.63       4.03        0.00      77.08       4.81       1.01       3.14       ----

> <Gold.Chemscore.Fitness>
11.4808

> <Gold.Chemscore.DG>
-15.6330

> <Gold.Chemscore.ZeroCoef>
-5.4800

> <Gold.Chemscore.Hbond>
4.0263

> <Gold.Chemscore.Metal>
0.0000

> <Gold.Chemscore.Lipo>
77.0774

> <Gold.Chemscore.Internal_Hbond>
0.0000

> <Gold.Chemscore.DEClash>
1.0101

> <Gold.Chemscore.DEInternal>
3.1421

> <Gold.Chemscore.Rot>
4.8098

> <Gold.Chemscore.Internal.Correction>
   9.000000E+99

> <Gold.Chemscore.Hbonds>
donor molecule, donor type, donor heavy atom, donor atom, acceptor molecule, acceptor atom, score
      L1  H     4    59       P1 10957  0.34
      L1  H     8    41       P1 10186  0.20
      L1  H    27    56       P1  8028  0.93
      P1  H  7989  7998       L1    25  0.78
      P1  H 10785 10796       L1     8  0.63

> <Gold.Chemscore.Hbond.Weighted>
-13.4480

> <Gold.Chemscore.Metal.Weighted>
-0.0000

> <Gold.Chemscore.Lipo.Weighted>
-9.0181

> <Gold.Chemscore.Internal_Hbond.Weighted>
0.0000

> <Gold.Chemscore.DEClash.Weighted>
1.0101

> <Gold.Chemscore.DEInternal.Weighted>
3.1421

> <Gold.Chemscore.Rot.Weighted>
12.3130

> <Gold.Chemscore.Internal.Correction.Weighted>
   9.000000E+99

> <Gold.Protein.RotatedTorsions>
[ 6907 6896 6895 6894 ] final -122.52 input  -60.11 | X-H torsion
[ 7974 7965 7964 7962 ] final -169.61 input  175.53 | X-H torsion
[ 8008 7997 7996 7995 ] final -150.17 input   59.86 | X-H torsion
[ 10167 10162 10161 10158 ] final   76.09 input  -65.29 | X-H torsion
[ 10718 10713 10712 10709 ] final -112.88 input   66.30 | X-H torsion
[ 10763 10752 10751 10750 ] final  112.99 input  -60.55 | X-H torsion
[ 11005 11000 10999 10996 ] final  176.92 input  -57.11 | X-H torsion

> <Gold.Protein.ActiveResidues>
 VAL166  LYS551  ARG553  GLY616  TRP617  ASP618  TYR619  PRO620  LYS621  CYS622 
 ASP623  PHE694  ASN695  SER759  ASP760  ASP761  ALA762  ILE779  LEU786  VAL792 
 PHE793  MET794  SER795  GLU796  ALA797  LYS798  CYS799  TRP800  GLU811  SER814 

> <Gold.Protein.RotatedAtoms>
  150.8584  133.7681  159.3000 H   0  0  0  0  0  0  0  0  0  0  0  0  # atno 6907 bound_to 6896
  151.5331  135.1067  159.9917 H   0  0  0  0  0  0  0  0  0  0  0  0  # atno 6908 bound_to 6896
  152.4607  133.7773  159.6887 H   0  0  0  0  0  0  0  0  0  0  0  0  # atno 6909 bound_to 6896
  144.7182  140.2195  143.6318 H   0  0  0  0  0  0  0  0  0  0  0  0  # atno 7974 bound_to 7965
  155.6193  140.0680  157.2683 H   0  0  0  0  0  0  0  0  0  0  0  0  # atno 8008 bound_to 7997
  154.4233  140.1787  156.1403 H   0  0  0  0  0  0  0  0  0  0  0  0  # atno 8009 bound_to 7997
  156.0022  140.3335  155.6860 H   0  0  0  0  0  0  0  0  0  0  0  0  # atno 8010 bound_to 7997
  139.9960  144.5722  150.7777 H   0  0  0  0  0  0  0  0  0  0  0  0  # atno 10167 bound_to 10162
  156.0732  130.5943  150.8567 H   0  0  0  0  0  0  0  0  0  0  0  0  # atno 10718 bound_to 10713
  153.4859  135.3669  155.2466 H   0  0  0  0  0  0  0  0  0  0  0  0  # atno 10763 bound_to 10752
  154.8754  135.3965  154.3646 H   0  0  0  0  0  0  0  0  0  0  0  0  # atno 10764 bound_to 10752
  153.4257  135.7081  153.6329 H   0  0  0  0  0  0  0  0  0  0  0  0  # atno 10765 bound_to 10752
  140.3784  134.6968  157.4436 H   0  0  0  0  0  0  0  0  0  0  0  0  # atno 11005 bound_to 11000
  145.8515  139.2177  143.1769 LP  0  0  0  0  0  0  0  0  0  0  0  0  # atno 17320 bound_to 7965
  146.0256  140.8306  142.9901 LP  0  0  0  0  0  0  0  0  0  0  0  0  # atno 17321 bound_to 7965
  140.7437  143.2850  151.3490 LP  0  0  0  0  0  0  0  0  0  0  0  0  # atno 17342 bound_to 10162
  139.6306  144.0729  152.2472 LP  0  0  0  0  0  0  0  0  0  0  0  0  # atno 17343 bound_to 10162
  157.5814  131.0946  150.9265 LP  0  0  0  0  0  0  0  0  0  0  0  0  # atno 17370 bound_to 10713
  156.9459  130.5402  149.5281 LP  0  0  0  0  0  0  0  0  0  0  0  0  # atno 17371 bound_to 10713
  140.0497  134.6148  155.8877 LP  0  0  0  0  0  0  0  0  0  0  0  0  # atno 17394 bound_to 11000
  141.1931  133.6578  156.5535 LP  0  0  0  0  0  0  0  0  0  0  0  0  # atno 17395 bound_to 11000

$$$$
