#       Name:                AV-unprocessed.smi:2170
#       Creating user name   scv26
#       Creation time:       Fri Mar 27 12:01:59 2020


#       File generated by GOLD software.
#

@<TRIPOS>MOLECULE
AV-unprocessed.smi:2170
    50    51     1
SMALL
NO_CHARGES


@<TRIPOS>ATOM
      1 ****        -3.5812   2.7880   4.7125 C.3            1 S1                 0.0000
      2 ****        -2.9851   3.0904   3.3261 C.3            1 S1                 0.0000
      3 ****        -4.0119   3.7751   2.4058 C.3            1 S1                 0.0000
      4 ****        -2.4020   1.8719   2.7106 N.pl3          1 S1                 0.0000
      5 ****        -3.3708   0.8760   2.2095 C.3            1 S1                 0.0000
      6 ****        -0.9055   1.2663   3.3682 S.o2           1 S1                 0.0000
      7 ****        -0.1443   2.4342   3.8420 O.2            1 S1                 0.0000
      8 ****        -1.2852   0.2464   4.3598 O.2            1 S1                 0.0000
      9 ****        -0.3081   0.6498   1.9927 N.pl3          1 S1                -1.0000
     10 ****         0.9686  -0.0388   2.0288 C.3            1 S1                 0.0000
     11 ****         1.3442  -0.5996   0.6647 C.ar           1 S1                 0.0000
     12 ****         0.7677  -1.7957   0.1850 C.ar           1 S1                 0.0000
     13 ****         1.1472  -2.2777  -1.0832 C.ar           1 S1                 0.0000
     14 ****         2.0933  -1.5515  -1.8446 C.ar           1 S1                 0.0000
     15 ****         2.4822  -2.0142  -3.1209 N.3            1 S1                 0.0000
     16 ****         3.6364  -1.3806  -3.7562 C.3            1 S1                 0.0000
     17 ****         4.0792  -2.1871  -4.9884 C.3            1 S1                 0.0000
     18 ****         2.9797  -2.3408  -5.8796 O.3            1 S1                 0.0000
     19 ****         1.9065  -3.0567  -5.2774 C.3            1 S1                 0.0000
     20 ****         1.3884  -2.2873  -4.0500 C.3            1 S1                 0.0000
     21 ****         2.6522  -0.4079  -1.3774 N.ar           1 S1                 0.0000
     22 ****         2.2844   0.0539  -0.1624 C.ar           1 S1                 0.0000
     23 ****        -3.9397   3.7022   5.1860 H              1 S1                 0.0000
     24 ****        -2.8388   2.3488   5.3789 H              1 S1                 0.0000
     25 ****        -4.4244   2.1000   4.6517 H              1 S1                 0.0000
     26 ****        -2.1777   3.8094   3.4618 H              1 S1                 0.0000
     27 ****        -4.2866   4.7538   2.7999 H              1 S1                 0.0000
     28 ****        -4.9322   3.1977   2.3150 H              1 S1                 0.0000
     29 ****        -3.6050   3.9285   1.4057 H              1 S1                 0.0000
     30 ****        -3.9836   0.4919   3.0242 H              1 S1                 0.0000
     31 ****        -2.8610   0.0280   1.7540 H              1 S1                 0.0000
     32 ****        -4.0186   1.3027   1.4454 H              1 S1                 0.0000
     33 ****         1.7711   0.6189   2.3648 H              1 S1                 0.0000
     34 ****         0.9572  -0.8692   2.7357 H              1 S1                 0.0000
     35 ****         0.0442  -2.3494   0.7677 H              1 S1                 0.0000
     36 ****         0.7191  -3.1992  -1.4475 H              1 S1                 0.0000
     37 ****         3.3741  -0.3635  -4.0511 H              1 S1                 0.0000
     38 ****         4.4661  -1.3133  -3.0514 H              1 S1                 0.0000
     39 ****         4.8866  -1.6688  -5.5060 H              1 S1                 0.0000
     40 ****         4.4647  -3.1653  -4.6958 H              1 S1                 0.0000
     41 ****         1.1067  -3.1773  -6.0082 H              1 S1                 0.0000
     42 ****         2.2353  -4.0587  -4.9971 H              1 S1                 0.0000
     43 ****         0.5938  -2.8654  -3.5806 H              1 S1                 0.0000
     44 ****         0.9485  -1.3395  -4.3628 H              1 S1                 0.0000
     45 ****         2.7661   0.9729   0.1427 H              1 S1                 0.0000
     46 ****        -0.8113   0.7426   1.1336 LP             1 S1                 0.0000
     47 ****         2.8475  -2.9081  -2.8612 LP             1 S1                 0.0000
     48 ****         3.2871  -2.8397  -6.6898 LP             1 S1                 0.0000
     49 ****         2.6531  -1.4351  -6.1499 LP             1 S1                 0.0000
     50 ****         3.3273   0.0868  -1.9246 LP             1 S1                 0.0000
@<TRIPOS>BOND
    1    1    2 1     
    2    1   23 1     
    3    1   24 1     
    4    1   25 1     
    5    2    3 1     
    6    2    4 1     
    7    2   26 1     
    8    3   27 1     
    9    3   28 1     
   10    3   29 1     
   11    4    5 1     
   12    4    6 1     
   13    5   30 1     
   14    5   31 1     
   15    5   32 1     
   16    6    7 2     
   17    6    8 2     
   18    6    9 1     
   19    9   10 1     
   20   10   11 1     
   21   10   33 1     
   22   10   34 1     
   23   11   22 ar    
   24   11   12 ar    
   25   12   13 ar    
   26   12   35 1     
   27   13   14 ar    
   28   13   36 1     
   29   14   15 1     
   30   14   21 ar    
   31   15   20 1     
   32   15   16 1     
   33   16   17 1     
   34   16   37 1     
   35   16   38 1     
   36   17   18 1     
   37   17   39 1     
   38   17   40 1     
   39   18   19 1     
   40   19   20 1     
   41   19   41 1     
   42   19   42 1     
   43   20   43 1     
   44   20   44 1     
   45   21   22 ar    
   46   22   45 1     
   47    9   46 1     
   48   15   47 1     
   49   18   48 1     
   50   18   49 1     
   51   21   50 1     
@<TRIPOS>SUBSTRUCTURE
      1 S1             1
@<TRIPOS>SET
LONE_PAIRS      STATIC     ATOMS    <user>   **** ""
7 7 8 46 47 48 49 50
ATOM$BLUE        STATIC     ATOMS    COLORGROUP SYSTEM
7 7 8 46 47 48 49 50
