AV-unprocessed.smi:703|AV-procd|sdf|3432|dock2
  -GOLD-   22720 0423D 1   1.00000     0.00000
 Structure written by MMmdl.
 38 39  0  0  0  0  0  0  0  0  2 V2000
  145.2070  135.8387  151.0592 C   0  0  0  0  0  0  0  0  0  0  0  0
  145.3116  136.3349  152.5075 C   0  0  0  0  0  0  0  0  0  0  0  0
  146.5795  137.0605  152.7555 N   0  3  1  0  0  0  0  0  0  0  0  0
  146.5656  138.4980  152.3866 C   0  0  0  0  0  0  0  0  0  0  0  0
  147.0552  139.2775  153.6138 C   0  0  2  0  0  0  0  0  0  0  0  0
  147.7747  140.5998  153.2998 C   0  0  0  0  0  0  0  0  0  0  0  0
  147.8389  138.2432  154.4297 C   0  0  2  0  0  0  0  0  0  0  0  0
  149.2326  138.1229  153.9813 N   0  0  0  0  0  0  0  0  0  0  0  0
  150.4761  137.9802  155.1692 S   0  0  0  0  0  0  0  0  0  0  0  0
  149.8465  138.0718  156.4955 O   0  0  0  0  0  0  0  0  0  0  0  0
  151.2847  136.8032  154.8172 O   0  0  0  0  0  0  0  0  0  0  0  0
  151.4723  139.5039  154.8898 C   0  0  0  0  0  0  0  0  0  0  0  0
  151.5984  140.2608  156.1808 C   0  0  0  0  0  0  0  0  0  0  0  0
  150.9323  141.4544  156.5744 C   0  0  0  0  0  0  0  0  0  0  0  0
  151.4229  141.6947  157.8256 C   0  0  0  0  0  0  0  0  0  0  0  0
  152.3118  140.7325  158.1802 O   0  0  0  0  0  0  0  0  0  0  0  0
  152.4158  139.8202  157.1240 N   0  0  0  0  0  0  0  0  0  0  0  0
  147.0776  136.9476  154.1456 C   0  0  0  0  0  0  0  0  0  0  0  0
  144.2870  135.2728  150.9115 H   0  0  0  0  0  0  0  0  0  0  0  0
  146.0415  135.1842  150.8058 H   0  0  0  0  0  0  0  0  0  0  0  0
  145.2003  136.6648  150.3478 H   0  0  0  0  0  0  0  0  0  0  0  0
  144.4622  136.9716  152.7586 H   0  0  0  0  0  0  0  0  0  0  0  0
  145.2650  135.4718  153.1733 H   0  0  0  0  0  0  0  0  0  0  0  0
  147.2445  138.6340  151.5439 H   0  0  0  0  0  0  0  0  0  0  0  0
  145.5802  138.8454  152.0729 H   0  0  0  0  0  0  0  0  0  0  0  0
  146.1700  139.5271  154.2011 H   0  0  0  0  0  0  0  0  0  0  0  0
  148.6687  140.4444  152.6952 H   0  0  0  0  0  0  0  0  0  0  0  0
  148.0748  141.1082  154.2161 H   0  0  0  0  0  0  0  0  0  0  0  0
  147.1200  141.2749  152.7486 H   0  0  0  0  0  0  0  0  0  0  0  0
  147.8198  138.4754  155.4955 H   0  0  0  0  0  0  0  0  0  0  0  0
  149.3315  137.4048  153.2642 H   0  0  0  0  0  0  0  0  0  0  0  0
  152.4509  139.2147  154.5073 H   0  0  0  0  0  0  0  0  0  0  0  0
  150.9773  140.1021  154.1239 H   0  0  0  0  0  0  0  0  0  0  0  0
  150.2135  142.0434  156.0243 H   0  0  0  0  0  0  0  0  0  0  0  0
  151.2462  142.4704  158.5558 H   0  0  0  0  0  0  0  0  0  0  0  0
  146.2297  136.8799  154.8297 H   0  0  0  0  0  0  0  0  0  0  0  0
  147.6832  136.0512  154.2857 H   0  0  0  0  0  0  0  0  0  0  0  0
  147.2834  136.6298  152.1731 H   0  0  0  0  0  0  0  0  0  0  0  0
  1  2  1  0  0  0  0
  1 19  1  0  0  0  0
  1 20  1  0  0  0  0
  1 21  1  0  0  0  0
  2  3  1  0  0  0  0
  2 22  1  0  0  0  0
  2 23  1  0  0  0  0
  3 18  1  0  0  0  0
  3  4  1  0  0  0  0
  3 38  1  0  0  0  0
  4  5  1  0  0  0  0
  4 24  1  0  0  0  0
  4 25  1  0  0  0  0
  5  6  1  0  0  0  0
  5  7  1  0  0  0  0
  5 26  1  0  0  0  0
  6 27  1  0  0  0  0
  6 28  1  0  0  0  0
  6 29  1  0  0  0  0
  7  8  1  0  0  0  0
  7 18  1  0  0  0  0
  7 30  1  0  0  0  0
  8  9  1  0  0  0  0
  8 31  1  0  0  0  0
  9 10  2  0  0  0  0
  9 11  2  0  0  0  0
  9 12  1  0  0  0  0
 12 13  1  0  0  0  0
 12 32  1  0  0  0  0
 12 33  1  0  0  0  0
 13 17  2  0  0  0  0
 13 14  1  0  0  0  0
 14 15  2  0  0  0  0
 14 34  1  0  0  0  0
 15 16  1  0  0  0  0
 15 35  1  0  0  0  0
 16 17  1  0  0  0  0
 18 36  1  0  0  0  0
 18 37  1  0  0  0  0
M  CHG  1   3   1
M  END
> <s_m_source_file>
AV-unprocessed.smi

> <i_m_source_file_index>
703

> <i_lp_mmshare_version>
43012

> <i_f3d_flags>
0

> <s_epik_input>
W0NIM11bQ0gyXU4xW0NIMl1bQ0BASF0oW0NIM10pW0NASF0oW0NIMl0xKVtOSF1TKD1PKSg9TylbQ0gyXWMyW2NIXVtjSF1vbjI=

> <s_epik_cmdline>
J2VwaWtfcHl0aG9uJywgJy1waCcsICc3LjAnLCAnLXRuJywgJzgnLCAnLW1hJywgJzIwMCcsICctbWV0YWxfYmluZGluZycsICctaW1hZScsICc8aW5maWxlLm1hZT4nLCAnLW9tYWUnLCAnPG91dGZpbGUubWFlPic=

> <r_epik_Ionization_Penalty>
0.00324529

> <r_epik_Ionization_Penalty_Charging>
0.0019384

> <r_epik_Ionization_Penalty_Neutral>
0.00130689

> <r_epik_State_Penalty>
0.00218682

> <r_epik_Charging_Adjusted_Penalty>
0.00412522

> <i_epik_Tot_Q>
1

> <i_epik_Tot_abs_Q>
1

> <r_epik_Metal_State_Penalty>
0.310831

> <b_epik_Metal_Only>
0

> <s_lp_Force_Field>
OPLS_2005

> <r_lp_Energy>
21.5385

> <b_lp_Chiralities_Consistent>
1

> <s_lp_Variant>
AV-unprocessed.smi:703-7

> <Gold.Version>
5.8.1

> <Gold.Id.Protein>
6NUR|6NUR_protein|mol2

> <Gold.PLP.Fitness>
39.1650

> <Gold.PLP.PLP>
-26.4616

> <Gold.PLP.part.hbond>
-4.0142

> <Gold.PLP.part.metal>
0.0000

> <Gold.PLP.part.buried>
1.7290

> <Gold.PLP.part.nonpolar>
-24.6508

> <Gold.PLP.part.repulsive>
0.1879

> <Gold.PLP.ligand.clash>
0.0000

> <Gold.PLP.ligand.torsion>
1.2575

> <Gold.PLP.Chemscore.Hbond>
5.0000

> <Gold.PLP.Chemscore.CHOScore>
0.0000

> <Gold.PLP.Chemscore.Metal>
0.0000

> <Gold.Chemscore.Hbonds>
donor molecule, donor type, donor heavy atom, donor atom, acceptor molecule, acceptor atom, score
      L1  H     3    38       P1  7948  2.00
      L1  H     8    31       P1  7948  1.00
      P1  H  7997  8010       L1    17  0.94
      P1  H 10752 10765       L1    11  0.96

> <Gold.PLP.Chemscore.Internal.Correction>
0.2183

> <Gold.Rescore>
     Score         DG    S(hbond)    S(metal)    S(lipo)     H(rot)  DE(clash)    DE(int)     intcor
     17.50     -20.47       3.66        0.00      66.10       1.94       1.60       1.38       ----

> <Gold.Chemscore.Fitness>
17.5007

> <Gold.Chemscore.DG>
-20.4740

> <Gold.Chemscore.ZeroCoef>
-5.4800

> <Gold.Chemscore.Hbond>
3.6609

> <Gold.Chemscore.Metal>
0.0000

> <Gold.Chemscore.Lipo>
66.0957

> <Gold.Chemscore.Internal_Hbond>
0.0000

> <Gold.Chemscore.DEClash>
1.5959

> <Gold.Chemscore.DEInternal>
1.3773

> <Gold.Chemscore.Rot>
1.9400

> <Gold.Chemscore.Internal.Correction>
   9.000000E+99

> <Gold.Chemscore.Hbonds>
donor molecule, donor type, donor heavy atom, donor atom, acceptor molecule, acceptor atom, score
      L1  H     3    38       P1  7948  0.95
      L1  H     8    31       P1  7948  0.97
      P1  H  7997  8010       L1    17  0.20
      P1  H 10752 10765       L1    11  0.90

> <Gold.Chemscore.Hbond.Weighted>
-12.2273

> <Gold.Chemscore.Metal.Weighted>
-0.0000

> <Gold.Chemscore.Lipo.Weighted>
-7.7332

> <Gold.Chemscore.Internal_Hbond.Weighted>
0.0000

> <Gold.Chemscore.DEClash.Weighted>
1.5959

> <Gold.Chemscore.DEInternal.Weighted>
1.3773

> <Gold.Chemscore.Rot.Weighted>
4.9665

> <Gold.Chemscore.Internal.Correction.Weighted>
   9.000000E+99

> <Gold.Protein.RotatedTorsions>
[ 6907 6896 6895 6894 ] final  -53.41 input  -60.11 | X-H torsion
[ 7974 7965 7964 7962 ] final    2.77 input  175.53 | X-H torsion
[ 8008 7997 7996 7995 ] final   70.80 input   59.86 | X-H torsion
[ 10167 10162 10161 10158 ] final -142.73 input  -65.29 | X-H torsion
[ 10718 10713 10712 10709 ] final  -14.45 input   66.30 | X-H torsion
[ 10763 10752 10751 10750 ] final  175.25 input  -60.55 | X-H torsion
[ 11005 11000 10999 10996 ] final  151.77 input  -57.11 | X-H torsion

> <Gold.Protein.ActiveResidues>
 VAL166  LYS551  ARG553  GLY616  TRP617  ASP618  TYR619  PRO620  LYS621  CYS622 
 ASP623  PHE694  ASN695  SER759  ASP760  ASP761  ALA762  ILE779  LEU786  VAL792 
 PHE793  MET794  SER795  GLU796  ALA797  LYS798  CYS799  TRP800  GLU811  SER814 

> <Gold.Protein.RotatedAtoms>
  150.8430  134.7728  159.6947 H   0  0  0  0  0  0  0  0  0  0  0  0  # atno 6907 bound_to 6896
  152.4513  134.5384  159.9841 H   0  0  0  0  0  0  0  0  0  0  0  0  # atno 6908 bound_to 6896
  151.5520  133.3378  159.2990 H   0  0  0  0  0  0  0  0  0  0  0  0  # atno 6909 bound_to 6896
  146.2444  140.0785  142.8358 H   0  0  0  0  0  0  0  0  0  0  0  0  # atno 7974 bound_to 7965
  155.7442  140.3490  155.5119 H   0  0  0  0  0  0  0  0  0  0  0  0  # atno 8008 bound_to 7997
  155.9065  140.1043  157.1332 H   0  0  0  0  0  0  0  0  0  0  0  0  # atno 8009 bound_to 7997
  154.4050  140.1276  156.4490 H   0  0  0  0  0  0  0  0  0  0  0  0  # atno 8010 bound_to 7997
  139.8061  143.7767  152.2661 H   0  0  0  0  0  0  0  0  0  0  0  0  # atno 10167 bound_to 10162
  156.6158  130.4862  149.6184 H   0  0  0  0  0  0  0  0  0  0  0  0  # atno 10718 bound_to 10713
  154.4650  135.2769  155.1685 H   0  0  0  0  0  0  0  0  0  0  0  0  # atno 10763 bound_to 10752
  154.3457  135.6160  153.5621 H   0  0  0  0  0  0  0  0  0  0  0  0  # atno 10764 bound_to 10752
  152.9858  135.5799  154.5020 H   0  0  0  0  0  0  0  0  0  0  0  0  # atno 10765 bound_to 10752
  140.1248  134.8840  157.2123 H   0  0  0  0  0  0  0  0  0  0  0  0  # atno 11005 bound_to 11000
  145.0753  140.9184  143.4857 LP  0  0  0  0  0  0  0  0  0  0  0  0  # atno 17320 bound_to 7965
  145.0927  139.2878  143.5726 LP  0  0  0  0  0  0  0  0  0  0  0  0  # atno 17321 bound_to 7965
  139.7902  144.7413  150.9966 LP  0  0  0  0  0  0  0  0  0  0  0  0  # atno 17342 bound_to 10162
  140.7819  143.4450  151.0495 LP  0  0  0  0  0  0  0  0  0  0  0  0  # atno 17343 bound_to 10162
  156.2352  130.6818  151.1503 LP  0  0  0  0  0  0  0  0  0  0  0  0  # atno 17370 bound_to 10713
  157.7242  131.0661  150.6007 LP  0  0  0  0  0  0  0  0  0  0  0  0  # atno 17371 bound_to 10713
  140.2918  134.3232  155.7313 LP  0  0  0  0  0  0  0  0  0  0  0  0  # atno 17394 bound_to 11000
  141.2159  133.7539  156.9513 LP  0  0  0  0  0  0  0  0  0  0  0  0  # atno 17395 bound_to 11000

$$$$
