AV-unprocessed.smi:485|AV-procd|sdf|2692|dock1
  -GOLD-   2262023123D 1   1.00000     0.00000
 Structure written by MMmdl.
 36 38  0  0  0  0  0  0  0  0  1 V2000
  153.3845  139.5865  154.6826 O   0  0  0  0  0  0  0  0  0  0  0  0
  152.4555  139.2748  155.6986 C   0  0  0  0  0  0  0  0  0  0  0  0
  151.1224  139.9247  155.4835 C   0  0  0  0  0  0  0  0  0  0  0  0
  150.4806  139.8471  154.3173 N   0  0  0  0  0  0  0  0  0  0  0  0
  149.3199  140.5549  154.5614 C   0  0  0  0  0  0  0  0  0  0  0  0
  148.2209  140.8349  153.7181 C   0  0  0  0  0  0  0  0  0  0  0  0
  147.1294  141.5903  154.1946 C   0  0  0  0  0  0  0  0  0  0  0  0
  147.1210  142.0755  155.5185 C   0  0  0  0  0  0  0  0  0  0  0  0
  148.2057  141.8074  156.3756 C   0  0  0  0  0  0  0  0  0  0  0  0
  149.2929  141.0526  155.8950 C   0  0  0  0  0  0  0  0  0  0  0  0
  150.4887  140.6207  156.4609 N   0  0  0  0  0  0  0  0  0  0  0  0
  150.9396  140.8712  157.8233 C   0  0  0  0  0  0  0  0  0  0  0  0
  151.6835  142.2135  157.9732 C   0  0  1  0  0  0  0  0  0  0  0  0
  150.8578  143.2788  157.5425 O   0  0  0  0  0  0  0  0  0  0  0  0
  152.1849  142.4040  159.3963 C   0  0  0  0  0  0  0  0  0  0  0  0
  153.0592  141.4654  159.9888 C   0  0  0  0  0  0  0  0  0  0  0  0
  153.5256  141.6612  161.3035 C   0  0  0  0  0  0  0  0  0  0  0  0
  153.1253  142.7981  162.0314 C   0  0  0  0  0  0  0  0  0  0  0  0
  152.2583  143.7395  161.4442 C   0  0  0  0  0  0  0  0  0  0  0  0
  151.7906  143.5434  160.1302 C   0  0  0  0  0  0  0  0  0  0  0  0
  153.2929  138.9531  153.9876 H   0  0  0  0  0  0  0  0  0  0  0  0
  152.3381  138.1937  155.7618 H   0  0  0  0  0  0  0  0  0  0  0  0
  152.8642  139.6004  156.6557 H   0  0  0  0  0  0  0  0  0  0  0  0
  148.2178  140.4674  152.7026 H   0  0  0  0  0  0  0  0  0  0  0  0
  146.2950  141.7988  153.5410 H   0  0  0  0  0  0  0  0  0  0  0  0
  146.2814  142.6539  155.8759 H   0  0  0  0  0  0  0  0  0  0  0  0
  148.2044  142.1798  157.3893 H   0  0  0  0  0  0  0  0  0  0  0  0
  150.0742  140.8429  158.4868 H   0  0  0  0  0  0  0  0  0  0  0  0
  151.5819  140.0474  158.1354 H   0  0  0  0  0  0  0  0  0  0  0  0
  152.5495  142.2162  157.3111 H   0  0  0  0  0  0  0  0  0  0  0  0
  149.9903  143.1454  157.8929 H   0  0  0  0  0  0  0  0  0  0  0  0
  153.3788  140.5937  159.4365 H   0  0  0  0  0  0  0  0  0  0  0  0
  154.1923  140.9401  161.7529 H   0  0  0  0  0  0  0  0  0  0  0  0
  153.4848  142.9493  163.0386 H   0  0  0  0  0  0  0  0  0  0  0  0
  151.9535  144.6133  162.0012 H   0  0  0  0  0  0  0  0  0  0  0  0
  151.1300  144.2738  159.6862 H   0  0  0  0  0  0  0  0  0  0  0  0
  1  2  1  0  0  0  0
  1 21  1  0  0  0  0
  2  3  1  0  0  0  0
  2 22  1  0  0  0  0
  2 23  1  0  0  0  0
  3 11  1  0  0  0  0
  3  4  2  0  0  0  0
  4  5  1  0  0  0  0
  5 10  2  0  0  0  0
  5  6  1  0  0  0  0
  6  7  2  0  0  0  0
  6 24  1  0  0  0  0
  7  8  1  0  0  0  0
  7 25  1  0  0  0  0
  8  9  2  0  0  0  0
  8 26  1  0  0  0  0
  9 10  1  0  0  0  0
  9 27  1  0  0  0  0
 10 11  1  0  0  0  0
 11 12  1  0  0  0  0
 12 13  1  0  0  0  0
 12 28  1  0  0  0  0
 12 29  1  0  0  0  0
 13 14  1  0  0  0  0
 13 15  1  0  0  0  0
 13 30  1  0  0  0  0
 14 31  1  0  0  0  0
 15 20  1  0  0  0  0
 15 16  2  0  0  0  0
 16 17  1  0  0  0  0
 16 32  1  0  0  0  0
 17 18  2  0  0  0  0
 17 33  1  0  0  0  0
 18 19  1  0  0  0  0
 18 34  1  0  0  0  0
 19 20  2  0  0  0  0
 19 35  1  0  0  0  0
 20 36  1  0  0  0  0
M  END
> <s_m_source_file>
AV-unprocessed.smi

> <i_m_source_file_index>
485

> <i_lp_mmshare_version>
43012

> <i_f3d_flags>
0

> <s_epik_input>
W2NIXTFbY0hdW2NIXVtjSF1jKGMxMiluKGMobjIpW0NIMl1bT0hdKVtDSDJdW0NASF0oW09IXSljM1tjSF1bY0hdW2NIXVtjSF1bY0hdMw==

> <s_epik_cmdline>
J2VwaWtfcHl0aG9uJywgJy1waCcsICc3LjAnLCAnLXRuJywgJzgnLCAnLW1hJywgJzIwMCcsICctbWV0YWxfYmluZGluZycsICctaW1hZScsICc8aW5maWxlLm1hZT4nLCAnLW9tYWUnLCAnPG91dGZpbGUubWFlPic=

> <r_epik_Ionization_Penalty>
0.0634722

> <r_epik_Ionization_Penalty_Charging>
0

> <r_epik_Ionization_Penalty_Neutral>
0.0634722

> <r_epik_State_Penalty>
0.0551572

> <r_epik_Charging_Adjusted_Penalty>
0.0551572

> <i_epik_Tot_Q>
0

> <i_epik_Tot_abs_Q>
0

> <r_epik_Metal_State_Penalty>
5.78034e-05

> <b_epik_Metal_Only>
0

> <s_lp_Force_Field>
OPLS_2005

> <r_lp_Energy>
11.9135

> <b_lp_Chiralities_Consistent>
1

> <s_lp_Variant>
AV-unprocessed.smi:485-2

> <Gold.Version>
5.8.1

> <Gold.Id.Protein>
6NUR|6NUR_protein|mol2

> <Gold.PLP.Fitness>
52.2316

> <Gold.PLP.PLP>
-47.8761

> <Gold.PLP.part.hbond>
-3.9683

> <Gold.PLP.part.metal>
0.0000

> <Gold.PLP.part.buried>
-0.7021

> <Gold.PLP.part.nonpolar>
-42.0133

> <Gold.PLP.part.repulsive>
0.1279

> <Gold.PLP.ligand.clash>
0.0000

> <Gold.PLP.ligand.torsion>
0.4714

> <Gold.PLP.Chemscore.Hbond>
1.7500

> <Gold.PLP.Chemscore.CHOScore>
0.0000

> <Gold.PLP.Chemscore.Metal>
0.0000

> <Gold.Chemscore.Hbonds>
donor molecule, donor type, donor heavy atom, donor atom, acceptor molecule, acceptor atom, score
      P1  H  7989  7998       L1     4  0.70
      P1  H  7997  8009       L1     1  1.00

> <Gold.PLP.Chemscore.Internal.Correction>
0.0483

> <Gold.Rescore>
     Score         DG    S(hbond)    S(metal)    S(lipo)     H(rot)  DE(clash)    DE(int)     intcor
     15.27     -15.86       0.95        0.00     118.89       2.62       0.14       0.45       ----

> <Gold.Chemscore.Fitness>
15.2733

> <Gold.Chemscore.DG>
-15.8631

> <Gold.Chemscore.ZeroCoef>
-5.4800

> <Gold.Chemscore.Hbond>
0.9546

> <Gold.Chemscore.Metal>
0.0000

> <Gold.Chemscore.Lipo>
118.8916

> <Gold.Chemscore.Internal_Hbond>
0.0000

> <Gold.Chemscore.DEClash>
0.1407

> <Gold.Chemscore.DEInternal>
0.4491

> <Gold.Chemscore.Rot>
2.6232

> <Gold.Chemscore.Internal.Correction>
   9.000000E+99

> <Gold.Chemscore.Hbonds>
donor molecule, donor type, donor heavy atom, donor atom, acceptor molecule, acceptor atom, score
      P1  H  7989  7998       L1     4  0.05
      P1  H  7997  8009       L1     1  0.26

> <Gold.Chemscore.Hbond.Weighted>
-3.1883

> <Gold.Chemscore.Metal.Weighted>
-0.0000

> <Gold.Chemscore.Lipo.Weighted>
-13.9103

> <Gold.Chemscore.Internal_Hbond.Weighted>
0.0000

> <Gold.Chemscore.DEClash.Weighted>
0.1407

> <Gold.Chemscore.DEInternal.Weighted>
0.4491

> <Gold.Chemscore.Rot.Weighted>
6.7154

> <Gold.Chemscore.Internal.Correction.Weighted>
   9.000000E+99

> <Gold.Protein.RotatedTorsions>
[ 6907 6896 6895 6894 ] final -104.75 input  -60.11 | X-H torsion
[ 7974 7965 7964 7962 ] final  -83.38 input  175.53 | X-H torsion
[ 8008 7997 7996 7995 ] final -116.12 input   59.86 | X-H torsion
[ 10167 10162 10161 10158 ] final  149.86 input  -65.29 | X-H torsion
[ 10718 10713 10712 10709 ] final  145.59 input   66.30 | X-H torsion
[ 10763 10752 10751 10750 ] final   50.37 input  -60.55 | X-H torsion
[ 11005 11000 10999 10996 ] final   10.10 input  -57.11 | X-H torsion

> <Gold.Protein.ActiveResidues>
 VAL166  LYS551  ARG553  GLY616  TRP617  ASP618  TYR619  PRO620  LYS621  CYS622 
 ASP623  PHE694  ASN695  SER759  ASP760  ASP761  ALA762  ILE779  LEU786  VAL792 
 PHE793  MET794  SER795  GLU796  ALA797  LYS798  CYS799  TRP800  GLU811  SER814 

> <Gold.Protein.RotatedAtoms>
  150.7302  134.0230  159.3707 H   0  0  0  0  0  0  0  0  0  0  0  0  # atno 6907 bound_to 6896
  151.8196  135.0654  160.0432 H   0  0  0  0  0  0  0  0  0  0  0  0  # atno 6908 bound_to 6896
  152.3013  133.5622  159.5657 H   0  0  0  0  0  0  0  0  0  0  0  0  # atno 6909 bound_to 6896
  145.5208  140.9531  143.1656 H   0  0  0  0  0  0  0  0  0  0  0  0  # atno 7974 bound_to 7965
  155.0627  140.0393  157.2582 H   0  0  0  0  0  0  0  0  0  0  0  0  # atno 8008 bound_to 7997
  154.7046  140.2680  155.6662 H   0  0  0  0  0  0  0  0  0  0  0  0  # atno 8009 bound_to 7997
  156.2771  140.2734  156.1668 H   0  0  0  0  0  0  0  0  0  0  0  0  # atno 8010 bound_to 7997
  139.4856  144.5568  151.7303 H   0  0  0  0  0  0  0  0  0  0  0  0  # atno 10167 bound_to 10162
  157.3434  131.0939  151.1063 H   0  0  0  0  0  0  0  0  0  0  0  0  # atno 10718 bound_to 10713
  152.9785  135.5881  154.4242 H   0  0  0  0  0  0  0  0  0  0  0  0  # atno 10763 bound_to 10752
  154.3862  135.2767  155.2184 H   0  0  0  0  0  0  0  0  0  0  0  0  # atno 10764 bound_to 10752
  154.4075  135.6089  153.5988 H   0  0  0  0  0  0  0  0  0  0  0  0  # atno 10765 bound_to 10752
  140.5183  134.0584  155.7837 H   0  0  0  0  0  0  0  0  0  0  0  0  # atno 11005 bound_to 11000
  144.7677  139.6806  143.7208 LP  0  0  0  0  0  0  0  0  0  0  0  0  # atno 17320 bound_to 7965
  146.2107  139.5462  142.9683 LP  0  0  0  0  0  0  0  0  0  0  0  0  # atno 17321 bound_to 7965
  140.5131  144.0995  150.6000 LP  0  0  0  0  0  0  0  0  0  0  0  0  # atno 17342 bound_to 10162
  140.3927  143.2744  152.0041 LP  0  0  0  0  0  0  0  0  0  0  0  0  # atno 17343 bound_to 10162
  157.2266  130.6506  149.5832 LP  0  0  0  0  0  0  0  0  0  0  0  0  # atno 17370 bound_to 10713
  155.9711  130.4612  150.6101 LP  0  0  0  0  0  0  0  0  0  0  0  0  # atno 17371 bound_to 10713
  141.1348  133.9240  157.2458 LP  0  0  0  0  0  0  0  0  0  0  0  0  # atno 17394 bound_to 11000
  139.9620  135.0152  156.9286 LP  0  0  0  0  0  0  0  0  0  0  0  0  # atno 17395 bound_to 11000

$$$$
