#       Name:                AV-unprocessed.smi:2397
#       Creating user name   scv26
#       Creation time:       Fri Mar 27 13:12:42 2020


#       File generated by GOLD software.
#

@<TRIPOS>MOLECULE
AV-unprocessed.smi:2397
    43    44     1
SMALL
NO_CHARGES


@<TRIPOS>ATOM
      1 ****        -2.8111   2.2185   0.5807 C.3            1 S1                 0.0000
      2 ****        -2.7368   1.5263  -0.7890 C.3            1 S1                 0.0000
      3 ****        -3.6465   0.2924  -0.8893 C.3            1 S1                 0.0000
      4 ****        -1.3023   1.2093  -1.1850 C.ar           1 S1                 0.0000
      5 ****        -0.7726   1.8125  -2.2608 N.pl3          1 S1                 1.0000
      6 ****         0.5070   1.5454  -2.6176 C.ar           1 S1                 0.0000
      7 ****         1.2832   0.6446  -1.8651 C.ar           1 S1                 0.0000
      8 ****         0.6722   0.0497  -0.7444 C.ar           1 S1                 0.0000
      9 ****         1.3921  -0.8670   0.0523 N.3            1 S1                 0.0000
     10 ****         1.5686  -2.1341  -0.6567 C.3            1 S1                 0.0000
     11 ****         2.4798  -3.0847   0.1312 C.3            1 S1                 0.0000
     12 ****         1.9348  -3.2749   1.4280 O.3            1 S1                 0.0000
     13 ****         1.9053  -2.0579   2.1621 C.3            1 S1                 0.0000
     14 ****         0.9955  -1.0171   1.4662 C.3            1 S1                 0.0000
     15 ****         1.0228   0.2676   2.3206 C.2            1 S1                 0.0000
     16 ****         1.8458   1.2569   1.9570 N.am           1 S1                 0.0000
     17 ****         0.2852   0.3683   3.2980 O.2            1 S1                 0.0000
     18 ****        -0.6123   0.3393  -0.4355 N.ar           1 S1                 0.0000
     19 ****        -2.2122   3.1296   0.5922 H              1 S1                 0.0000
     20 ****        -2.4446   1.5690   1.3767 H              1 S1                 0.0000
     21 ****        -3.8368   2.4950   0.8259 H              1 S1                 0.0000
     22 ****        -3.1157   2.2457  -1.5169 H              1 S1                 0.0000
     23 ****        -3.6237  -0.1313  -1.8938 H              1 S1                 0.0000
     24 ****        -4.6820   0.5487  -0.6632 H              1 S1                 0.0000
     25 ****        -3.3396  -0.4872  -0.1912 H              1 S1                 0.0000
     26 ****         0.8694   2.0647  -3.4926 H              1 S1                 0.0000
     27 ****         2.3064   0.4270  -2.1357 H              1 S1                 0.0000
     28 ****         0.5935  -2.6008  -0.8081 H              1 S1                 0.0000
     29 ****         1.9996  -1.9716  -1.6452 H              1 S1                 0.0000
     30 ****         2.5413  -4.0496  -0.3722 H              1 S1                 0.0000
     31 ****         3.4966  -2.6936   0.1971 H              1 S1                 0.0000
     32 ****         1.5361  -2.2769   3.1649 H              1 S1                 0.0000
     33 ****         2.9228  -1.6792   2.2792 H              1 S1                 0.0000
     34 ****        -0.0240  -1.4072   1.4886 H              1 S1                 0.0000
     35 ****         1.8670   2.1158   2.4871 H              1 S1                 0.0000
     36 ****         2.4286   1.1479   1.1392 H              1 S1                 0.0000
     37 ****        -1.3235   2.4710  -2.8121 H              1 S1                 0.0000
     38 ****         2.2852  -0.4344   0.1760 LP             1 S1                 0.0000
     39 ****         2.4954  -3.9394   1.9222 LP             1 S1                 0.0000
     40 ****         1.0022  -3.6249   1.3407 LP             1 S1                 0.0000
     41 ****        -0.3313  -0.3814   3.5385 LP             1 S1                 0.0000
     42 ****         0.3014   1.2000   3.8530 LP             1 S1                 0.0000
     43 ****        -1.0471  -0.0961   0.3527 LP             1 S1                 0.0000
@<TRIPOS>BOND
    1    1    2 1     
    2    1   19 1     
    3    1   20 1     
    4    1   21 1     
    5    2    3 1     
    6    2    4 1     
    7    2   22 1     
    8    3   23 1     
    9    3   24 1     
   10    3   25 1     
   11    4   18 ar    
   12    4    5 ar    
   13    5    6 ar    
   14    5   37 1     
   15    6    7 ar    
   16    6   26 1     
   17    7    8 ar    
   18    7   27 1     
   19    8    9 1     
   20    8   18 ar    
   21    9   14 1     
   22    9   10 1     
   23   10   11 1     
   24   10   28 1     
   25   10   29 1     
   26   11   12 1     
   27   11   30 1     
   28   11   31 1     
   29   12   13 1     
   30   13   14 1     
   31   13   32 1     
   32   13   33 1     
   33   14   15 1     
   34   14   34 1     
   35   15   16 am    
   36   15   17 2     
   37   16   35 1     
   38   16   36 1     
   39    9   38 1     
   40   12   39 1     
   41   12   40 1     
   42   17   41 1     
   43   17   42 1     
   44   18   43 1     
@<TRIPOS>SUBSTRUCTURE
      1 S1             1
@<TRIPOS>SET
LONE_PAIRS      STATIC     ATOMS    <user>   **** ""
6 38 39 40 41 42 43
DONOR_HYDROGENS      STATIC     ATOMS    <user>   **** ""
3 37 35 36
ATOM$BLUE        STATIC     ATOMS    COLORGROUP SYSTEM
6 38 39 40 41 42 43
ATOM$RED        STATIC     ATOMS    COLORGROUP SYSTEM
3 37 35 36
