AV-unprocessed.smi:1643|AV-procd|sdf|6578|dock2
  -GOLD-   22720 7263D 1   1.00000     0.00000
 Structure written by MMmdl.
 55 57  0  0  0  0  0  0  0  0  3 V2000
  150.1436  141.3800  156.3268 C   0  0  0  0  0  0  0  0  0  0  0  0
  149.8426  140.2281  155.3640 C   0  0  0  0  0  0  0  0  0  0  0  0
  150.4146  139.1543  155.5509 O   0  0  0  0  0  0  0  0  0  0  0  0
  148.9579  140.4197  154.3543 N   0  0  0  0  0  0  0  0  0  0  0  0
  148.3670  141.7413  154.0965 C   0  0  0  0  0  0  0  0  0  0  0  0
  146.9338  141.8661  154.6624 C   0  0  0  0  0  0  0  0  0  0  0  0
  146.2587  140.5413  155.0855 C   0  0  0  0  0  0  0  0  0  0  0  0
  146.0152  139.5680  153.9803 N   0  3  2  0  0  0  0  0  0  0  0  0
  145.6385  138.2164  154.4775 C   0  0  0  0  0  0  0  0  0  0  0  0
  144.8943  137.3615  153.4303 C   0  0  2  0  0  0  0  0  0  0  0  0
  143.7787  136.7807  154.0739 O   0  0  0  0  0  0  0  0  0  0  0  0
  145.7833  136.2536  152.8256 C   0  0  0  0  0  0  0  0  0  0  0  0
  145.0227  135.2556  152.0590 N   0  0  0  0  0  0  0  0  0  0  0  0
  143.9621  135.4256  151.2225 C   0  0  0  0  0  0  0  0  0  0  0  0
  143.6160  134.1995  150.7419 N   0  3  0  0  0  0  0  0  0  0  0  0
  144.4671  133.2312  151.2781 C   0  0  0  0  0  0  0  0  0  0  0  0
  144.5097  131.8545  151.0920 C   0  0  0  0  0  0  0  0  0  0  0  0
  145.5062  131.1396  151.7937 C   0  0  0  0  0  0  0  0  0  0  0  0
  145.5767  129.6321  151.6176 C   0  0  0  0  0  0  0  0  0  0  0  0
  146.4213  131.8093  152.6466 C   0  0  0  0  0  0  0  0  0  0  0  0
  147.4870  131.0301  153.3987 C   0  0  0  0  0  0  0  0  0  0  0  0
  146.3633  133.2107  152.8200 C   0  0  0  0  0  0  0  0  0  0  0  0
  145.3735  133.9008  152.1234 C   0  0  0  0  0  0  0  0  0  0  0  0
  147.0633  139.5051  152.9203 C   0  0  0  0  0  0  0  0  0  0  0  0
  148.5166  139.3499  153.4399 C   0  0  0  0  0  0  0  0  0  0  0  0
  149.2235  141.8319  156.6990 H   0  0  0  0  0  0  0  0  0  0  0  0
  150.7423  142.1467  155.8345 H   0  0  0  0  0  0  0  0  0  0  0  0
  150.7064  141.0205  157.1892 H   0  0  0  0  0  0  0  0  0  0  0  0
  148.9855  142.5502  154.4897 H   0  0  0  0  0  0  0  0  0  0  0  0
  148.3650  141.9233  153.0215 H   0  0  0  0  0  0  0  0  0  0  0  0
  146.9749  142.5088  155.5426 H   0  0  0  0  0  0  0  0  0  0  0  0
  146.3034  142.3944  153.9463 H   0  0  0  0  0  0  0  0  0  0  0  0
  146.8421  140.0682  155.8769 H   0  0  0  0  0  0  0  0  0  0  0  0
  145.2985  140.7866  155.5385 H   0  0  0  0  0  0  0  0  0  0  0  0
  146.5333  137.6714  154.7815 H   0  0  0  0  0  0  0  0  0  0  0  0
  145.0326  138.3267  155.3784 H   0  0  0  0  0  0  0  0  0  0  0  0
  144.4996  137.9920  152.6339 H   0  0  0  0  0  0  0  0  0  0  0  0
  143.8349  136.9627  154.9998 H   0  0  0  0  0  0  0  0  0  0  0  0
  146.5081  136.6920  152.1387 H   0  0  0  0  0  0  0  0  0  0  0  0
  146.3650  135.7464  153.5958 H   0  0  0  0  0  0  0  0  0  0  0  0
  143.4828  136.3631  150.9794 H   0  0  0  0  0  0  0  0  0  0  0  0
  143.8099  131.3514  150.4407 H   0  0  0  0  0  0  0  0  0  0  0  0
  146.5358  129.3409  151.1887 H   0  0  0  0  0  0  0  0  0  0  0  0
  144.7911  129.2712  150.9531 H   0  0  0  0  0  0  0  0  0  0  0  0
  145.4584  129.1280  152.5769 H   0  0  0  0  0  0  0  0  0  0  0  0
  148.1301  131.6918  153.9797 H   0  0  0  0  0  0  0  0  0  0  0  0
  148.1205  130.4771  152.7049 H   0  0  0  0  0  0  0  0  0  0  0  0
  147.0270  130.3222  154.0887 H   0  0  0  0  0  0  0  0  0  0  0  0
  147.0578  133.7167  153.4743 H   0  0  0  0  0  0  0  0  0  0  0  0
  146.8424  138.6840  152.2375 H   0  0  0  0  0  0  0  0  0  0  0  0
  146.9675  140.3903  152.2927 H   0  0  0  0  0  0  0  0  0  0  0  0
  149.2029  139.3231  152.5926 H   0  0  0  0  0  0  0  0  0  0  0  0
  148.5827  138.3716  153.9155 H   0  0  0  0  0  0  0  0  0  0  0  0
  145.1985  139.9083  153.4933 H   0  0  0  0  0  0  0  0  0  0  0  0
  142.8556  134.0376  150.0936 H   0  0  0  0  0  0  0  0  0  0  0  0
  1  2  1  0  0  0  0
  1 26  1  0  0  0  0
  1 27  1  0  0  0  0
  1 28  1  0  0  0  0
  2  3  2  0  0  0  0
  2  4  1  0  0  0  0
  4 25  1  0  0  0  0
  4  5  1  0  0  0  0
  5  6  1  0  0  0  0
  5 29  1  0  0  0  0
  5 30  1  0  0  0  0
  6  7  1  0  0  0  0
  6 31  1  0  0  0  0
  6 32  1  0  0  0  0
  7  8  1  0  0  0  0
  7 33  1  0  0  0  0
  7 34  1  0  0  0  0
  8  9  1  0  0  0  0
  8 24  1  0  0  0  0
  8 54  1  0  0  0  0
  9 10  1  0  0  0  0
  9 35  1  0  0  0  0
  9 36  1  0  0  0  0
 10 11  1  0  0  0  0
 10 12  1  0  0  0  0
 10 37  1  0  0  0  0
 11 38  1  0  0  0  0
 12 13  1  0  0  0  0
 12 39  1  0  0  0  0
 12 40  1  0  0  0  0
 13 23  1  0  0  0  0
 13 14  1  0  0  0  0
 14 15  2  0  0  0  0
 14 41  1  0  0  0  0
 15 16  1  0  0  0  0
 15 55  1  0  0  0  0
 16 23  2  0  0  0  0
 16 17  1  0  0  0  0
 17 18  2  0  0  0  0
 17 42  1  0  0  0  0
 18 19  1  0  0  0  0
 18 20  1  0  0  0  0
 19 43  1  0  0  0  0
 19 44  1  0  0  0  0
 19 45  1  0  0  0  0
 20 21  1  0  0  0  0
 20 22  2  0  0  0  0
 21 46  1  0  0  0  0
 21 47  1  0  0  0  0
 21 48  1  0  0  0  0
 22 23  1  0  0  0  0
 22 49  1  0  0  0  0
 24 25  1  0  0  0  0
 24 50  1  0  0  0  0
 24 51  1  0  0  0  0
 25 52  1  0  0  0  0
 25 53  1  0  0  0  0
M  CHG  1   8   1
M  CHG  1  15   1
M  END
> <s_m_source_file>
AV-unprocessed.smi

> <i_m_source_file_index>
1643

> <i_lp_mmshare_version>
43012

> <i_f3d_flags>
0

> <s_epik_input>
W0NIM11DKD1PKU4xW0NIMl1bQ0gyXVtDSDJdTihbQ0gyXVtDSDJdMSlbQ0gyXVtDQEhdKFtPSF0pW0NIMl1uKFtjSF1uMiljKGMyMylbY0hdYyhbQ0gzXSljKFtjSF0zKVtDSDNd

> <s_epik_cmdline>
J2VwaWtfcHl0aG9uJywgJy1waCcsICc3LjAnLCAnLXRuJywgJzgnLCAnLW1hJywgJzIwMCcsICctbWV0YWxfYmluZGluZycsICctaW1hZScsICc8aW5maWxlLm1hZT4nLCAnLW9tYWUnLCAnPG91dGZpbGUubWFlPic=

> <r_epik_Ionization_Penalty>
1.2865

> <r_epik_Ionization_Penalty_Charging>
1.2865

> <r_epik_Ionization_Penalty_Neutral>
2.89706e-06

> <r_epik_State_Penalty>
1.3566

> <r_epik_Charging_Adjusted_Penalty>
2.6431

> <i_epik_Tot_Q>
2

> <i_epik_Tot_abs_Q>
2

> <r_epik_Metal_State_Penalty>
5.37339

> <b_epik_Metal_Only>
0

> <s_lp_Force_Field>
OPLS_2005

> <r_lp_Energy>
60.0404

> <b_lp_Chiralities_Consistent>
1

> <s_lp_Variant>
AV-unprocessed.smi:1643-7

> <Gold.Version>
5.8.1

> <Gold.Id.Protein>
6NUR|6NUR_protein|mol2

> <Gold.PLP.Fitness>
51.7043

> <Gold.PLP.PLP>
-39.1123

> <Gold.PLP.part.hbond>
-2.0000

> <Gold.PLP.part.metal>
0.0000

> <Gold.PLP.part.buried>
-1.6016

> <Gold.PLP.part.nonpolar>
-35.9863

> <Gold.PLP.part.repulsive>
0.0226

> <Gold.PLP.ligand.clash>
0.0000

> <Gold.PLP.ligand.torsion>
1.1609

> <Gold.PLP.Chemscore.Hbond>
3.9200

> <Gold.PLP.Chemscore.CHOScore>
1.0000

> <Gold.PLP.Chemscore.Metal>
0.0000

> <Gold.Chemscore.Hbonds>
donor molecule, donor type, donor heavy atom, donor atom, acceptor molecule, acceptor atom, score
      L1  H     8    54       P1 10175  2.00
      L1  H    15    55       P1 10186  1.92
      L1  C    14    41       P1 10171  1.00

> <Gold.PLP.Chemscore.Internal.Correction>
0.1538

> <Gold.Rescore>
     Score         DG    S(hbond)    S(metal)    S(lipo)     H(rot)  DE(clash)    DE(int)     intcor
     15.23     -17.63       1.87        0.00      97.97       2.17       1.27       1.13       ----

> <Gold.Chemscore.Fitness>
15.2304

> <Gold.Chemscore.DG>
-17.6310

> <Gold.Chemscore.ZeroCoef>
-5.4800

> <Gold.Chemscore.Hbond>
1.8729

> <Gold.Chemscore.Metal>
0.0000

> <Gold.Chemscore.Lipo>
97.9674

> <Gold.Chemscore.Internal_Hbond>
0.0000

> <Gold.Chemscore.DEClash>
1.2744

> <Gold.Chemscore.DEInternal>
1.1263

> <Gold.Chemscore.Rot>
2.1744

> <Gold.Chemscore.Internal.Correction>
   9.000000E+99

> <Gold.Chemscore.Hbonds>
donor molecule, donor type, donor heavy atom, donor atom, acceptor molecule, acceptor atom, score
      L1  H     8    54       P1 10175  1.00
      L1  H    15    55       P1 10186  0.90

> <Gold.Chemscore.Hbond.Weighted>
-6.2554

> <Gold.Chemscore.Metal.Weighted>
-0.0000

> <Gold.Chemscore.Lipo.Weighted>
-11.4622

> <Gold.Chemscore.Internal_Hbond.Weighted>
0.0000

> <Gold.Chemscore.DEClash.Weighted>
1.2744

> <Gold.Chemscore.DEInternal.Weighted>
1.1263

> <Gold.Chemscore.Rot.Weighted>
5.5666

> <Gold.Chemscore.Internal.Correction.Weighted>
   9.000000E+99

> <Gold.Protein.RotatedTorsions>
[ 6907 6896 6895 6894 ] final -154.14 input  -60.11 | X-H torsion
[ 7974 7965 7964 7962 ] final   78.41 input  175.53 | X-H torsion
[ 8008 7997 7996 7995 ] final   47.52 input   59.86 | X-H torsion
[ 10167 10162 10161 10158 ] final   21.28 input  -65.29 | X-H torsion
[ 10718 10713 10712 10709 ] final   92.13 input   66.30 | X-H torsion
[ 10763 10752 10751 10750 ] final   33.81 input  -60.55 | X-H torsion
[ 11005 11000 10999 10996 ] final  146.86 input  -57.11 | X-H torsion

> <Gold.Protein.ActiveResidues>
 VAL166  LYS551  ARG553  GLY616  TRP617  ASP618  TYR619  PRO620  LYS621  CYS622 
 ASP623  PHE694  ASN695  SER759  ASP760  ASP761  ALA762  ILE779  LEU786  VAL792 
 PHE793  MET794  SER795  GLU796  ALA797  LYS798  CYS799  TRP800  GLU811  SER814 

> <Gold.Protein.RotatedAtoms>
  151.2530  133.4340  159.2612 H   0  0  0  0  0  0  0  0  0  0  0  0  # atno 6907 bound_to 6896
  151.0600  134.9730  159.8266 H   0  0  0  0  0  0  0  0  0  0  0  0  # atno 6908 bound_to 6896
  152.5397  134.2480  159.8940 H   0  0  0  0  0  0  0  0  0  0  0  0  # atno 6909 bound_to 6896
  145.6774  139.2514  143.1833 H   0  0  0  0  0  0  0  0  0  0  0  0  # atno 7974 bound_to 7965
  155.3704  140.3423  155.4243 H   0  0  0  0  0  0  0  0  0  0  0  0  # atno 8008 bound_to 7997
  156.1665  140.1618  156.8556 H   0  0  0  0  0  0  0  0  0  0  0  0  # atno 8009 bound_to 7997
  154.5190  140.0771  156.8119 H   0  0  0  0  0  0  0  0  0  0  0  0  # atno 8010 bound_to 7997
  140.5439  143.9629  150.6536 H   0  0  0  0  0  0  0  0  0  0  0  0  # atno 10167 bound_to 10162
  157.6959  131.0432  150.3835 H   0  0  0  0  0  0  0  0  0  0  0  0  # atno 10718 bound_to 10713
  153.0194  135.6377  154.1570 H   0  0  0  0  0  0  0  0  0  0  0  0  # atno 10763 bound_to 10752
  154.1306  135.2841  155.3188 H   0  0  0  0  0  0  0  0  0  0  0  0  # atno 10764 bound_to 10752
  154.6197  135.5529  153.7624 H   0  0  0  0  0  0  0  0  0  0  0  0  # atno 10765 bound_to 10752
  140.0828  134.9087  157.1528 H   0  0  0  0  0  0  0  0  0  0  0  0  # atno 11005 bound_to 11000
  146.0993  140.7563  142.9557 LP  0  0  0  0  0  0  0  0  0  0  0  0  # atno 17320 bound_to 7965
  144.7037  140.3762  143.7135 LP  0  0  0  0  0  0  0  0  0  0  0  0  # atno 17321 bound_to 7965
  140.3037  143.3244  152.0947 LP  0  0  0  0  0  0  0  0  0  0  0  0  # atno 17342 bound_to 10162
  139.4999  144.6681  151.6309 LP  0  0  0  0  0  0  0  0  0  0  0  0  # atno 17343 bound_to 10162
  156.4246  130.3960  149.6801 LP  0  0  0  0  0  0  0  0  0  0  0  0  # atno 17370 bound_to 10713
  156.4040  130.7689  151.2698 LP  0  0  0  0  0  0  0  0  0  0  0  0  # atno 17371 bound_to 10713
  140.3463  134.2648  155.7204 LP  0  0  0  0  0  0  0  0  0  0  0  0  # atno 17394 bound_to 11000
  141.2052  133.7865  157.0243 LP  0  0  0  0  0  0  0  0  0  0  0  0  # atno 17395 bound_to 11000

$$$$
