AV-unprocessed.smi:143|AV-procd|sdf|1193|dock6
  -GOLD-   2262018353D 1   1.00000     0.00000
 Structure written by MMmdl.
 38 40  0  0  0  0  0  0  0  0  1 V2000
  154.1307  140.0890  159.0132 O   0  0  0  0  0  0  0  0  0  0  0  0
  153.3917  139.2416  159.5184 C   0  0  0  0  0  0  0  0  0  0  0  0
  151.9369  139.0920  159.0242 C   0  0  0  0  0  0  0  0  0  0  0  0
  151.5389  140.1368  158.0869 N   0  0  0  0  0  0  0  0  0  0  0  0
  151.0602  139.7351  156.8144 C   0  0  0  0  0  0  0  0  0  0  0  0
  150.9801  138.5491  156.4892 O   0  0  0  0  0  0  0  0  0  0  0  0
  150.6599  140.8342  155.9430 C   0  0  0  0  0  0  0  0  0  0  0  0
  150.1792  140.5691  154.7165 F   0  0  0  0  0  0  0  0  0  0  0  0
  150.7592  142.1182  156.3500 C   0  0  0  0  0  0  0  0  0  0  0  0
  151.2457  142.4839  157.5919 N   0  0  0  0  0  0  0  0  0  0  0  0
  151.2676  143.9463  157.9733 C   0  0  2  0  0  0  0  0  0  0  0  0
  152.5891  144.3951  158.6259 C   0  0  0  0  0  0  0  0  0  0  0  0
  152.1375  144.9303  159.9749 C   0  0  0  0  0  0  0  0  0  0  0  0
  150.6618  145.2350  159.7423 C   0  0  0  0  0  0  0  0  0  0  0  0
  150.2418  144.1834  158.8873 O   0  0  0  0  0  0  0  0  0  0  0  0
  151.6226  141.4834  158.5178 C   0  0  0  0  0  0  0  0  0  0  0  0
  151.9961  141.7757  159.6552 O   0  0  0  0  0  0  0  0  0  0  0  0
  153.8394  138.3365  160.6172 C   0  0  0  0  0  0  0  0  0  0  0  0
  153.5023  136.9634  160.5635 C   0  0  0  0  0  0  0  0  0  0  0  0
  153.9077  136.0835  161.5858 C   0  0  0  0  0  0  0  0  0  0  0  0
  154.6515  136.5666  162.6778 C   0  0  0  0  0  0  0  0  0  0  0  0
  155.1982  135.3787  164.0605 Br  0  0  0  0  0  0  0  0  0  0  0  0
  154.9896  137.9307  162.7455 C   0  0  0  0  0  0  0  0  0  0  0  0
  154.5864  138.8116  161.7228 C   0  0  0  0  0  0  0  0  0  0  0  0
  151.7845  138.1280  158.5368 H   0  0  0  0  0  0  0  0  0  0  0  0
  151.2348  139.1101  159.8592 H   0  0  0  0  0  0  0  0  0  0  0  0
  150.4422  142.8908  155.6647 H   0  0  0  0  0  0  0  0  0  0  0  0
  151.0645  144.5001  157.0557 H   0  0  0  0  0  0  0  0  0  0  0  0
  153.3138  143.5846  158.7088 H   0  0  0  0  0  0  0  0  0  0  0  0
  153.0254  145.1868  158.0160 H   0  0  0  0  0  0  0  0  0  0  0  0
  152.2421  144.1598  160.7393 H   0  0  0  0  0  0  0  0  0  0  0  0
  152.7041  145.8041  160.2972 H   0  0  0  0  0  0  0  0  0  0  0  0
  150.0844  145.2579  160.6666 H   0  0  0  0  0  0  0  0  0  0  0  0
  150.5375  146.1917  159.2324 H   0  0  0  0  0  0  0  0  0  0  0  0
  152.9317  136.5681  159.7354 H   0  0  0  0  0  0  0  0  0  0  0  0
  153.6465  135.0369  161.5307 H   0  0  0  0  0  0  0  0  0  0  0  0
  155.5591  138.3043  163.5836 H   0  0  0  0  0  0  0  0  0  0  0  0
  154.8626  139.8513  161.8121 H   0  0  0  0  0  0  0  0  0  0  0  0
  1  2  2  0  0  0  0
  2  3  1  0  0  0  0
  2 18  1  0  0  0  0
  3  4  1  0  0  0  0
  3 25  1  0  0  0  0
  3 26  1  0  0  0  0
  4 16  1  0  0  0  0
  4  5  1  0  0  0  0
  5  6  2  0  0  0  0
  5  7  1  0  0  0  0
  7  8  1  0  0  0  0
  7  9  2  0  0  0  0
  9 10  1  0  0  0  0
  9 27  1  0  0  0  0
 10 11  1  0  0  0  0
 10 16  1  0  0  0  0
 11 15  1  0  0  0  0
 11 12  1  0  0  0  0
 11 28  1  0  0  0  0
 12 13  1  0  0  0  0
 12 29  1  0  0  0  0
 12 30  1  0  0  0  0
 13 14  1  0  0  0  0
 13 31  1  0  0  0  0
 13 32  1  0  0  0  0
 14 15  1  0  0  0  0
 14 33  1  0  0  0  0
 14 34  1  0  0  0  0
 16 17  2  0  0  0  0
 18 24  1  0  0  0  0
 18 19  2  0  0  0  0
 19 20  1  0  0  0  0
 19 35  1  0  0  0  0
 20 21  2  0  0  0  0
 20 36  1  0  0  0  0
 21 22  1  0  0  0  0
 21 23  1  0  0  0  0
 23 24  2  0  0  0  0
 23 37  1  0  0  0  0
 24 38  1  0  0  0  0
M  END
> <s_m_source_file>
AV-unprocessed.smi

> <i_m_source_file_index>
143

> <i_lp_mmshare_version>
43012

> <i_f3d_flags>
0

> <s_epik_input>
W2NIXTFbY0hdYyhCcilbY0hdW2NIXWMxQyg9TylbQ0gyXW4yYyg9TyljKEYpW2NIXW4oYzI9TylbQ0BASF0zW0NIMl1bQ0gyXVtDSDJdTzM=

> <s_epik_cmdline>
J2VwaWtfcHl0aG9uJywgJy1waCcsICc3LjAnLCAnLXRuJywgJzgnLCAnLW1hJywgJzIwMCcsICctbWV0YWxfYmluZGluZycsICctaW1hZScsICc8aW5maWxlLm1hZT4nLCAnLW9tYWUnLCAnPG91dGZpbGUubWFlPic=

> <r_lp_tautomer_probability>
1

> <r_epik_Ionization_Penalty>
4.7008e-09

> <r_epik_Ionization_Penalty_Charging>
4.69459e-09

> <r_epik_Ionization_Penalty_Neutral>
6.21034e-12

> <r_epik_State_Penalty>
-0

> <r_epik_Charging_Adjusted_Penalty>
4.69459e-09

> <i_epik_Tot_Q>
0

> <i_epik_Tot_abs_Q>
0

> <r_epik_Metal_State_Penalty>
-0

> <b_epik_Metal_Only>
0

> <s_epik_Chemistry_Notes>
This compound contains an acetal/aminal-like group ( X-CH(R)-Y where X, Y are N, S, or O) that may be acid/base labile, releasing an aldehyde.

> <s_lp_Force_Field>
OPLS_2005

> <r_lp_Energy>
36.1645

> <b_lp_Chiralities_Consistent>
1

> <s_lp_Variant>
AV-unprocessed.smi:143-1

> <Gold.Version>
5.8.1

> <Gold.Id.Protein>
6NUR|6NUR_protein|mol2

> <Gold.PLP.Fitness>
49.8387

> <Gold.PLP.PLP>
-46.3193

> <Gold.PLP.part.hbond>
-1.0000

> <Gold.PLP.part.metal>
0.0000

> <Gold.PLP.part.buried>
-3.4006

> <Gold.PLP.part.nonpolar>
-42.0168

> <Gold.PLP.part.repulsive>
0.1658

> <Gold.PLP.ligand.clash>
0.0000

> <Gold.PLP.ligand.torsion>
1.0755

> <Gold.PLP.Chemscore.Hbond>
0.8800

> <Gold.PLP.Chemscore.CHOScore>
1.0000

> <Gold.PLP.Chemscore.Metal>
0.0000

> <Gold.Chemscore.Hbonds>
donor molecule, donor type, donor heavy atom, donor atom, acceptor molecule, acceptor atom, score
      P1  H  7997  8010       L1     1  0.88
      L1  C     9    27       P1  8028  1.00

> <Gold.PLP.Chemscore.Internal.Correction>
0.0304

> <Gold.Rescore>
     Score         DG    S(hbond)    S(metal)    S(lipo)     H(rot)  DE(clash)    DE(int)     intcor
     14.03     -16.65       0.99        0.00     101.64       1.58       0.07       2.55       ----

> <Gold.Chemscore.Fitness>
14.0283

> <Gold.Chemscore.DG>
-16.6545

> <Gold.Chemscore.ZeroCoef>
-5.4800

> <Gold.Chemscore.Hbond>
0.9937

> <Gold.Chemscore.Metal>
0.0000

> <Gold.Chemscore.Lipo>
101.6356

> <Gold.Chemscore.Internal_Hbond>
0.0000

> <Gold.Chemscore.DEClash>
0.0727

> <Gold.Chemscore.DEInternal>
2.5535

> <Gold.Chemscore.Rot>
1.5765

> <Gold.Chemscore.Internal.Correction>
   9.000000E+99

> <Gold.Chemscore.Hbonds>
donor molecule, donor type, donor heavy atom, donor atom, acceptor molecule, acceptor atom, score
      P1  H  7997  8010       L1     1  0.86

> <Gold.Chemscore.Hbond.Weighted>
-3.3190

> <Gold.Chemscore.Metal.Weighted>
-0.0000

> <Gold.Chemscore.Lipo.Weighted>
-11.8914

> <Gold.Chemscore.Internal_Hbond.Weighted>
0.0000

> <Gold.Chemscore.DEClash.Weighted>
0.0727

> <Gold.Chemscore.DEInternal.Weighted>
2.5535

> <Gold.Chemscore.Rot.Weighted>
4.0359

> <Gold.Chemscore.Internal.Correction.Weighted>
   9.000000E+99

> <Gold.Protein.RotatedTorsions>
[ 6907 6896 6895 6894 ] final    5.87 input  -60.11 | X-H torsion
[ 7974 7965 7964 7962 ] final -101.40 input  175.53 | X-H torsion
[ 8008 7997 7996 7995 ] final   -2.40 input   59.86 | X-H torsion
[ 10167 10162 10161 10158 ] final  158.80 input  -65.29 | X-H torsion
[ 10718 10713 10712 10709 ] final   79.62 input   66.30 | X-H torsion
[ 10763 10752 10751 10750 ] final  -71.87 input  -60.55 | X-H torsion
[ 11005 11000 10999 10996 ] final   85.01 input  -57.11 | X-H torsion

> <Gold.Protein.ActiveResidues>
 VAL166  LYS551  ARG553  GLY616  TRP617  ASP618  TYR619  PRO620  LYS621  CYS622 
 ASP623  PHE694  ASN695  SER759  ASP760  ASP761  ALA762  ILE779  LEU786  VAL792 
 PHE793  MET794  SER795  GLU796  ALA797  LYS798  CYS799  TRP800  GLU811  SER814 

> <Gold.Protein.RotatedAtoms>
  151.6645  135.0985  160.0185 H   0  0  0  0  0  0  0  0  0  0  0  0  # atno 6907 bound_to 6896
  152.3927  133.6698  159.6259 H   0  0  0  0  0  0  0  0  0  0  0  0  # atno 6908 bound_to 6896
  150.7840  133.8843  159.3336 H   0  0  0  0  0  0  0  0  0  0  0  0  # atno 6909 bound_to 6896
  145.2821  140.9329  143.2926 H   0  0  0  0  0  0  0  0  0  0  0  0  # atno 7974 bound_to 7965
  154.6362  140.2535  155.7375 H   0  0  0  0  0  0  0  0  0  0  0  0  # atno 8008 bound_to 7997
  156.2505  140.2897  156.0656 H   0  0  0  0  0  0  0  0  0  0  0  0  # atno 8009 bound_to 7997
  155.1668  140.0385  157.2844 H   0  0  0  0  0  0  0  0  0  0  0  0  # atno 8010 bound_to 7997
  139.4828  144.4791  151.8470 H   0  0  0  0  0  0  0  0  0  0  0  0  # atno 10167 bound_to 10162
  157.6782  130.9922  150.1960 H   0  0  0  0  0  0  0  0  0  0  0  0  # atno 10718 bound_to 10713
  154.4377  135.5948  153.6109 H   0  0  0  0  0  0  0  0  0  0  0  0  # atno 10763 bound_to 10752
  152.9803  135.5990  154.3760 H   0  0  0  0  0  0  0  0  0  0  0  0  # atno 10764 bound_to 10752
  154.3607  135.2841  155.2300 H   0  0  0  0  0  0  0  0  0  0  0  0  # atno 10765 bound_to 10752
  139.8984  134.8256  156.2523 H   0  0  0  0  0  0  0  0  0  0  0  0  # atno 11005 bound_to 11000
  144.9244  139.4373  143.6525 LP  0  0  0  0  0  0  0  0  0  0  0  0  # atno 17320 bound_to 7965
  146.3213  139.8122  142.8943 LP  0  0  0  0  0  0  0  0  0  0  0  0  # atno 17321 bound_to 7965
  140.4265  144.2173  150.5887 LP  0  0  0  0  0  0  0  0  0  0  0  0  # atno 17342 bound_to 10162
  140.4822  143.2375  151.8939 LP  0  0  0  0  0  0  0  0  0  0  0  0  # atno 17343 bound_to 10162
  156.2661  130.3716  149.8080 LP  0  0  0  0  0  0  0  0  0  0  0  0  # atno 17370 bound_to 10713
  156.5811  130.8466  151.3383 LP  0  0  0  0  0  0  0  0  0  0  0  0  # atno 17371 bound_to 10713
  141.0216  133.7038  156.1277 LP  0  0  0  0  0  0  0  0  0  0  0  0  # atno 17394 bound_to 11000
  140.7226  134.4342  157.5573 LP  0  0  0  0  0  0  0  0  0  0  0  0  # atno 17395 bound_to 11000

$$$$
