#       Name:                AV-unprocessed.smi:3149
#       Creating user name   scv26
#       Creation time:       Fri Mar 27 17:41:24 2020


#       File generated by GOLD software.
#

@<TRIPOS>MOLECULE
AV-unprocessed.smi:3149
    41    42     1
SMALL
NO_CHARGES


@<TRIPOS>ATOM
      1 ****        -1.8977  -0.1366   2.1634 C.3            1 S1                 0.0000
      2 ****        -1.4564   0.2592   0.7399 C.3            1 S1                 0.0000
      3 ****         0.0015   0.2651   0.6478 N.3            1 S1                 0.0000
      4 ****         0.6354   1.4010   1.3260 C.3            1 S1                 0.0000
      5 ****         2.1395   1.4376   1.0457 C.2            1 S1                 0.0000
      6 ****         2.9049   0.7244   1.6940 O.2            1 S1                 0.0000
      7 ****         2.5888   2.2221  -0.0203 N.am           1 S1                 0.0000
      8 ****         3.8042   1.8810  -0.7433 C.3            1 S1                 0.0000
      9 ****         3.1462   2.5605  -1.9490 C.3            1 S1                 0.0000
     10 ****         1.8019   2.4038  -1.2313 C.3            1 S1                 0.0000
     11 ****        -2.0493  -0.6791  -0.3469 C.3            1 S1                 0.0000
     12 ****        -1.7080  -0.2346  -1.7833 C.3            1 S1                 0.0000
     13 ****        -1.7501  -2.0920  -0.1217 N.pl3          1 S1                 0.0000
     14 ****        -2.5576  -3.0478   0.4612 C.2            1 S1                 0.0000
     15 ****        -1.8571  -4.2194   0.4869 C.2            1 S1                 0.0000
     16 ****        -0.6094  -3.8791  -0.1044 C.2            1 S1                 0.0000
     17 ****        -0.5463  -2.6076  -0.4624 N.2            1 S1                 0.0000
     18 ****        -2.9812  -0.2453   2.2167 H              1 S1                 0.0000
     19 ****        -1.6198   0.6181   2.8986 H              1 S1                 0.0000
     20 ****        -1.4549  -1.0827   2.4763 H              1 S1                 0.0000
     21 ****        -1.8224   1.2657   0.5310 H              1 S1                 0.0000
     22 ****         0.3694  -0.6206   0.9658 H              1 S1                 0.0000
     23 ****         0.1765   2.3381   1.0080 H              1 S1                 0.0000
     24 ****         0.4896   1.3228   2.4032 H              1 S1                 0.0000
     25 ****         4.6982   2.3809  -0.3695 H              1 S1                 0.0000
     26 ****         3.9453   0.8066  -0.8785 H              1 S1                 0.0000
     27 ****         3.4493   3.6010  -2.0780 H              1 S1                 0.0000
     28 ****         3.2253   1.9967  -2.8790 H              1 S1                 0.0000
     29 ****         1.2560   1.5113  -1.5423 H              1 S1                 0.0000
     30 ****         1.1804   3.2998  -1.2284 H              1 S1                 0.0000
     31 ****        -3.1338  -0.5909  -0.2649 H              1 S1                 0.0000
     32 ****        -2.0251   0.7937  -1.9591 H              1 S1                 0.0000
     33 ****        -2.2132  -0.8638  -2.5164 H              1 S1                 0.0000
     34 ****        -0.6379  -0.2872  -1.9859 H              1 S1                 0.0000
     35 ****        -3.5540  -2.8162   0.8080 H              1 S1                 0.0000
     36 ****        -2.1846  -5.1734   0.8724 H              1 S1                 0.0000
     37 ****         0.2475  -4.5126  -0.2801 H              1 S1                 0.0000
     38 ****         0.2333   0.3872  -0.3173 LP             1 S1                 0.0000
     39 ****         2.5441   0.1203   2.4046 LP             1 S1                 0.0000
     40 ****         3.8875   0.7490   1.5101 LP             1 S1                 0.0000
     41 ****         0.2219  -2.1319  -0.8907 LP             1 S1                 0.0000
@<TRIPOS>BOND
    1    1    2 1     
    2    1   18 1     
    3    1   19 1     
    4    1   20 1     
    5    2    3 1     
    6    2   11 1     
    7    2   21 1     
    8    3    4 1     
    9    3   22 1     
   10    4    5 1     
   11    4   23 1     
   12    4   24 1     
   13    5    6 2     
   14    5    7 am    
   15    7   10 1     
   16    7    8 1     
   17    8    9 1     
   18    8   25 1     
   19    8   26 1     
   20    9   10 1     
   21    9   27 1     
   22    9   28 1     
   23   10   29 1     
   24   10   30 1     
   25   11   12 1     
   26   11   13 1     
   27   11   31 1     
   28   12   32 1     
   29   12   33 1     
   30   12   34 1     
   31   13   17 1     
   32   13   14 1     
   33   14   15 2     
   34   14   35 1     
   35   15   16 1     
   36   15   36 1     
   37   16   17 2     
   38   16   37 1     
   39    3   38 1     
   40    6   39 1     
   41    6   40 1     
   42   17   41 1     
@<TRIPOS>SUBSTRUCTURE
      1 S1             1
@<TRIPOS>SET
LONE_PAIRS      STATIC     ATOMS    <user>   **** ""
4 38 39 40 41
DONOR_HYDROGENS      STATIC     ATOMS    <user>   **** ""
1 22
ATOM$BLUE        STATIC     ATOMS    COLORGROUP SYSTEM
4 38 39 40 41
ATOM$RED        STATIC     ATOMS    COLORGROUP SYSTEM
1 22
