AV-unprocessed.smi:112|AV-procd|sdf|1085|dock10
  -GOLD-   2262018183D 1   1.00000     0.00000
 Structure written by MMmdl.
 54 57  0  0  0  0  0  0  0  0  3 V2000
  148.0635  126.6699  150.7128 C   0  0  0  0  0  0  0  0  0  0  0  0
  147.9793  127.7538  151.7761 C   0  0  0  0  0  0  0  0  0  0  0  0
  147.0616  128.7464  151.7194 C   0  0  0  0  0  0  0  0  0  0  0  0
  146.9573  129.7449  152.6714 N   0  0  0  0  0  0  0  0  0  0  0  0
  145.8976  130.8220  152.5936 C   0  0  2  0  0  0  0  0  0  0  0  0
  144.9081  130.5165  151.4583 C   0  0  0  0  0  0  0  0  0  0  0  0
  144.7043  131.8803  150.8292 C   0  0  2  0  0  0  0  0  0  0  0  0
  144.3579  131.7624  149.4645 O   0  0  0  0  0  0  0  0  0  0  0  0
  146.0857  132.5067  151.0304 C   0  0  1  0  0  0  0  0  0  0  0  0
  146.1834  134.0387  150.9302 C   0  0  0  0  0  0  0  0  0  0  0  0
  145.2638  134.5661  149.9972 O   0  0  0  0  0  0  0  0  0  0  0  0
  146.4964  132.0562  152.3165 O   0  0  0  0  0  0  0  0  0  0  0  0
  147.8274  129.7453  153.7792 C   0  0  0  0  0  0  0  0  0  0  0  0
  147.7290  130.6066  154.6565 O   0  0  0  0  0  0  0  0  0  0  0  0
  148.8038  128.7277  153.8637 N   0  0  0  0  0  0  0  0  0  0  0  0
  149.7095  128.7163  155.0348 C   0  0  0  0  0  0  0  0  0  0  0  0
  151.0376  129.4703  154.8008 C   0  0  0  0  0  0  0  0  0  0  0  0
  151.0155  130.6984  154.7103 O   0  0  0  0  0  0  0  0  0  0  0  0
  152.1761  128.7383  154.7128 N   0  0  0  0  0  0  0  0  0  0  0  0
  152.2102  127.2703  154.8336 C   0  0  0  0  0  0  0  0  0  0  0  0
  153.6935  126.8588  154.7122 C   0  0  0  0  0  0  0  0  0  0  0  0
  154.3914  128.1682  154.4928 C   0  0  0  0  0  0  0  0  0  0  0  0
  155.7695  128.3617  154.2999 C   0  0  0  0  0  0  0  0  0  0  0  0
  156.2559  129.6788  154.1091 C   0  0  0  0  0  0  0  0  0  0  0  0
  157.6980  129.9204  153.9047 N   0  3  0  0  0  0  0  0  0  0  0  0
  158.4593  128.9587  153.9333 O   0  0  0  0  0  0  0  0  0  0  0  0
  158.0723  131.0732  153.7147 O   0  5  0  0  0  0  0  0  0  0  0  0
  155.3370  130.7618  154.1177 C   0  0  0  0  0  0  0  0  0  0  0  0
  153.9546  130.5489  154.3119 C   0  0  0  0  0  0  0  0  0  0  0  0
  153.4924  129.2282  154.5010 C   0  0  0  0  0  0  0  0  0  0  0  0
  148.9234  127.7010  152.8952 C   0  0  0  0  0  0  0  0  0  0  0  0
  149.7757  126.8191  153.0169 O   0  0  0  0  0  0  0  0  0  0  0  0
  147.3273  126.8178  149.9222 H   0  0  0  0  0  0  0  0  0  0  0  0
  147.8853  125.6891  151.1549 H   0  0  0  0  0  0  0  0  0  0  0  0
  149.0509  126.6637  150.2497 H   0  0  0  0  0  0  0  0  0  0  0  0
  146.3780  128.7427  150.8843 H   0  0  0  0  0  0  0  0  0  0  0  0
  145.4367  130.8780  153.5812 H   0  0  0  0  0  0  0  0  0  0  0  0
  145.3706  129.8279  150.7480 H   0  0  0  0  0  0  0  0  0  0  0  0
  143.9918  130.0665  151.8415 H   0  0  0  0  0  0  0  0  0  0  0  0
  143.9302  132.4234  151.3724 H   0  0  0  0  0  0  0  0  0  0  0  0
  145.1528  131.6902  148.9582 H   0  0  0  0  0  0  0  0  0  0  0  0
  146.7808  132.0695  150.3111 H   0  0  0  0  0  0  0  0  0  0  0  0
  146.0209  134.4983  151.9054 H   0  0  0  0  0  0  0  0  0  0  0  0
  147.1852  134.3222  150.6069 H   0  0  0  0  0  0  0  0  0  0  0  0
  145.5611  134.3462  149.1273 H   0  0  0  0  0  0  0  0  0  0  0  0
  149.2183  129.1420  155.9108 H   0  0  0  0  0  0  0  0  0  0  0  0
  149.9228  127.6864  155.3231 H   0  0  0  0  0  0  0  0  0  0  0  0
  151.8000  126.9457  155.7907 H   0  0  0  0  0  0  0  0  0  0  0  0
  151.6280  126.8077  154.0355 H   0  0  0  0  0  0  0  0  0  0  0  0
  154.0581  126.3827  155.6229 H   0  0  0  0  0  0  0  0  0  0  0  0
  153.8630  126.1873  153.8698 H   0  0  0  0  0  0  0  0  0  0  0  0
  156.4344  127.5105  154.2998 H   0  0  0  0  0  0  0  0  0  0  0  0
  155.6854  131.7740  153.9737 H   0  0  0  0  0  0  0  0  0  0  0  0
  153.2908  131.3990  154.3096 H   0  0  0  0  0  0  0  0  0  0  0  0
  1  2  1  0  0  0  0
  1 33  1  0  0  0  0
  1 34  1  0  0  0  0
  1 35  1  0  0  0  0
  2 31  1  0  0  0  0
  2  3  2  0  0  0  0
  3  4  1  0  0  0  0
  3 36  1  0  0  0  0
  4  5  1  0  0  0  0
  4 13  1  0  0  0  0
  5 12  1  0  0  0  0
  5  6  1  0  0  0  0
  5 37  1  0  0  0  0
  6  7  1  0  0  0  0
  6 38  1  0  0  0  0
  6 39  1  0  0  0  0
  7  8  1  0  0  0  0
  7  9  1  0  0  0  0
  7 40  1  0  0  0  0
  8 41  1  0  0  0  0
  9 10  1  0  0  0  0
  9 12  1  0  0  0  0
  9 42  1  0  0  0  0
 10 11  1  0  0  0  0
 10 43  1  0  0  0  0
 10 44  1  0  0  0  0
 11 45  1  0  0  0  0
 13 14  2  0  0  0  0
 13 15  1  0  0  0  0
 15 16  1  0  0  0  0
 15 31  1  0  0  0  0
 16 17  1  0  0  0  0
 16 46  1  0  0  0  0
 16 47  1  0  0  0  0
 17 18  2  0  0  0  0
 17 19  1  0  0  0  0
 19 30  1  0  0  0  0
 19 20  1  0  0  0  0
 20 21  1  0  0  0  0
 20 48  1  0  0  0  0
 20 49  1  0  0  0  0
 21 22  1  0  0  0  0
 21 50  1  0  0  0  0
 21 51  1  0  0  0  0
 22 30  2  0  0  0  0
 22 23  1  0  0  0  0
 23 24  2  0  0  0  0
 23 52  1  0  0  0  0
 24 25  1  0  0  0  0
 24 28  1  0  0  0  0
 25 26  2  0  0  0  0
 25 27  1  0  0  0  0
 28 29  2  0  0  0  0
 28 53  1  0  0  0  0
 29 30  1  0  0  0  0
 29 54  1  0  0  0  0
 31 32  2  0  0  0  0
M  CHG  1  25   1
M  CHG  1  27  -1
M  END
> <s_m_source_file>
AV-unprocessed.smi

> <i_m_source_file_index>
112

> <i_lp_mmshare_version>
43012

> <i_f3d_flags>
0

> <s_epik_input>
W09IXVtDSDJdW0NAQEhdKE8xKVtDQEhdKFtPSF0pW0NIMl1bQ0BIXTFuKFtjSF1jMltDSDNdKWMoPU8pbihjMj1PKVtDSDJdQyg9TylOKFtDSDJdW0NIMl0zKWMoYzM0KVtjSF1bY0hdYyhbY0hdNClbTitdKD1PKVtPLV0=

> <s_epik_cmdline>
J2VwaWtfcHl0aG9uJywgJy1waCcsICc3LjAnLCAnLXRuJywgJzgnLCAnLW1hJywgJzIwMCcsICctbWV0YWxfYmluZGluZycsICctaW1hZScsICc8aW5maWxlLm1hZT4nLCAnLW9tYWUnLCAnPG91dGZpbGUubWFlPic=

> <r_lp_tautomer_probability>
1

> <r_epik_Ionization_Penalty>
2.5696e-07

> <r_epik_Ionization_Penalty_Charging>
1.04886e-08

> <r_epik_Ionization_Penalty_Neutral>
2.46472e-07

> <r_epik_State_Penalty>
-0

> <r_epik_Charging_Adjusted_Penalty>
1.04886e-08

> <i_epik_Tot_Q>
0

> <i_epik_Tot_abs_Q>
2

> <r_epik_Metal_State_Penalty>
-0

> <b_epik_Metal_Only>
0

> <s_epik_Chemistry_Notes>
This compound contains an acetal/aminal-like group ( X-CH(R)-Y where X, Y are N, S, or O) that may be acid/base labile, releasing an aldehyde.

> <s_lp_Force_Field>
OPLS_2005

> <r_lp_Energy>
57.8842

> <b_lp_Chiralities_Consistent>
1

> <s_lp_Variant>
AV-unprocessed.smi:112-3

> <Gold.Version>
5.8.1

> <Gold.Id.Protein>
6NUR|6NUR_protein|mol2

> <Gold.PLP.Fitness>
49.7312

> <Gold.PLP.PLP>
-48.2155

> <Gold.PLP.part.hbond>
-2.0000

> <Gold.PLP.part.metal>
0.0000

> <Gold.PLP.part.buried>
-7.8569

> <Gold.PLP.part.nonpolar>
-40.6322

> <Gold.PLP.part.repulsive>
1.7683

> <Gold.PLP.ligand.clash>
0.0000

> <Gold.PLP.ligand.torsion>
0.9451

> <Gold.PLP.Chemscore.Hbond>
1.1290

> <Gold.PLP.Chemscore.CHOScore>
0.0000

> <Gold.PLP.Chemscore.Metal>
0.0000

> <Gold.Chemscore.Hbonds>
donor molecule, donor type, donor heavy atom, donor atom, acceptor molecule, acceptor atom, score
      L1  H    11    45       P1  7921  1.00
      P1  H 10785 10796       L1     8  0.43

> <Gold.PLP.Chemscore.Internal.Correction>
0.0190

> <Gold.Rescore>
     Score         DG    S(hbond)    S(metal)    S(lipo)     H(rot)  DE(clash)    DE(int)     intcor
      9.19     -11.70       0.93        0.00      98.69       3.29       0.23       2.29       ----

> <Gold.Chemscore.Fitness>
9.1877

> <Gold.Chemscore.DG>
-11.7024

> <Gold.Chemscore.ZeroCoef>
-5.4800

> <Gold.Chemscore.Hbond>
0.9287

> <Gold.Chemscore.Metal>
0.0000

> <Gold.Chemscore.Lipo>
98.6921

> <Gold.Chemscore.Internal_Hbond>
0.0000

> <Gold.Chemscore.DEClash>
0.2251

> <Gold.Chemscore.DEInternal>
2.2896

> <Gold.Chemscore.Rot>
3.2916

> <Gold.Chemscore.Internal.Correction>
   9.000000E+99

> <Gold.Chemscore.Hbonds>
donor molecule, donor type, donor heavy atom, donor atom, acceptor molecule, acceptor atom, score
      L1  H    11    45       P1  7921  0.85
      P1  H 10785 10796       L1     8  0.15

> <Gold.Chemscore.Hbond.Weighted>
-3.1019

> <Gold.Chemscore.Metal.Weighted>
-0.0000

> <Gold.Chemscore.Lipo.Weighted>
-11.5470

> <Gold.Chemscore.Internal_Hbond.Weighted>
0.0000

> <Gold.Chemscore.DEClash.Weighted>
0.2251

> <Gold.Chemscore.DEInternal.Weighted>
2.2896

> <Gold.Chemscore.Rot.Weighted>
8.4265

> <Gold.Chemscore.Internal.Correction.Weighted>
   9.000000E+99

> <Gold.Protein.RotatedTorsions>
[ 6907 6896 6895 6894 ] final   33.54 input  -60.11 | X-H torsion
[ 7974 7965 7964 7962 ] final -128.55 input  175.53 | X-H torsion
[ 8008 7997 7996 7995 ] final  132.32 input   59.86 | X-H torsion
[ 10167 10162 10161 10158 ] final  -68.21 input  -65.29 | X-H torsion
[ 10718 10713 10712 10709 ] final   70.72 input   66.30 | X-H torsion
[ 10763 10752 10751 10750 ] final   32.53 input  -60.55 | X-H torsion
[ 11005 11000 10999 10996 ] final  141.70 input  -57.11 | X-H torsion

> <Gold.Protein.ActiveResidues>
 VAL166  LYS551  ARG553  GLY616  TRP617  ASP618  TYR619  PRO620  LYS621  CYS622 
 ASP623  PHE694  ASN695  SER759  ASP760  ASP761  ALA762  ILE779  LEU786  VAL792 
 PHE793  MET794  SER795  GLU796  ALA797  LYS798  CYS799  TRP800  GLU811  SER814 

> <Gold.Protein.RotatedAtoms>
  152.0899  134.9414  160.0571 H   0  0  0  0  0  0  0  0  0  0  0  0  # atno 6907 bound_to 6896
  152.0670  133.4084  159.4451 H   0  0  0  0  0  0  0  0  0  0  0  0  # atno 6908 bound_to 6896
  150.6836  134.3055  159.4768 H   0  0  0  0  0  0  0  0  0  0  0  0  # atno 6909 bound_to 6896
  144.9660  140.7496  143.4700 H   0  0  0  0  0  0  0  0  0  0  0  0  # atno 7974 bound_to 7965
  156.2981  140.2549  156.3070 H   0  0  0  0  0  0  0  0  0  0  0  0  # atno 8008 bound_to 7997
  154.9363  140.0397  157.2093 H   0  0  0  0  0  0  0  0  0  0  0  0  # atno 8009 bound_to 7997
  154.8169  140.2853  155.5818 H   0  0  0  0  0  0  0  0  0  0  0  0  # atno 8010 bound_to 7997
  140.5524  143.2312  151.6885 H   0  0  0  0  0  0  0  0  0  0  0  0  # atno 10167 bound_to 10162
  157.6415  130.9492  150.0690 H   0  0  0  0  0  0  0  0  0  0  0  0  # atno 10718 bound_to 10713
  153.0258  135.6411  154.1369 H   0  0  0  0  0  0  0  0  0  0  0  0  # atno 10763 bound_to 10752
  154.1098  135.2854  155.3234 H   0  0  0  0  0  0  0  0  0  0  0  0  # atno 10764 bound_to 10752
  154.6339  135.5483  153.7775 H   0  0  0  0  0  0  0  0  0  0  0  0  # atno 10765 bound_to 10752
  140.0421  134.9299  157.0862 H   0  0  0  0  0  0  0  0  0  0  0  0  # atno 11005 bound_to 11000
  145.2630  139.1985  143.4882 LP  0  0  0  0  0  0  0  0  0  0  0  0  # atno 17320 bound_to 7965
  146.3368  140.2563  142.8600 LP  0  0  0  0  0  0  0  0  0  0  0  0  # atno 17321 bound_to 7965
  139.5033  144.3796  152.0389 LP  0  0  0  0  0  0  0  0  0  0  0  0  # atno 17342 bound_to 10162
  140.2914  144.3749  150.6087 LP  0  0  0  0  0  0  0  0  0  0  0  0  # atno 17343 bound_to 10162
  156.1700  130.3646  149.9178 LP  0  0  0  0  0  0  0  0  0  0  0  0  # atno 17370 bound_to 10713
  156.7156  130.8987  151.3613 LP  0  0  0  0  0  0  0  0  0  0  0  0  # atno 17371 bound_to 10713
  140.4053  134.2039  155.7163 LP  0  0  0  0  0  0  0  0  0  0  0  0  # atno 17394 bound_to 11000
  141.1888  133.8252  157.0981 LP  0  0  0  0  0  0  0  0  0  0  0  0  # atno 17395 bound_to 11000

$$$$
