#       Name:                AV-unprocessed.smi:2702
#       Creating user name   scv26
#       Creation time:       Fri Mar 27 14:47:41 2020


#       File generated by GOLD software.
#

@<TRIPOS>MOLECULE
AV-unprocessed.smi:2702
    54    55     1
SMALL
NO_CHARGES


@<TRIPOS>ATOM
      1 ****        -7.0958   3.4978  -2.3939 C.3            1 S1                 0.0000
      2 ****        -5.9521   2.7201  -2.0872 O.3            1 S1                 0.0000
      3 ****        -4.9629   2.7848  -3.1014 C.3            1 S1                 0.0000
      4 ****        -3.7727   1.9140  -2.7495 C.2            1 S1                 0.0000
      5 ****        -2.5113   2.4037  -2.7129 C.2            1 S1                 0.0000
      6 ****        -1.3844   1.5381  -2.3648 C.2            1 S1                 0.0000
      7 ****        -0.2230   1.9453  -2.3242 O.2            1 S1                 0.0000
      8 ****        -1.7178   0.2424  -2.0893 N.am           1 S1                 0.0000
      9 ****        -0.6905  -0.7491  -1.7206 C.3            1 S1                 0.0000
     10 ****        -0.2553  -0.6539  -0.2508 C.2            1 S1                 0.0000
     11 ****        -1.0190  -0.2040   0.6044 O.2            1 S1                 0.0000
     12 ****         0.9778  -1.1040   0.0264 N.am           1 S1                 0.0000
     13 ****         1.6082  -1.0948   1.3455 C.3            1 S1                 0.0000
     14 ****         1.2044  -2.3686   2.1123 C.3            1 S1                 0.0000
     15 ****         1.8710  -2.4230   3.4897 C.3            1 S1                 0.0000
     16 ****         3.3948  -2.3393   3.3537 C.3            1 S1                 0.0000
     17 ****         3.8377  -1.0651   2.6062 C.3            1 S1                 0.0000
     18 ****         5.3751  -1.0270   2.5274 C.3            1 S1                 0.0000
     19 ****         3.1502  -0.9624   1.2143 C.3            1 S1                 0.0000
     20 ****         3.5326   0.3395   0.4758 C.3            1 S1                 0.0000
     21 ****        -3.0501  -0.2140  -2.1354 C.2            1 S1                 0.0000
     22 ****        -4.0298   0.5717  -2.4515 N.2            1 S1                 0.0000
     23 ****        -7.8233   3.4130  -1.5868 H              1 S1                 0.0000
     24 ****        -7.5714   3.1543  -3.3134 H              1 S1                 0.0000
     25 ****        -6.8379   4.5517  -2.5051 H              1 S1                 0.0000
     26 ****        -5.3756   2.4406  -4.0510 H              1 S1                 0.0000
     27 ****        -4.6420   3.8186  -3.2407 H              1 S1                 0.0000
     28 ****        -2.3252   3.4431  -2.9414 H              1 S1                 0.0000
     29 ****        -1.0315  -1.7693  -1.9067 H              1 S1                 0.0000
     30 ****         0.1835  -0.6236  -2.3631 H              1 S1                 0.0000
     31 ****         1.5317  -1.4632  -0.7375 H              1 S1                 0.0000
     32 ****         1.2472  -0.2287   1.9040 H              1 S1                 0.0000
     33 ****         0.1212  -2.4095   2.2331 H              1 S1                 0.0000
     34 ****         1.4845  -3.2528   1.5378 H              1 S1                 0.0000
     35 ****         1.5085  -1.6016   4.1088 H              1 S1                 0.0000
     36 ****         1.5929  -3.3445   4.0018 H              1 S1                 0.0000
     37 ****         3.8445  -2.3649   4.3470 H              1 S1                 0.0000
     38 ****         3.7613  -3.2223   2.8281 H              1 S1                 0.0000
     39 ****         3.5199  -0.2081   3.2023 H              1 S1                 0.0000
     40 ****         5.7582  -1.8126   1.8754 H              1 S1                 0.0000
     41 ****         5.8200  -1.1704   3.5125 H              1 S1                 0.0000
     42 ****         5.7430  -0.0711   2.1559 H              1 S1                 0.0000
     43 ****         3.5040  -1.7980   0.6081 H              1 S1                 0.0000
     44 ****         3.2460   1.2184   1.0539 H              1 S1                 0.0000
     45 ****         3.0474   0.4139  -0.4973 H              1 S1                 0.0000
     46 ****         4.6030   0.3991   0.2843 H              1 S1                 0.0000
     47 ****        -3.1954  -1.2662  -1.8848 H              1 S1                 0.0000
     48 ****        -6.2334   1.7672  -1.9739 LP             1 S1                 0.0000
     49 ****        -5.5567   3.0549  -1.2318 LP             1 S1                 0.0000
     50 ****        -0.0210   2.9020  -2.5340 LP             1 S1                 0.0000
     51 ****         0.5181   1.3194  -2.0814 LP             1 S1                 0.0000
     52 ****        -1.9342   0.1045   0.3450 LP             1 S1                 0.0000
     53 ****        -0.7239  -0.1471   1.5582 LP             1 S1                 0.0000
     54 ****        -4.9656   0.2206  -2.4824 LP             1 S1                 0.0000
@<TRIPOS>BOND
    1    1    2 1     
    2    1   23 1     
    3    1   24 1     
    4    1   25 1     
    5    2    3 1     
    6    3    4 1     
    7    3   26 1     
    8    3   27 1     
    9    4   22 1     
   10    4    5 2     
   11    5    6 1     
   12    5   28 1     
   13    6    7 2     
   14    6    8 am    
   15    8    9 1     
   16    8   21 1     
   17    9   10 1     
   18    9   29 1     
   19    9   30 1     
   20   10   11 2     
   21   10   12 am    
   22   12   13 1     
   23   12   31 1     
   24   13   19 1     
   25   13   14 1     
   26   13   32 1     
   27   14   15 1     
   28   14   33 1     
   29   14   34 1     
   30   15   16 1     
   31   15   35 1     
   32   15   36 1     
   33   16   17 1     
   34   16   37 1     
   35   16   38 1     
   36   17   18 1     
   37   17   19 1     
   38   17   39 1     
   39   18   40 1     
   40   18   41 1     
   41   18   42 1     
   42   19   20 1     
   43   19   43 1     
   44   20   44 1     
   45   20   45 1     
   46   20   46 1     
   47   21   22 2     
   48   21   47 1     
   49    2   48 1     
   50    2   49 1     
   51    7   50 1     
   52    7   51 1     
   53   11   52 1     
   54   11   53 1     
   55   22   54 1     
@<TRIPOS>SUBSTRUCTURE
      1 S1             1
@<TRIPOS>SET
LONE_PAIRS      STATIC     ATOMS    <user>   **** ""
7 48 49 50 51 52 53 54
DONOR_HYDROGENS      STATIC     ATOMS    <user>   **** ""
1 31
ATOM$BLUE        STATIC     ATOMS    COLORGROUP SYSTEM
7 48 49 50 51 52 53 54
ATOM$RED        STATIC     ATOMS    COLORGROUP SYSTEM
1 31
