AV-unprocessed.smi:686|AV-procd|sdf|3344|dock6
  -GOLD-   22720 0323D 1   1.00000     0.00000
 Structure written by MMmdl.
 41 42  0  0  0  0  0  0  0  0  2 V2000
  150.9172  143.4804  158.0270 C   0  0  0  0  0  0  0  0  0  0  0  0
  150.4396  142.0369  157.7985 C   0  0  1  0  0  0  0  0  0  0  0  0
  148.9295  141.9685  157.5598 C   0  0  0  0  0  0  0  0  0  0  0  0
  148.7407  142.1877  156.1099 N   0  3  2  0  0  0  0  0  0  0  0  0
  147.4423  141.7162  155.5502 C   0  0  0  0  0  0  0  0  0  0  0  0
  147.3434  142.0226  154.0437 C   0  0  0  0  0  0  0  0  0  0  0  0
  146.2423  142.3462  156.2828 C   0  0  0  0  0  0  0  0  0  0  0  0
  149.9489  141.6551  155.4348 C   0  0  0  0  0  0  0  0  0  0  0  0
  151.0223  141.4271  156.5166 C   0  0  2  0  0  0  0  0  0  0  0  0
  151.2676  139.9949  156.7158 N   0  0  0  0  0  0  0  0  0  0  0  0
  151.8672  139.0756  155.3839 S   0  0  0  0  0  0  0  0  0  0  0  0
  150.9191  139.2278  154.2695 O   0  0  0  0  0  0  0  0  0  0  0  0
  153.2800  139.4399  155.2000 O   0  0  0  0  0  0  0  0  0  0  0  0
  151.7655  137.3465  156.0107 C   0  0  0  0  0  0  0  0  0  0  0  0
  151.7401  137.3597  157.5121 C   0  0  0  0  0  0  0  0  0  0  0  0
  152.6739  137.9517  158.4069 C   0  0  0  0  0  0  0  0  0  0  0  0
  152.1638  137.6591  159.6388 C   0  0  0  0  0  0  0  0  0  0  0  0
  151.0124  136.9509  159.5204 O   0  0  0  0  0  0  0  0  0  0  0  0
  150.7494  136.7657  158.1584 N   0  0  0  0  0  0  0  0  0  0  0  0
  150.6744  144.1237  157.1804 H   0  0  0  0  0  0  0  0  0  0  0  0
  151.9975  143.5155  158.1713 H   0  0  0  0  0  0  0  0  0  0  0  0
  150.4543  143.9106  158.9156 H   0  0  0  0  0  0  0  0  0  0  0  0
  150.7106  141.4541  158.6805 H   0  0  0  0  0  0  0  0  0  0  0  0
  148.5674  140.9731  157.8233 H   0  0  0  0  0  0  0  0  0  0  0  0
  148.3783  142.6941  158.1591 H   0  0  0  0  0  0  0  0  0  0  0  0
  147.3881  140.6346  155.6841 H   0  0  0  0  0  0  0  0  0  0  0  0
  146.3848  141.6945  153.6410 H   0  0  0  0  0  0  0  0  0  0  0  0
  148.1172  141.5150  153.4680 H   0  0  0  0  0  0  0  0  0  0  0  0
  147.4324  143.0922  153.8508 H   0  0  0  0  0  0  0  0  0  0  0  0
  145.3012  142.0322  155.8302 H   0  0  0  0  0  0  0  0  0  0  0  0
  146.2797  143.4355  156.2428 H   0  0  0  0  0  0  0  0  0  0  0  0
  146.1998  142.0494  157.3309 H   0  0  0  0  0  0  0  0  0  0  0  0
  149.7234  140.7270  154.9068 H   0  0  0  0  0  0  0  0  0  0  0  0
  150.2888  142.3759  154.6906 H   0  0  0  0  0  0  0  0  0  0  0  0
  151.9662  141.9046  156.2482 H   0  0  0  0  0  0  0  0  0  0  0  0
  151.8355  139.8355  157.5482 H   0  0  0  0  0  0  0  0  0  0  0  0
  150.8654  136.8830  155.6075 H   0  0  0  0  0  0  0  0  0  0  0  0
  152.6249  136.7922  155.6321 H   0  0  0  0  0  0  0  0  0  0  0  0
  153.5764  138.4998  158.1806 H   0  0  0  0  0  0  0  0  0  0  0  0
  152.4872  137.8746  160.6465 H   0  0  0  0  0  0  0  0  0  0  0  0
  148.7720  143.1888  155.9801 H   0  0  0  0  0  0  0  0  0  0  0  0
  1  2  1  0  0  0  0
  1 20  1  0  0  0  0
  1 21  1  0  0  0  0
  1 22  1  0  0  0  0
  2  9  1  0  0  0  0
  2  3  1  0  0  0  0
  2 23  1  0  0  0  0
  3  4  1  0  0  0  0
  3 24  1  0  0  0  0
  3 25  1  0  0  0  0
  4  5  1  0  0  0  0
  4  8  1  0  0  0  0
  4 41  1  0  0  0  0
  5  6  1  0  0  0  0
  5  7  1  0  0  0  0
  5 26  1  0  0  0  0
  6 27  1  0  0  0  0
  6 28  1  0  0  0  0
  6 29  1  0  0  0  0
  7 30  1  0  0  0  0
  7 31  1  0  0  0  0
  7 32  1  0  0  0  0
  8  9  1  0  0  0  0
  8 33  1  0  0  0  0
  8 34  1  0  0  0  0
  9 10  1  0  0  0  0
  9 35  1  0  0  0  0
 10 11  1  0  0  0  0
 10 36  1  0  0  0  0
 11 12  2  0  0  0  0
 11 13  2  0  0  0  0
 11 14  1  0  0  0  0
 14 15  1  0  0  0  0
 14 37  1  0  0  0  0
 14 38  1  0  0  0  0
 15 19  2  0  0  0  0
 15 16  1  0  0  0  0
 16 17  2  0  0  0  0
 16 39  1  0  0  0  0
 17 18  1  0  0  0  0
 17 40  1  0  0  0  0
 18 19  1  0  0  0  0
M  CHG  1   4   1
M  END
> <s_m_source_file>
AV-unprocessed.smi

> <i_m_source_file_index>
686

> <i_lp_mmshare_version>
43012

> <i_f3d_flags>
0

> <s_epik_input>
W0NIM11bQ0BASF0xW0NIMl1OKFtDSF0oW0NIM10pW0NIM10pW0NIMl1bQ0BIXTFbTkhdUyg9TykoPU8pW0NIMl1jMltjSF1bY0hdb24y

> <s_epik_cmdline>
J2VwaWtfcHl0aG9uJywgJy1waCcsICc3LjAnLCAnLXRuJywgJzgnLCAnLW1hJywgJzIwMCcsICctbWV0YWxfYmluZGluZycsICctaW1hZScsICc8aW5maWxlLm1hZT4nLCAnLW9tYWUnLCAnPG91dGZpbGUubWFlPic=

> <r_epik_Ionization_Penalty>
0.00200818

> <r_epik_Ionization_Penalty_Charging>
0.000701289

> <r_epik_Ionization_Penalty_Neutral>
0.00130689

> <r_epik_State_Penalty>
0.00131314

> <r_epik_Charging_Adjusted_Penalty>
0.00201443

> <i_epik_Tot_Q>
1

> <i_epik_Tot_abs_Q>
1

> <r_epik_Metal_State_Penalty>
0.310831

> <b_epik_Metal_Only>
0

> <s_lp_Force_Field>
OPLS_2005

> <r_lp_Energy>
21.6188

> <b_lp_Chiralities_Consistent>
1

> <s_lp_Variant>
AV-unprocessed.smi:686-8

> <Gold.Version>
5.8.1

> <Gold.Id.Protein>
6NUR|6NUR_protein|mol2

> <Gold.PLP.Fitness>
43.0985

> <Gold.PLP.PLP>
-29.2628

> <Gold.PLP.part.hbond>
-4.2850

> <Gold.PLP.part.metal>
0.0000

> <Gold.PLP.part.buried>
-5.0885

> <Gold.PLP.part.nonpolar>
-20.1483

> <Gold.PLP.part.repulsive>
0.2329

> <Gold.PLP.ligand.clash>
0.0000

> <Gold.PLP.ligand.torsion>
0.5879

> <Gold.PLP.Chemscore.Hbond>
4.9500

> <Gold.PLP.Chemscore.CHOScore>
0.0000

> <Gold.PLP.Chemscore.Metal>
0.0000

> <Gold.Chemscore.Hbonds>
donor molecule, donor type, donor heavy atom, donor atom, acceptor molecule, acceptor atom, score
      L1  H     4    41       P1  8028  2.00
      P1  H  6896  6909       L1    18  1.00
      P1  H  7989  7998       L1    12  0.95
      P1  H  7997  8010       L1    13  1.00

> <Gold.PLP.Chemscore.Internal.Correction>
0.1615

> <Gold.Rescore>
     Score         DG    S(hbond)    S(metal)    S(lipo)     H(rot)  DE(clash)    DE(int)     intcor
     15.43     -17.44       2.75        0.00      65.62       1.91       0.05       1.97       ----

> <Gold.Chemscore.Fitness>
15.4291

> <Gold.Chemscore.DG>
-17.4420

> <Gold.Chemscore.ZeroCoef>
-5.4800

> <Gold.Chemscore.Hbond>
2.7480

> <Gold.Chemscore.Metal>
0.0000

> <Gold.Chemscore.Lipo>
65.6162

> <Gold.Chemscore.Internal_Hbond>
0.0000

> <Gold.Chemscore.DEClash>
0.0456

> <Gold.Chemscore.DEInternal>
1.9672

> <Gold.Chemscore.Rot>
1.9115

> <Gold.Chemscore.Internal.Correction>
   9.000000E+99

> <Gold.Chemscore.Hbonds>
donor molecule, donor type, donor heavy atom, donor atom, acceptor molecule, acceptor atom, score
      L1  H     4    41       P1  8028  0.96
      P1  H  6896  6909       L1    18  0.09
      P1  H  7989  7998       L1    12  0.21
      P1  H  7997  8010       L1    13  0.95

> <Gold.Chemscore.Hbond.Weighted>
-9.1783

> <Gold.Chemscore.Metal.Weighted>
-0.0000

> <Gold.Chemscore.Lipo.Weighted>
-7.6771

> <Gold.Chemscore.Internal_Hbond.Weighted>
0.0000

> <Gold.Chemscore.DEClash.Weighted>
0.0456

> <Gold.Chemscore.DEInternal.Weighted>
1.9672

> <Gold.Chemscore.Rot.Weighted>
4.8935

> <Gold.Chemscore.Internal.Correction.Weighted>
   9.000000E+99

> <Gold.Protein.RotatedTorsions>
[ 6907 6896 6895 6894 ] final  121.58 input  -60.11 | X-H torsion
[ 7974 7965 7964 7962 ] final -151.26 input  175.53 | X-H torsion
[ 8008 7997 7996 7995 ] final  103.39 input   59.86 | X-H torsion
[ 10167 10162 10161 10158 ] final   29.42 input  -65.29 | X-H torsion
[ 10718 10713 10712 10709 ] final -136.21 input   66.30 | X-H torsion
[ 10763 10752 10751 10750 ] final   99.89 input  -60.55 | X-H torsion
[ 11005 11000 10999 10996 ] final  117.91 input  -57.11 | X-H torsion

> <Gold.Protein.ActiveResidues>
 VAL166  LYS551  ARG553  GLY616  TRP617  ASP618  TYR619  PRO620  LYS621  CYS622 
 ASP623  PHE694  ASN695  SER759  ASP760  ASP761  ALA762  ILE779  LEU786  VAL792 
 PHE793  MET794  SER795  GLU796  ALA797  LYS798  CYS799  TRP800  GLU811  SER814 

> <Gold.Protein.RotatedAtoms>
  152.4310  133.7278  159.6569 H   0  0  0  0  0  0  0  0  0  0  0  0  # atno 6907 bound_to 6896
  150.8189  133.8276  159.3154 H   0  0  0  0  0  0  0  0  0  0  0  0  # atno 6908 bound_to 6896
  151.5964  135.1052  160.0102 H   0  0  0  0  0  0  0  0  0  0  0  0  # atno 6909 bound_to 6896
  144.7860  140.4821  143.5806 H   0  0  0  0  0  0  0  0  0  0  0  0  # atno 7974 bound_to 7965
  156.1480  140.3165  155.8601 H   0  0  0  0  0  0  0  0  0  0  0  0  # atno 8008 bound_to 7997
  155.4027  140.0500  157.3053 H   0  0  0  0  0  0  0  0  0  0  0  0  # atno 8009 bound_to 7997
  154.5033  140.2137  155.9314 H   0  0  0  0  0  0  0  0  0  0  0  0  # atno 8010 bound_to 7997
  140.4767  144.0679  150.6253 H   0  0  0  0  0  0  0  0  0  0  0  0  # atno 10167 bound_to 10162
  156.2745  130.7285  151.1263 H   0  0  0  0  0  0  0  0  0  0  0  0  # atno 10718 bound_to 10713
  153.3070  135.4098  155.1303 H   0  0  0  0  0  0  0  0  0  0  0  0  # atno 10763 bound_to 10752
  154.8565  135.3555  154.5774 H   0  0  0  0  0  0  0  0  0  0  0  0  # atno 10764 bound_to 10752
  153.6202  135.7064  153.5372 H   0  0  0  0  0  0  0  0  0  0  0  0  # atno 10765 bound_to 10752
  139.9091  134.9615  156.7423 H   0  0  0  0  0  0  0  0  0  0  0  0  # atno 11005 bound_to 11000
  145.5921  139.1496  143.3176 LP  0  0  0  0  0  0  0  0  0  0  0  0  # atno 17320 bound_to 7965
  146.2092  140.6046  142.9067 LP  0  0  0  0  0  0  0  0  0  0  0  0  # atno 17321 bound_to 7965
  140.3909  143.2753  152.0061 LP  0  0  0  0  0  0  0  0  0  0  0  0  # atno 17342 bound_to 10162
  139.4827  144.6078  151.7490 LP  0  0  0  0  0  0  0  0  0  0  0  0  # atno 17343 bound_to 10162
  157.7295  131.0624  150.5772 LP  0  0  0  0  0  0  0  0  0  0  0  0  # atno 17370 bound_to 10713
  156.5871  130.4319  149.5952 LP  0  0  0  0  0  0  0  0  0  0  0  0  # atno 17371 bound_to 10713
  140.6839  133.9449  155.7926 LP  0  0  0  0  0  0  0  0  0  0  0  0  # atno 17394 bound_to 11000
  141.0490  134.0512  157.3808 LP  0  0  0  0  0  0  0  0  0  0  0  0  # atno 17395 bound_to 11000

$$$$
