AV-unprocessed.smi:2032|AV-procd|sdf|8232|dock8
  -GOLD-   2272010503D 1   1.00000     0.00000
 Structure written by MMmdl.
 42 43  0  0  0  0  0  0  0  0  1 V2000
  151.5739  137.5487  154.9399 C   0  0  0  0  0  0  0  0  0  0  0  0
  150.9880  138.9469  154.7155 C   0  0  1  0  0  0  0  0  0  0  0  0
  149.5473  138.8942  154.1739 C   0  0  0  0  0  0  0  0  0  0  0  0
  148.9467  140.2230  154.0153 N   0  0  0  0  0  0  0  0  0  0  0  0
  147.5530  140.1600  153.5164 C   0  0  2  0  0  0  0  0  0  0  0  0
  146.7476  141.4516  153.8088 C   0  0  0  0  0  0  0  0  0  0  0  0
  146.7565  138.9416  154.0679 C   0  0  0  0  0  0  0  0  0  0  0  0
  146.9307  137.7301  153.2707 N   0  0  0  0  0  0  0  0  0  0  0  0
  145.9356  136.9220  152.8777 C   0  0  0  0  0  0  0  0  0  0  0  0
  144.7512  137.1249  153.1478 O   0  0  0  0  0  0  0  0  0  0  0  0
  146.4039  135.8818  152.1660 N   0  0  0  0  0  0  0  0  0  0  0  0
  145.6678  134.8212  151.5752 C   0  0  0  0  0  0  0  0  0  0  0  0
  144.3325  134.7319  151.5857 N   0  0  0  0  0  0  0  0  0  0  0  0
  143.8778  133.5851  150.9303 C   0  0  0  0  0  0  0  0  0  0  0  0
  144.8878  132.8068  150.4220 C   0  0  0  0  0  0  0  0  0  0  0  0
  146.4595  133.4878  150.7481 S   0  0  0  0  0  0  0  0  0  0  0  0
  149.0513  140.9194  155.3030 C   0  0  0  0  0  0  0  0  0  0  0  0
  150.4900  140.9620  155.8525 C   0  0  1  0  0  0  0  0  0  0  0  0
  150.5594  141.6106  157.2393 C   0  0  0  0  0  0  0  0  0  0  0  0
  150.9917  139.6359  155.9589 O   0  0  0  0  0  0  0  0  0  0  0  0
  151.5998  136.9807  154.0099 H   0  0  0  0  0  0  0  0  0  0  0  0
  150.9830  136.9838  155.6616 H   0  0  0  0  0  0  0  0  0  0  0  0
  152.5938  137.6105  155.3198 H   0  0  0  0  0  0  0  0  0  0  0  0
  151.6244  139.4833  154.0095 H   0  0  0  0  0  0  0  0  0  0  0  0
  149.5869  138.3779  153.2162 H   0  0  0  0  0  0  0  0  0  0  0  0
  148.9292  138.2868  154.8371 H   0  0  0  0  0  0  0  0  0  0  0  0
  147.5950  140.0541  152.4312 H   0  0  0  0  0  0  0  0  0  0  0  0
  145.7071  141.3732  153.4959 H   0  0  0  0  0  0  0  0  0  0  0  0
  147.1408  142.3120  153.2691 H   0  0  0  0  0  0  0  0  0  0  0  0
  146.7529  141.6887  154.8731 H   0  0  0  0  0  0  0  0  0  0  0  0
  147.0417  138.6873  155.0873 H   0  0  0  0  0  0  0  0  0  0  0  0
  145.6925  139.1780  154.0991 H   0  0  0  0  0  0  0  0  0  0  0  0
  147.8751  137.4904  153.0072 H   0  0  0  0  0  0  0  0  0  0  0  0
  147.4032  135.8445  152.0291 H   0  0  0  0  0  0  0  0  0  0  0  0
  142.8154  133.3997  150.8729 H   0  0  0  0  0  0  0  0  0  0  0  0
  144.8025  131.8780  149.8780 H   0  0  0  0  0  0  0  0  0  0  0  0
  148.7217  141.9519  155.2106 H   0  0  0  0  0  0  0  0  0  0  0  0
  148.3960  140.4418  156.0333 H   0  0  0  0  0  0  0  0  0  0  0  0
  151.1251  141.5282  155.1689 H   0  0  0  0  0  0  0  0  0  0  0  0
  150.1944  142.6376  157.2115 H   0  0  0  0  0  0  0  0  0  0  0  0
  151.5850  141.6321  157.6083 H   0  0  0  0  0  0  0  0  0  0  0  0
  149.9565  141.0602  157.9621 H   0  0  0  0  0  0  0  0  0  0  0  0
  1  2  1  0  0  0  0
  1 21  1  0  0  0  0
  1 22  1  0  0  0  0
  1 23  1  0  0  0  0
  2 20  1  0  0  0  0
  2  3  1  0  0  0  0
  2 24  1  0  0  0  0
  3  4  1  0  0  0  0
  3 25  1  0  0  0  0
  3 26  1  0  0  0  0
  4  5  1  0  0  0  0
  4 17  1  0  0  0  0
  5  6  1  0  0  0  0
  5  7  1  0  0  0  0
  5 27  1  0  0  0  0
  6 28  1  0  0  0  0
  6 29  1  0  0  0  0
  6 30  1  0  0  0  0
  7  8  1  0  0  0  0
  7 31  1  0  0  0  0
  7 32  1  0  0  0  0
  8  9  1  0  0  0  0
  8 33  1  0  0  0  0
  9 10  2  0  0  0  0
  9 11  1  0  0  0  0
 11 12  1  0  0  0  0
 11 34  1  0  0  0  0
 12 16  1  0  0  0  0
 12 13  2  0  0  0  0
 13 14  1  0  0  0  0
 14 15  2  0  0  0  0
 14 35  1  0  0  0  0
 15 16  1  0  0  0  0
 15 36  1  0  0  0  0
 17 18  1  0  0  0  0
 17 37  1  0  0  0  0
 17 38  1  0  0  0  0
 18 19  1  0  0  0  0
 18 20  1  0  0  0  0
 18 39  1  0  0  0  0
 19 40  1  0  0  0  0
 19 41  1  0  0  0  0
 19 42  1  0  0  0  0
M  END
> <s_m_source_file>
AV-unprocessed.smi

> <i_m_source_file_index>
2032

> <i_lp_mmshare_version>
43012

> <i_f3d_flags>
0

> <s_epik_input>
W0NIM11bQ0BASF0xW0NIMl1OKFtDSDJdW0NASF0oTzEpW0NIM10pW0NASF0oW0NIM10pW0NIMl1bTkhdQyg9TylbTkhdYzJuW2NIXVtjSF1zMg==

> <s_epik_cmdline>
J2VwaWtfcHl0aG9uJywgJy1waCcsICc3LjAnLCAnLXRuJywgJzgnLCAnLW1hJywgJzIwMCcsICctbWV0YWxfYmluZGluZycsICctaW1hZScsICc8aW5maWxlLm1hZT4nLCAnLW9tYWUnLCAnPG91dGZpbGUubWFlPic=

> <r_lp_tautomer_probability>
0.999

> <r_epik_Ionization_Penalty>
0.219202

> <r_epik_Ionization_Penalty_Charging>
0

> <r_epik_Ionization_Penalty_Neutral>
0.219202

> <r_epik_State_Penalty>
0.209349

> <r_epik_Charging_Adjusted_Penalty>
0.209349

> <i_epik_Tot_Q>
0

> <i_epik_Tot_abs_Q>
0

> <r_epik_Metal_State_Penalty>
0.247737

> <b_epik_Metal_Only>
0

> <s_lp_Force_Field>
OPLS_2005

> <r_lp_Energy>
24.8092

> <b_lp_Chiralities_Consistent>
1

> <s_lp_Variant>
AV-unprocessed.smi:2032-2

> <Gold.Version>
5.8.1

> <Gold.Id.Protein>
6NUR|6NUR_protein|mol2

> <Gold.PLP.Fitness>
39.7952

> <Gold.PLP.PLP>
-33.1139

> <Gold.PLP.part.hbond>
-2.0000

> <Gold.PLP.part.metal>
0.0000

> <Gold.PLP.part.buried>
-4.7556

> <Gold.PLP.part.nonpolar>
-28.7758

> <Gold.PLP.part.repulsive>
2.1173

> <Gold.PLP.ligand.clash>
0.0000

> <Gold.PLP.ligand.torsion>
0.9529

> <Gold.PLP.Chemscore.Hbond>
1.8564

> <Gold.PLP.Chemscore.CHOScore>
0.9939

> <Gold.PLP.Chemscore.Metal>
0.0000

> <Gold.Chemscore.Hbonds>
donor molecule, donor type, donor heavy atom, donor atom, acceptor molecule, acceptor atom, score
      L1  H     8    33       P1  7948  0.86
      L1  H    11    34       P1  7948  1.00
      L1  C    14    35       P1 10186  1.00

> <Gold.PLP.Chemscore.Internal.Correction>
0.0361

> <Gold.Rescore>
     Score         DG    S(hbond)    S(metal)    S(lipo)     H(rot)  DE(clash)    DE(int)     intcor
     14.64     -16.91       1.84        0.00      79.57       1.57       0.14       2.13       ----

> <Gold.Chemscore.Fitness>
14.6446

> <Gold.Chemscore.DG>
-16.9066

> <Gold.Chemscore.ZeroCoef>
-5.4800

> <Gold.Chemscore.Hbond>
1.8408

> <Gold.Chemscore.Metal>
0.0000

> <Gold.Chemscore.Lipo>
79.5737

> <Gold.Chemscore.Internal_Hbond>
0.0000

> <Gold.Chemscore.DEClash>
0.1356

> <Gold.Chemscore.DEInternal>
2.1264

> <Gold.Chemscore.Rot>
1.5750

> <Gold.Chemscore.Internal.Correction>
   9.000000E+99

> <Gold.Chemscore.Hbonds>
donor molecule, donor type, donor heavy atom, donor atom, acceptor molecule, acceptor atom, score
      L1  H     8    33       P1  7948  0.81
      L1  H    11    34       P1  7948  0.98

> <Gold.Chemscore.Hbond.Weighted>
-6.1484

> <Gold.Chemscore.Metal.Weighted>
-0.0000

> <Gold.Chemscore.Lipo.Weighted>
-9.3101

> <Gold.Chemscore.Internal_Hbond.Weighted>
0.0000

> <Gold.Chemscore.DEClash.Weighted>
0.1356

> <Gold.Chemscore.DEInternal.Weighted>
2.1264

> <Gold.Chemscore.Rot.Weighted>
4.0319

> <Gold.Chemscore.Internal.Correction.Weighted>
   9.000000E+99

> <Gold.Protein.RotatedTorsions>
[ 6907 6896 6895 6894 ] final   87.34 input  -60.11 | X-H torsion
[ 7974 7965 7964 7962 ] final  -21.59 input  175.53 | X-H torsion
[ 8008 7997 7996 7995 ] final   81.56 input   59.86 | X-H torsion
[ 10167 10162 10161 10158 ] final  177.36 input  -65.29 | X-H torsion
[ 10718 10713 10712 10709 ] final  124.96 input   66.30 | X-H torsion
[ 10763 10752 10751 10750 ] final  -53.20 input  -60.55 | X-H torsion
[ 11005 11000 10999 10996 ] final  113.08 input  -57.11 | X-H torsion

> <Gold.Protein.ActiveResidues>
 VAL166  LYS551  ARG553  GLY616  TRP617  ASP618  TYR619  PRO620  LYS621  CYS622 
 ASP623  PHE694  ASN695  SER759  ASP760  ASP761  ALA762  ILE779  LEU786  VAL792 
 PHE793  MET794  SER795  GLU796  ALA797  LYS798  CYS799  TRP800  GLU811  SER814 

> <Gold.Protein.RotatedAtoms>
  152.5409  134.2291  159.8817 H   0  0  0  0  0  0  0  0  0  0  0  0  # atno 6907 bound_to 6896
  151.2264  133.4467  159.2610 H   0  0  0  0  0  0  0  0  0  0  0  0  # atno 6908 bound_to 6896
  151.0757  134.9840  159.8387 H   0  0  0  0  0  0  0  0  0  0  0  0  # atno 6909 bound_to 6896
  146.1724  140.4363  142.8527 H   0  0  0  0  0  0  0  0  0  0  0  0  # atno 7974 bound_to 7965
  155.8988  140.3434  155.6011 H   0  0  0  0  0  0  0  0  0  0  0  0  # atno 8008 bound_to 7997
  155.7525  140.0822  157.2213 H   0  0  0  0  0  0  0  0  0  0  0  0  # atno 8009 bound_to 7997
  154.4041  140.1551  156.2727 H   0  0  0  0  0  0  0  0  0  0  0  0  # atno 8010 bound_to 7997
  139.5250  144.2807  152.0549 H   0  0  0  0  0  0  0  0  0  0  0  0  # atno 10167 bound_to 10162
  157.5542  131.1093  150.8650 H   0  0  0  0  0  0  0  0  0  0  0  0  # atno 10718 bound_to 10713
  154.1550  135.6484  153.4972 H   0  0  0  0  0  0  0  0  0  0  0  0  # atno 10763 bound_to 10752
  153.0127  135.5347  154.6769 H   0  0  0  0  0  0  0  0  0  0  0  0  # atno 10764 bound_to 10752
  154.6067  135.2949  155.0448 H   0  0  0  0  0  0  0  0  0  0  0  0  # atno 10765 bound_to 10752
  139.8943  134.9543  156.6683 H   0  0  0  0  0  0  0  0  0  0  0  0  # atno 11005 bound_to 11000
  144.8183  140.6506  143.6369 LP  0  0  0  0  0  0  0  0  0  0  0  0  # atno 17320 bound_to 7965
  145.4304  139.1550  143.4025 LP  0  0  0  0  0  0  0  0  0  0  0  0  # atno 17321 bound_to 7965
  140.2263  144.4415  150.6320 LP  0  0  0  0  0  0  0  0  0  0  0  0  # atno 17342 bound_to 10162
  140.6385  143.2199  151.6341 LP  0  0  0  0  0  0  0  0  0  0  0  0  # atno 17343 bound_to 10162
  156.9166  130.5300  149.5279 LP  0  0  0  0  0  0  0  0  0  0  0  0  # atno 17370 bound_to 10713
  156.0603  130.5657  150.9179 LP  0  0  0  0  0  0  0  0  0  0  0  0  # atno 17371 bound_to 10713
  140.7393  133.8992  155.8266 LP  0  0  0  0  0  0  0  0  0  0  0  0  # atno 17394 bound_to 11000
  141.0091  134.1046  157.4240 LP  0  0  0  0  0  0  0  0  0  0  0  0  # atno 17395 bound_to 11000

$$$$
