AV-unprocessed.smi:3201|AV-procd|sdf|12238|dock7
  -GOLD-   2272018 73D 1   1.00000     0.00000
 Structure written by MMmdl.
 41 43  0  0  0  0  0  0  0  0  2 V2000
  153.3200  141.0589  160.0779 C   0  0  0  0  0  0  0  0  0  0  0  0
  152.6007  142.3652  160.1808 C   0  0  0  0  0  0  0  0  0  0  0  0
  151.8953  143.0744  159.2455 C   0  0  0  0  0  0  0  0  0  0  0  0
  151.6315  142.7411  157.8028 C   0  0  0  0  0  0  0  0  0  0  0  0
  150.1720  142.3234  157.5809 C   0  0  0  0  0  0  0  0  0  0  0  0
  149.8306  142.3274  156.1441 N   0  3  0  0  0  0  0  0  0  0  0  0
  148.8212  141.3203  155.7501 C   0  0  1  0  0  0  0  0  0  0  0  0
  147.4235  141.6167  156.3432 C   0  0  0  0  0  0  0  0  0  0  0  0
  146.5300  141.7031  155.0926 C   0  0  2  0  0  0  0  0  0  0  0  0
  146.3898  140.3066  154.4587 C   0  0  0  0  0  0  0  0  0  0  0  0
  147.7801  140.0754  153.8368 C   0  0  0  0  0  0  0  0  0  0  0  0
  148.5462  141.3529  154.2308 C   0  0  1  0  0  0  0  0  0  0  0  0
  147.4518  142.4093  154.1065 C   0  0  0  0  0  0  0  0  0  0  0  0
  151.4581  144.2275  159.9566 C   0  0  0  0  0  0  0  0  0  0  0  0
  151.8580  144.2366  161.2154 N   0  0  0  0  0  0  0  0  0  0  0  0
  152.5584  143.0926  161.3558 N   0  0  0  0  0  0  0  0  0  0  0  0
  153.1541  142.7772  162.6397 C   0  0  0  0  0  0  0  0  0  0  0  0
  153.2718  140.6586  159.0654 H   0  0  0  0  0  0  0  0  0  0  0  0
  152.8803  140.3215  160.7496 H   0  0  0  0  0  0  0  0  0  0  0  0
  154.3715  141.1733  160.3424 H   0  0  0  0  0  0  0  0  0  0  0  0
  151.8656  143.5945  157.1652 H   0  0  0  0  0  0  0  0  0  0  0  0
  152.2901  141.9369  157.4724 H   0  0  0  0  0  0  0  0  0  0  0  0
  150.0047  141.3242  157.9855 H   0  0  0  0  0  0  0  0  0  0  0  0
  149.5067  143.0019  158.1160 H   0  0  0  0  0  0  0  0  0  0  0  0
  149.4918  143.2432  155.8860 H   0  0  0  0  0  0  0  0  0  0  0  0
  149.1786  140.3329  156.0474 H   0  0  0  0  0  0  0  0  0  0  0  0
  147.0935  140.8398  157.0339 H   0  0  0  0  0  0  0  0  0  0  0  0
  147.4043  142.5661  156.8807 H   0  0  0  0  0  0  0  0  0  0  0  0
  145.5764  142.2012  155.2703 H   0  0  0  0  0  0  0  0  0  0  0  0
  146.1296  139.5441  155.1939 H   0  0  0  0  0  0  0  0  0  0  0  0
  145.6195  140.3038  153.6862 H   0  0  0  0  0  0  0  0  0  0  0  0
  148.2582  139.1684  154.2086 H   0  0  0  0  0  0  0  0  0  0  0  0
  147.7032  139.9898  152.7520 H   0  0  0  0  0  0  0  0  0  0  0  0
  149.4325  141.5286  153.6199 H   0  0  0  0  0  0  0  0  0  0  0  0
  147.0333  142.4842  153.1012 H   0  0  0  0  0  0  0  0  0  0  0  0
  147.7629  143.4015  154.4382 H   0  0  0  0  0  0  0  0  0  0  0  0
  150.8667  145.0558  159.5951 H   0  0  0  0  0  0  0  0  0  0  0  0
  152.8678  141.7692  162.9414 H   0  0  0  0  0  0  0  0  0  0  0  0
  152.8184  143.4805  163.4034 H   0  0  0  0  0  0  0  0  0  0  0  0
  154.2405  142.8314  162.5621 H   0  0  0  0  0  0  0  0  0  0  0  0
  150.6776  142.1400  155.6266 H   0  0  0  0  0  0  0  0  0  0  0  0
  1  2  1  0  0  0  0
  1 18  1  0  0  0  0
  1 19  1  0  0  0  0
  1 20  1  0  0  0  0
  2 16  1  0  0  0  0
  2  3  2  0  0  0  0
  3  4  1  0  0  0  0
  3 14  1  0  0  0  0
  4  5  1  0  0  0  0
  4 21  1  0  0  0  0
  4 22  1  0  0  0  0
  5  6  1  0  0  0  0
  5 23  1  0  0  0  0
  5 24  1  0  0  0  0
  6  7  1  0  0  0  0
  6 25  1  0  0  0  0
  6 41  1  0  0  0  0
  7 12  1  0  0  0  0
  7  8  1  0  0  0  0
  7 26  1  0  0  0  0
  8  9  1  0  0  0  0
  8 27  1  0  0  0  0
  8 28  1  0  0  0  0
  9 13  1  0  0  0  0
  9 10  1  0  0  0  0
  9 29  1  0  0  0  0
 10 11  1  0  0  0  0
 10 30  1  0  0  0  0
 10 31  1  0  0  0  0
 11 12  1  0  0  0  0
 11 32  1  0  0  0  0
 11 33  1  0  0  0  0
 12 13  1  0  0  0  0
 12 34  1  0  0  0  0
 13 35  1  0  0  0  0
 13 36  1  0  0  0  0
 14 15  2  0  0  0  0
 14 37  1  0  0  0  0
 15 16  1  0  0  0  0
 16 17  1  0  0  0  0
 17 38  1  0  0  0  0
 17 39  1  0  0  0  0
 17 40  1  0  0  0  0
M  CHG  1   6   1
M  END
> <s_m_source_file>
AV-unprocessed.smi

> <i_m_source_file_index>
3201

> <i_lp_mmshare_version>
43012

> <i_f3d_flags>
0

> <s_epik_input>
W0NIM11uMW5bY0hdYyhjMVtDSDNdKVtDSDJdW0NIMl1bTkhdW0NASF0oW0NIMl1bQ0BIXTIzKVtDQEhdKFtDSDJdMylbQ0gyXVtDSDJdMg==

> <s_epik_cmdline>
J2VwaWtfcHl0aG9uJywgJy1waCcsICc3LjAnLCAnLXRuJywgJzgnLCAnLW1hJywgJzIwMCcsICctbWV0YWxfYmluZGluZycsICctaW1hZScsICc8aW5maWxlLm1hZT4nLCAnLW9tYWUnLCAnPG91dGZpbGUubWFlPic=

> <r_lp_tautomer_probability>
1

> <r_epik_Ionization_Penalty>
0.000331174

> <r_epik_Ionization_Penalty_Charging>
0.000242709

> <r_epik_Ionization_Penalty_Neutral>
8.84659e-05

> <r_epik_State_Penalty>
-0

> <r_epik_Charging_Adjusted_Penalty>
0.000242709

> <i_epik_Tot_Q>
1

> <i_epik_Tot_abs_Q>
1

> <r_epik_Metal_State_Penalty>
-0

> <b_epik_Metal_Only>
0

> <s_lp_Force_Field>
OPLS_2005

> <r_lp_Energy>
49.6372

> <b_lp_Chiralities_Consistent>
1

> <s_lp_Variant>
AV-unprocessed.smi:3201-2

> <Gold.Version>
5.8.1

> <Gold.Id.Protein>
6NUR|6NUR_protein|mol2

> <Gold.PLP.Fitness>
46.0623

> <Gold.PLP.PLP>
-40.8585

> <Gold.PLP.part.hbond>
-1.0000

> <Gold.PLP.part.metal>
0.0000

> <Gold.PLP.part.buried>
-5.3205

> <Gold.PLP.part.nonpolar>
-34.7638

> <Gold.PLP.part.repulsive>
0.2770

> <Gold.PLP.ligand.clash>
0.0000

> <Gold.PLP.ligand.torsion>
0.4057

> <Gold.PLP.Chemscore.Hbond>
2.0000

> <Gold.PLP.Chemscore.CHOScore>
0.0000

> <Gold.PLP.Chemscore.Metal>
0.0000

> <Gold.Chemscore.Hbonds>
donor molecule, donor type, donor heavy atom, donor atom, acceptor molecule, acceptor atom, score
      L1  H     6    25       P1  8028  2.00

> <Gold.PLP.Chemscore.Internal.Correction>
0.0151

> <Gold.Rescore>
     Score         DG    S(hbond)    S(metal)    S(lipo)     H(rot)  DE(clash)    DE(int)     intcor
     17.70     -18.06       1.00        0.00     108.71       1.36       0.04       0.32       ----

> <Gold.Chemscore.Fitness>
17.6983

> <Gold.Chemscore.DG>
-18.0582

> <Gold.Chemscore.ZeroCoef>
-5.4800

> <Gold.Chemscore.Hbond>
0.9994

> <Gold.Chemscore.Metal>
0.0000

> <Gold.Chemscore.Lipo>
108.7068

> <Gold.Chemscore.Internal_Hbond>
0.0000

> <Gold.Chemscore.DEClash>
0.0424

> <Gold.Chemscore.DEInternal>
0.3174

> <Gold.Chemscore.Rot>
1.3588

> <Gold.Chemscore.Internal.Correction>
   9.000000E+99

> <Gold.Chemscore.Hbonds>
donor molecule, donor type, donor heavy atom, donor atom, acceptor molecule, acceptor atom, score
      L1  H     6    25       P1  8028  0.99

> <Gold.Chemscore.Hbond.Weighted>
-3.3381

> <Gold.Chemscore.Metal.Weighted>
-0.0000

> <Gold.Chemscore.Lipo.Weighted>
-12.7187

> <Gold.Chemscore.Internal_Hbond.Weighted>
0.0000

> <Gold.Chemscore.DEClash.Weighted>
0.0424

> <Gold.Chemscore.DEInternal.Weighted>
0.3174

> <Gold.Chemscore.Rot.Weighted>
3.4786

> <Gold.Chemscore.Internal.Correction.Weighted>
   9.000000E+99

> <Gold.Protein.RotatedTorsions>
[ 6907 6896 6895 6894 ] final -111.92 input  -60.11 | X-H torsion
[ 7974 7965 7964 7962 ] final  -90.52 input  175.53 | X-H torsion
[ 8008 7997 7996 7995 ] final   24.33 input   59.86 | X-H torsion
[ 10167 10162 10161 10158 ] final  103.14 input  -65.29 | X-H torsion
[ 10718 10713 10712 10709 ] final   22.95 input   66.30 | X-H torsion
[ 10763 10752 10751 10750 ] final -173.10 input  -60.55 | X-H torsion
[ 11005 11000 10999 10996 ] final -160.77 input  -57.11 | X-H torsion

> <Gold.Protein.ActiveResidues>
 VAL166  LYS551  ARG553  GLY616  TRP617  ASP618  TYR619  PRO620  LYS621  CYS622 
 ASP623  PHE694  ASN695  SER759  ASP760  ASP761  ALA762  ILE779  LEU786  VAL792 
 PHE793  MET794  SER795  GLU796  ALA797  LYS798  CYS799  TRP800  GLU811  SER814 

> <Gold.Protein.RotatedAtoms>
  150.7723  133.9165  159.3384 H   0  0  0  0  0  0  0  0  0  0  0  0  # atno 6907 bound_to 6896
  151.7049  135.0921  160.0267 H   0  0  0  0  0  0  0  0  0  0  0  0  # atno 6908 bound_to 6896
  152.3745  133.6425  159.6148 H   0  0  0  0  0  0  0  0  0  0  0  0  # atno 6909 bound_to 6896
  145.4254  140.9553  143.2157 H   0  0  0  0  0  0  0  0  0  0  0  0  # atno 7974 bound_to 7965
  154.9946  140.3118  155.4892 H   0  0  0  0  0  0  0  0  0  0  0  0  # atno 8008 bound_to 7997
  156.2934  140.2243  156.4993 H   0  0  0  0  0  0  0  0  0  0  0  0  # atno 8009 bound_to 7997
  154.7672  140.0455  157.1010 H   0  0  0  0  0  0  0  0  0  0  0  0  # atno 8010 bound_to 7997
  139.7289  144.7041  151.0754 H   0  0  0  0  0  0  0  0  0  0  0  0  # atno 10167 bound_to 10162
  157.1594  130.6710  149.6039 H   0  0  0  0  0  0  0  0  0  0  0  0  # atno 10718 bound_to 10713
  154.6117  135.2865  155.0425 H   0  0  0  0  0  0  0  0  0  0  0  0  # atno 10763 bound_to 10752
  154.1652  135.6481  153.4999 H   0  0  0  0  0  0  0  0  0  0  0  0  # atno 10764 bound_to 10752
  153.0198  135.5388  154.6873 H   0  0  0  0  0  0  0  0  0  0  0  0  # atno 10765 bound_to 10752
  140.6278  134.4683  157.5228 H   0  0  0  0  0  0  0  0  0  0  0  0  # atno 11005 bound_to 11000
  144.8217  139.5779  143.6983 LP  0  0  0  0  0  0  0  0  0  0  0  0  # atno 17320 bound_to 7965
  146.2635  139.6464  142.9346 LP  0  0  0  0  0  0  0  0  0  0  0  0  # atno 17321 bound_to 7965
  140.7767  143.5069  150.9700 LP  0  0  0  0  0  0  0  0  0  0  0  0  # atno 17342 bound_to 10162
  139.8757  143.7135  152.3162 LP  0  0  0  0  0  0  0  0  0  0  0  0  # atno 17343 bound_to 10162
  155.9756  130.4717  150.6473 LP  0  0  0  0  0  0  0  0  0  0  0  0  # atno 17370 bound_to 10713
  157.4147  131.0828  151.1188 LP  0  0  0  0  0  0  0  0  0  0  0  0  # atno 17371 bound_to 10713
  139.9128  134.8309  156.1470 LP  0  0  0  0  0  0  0  0  0  0  0  0  # atno 17394 bound_to 11000
  141.0697  133.6803  156.2115 LP  0  0  0  0  0  0  0  0  0  0  0  0  # atno 17395 bound_to 11000

$$$$
