AV-unprocessed.smi:232|AV-procd|sdf|1774|dock8
  -GOLD-   2262020313D 1   1.00000     0.00000
 Structure written by MMmdl.
 52 55  0  0  0  0  0  0  0  0  1 V2000
  153.7389  141.7584  159.8357 C   0  0  0  0  0  0  0  0  0  0  0  0
  152.6995  140.6499  159.6271 C   0  0  0  0  0  0  0  0  0  0  0  0
  151.4884  141.1065  158.7841 C   0  0  1  0  0  0  0  0  0  0  0  0
  151.1214  142.5872  159.0040 C   0  0  0  0  0  0  0  0  0  0  0  0
  150.9790  143.1923  157.6027 C   0  0  0  0  0  0  0  0  0  0  0  0
  150.9138  141.9887  156.6614 C   0  0  2  0  0  0  0  0  0  0  0  0
  149.4592  141.5374  156.4139 C   0  0  0  0  0  0  0  0  0  0  0  0
  151.7184  140.9815  157.3445 N   0  0  0  0  0  0  0  0  0  0  0  0
  151.8209  139.7633  156.7487 C   0  0  0  0  0  0  0  0  0  0  0  0
  152.3926  139.6533  155.5195 N   0  0  0  0  0  0  0  0  0  0  0  0
  152.5139  138.4591  154.9331 C   0  0  0  0  0  0  0  0  0  0  0  0
  152.1404  137.2634  155.3912 N   0  0  0  0  0  0  0  0  0  0  0  0
  151.5653  137.3651  156.6234 C   0  0  0  0  0  0  0  0  0  0  0  0
  151.3690  138.5632  157.3675 C   0  0  0  0  0  0  0  0  0  0  0  0
  150.7451  138.2703  158.5751 N   0  0  0  0  0  0  0  0  0  0  0  0
  150.5860  136.9755  158.5482 C   0  0  0  0  0  0  0  0  0  0  0  0
  151.0472  136.3530  157.4115 N   0  0  0  0  0  0  0  0  0  0  0  0
  150.9871  134.9324  157.1160 C   0  0  0  0  0  0  0  0  0  0  0  0
  149.9491  134.6025  156.0247 C   0  0  1  0  0  0  0  0  0  0  0  0
  150.2315  135.3519  154.8573 O   0  0  0  0  0  0  0  0  0  0  0  0
  149.9195  133.0970  155.6910 C   0  0  2  0  0  0  0  0  0  0  0  0
  149.0877  132.6791  154.4642 C   0  0  0  0  0  0  0  0  0  0  0  0
  148.0611  131.7191  155.0370 C   0  0  0  0  0  0  0  0  0  0  0  0
  148.7475  131.2110  156.2981 C   0  0  0  0  0  0  0  0  0  0  0  0
  149.3964  132.3688  156.7977 O   0  0  0  0  0  0  0  0  0  0  0  0
  154.5690  141.3998  160.4445 H   0  0  0  0  0  0  0  0  0  0  0  0
  153.2994  142.6158  160.3461 H   0  0  0  0  0  0  0  0  0  0  0  0
  154.1511  142.1068  158.8888 H   0  0  0  0  0  0  0  0  0  0  0  0
  153.1724  139.7880  159.1552 H   0  0  0  0  0  0  0  0  0  0  0  0
  152.3713  140.3088  160.6086 H   0  0  0  0  0  0  0  0  0  0  0  0
  150.6221  140.4965  159.0449 H   0  0  0  0  0  0  0  0  0  0  0  0
  150.1859  142.6627  159.5593 H   0  0  0  0  0  0  0  0  0  0  0  0
  151.8810  143.1276  159.5704 H   0  0  0  0  0  0  0  0  0  0  0  0
  150.1195  143.8574  157.5124 H   0  0  0  0  0  0  0  0  0  0  0  0
  151.8697  143.7789  157.3739 H   0  0  0  0  0  0  0  0  0  0  0  0
  151.3693  142.2612  155.7099 H   0  0  0  0  0  0  0  0  0  0  0  0
  148.8801  142.3367  155.9509 H   0  0  0  0  0  0  0  0  0  0  0  0
  148.9569  141.2597  157.3410 H   0  0  0  0  0  0  0  0  0  0  0  0
  149.4161  140.6794  155.7425 H   0  0  0  0  0  0  0  0  0  0  0  0
  152.9774  138.4620  153.9578 H   0  0  0  0  0  0  0  0  0  0  0  0
  150.1193  136.4356  159.3594 H   0  0  0  0  0  0  0  0  0  0  0  0
  151.9803  134.5950  156.8174 H   0  0  0  0  0  0  0  0  0  0  0  0
  150.7445  134.4041  158.0386 H   0  0  0  0  0  0  0  0  0  0  0  0
  148.9636  134.9015  156.3844 H   0  0  0  0  0  0  0  0  0  0  0  0
  149.4213  135.4947  154.3922 H   0  0  0  0  0  0  0  0  0  0  0  0
  150.9434  132.7458  155.5524 H   0  0  0  0  0  0  0  0  0  0  0  0
  148.6169  133.5131  153.9428 H   0  0  0  0  0  0  0  0  0  0  0  0
  149.7253  132.1640  153.7447 H   0  0  0  0  0  0  0  0  0  0  0  0
  147.1539  132.2624  155.3046 H   0  0  0  0  0  0  0  0  0  0  0  0
  147.7893  130.9206  154.3464 H   0  0  0  0  0  0  0  0  0  0  0  0
  148.0469  130.7961  157.0231 H   0  0  0  0  0  0  0  0  0  0  0  0
  149.4907  130.4489  156.0578 H   0  0  0  0  0  0  0  0  0  0  0  0
  1  2  1  0  0  0  0
  1 26  1  0  0  0  0
  1 27  1  0  0  0  0
  1 28  1  0  0  0  0
  2  3  1  0  0  0  0
  2 29  1  0  0  0  0
  2 30  1  0  0  0  0
  3  8  1  0  0  0  0
  3  4  1  0  0  0  0
  3 31  1  0  0  0  0
  4  5  1  0  0  0  0
  4 32  1  0  0  0  0
  4 33  1  0  0  0  0
  5  6  1  0  0  0  0
  5 34  1  0  0  0  0
  5 35  1  0  0  0  0
  6  7  1  0  0  0  0
  6  8  1  0  0  0  0
  6 36  1  0  0  0  0
  7 37  1  0  0  0  0
  7 38  1  0  0  0  0
  7 39  1  0  0  0  0
  8  9  1  0  0  0  0
  9 14  1  0  0  0  0
  9 10  2  0  0  0  0
 10 11  1  0  0  0  0
 11 12  2  0  0  0  0
 11 40  1  0  0  0  0
 12 13  1  0  0  0  0
 13 17  1  0  0  0  0
 13 14  2  0  0  0  0
 14 15  1  0  0  0  0
 15 16  2  0  0  0  0
 16 17  1  0  0  0  0
 16 41  1  0  0  0  0
 17 18  1  0  0  0  0
 18 19  1  0  0  0  0
 18 42  1  0  0  0  0
 18 43  1  0  0  0  0
 19 20  1  0  0  0  0
 19 21  1  0  0  0  0
 19 44  1  0  0  0  0
 20 45  1  0  0  0  0
 21 25  1  0  0  0  0
 21 22  1  0  0  0  0
 21 46  1  0  0  0  0
 22 23  1  0  0  0  0
 22 47  1  0  0  0  0
 22 48  1  0  0  0  0
 23 24  1  0  0  0  0
 23 49  1  0  0  0  0
 23 50  1  0  0  0  0
 24 25  1  0  0  0  0
 24 51  1  0  0  0  0
 24 52  1  0  0  0  0
M  END
> <s_m_source_file>
AV-unprocessed.smi

> <i_m_source_file_index>
232

> <i_lp_mmshare_version>
43012

> <i_f3d_flags>
0

> <s_epik_input>
W0NIM11bQ0gyXVtDQEBIXTFbQ0gyXVtDSDJdW0NAQEhdKFtDSDNdKU4xYyhuW2NIXW4yKWMoYzIzKW5bY0hdbjNbQ0gyXVtDQEhdKFtPSF0pW0NAQEhdNFtDSDJdW0NIMl1bQ0gyXU80

> <s_epik_cmdline>
J2VwaWtfcHl0aG9uJywgJy1waCcsICc3LjAnLCAnLXRuJywgJzgnLCAnLW1hJywgJzIwMCcsICctbWV0YWxfYmluZGluZycsICctaW1hZScsICc8aW5maWxlLm1hZT4nLCAnLW9tYWUnLCAnPG91dGZpbGUubWFlPic=

> <r_lp_tautomer_probability>
1

> <r_epik_Ionization_Penalty>
0.00258048

> <r_epik_Ionization_Penalty_Charging>
0

> <r_epik_Ionization_Penalty_Neutral>
0.00258048

> <r_epik_State_Penalty>
0.00168551

> <r_epik_Charging_Adjusted_Penalty>
0.00168551

> <i_epik_Tot_Q>
0

> <i_epik_Tot_abs_Q>
0

> <r_epik_Metal_State_Penalty>
-0

> <b_epik_Metal_Only>
0

> <s_lp_Force_Field>
OPLS_2005

> <r_lp_Energy>
56.0552

> <b_lp_Chiralities_Consistent>
1

> <s_lp_Variant>
AV-unprocessed.smi:232-8

> <Gold.Version>
5.8.1

> <Gold.Id.Protein>
6NUR|6NUR_protein|mol2

> <Gold.PLP.Fitness>
46.9947

> <Gold.PLP.PLP>
-40.2701

> <Gold.PLP.part.hbond>
-5.0000

> <Gold.PLP.part.metal>
0.0000

> <Gold.PLP.part.buried>
-2.3951

> <Gold.PLP.part.nonpolar>
-32.5751

> <Gold.PLP.part.repulsive>
0.0736

> <Gold.PLP.ligand.clash>
0.2716

> <Gold.PLP.ligand.torsion>
0.7828

> <Gold.PLP.Chemscore.Hbond>
2.7460

> <Gold.PLP.Chemscore.CHOScore>
0.0000

> <Gold.PLP.Chemscore.Metal>
0.0000

> <Gold.Chemscore.Hbonds>
donor molecule, donor type, donor heavy atom, donor atom, acceptor molecule, acceptor atom, score
      P1  H  7997  8009       L1    10  0.71
      P1  H 10752 10764       L1    12  0.61

> <Gold.PLP.Chemscore.Internal.Correction>
0.3239

> <Gold.Rescore>
     Score         DG    S(hbond)    S(metal)    S(lipo)     H(rot)  DE(clash)    DE(int)     intcor
      9.82     -12.42       0.78        0.00      90.05       2.43       0.65       1.96       ----

> <Gold.Chemscore.Fitness>
9.8192

> <Gold.Chemscore.DG>
-12.4246

> <Gold.Chemscore.ZeroCoef>
-5.4800

> <Gold.Chemscore.Hbond>
0.7842

> <Gold.Chemscore.Metal>
0.0000

> <Gold.Chemscore.Lipo>
90.0523

> <Gold.Chemscore.Internal_Hbond>
0.0000

> <Gold.Chemscore.DEClash>
0.6495

> <Gold.Chemscore.DEInternal>
1.9559

> <Gold.Chemscore.Rot>
2.4260

> <Gold.Chemscore.Internal.Correction>
   9.000000E+99

> <Gold.Chemscore.Hbonds>
donor molecule, donor type, donor heavy atom, donor atom, acceptor molecule, acceptor atom, score
      P1  H  7997  8009       L1    10  0.09
      P1  H 10752 10764       L1    12  0.54

> <Gold.Chemscore.Hbond.Weighted>
-2.6192

> <Gold.Chemscore.Metal.Weighted>
-0.0000

> <Gold.Chemscore.Lipo.Weighted>
-10.5361

> <Gold.Chemscore.Internal_Hbond.Weighted>
0.0000

> <Gold.Chemscore.DEClash.Weighted>
0.6495

> <Gold.Chemscore.DEInternal.Weighted>
1.9559

> <Gold.Chemscore.Rot.Weighted>
6.2107

> <Gold.Chemscore.Internal.Correction.Weighted>
   9.000000E+99

> <Gold.Protein.RotatedTorsions>
[ 6907 6896 6895 6894 ] final  171.56 input  -60.11 | X-H torsion
[ 7974 7965 7964 7962 ] final   38.05 input  175.53 | X-H torsion
[ 8008 7997 7996 7995 ] final -138.49 input   59.86 | X-H torsion
[ 10167 10162 10161 10158 ] final   68.48 input  -65.29 | X-H torsion
[ 10718 10713 10712 10709 ] final  157.97 input   66.30 | X-H torsion
[ 10763 10752 10751 10750 ] final  -74.06 input  -60.55 | X-H torsion
[ 11005 11000 10999 10996 ] final  108.10 input  -57.11 | X-H torsion

> <Gold.Protein.ActiveResidues>
 VAL166  LYS551  ARG553  GLY616  TRP617  ASP618  TYR619  PRO620  LYS621  CYS622 
 ASP623  PHE694  ASN695  SER759  ASP760  ASP761  ALA762  ILE779  LEU786  VAL792 
 PHE793  MET794  SER795  GLU796  ALA797  LYS798  CYS799  TRP800  GLU811  SER814 

> <Gold.Protein.RotatedAtoms>
  151.7982  133.3367  159.3518 H   0  0  0  0  0  0  0  0  0  0  0  0  # atno 6907 bound_to 6896
  150.7368  134.5778  159.5933 H   0  0  0  0  0  0  0  0  0  0  0  0  # atno 6908 bound_to 6896
  152.3162  134.7438  160.0376 H   0  0  0  0  0  0  0  0  0  0  0  0  # atno 6909 bound_to 6896
  146.1091  139.5820  142.9364 H   0  0  0  0  0  0  0  0  0  0  0  0  # atno 7974 bound_to 7965
  155.4292  140.0524  157.3020 H   0  0  0  0  0  0  0  0  0  0  0  0  # atno 8008 bound_to 7997
  154.4868  140.2104  155.9596 H   0  0  0  0  0  0  0  0  0  0  0  0  # atno 8009 bound_to 7997
  156.1285  140.3176  155.8319 H   0  0  0  0  0  0  0  0  0  0  0  0  # atno 8010 bound_to 7997
  140.0782  144.5094  150.7180 H   0  0  0  0  0  0  0  0  0  0  0  0  # atno 10167 bound_to 10162
  157.1843  131.0640  151.2115 H   0  0  0  0  0  0  0  0  0  0  0  0  # atno 10718 bound_to 10713
  154.4680  135.5877  153.6302 H   0  0  0  0  0  0  0  0  0  0  0  0  # atno 10763 bound_to 10752
  152.9831  135.6060  154.3403 H   0  0  0  0  0  0  0  0  0  0  0  0  # atno 10764 bound_to 10752
  154.3281  135.2843  155.2464 H   0  0  0  0  0  0  0  0  0  0  0  0  # atno 10765 bound_to 10752
  139.8838  134.9420  156.5920 H   0  0  0  0  0  0  0  0  0  0  0  0  # atno 11005 bound_to 11000
  145.5699  141.0395  143.2180 LP  0  0  0  0  0  0  0  0  0  0  0  0  # atno 17320 bound_to 7965
  144.7496  139.7228  143.7278 LP  0  0  0  0  0  0  0  0  0  0  0  0  # atno 17321 bound_to 7965
  140.7091  143.2491  151.4636 LP  0  0  0  0  0  0  0  0  0  0  0  0  # atno 17342 bound_to 10162
  139.5795  144.1742  152.1949 LP  0  0  0  0  0  0  0  0  0  0  0  0  # atno 17343 bound_to 10162
  157.3922  130.7288  149.6706 LP  0  0  0  0  0  0  0  0  0  0  0  0  # atno 17370 bound_to 10713
  155.9720  130.4143  150.4126 LP  0  0  0  0  0  0  0  0  0  0  0  0  # atno 17371 bound_to 10713
  140.7948  133.8553  155.8676 LP  0  0  0  0  0  0  0  0  0  0  0  0  # atno 17394 bound_to 11000
  140.9645  134.1612  157.4627 LP  0  0  0  0  0  0  0  0  0  0  0  0  # atno 17395 bound_to 11000

$$$$
