#       Name:                AV-unprocessed.smi:3068
#       Creating user name   scv26
#       Creation time:       Fri Mar 27 17:10:25 2020


#       File generated by GOLD software.
#

@<TRIPOS>MOLECULE
AV-unprocessed.smi:3068
    45    47     1
SMALL
NO_CHARGES


@<TRIPOS>ATOM
      1 ****        -2.3652  -5.3812   1.8451 N.1            1 S1                 0.0000
      2 ****        -2.8311  -4.3241   1.7758 C.1            1 S1                 0.0000
      3 ****        -3.4166  -2.9924   1.6881 C.ar           1 S1                 0.0000
      4 ****        -4.7613  -2.9283   1.5513 N.ar           1 S1                 0.0000
      5 ****        -5.3171  -1.7008   1.4699 C.ar           1 S1                 0.0000
      6 ****        -4.5340  -0.5316   1.5238 C.ar           1 S1                 0.0000
      7 ****        -3.1918  -0.5858   1.6585 N.ar           1 S1                 0.0000
      8 ****        -2.6199  -1.8135   1.7413 C.ar           1 S1                 0.0000
      9 ****        -1.2213  -1.8868   1.8818 N.pl3          1 S1                 0.0000
     10 ****        -0.3745  -0.7013   1.8167 C.3            1 S1                 0.0000
     11 ****        -0.1589  -0.2110   0.3749 C.3            1 S1                 0.0000
     12 ****         0.5913   1.1324   0.3388 C.3            1 S1                 0.0000
     13 ****         0.8673   1.5388  -1.0615 N.4            1 S1                 1.0000
     14 ****         1.5426   2.8572  -1.1834 C.3            1 S1                 0.0000
     15 ****         3.0351   2.7849  -0.8072 C.3            1 S1                 0.0000
     16 ****         3.7573   1.7005  -1.6183 C.3            1 S1                 0.0000
     17 ****         3.0409   0.3512  -1.4658 C.3            1 S1                 0.0000
     18 ****         1.5473   0.4684  -1.8419 C.3            1 S1                 0.0000
     19 ****         0.7891  -0.8646  -1.6882 C.3            1 S1                 0.0000
     20 ****         0.6251  -1.1810  -0.3115 O.3            1 S1                 0.0000
     21 ****        -6.3903  -1.6516   1.3604 H              1 S1                 0.0000
     22 ****        -4.9843   0.4477   1.4581 H              1 S1                 0.0000
     23 ****        -0.7755  -2.7923   1.9285 H              1 S1                 0.0000
     24 ****        -0.8111   0.0904   2.4265 H              1 S1                 0.0000
     25 ****         0.5860  -0.9392   2.2746 H              1 S1                 0.0000
     26 ****        -1.1232  -0.0973  -0.1235 H              1 S1                 0.0000
     27 ****        -0.0081   1.9029   0.8252 H              1 S1                 0.0000
     28 ****         1.5207   1.0526   0.9031 H              1 S1                 0.0000
     29 ****         1.4467   3.1950  -2.2162 H              1 S1                 0.0000
     30 ****         1.0282   3.5978  -0.5698 H              1 S1                 0.0000
     31 ****         3.5069   3.7522  -0.9816 H              1 S1                 0.0000
     32 ****         3.1457   2.5821   0.2583 H              1 S1                 0.0000
     33 ****         3.7840   1.9862  -2.6707 H              1 S1                 0.0000
     34 ****         4.7943   1.6151  -1.2924 H              1 S1                 0.0000
     35 ****         3.5266  -0.3919  -2.0993 H              1 S1                 0.0000
     36 ****         3.1490  -0.0074  -0.4416 H              1 S1                 0.0000
     37 ****         1.4957   0.7551  -2.8934 H              1 S1                 0.0000
     38 ****        -0.1878  -0.8106  -2.1717 H              1 S1                 0.0000
     39 ****         1.3338  -1.6724  -2.1775 H              1 S1                 0.0000
     40 ****        -0.0423   1.6542  -1.4853 H              1 S1                 0.0000
     41 ****        -1.9626  -6.2946   1.9050 LP             1 S1                 0.0000
     42 ****        -5.3205  -3.7564   1.5121 LP             1 S1                 0.0000
     43 ****        -2.6399   0.2473   1.6958 LP             1 S1                 0.0000
     44 ****         0.1741  -2.0704  -0.2372 LP             1 S1                 0.0000
     45 ****         1.5272  -1.2279   0.1176 LP             1 S1                 0.0000
@<TRIPOS>BOND
    1    1    2 3     
    2    2    3 1     
    3    3    8 ar    
    4    3    4 ar    
    5    4    5 ar    
    6    5    6 ar    
    7    5   21 1     
    8    6    7 ar    
    9    6   22 1     
   10    7    8 ar    
   11    8    9 1     
   12    9   10 1     
   13    9   23 1     
   14   10   11 1     
   15   10   24 1     
   16   10   25 1     
   17   11   20 1     
   18   11   12 1     
   19   11   26 1     
   20   12   13 1     
   21   12   27 1     
   22   12   28 1     
   23   13   18 1     
   24   13   14 1     
   25   13   40 1     
   26   14   15 1     
   27   14   29 1     
   28   14   30 1     
   29   15   16 1     
   30   15   31 1     
   31   15   32 1     
   32   16   17 1     
   33   16   33 1     
   34   16   34 1     
   35   17   18 1     
   36   17   35 1     
   37   17   36 1     
   38   18   19 1     
   39   18   37 1     
   40   19   20 1     
   41   19   38 1     
   42   19   39 1     
   43    1   41 1     
   44    4   42 1     
   45    7   43 1     
   46   20   44 1     
   47   20   45 1     
@<TRIPOS>SUBSTRUCTURE
      1 S1             1
@<TRIPOS>SET
LONE_PAIRS      STATIC     ATOMS    <user>   **** ""
5 41 42 43 44 45
DONOR_HYDROGENS      STATIC     ATOMS    <user>   **** ""
2 23 40
ATOM$BLUE        STATIC     ATOMS    COLORGROUP SYSTEM
5 41 42 43 44 45
ATOM$RED        STATIC     ATOMS    COLORGROUP SYSTEM
2 23 40
