AV-unprocessed.smi:2187|AV-procd|sdf|8879|dock1
  -GOLD-   2272012 83D 1   1.00000     0.00000
 Structure written by MMmdl.
 42 43  0  0  0  0  0  0  0  0  1 V2000
  149.8721  145.1673  159.7870 C   0  0  0  0  0  0  0  0  0  0  0  0
  150.9902  144.2007  160.0553 C   0  0  0  0  0  0  0  0  0  0  0  0
  151.3504  143.9602  161.3050 N   0  0  0  0  0  0  0  0  0  0  0  0
  152.3487  143.0594  161.2082 N   0  0  0  0  0  0  0  0  0  0  0  0
  152.9809  142.5672  162.4168 C   0  0  0  0  0  0  0  0  0  0  0  0
  152.6169  142.7268  159.8947 C   0  0  0  0  0  0  0  0  0  0  0  0
  153.6752  141.7389  159.5223 C   0  0  0  0  0  0  0  0  0  0  0  0
  151.7563  143.4513  159.1139 C   0  0  0  0  0  0  0  0  0  0  0  0
  151.6288  143.4566  157.6116 C   0  0  0  0  0  0  0  0  0  0  0  0
  150.9930  142.1452  157.1527 C   0  0  0  0  0  0  0  0  0  0  0  0
  151.2869  141.0886  157.7114 O   0  0  0  0  0  0  0  0  0  0  0  0
  150.1132  142.2308  156.1419 N   0  0  0  0  0  0  0  0  0  0  0  0
  149.3617  141.1132  155.5676 C   0  0  1  0  0  0  0  0  0  0  0  0
  148.5227  141.6740  154.3963 C   0  0  0  0  0  0  0  0  0  0  0  0
  147.3019  140.8101  154.0358 C   0  0  0  0  0  0  0  0  0  0  0  0
  147.6339  139.4113  153.4942 C   0  0  0  0  0  0  0  0  0  0  0  0
  148.3804  138.5198  154.5012 C   0  0  0  0  0  0  0  0  0  0  0  0
  149.7936  138.8624  154.5941 N   0  0  0  0  0  0  0  0  0  0  0  0
  150.3148  140.0181  155.0336 C   0  0  0  0  0  0  0  0  0  0  0  0
  151.5318  140.2013  155.0064 O   0  0  0  0  0  0  0  0  0  0  0  0
  148.9391  144.6372  159.5943 H   0  0  0  0  0  0  0  0  0  0  0  0
  150.0879  145.7864  158.9165 H   0  0  0  0  0  0  0  0  0  0  0  0
  149.7056  145.8358  160.6324 H   0  0  0  0  0  0  0  0  0  0  0  0
  154.0648  142.6210  162.3136 H   0  0  0  0  0  0  0  0  0  0  0  0
  152.6893  141.5303  162.5847 H   0  0  0  0  0  0  0  0  0  0  0  0
  152.6808  143.1642  163.2791 H   0  0  0  0  0  0  0  0  0  0  0  0
  153.5974  141.4524  158.4737 H   0  0  0  0  0  0  0  0  0  0  0  0
  153.5883  140.8309  160.1190 H   0  0  0  0  0  0  0  0  0  0  0  0
  154.6681  142.1582  159.6840 H   0  0  0  0  0  0  0  0  0  0  0  0
  151.0258  144.2968  157.2651 H   0  0  0  0  0  0  0  0  0  0  0  0
  152.5989  143.5674  157.1263 H   0  0  0  0  0  0  0  0  0  0  0  0
  149.9434  143.1419  155.7420 H   0  0  0  0  0  0  0  0  0  0  0  0
  148.7064  140.6982  156.3356 H   0  0  0  0  0  0  0  0  0  0  0  0
  148.1433  142.6597  154.6705 H   0  0  0  0  0  0  0  0  0  0  0  0
  149.1438  141.8373  153.5137 H   0  0  0  0  0  0  0  0  0  0  0  0
  146.6548  140.7168  154.9088 H   0  0  0  0  0  0  0  0  0  0  0  0
  146.7124  141.3393  153.2864 H   0  0  0  0  0  0  0  0  0  0  0  0
  146.6969  138.9215  153.2278 H   0  0  0  0  0  0  0  0  0  0  0  0
  148.2028  139.4910  152.5668 H   0  0  0  0  0  0  0  0  0  0  0  0
  147.9113  138.5555  155.4855 H   0  0  0  0  0  0  0  0  0  0  0  0
  148.3228  137.4822  154.1721 H   0  0  0  0  0  0  0  0  0  0  0  0
  150.4433  138.1632  154.2638 H   0  0  0  0  0  0  0  0  0  0  0  0
  1  2  1  0  0  0  0
  1 21  1  0  0  0  0
  1 22  1  0  0  0  0
  1 23  1  0  0  0  0
  2  8  1  0  0  0  0
  2  3  2  0  0  0  0
  3  4  1  0  0  0  0
  4  5  1  0  0  0  0
  4  6  1  0  0  0  0
  5 24  1  0  0  0  0
  5 25  1  0  0  0  0
  5 26  1  0  0  0  0
  6  7  1  0  0  0  0
  6  8  2  0  0  0  0
  7 27  1  0  0  0  0
  7 28  1  0  0  0  0
  7 29  1  0  0  0  0
  8  9  1  0  0  0  0
  9 10  1  0  0  0  0
  9 30  1  0  0  0  0
  9 31  1  0  0  0  0
 10 11  2  0  0  0  0
 10 12  1  0  0  0  0
 12 13  1  0  0  0  0
 12 32  1  0  0  0  0
 13 19  1  0  0  0  0
 13 14  1  0  0  0  0
 13 33  1  0  0  0  0
 14 15  1  0  0  0  0
 14 34  1  0  0  0  0
 14 35  1  0  0  0  0
 15 16  1  0  0  0  0
 15 36  1  0  0  0  0
 15 37  1  0  0  0  0
 16 17  1  0  0  0  0
 16 38  1  0  0  0  0
 16 39  1  0  0  0  0
 17 18  1  0  0  0  0
 17 40  1  0  0  0  0
 17 41  1  0  0  0  0
 18 19  1  0  0  0  0
 18 42  1  0  0  0  0
 19 20  2  0  0  0  0
M  END
> <s_m_source_file>
AV-unprocessed.smi

> <i_m_source_file_index>
2187

> <i_lp_mmshare_version>
43012

> <i_f3d_flags>
0

> <s_epik_input>
W0NIM11jMW5uKFtDSDNdKWMoW0NIM10pYzFbQ0gyXUMoPU8pW05IXVtDQEBIXTJbQ0gyXVtDSDJdW0NIMl1bQ0gyXVtOSF1DMj1P

> <s_epik_cmdline>
J2VwaWtfcHl0aG9uJywgJy1waCcsICc3LjAnLCAnLXRuJywgJzgnLCAnLW1hJywgJzIwMCcsICctbWV0YWxfYmluZGluZycsICctaW1hZScsICc8aW5maWxlLm1hZT4nLCAnLW9tYWUnLCAnPG91dGZpbGUubWFlPic=

> <r_lp_tautomer_probability>
1

> <r_epik_Ionization_Penalty>
0.00280384

> <r_epik_Ionization_Penalty_Charging>
0

> <r_epik_Ionization_Penalty_Neutral>
0.00280384

> <r_epik_State_Penalty>
0.00195959

> <r_epik_Charging_Adjusted_Penalty>
0.00195959

> <i_epik_Tot_Q>
0

> <i_epik_Tot_abs_Q>
0

> <r_epik_Metal_State_Penalty>
-0

> <b_epik_Metal_Only>
0

> <s_lp_Force_Field>
OPLS_2005

> <r_lp_Energy>
5.77256

> <b_lp_Chiralities_Consistent>
1

> <s_lp_Variant>
AV-unprocessed.smi:2187-2

> <Gold.Version>
5.8.1

> <Gold.Id.Protein>
6NUR|6NUR_protein|mol2

> <Gold.PLP.Fitness>
50.5754

> <Gold.PLP.PLP>
-45.4512

> <Gold.PLP.part.hbond>
-2.1811

> <Gold.PLP.part.metal>
0.0000

> <Gold.PLP.part.buried>
-5.1730

> <Gold.PLP.part.nonpolar>
-37.3245

> <Gold.PLP.part.repulsive>
0.3931

> <Gold.PLP.ligand.clash>
0.0000

> <Gold.PLP.ligand.torsion>
0.4462

> <Gold.PLP.Chemscore.Hbond>
2.0000

> <Gold.PLP.Chemscore.CHOScore>
0.0000

> <Gold.PLP.Chemscore.Metal>
0.0000

> <Gold.Chemscore.Hbonds>
donor molecule, donor type, donor heavy atom, donor atom, acceptor molecule, acceptor atom, score
      L1  H    12    32       P1  8028  0.99
      P1  H  7989  7998       L1    20  0.95

> <Gold.PLP.Chemscore.Internal.Correction>
0.0166

> <Gold.Rescore>
     Score         DG    S(hbond)    S(metal)    S(lipo)     H(rot)  DE(clash)    DE(int)     intcor
     18.60     -19.14       1.94        0.00      93.20       1.46       0.00       0.54       ----

> <Gold.Chemscore.Fitness>
18.5950

> <Gold.Chemscore.DG>
-19.1428

> <Gold.Chemscore.ZeroCoef>
-5.4800

> <Gold.Chemscore.Hbond>
1.9431

> <Gold.Chemscore.Metal>
0.0000

> <Gold.Chemscore.Lipo>
93.2030

> <Gold.Chemscore.Internal_Hbond>
0.0000

> <Gold.Chemscore.DEClash>
0.0038

> <Gold.Chemscore.DEInternal>
0.5440

> <Gold.Chemscore.Rot>
1.4578

> <Gold.Chemscore.Internal.Correction>
   9.000000E+99

> <Gold.Chemscore.Hbonds>
donor molecule, donor type, donor heavy atom, donor atom, acceptor molecule, acceptor atom, score
      L1  H    12    32       P1  8028  0.94
      P1  H  7989  7998       L1    20  0.20

> <Gold.Chemscore.Hbond.Weighted>
-6.4901

> <Gold.Chemscore.Metal.Weighted>
-0.0000

> <Gold.Chemscore.Lipo.Weighted>
-10.9048

> <Gold.Chemscore.Internal_Hbond.Weighted>
0.0000

> <Gold.Chemscore.DEClash.Weighted>
0.0038

> <Gold.Chemscore.DEInternal.Weighted>
0.5440

> <Gold.Chemscore.Rot.Weighted>
3.7321

> <Gold.Chemscore.Internal.Correction.Weighted>
   9.000000E+99

> <Gold.Protein.RotatedTorsions>
[ 6907 6896 6895 6894 ] final  -94.03 input  -60.11 | X-H torsion
[ 7974 7965 7964 7962 ] final  130.04 input  175.53 | X-H torsion
[ 8008 7997 7996 7995 ] final   91.38 input   59.86 | X-H torsion
[ 10167 10162 10161 10158 ] final  101.14 input  -65.29 | X-H torsion
[ 10718 10713 10712 10709 ] final   24.44 input   66.30 | X-H torsion
[ 10763 10752 10751 10750 ] final    0.49 input  -60.55 | X-H torsion
[ 11005 11000 10999 10996 ] final   -5.73 input  -57.11 | X-H torsion

> <Gold.Protein.ActiveResidues>
 VAL166  LYS551  ARG553  GLY616  TRP617  ASP618  TYR619  PRO620  LYS621  CYS622 
 ASP623  PHE694  ASN695  SER759  ASP760  ASP761  ALA762  ILE779  LEU786  VAL792 
 PHE793  MET794  SER795  GLU796  ALA797  LYS798  CYS799  TRP800  GLU811  SER814 

> <Gold.Protein.RotatedAtoms>
  150.6934  134.1875  159.4272 H   0  0  0  0  0  0  0  0  0  0  0  0  # atno 6907 bound_to 6896
  151.9847  135.0008  160.0568 H   0  0  0  0  0  0  0  0  0  0  0  0  # atno 6908 bound_to 6896
  152.1722  133.4616  159.4952 H   0  0  0  0  0  0  0  0  0  0  0  0  # atno 6909 bound_to 6896
  145.0222  139.4121  143.5192 H   0  0  0  0  0  0  0  0  0  0  0  0  # atno 7974 bound_to 7965
  156.0231  140.3338  155.7060 H   0  0  0  0  0  0  0  0  0  0  0  0  # atno 8008 bound_to 7997
  155.5994  140.0654  157.2755 H   0  0  0  0  0  0  0  0  0  0  0  0  # atno 8009 bound_to 7997
  154.4323  140.1813  156.1145 H   0  0  0  0  0  0  0  0  0  0  0  0  # atno 8010 bound_to 7997
  139.7464  144.6997  151.0497 H   0  0  0  0  0  0  0  0  0  0  0  0  # atno 10167 bound_to 10162
  157.1798  130.6797  149.6109 H   0  0  0  0  0  0  0  0  0  0  0  0  # atno 10718 bound_to 10713
  153.3200  135.6968  153.7039 H   0  0  0  0  0  0  0  0  0  0  0  0  # atno 10763 bound_to 10752
  153.5883  135.3485  155.2902 H   0  0  0  0  0  0  0  0  0  0  0  0  # atno 10764 bound_to 10752
  154.8595  135.4311  154.2361 H   0  0  0  0  0  0  0  0  0  0  0  0  # atno 10765 bound_to 10752
  140.6943  133.9044  155.8639 H   0  0  0  0  0  0  0  0  0  0  0  0  # atno 11005 bound_to 11000
  146.3487  139.9726  142.8704 LP  0  0  0  0  0  0  0  0  0  0  0  0  # atno 17320 bound_to 7965
  145.1881  140.9798  143.4227 LP  0  0  0  0  0  0  0  0  0  0  0  0  # atno 17321 bound_to 7965
  140.7792  143.4861  150.9954 LP  0  0  0  0  0  0  0  0  0  0  0  0  # atno 17342 bound_to 10162
  139.8549  143.7389  152.3176 LP  0  0  0  0  0  0  0  0  0  0  0  0  # atno 17343 bound_to 10162
  155.9726  130.4650  150.6240 LP  0  0  0  0  0  0  0  0  0  0  0  0  # atno 17370 bound_to 10713
  157.3964  131.0803  151.1348 LP  0  0  0  0  0  0  0  0  0  0  0  0  # atno 17371 bound_to 10713
  141.0216  134.0881  157.4114 LP  0  0  0  0  0  0  0  0  0  0  0  0  # atno 17394 bound_to 11000
  139.8914  135.0118  156.6792 LP  0  0  0  0  0  0  0  0  0  0  0  0  # atno 17395 bound_to 11000

$$$$
