AV-unprocessed.smi:1703|AV-procd|sdf|6869|dock8
  -GOLD-   22720 8 63D 1   1.00000     0.00000
 Structure written by MMmdl.
 49 51  0  0  0  0  0  0  0  0  2 V2000
  146.6846  135.7432  155.7718 C   0  0  0  0  0  0  0  0  0  0  0  0
  147.7621  134.9128  156.4865 C   0  0  2  0  0  0  0  0  0  0  0  0
  148.9386  135.7563  157.0199 C   0  0  0  0  0  0  0  0  0  0  0  0
  149.8574  136.1894  155.9686 N   0  0  0  0  0  0  0  0  0  0  0  0
  150.9972  136.9398  156.4979 C   0  0  0  0  0  0  0  0  0  0  0  0
  150.6910  138.3663  157.0077 C   0  0  1  0  0  0  0  0  0  0  0  0
  150.6056  138.3049  158.4154 O   0  0  0  0  0  0  0  0  0  0  0  0
  151.7743  139.4157  156.6738 C   0  0  0  0  0  0  0  0  0  0  0  0
  151.3165  140.8076  156.8042 N   0  0  0  0  0  0  0  0  0  0  0  0
  150.4316  141.5294  156.0553 C   0  0  0  0  0  0  0  0  0  0  0  0
  149.6531  141.0561  154.8698 C   0  0  0  0  0  0  0  0  0  0  0  0
  150.4568  140.3969  153.9147 O   0  0  0  0  0  0  0  0  0  0  0  0
  150.3819  142.7825  156.5904 N   0  3  0  0  0  0  0  0  0  0  0  0
  151.2299  142.8607  157.6948 C   0  0  0  0  0  0  0  0  0  0  0  0
  151.5044  143.9152  158.5599 C   0  0  0  0  0  0  0  0  0  0  0  0
  152.4196  143.6565  159.6014 C   0  0  0  0  0  0  0  0  0  0  0  0
  153.0245  142.3913  159.7501 C   0  0  0  0  0  0  0  0  0  0  0  0
  152.7408  141.3313  158.8636 C   0  0  0  0  0  0  0  0  0  0  0  0
  151.8317  141.5946  157.8399 C   0  0  0  0  0  0  0  0  0  0  0  0
  150.3052  135.0225  155.2203 C   0  0  0  0  0  0  0  0  0  0  0  0
  149.1255  134.2433  154.6146 C   0  0  1  0  0  0  0  0  0  0  0  0
  149.5851  132.9810  153.8783 C   0  0  0  0  0  0  0  0  0  0  0  0
  148.2389  133.8497  155.6602 O   0  0  0  0  0  0  0  0  0  0  0  0
  146.2758  136.5058  156.4350 H   0  0  0  0  0  0  0  0  0  0  0  0
  145.8592  135.1105  155.4460 H   0  0  0  0  0  0  0  0  0  0  0  0
  147.0797  136.2498  154.8934 H   0  0  0  0  0  0  0  0  0  0  0  0
  147.2788  134.4415  157.3426 H   0  0  0  0  0  0  0  0  0  0  0  0
  148.5398  136.6140  157.5599 H   0  0  0  0  0  0  0  0  0  0  0  0
  149.4868  135.1616  157.7525 H   0  0  0  0  0  0  0  0  0  0  0  0
  151.4491  136.3597  157.3044 H   0  0  0  0  0  0  0  0  0  0  0  0
  151.7696  137.0181  155.7317 H   0  0  0  0  0  0  0  0  0  0  0  0
  149.7187  138.7059  156.6545 H   0  0  0  0  0  0  0  0  0  0  0  0
  151.2439  137.6825  158.7290 H   0  0  0  0  0  0  0  0  0  0  0  0
  152.6456  139.2876  157.3178 H   0  0  0  0  0  0  0  0  0  0  0  0
  152.1341  139.2781  155.6537 H   0  0  0  0  0  0  0  0  0  0  0  0
  148.8679  140.3789  155.2060 H   0  0  0  0  0  0  0  0  0  0  0  0
  149.1670  141.9011  154.3836 H   0  0  0  0  0  0  0  0  0  0  0  0
  149.9960  140.3885  153.0893 H   0  0  0  0  0  0  0  0  0  0  0  0
  151.0406  144.8843  158.4482 H   0  0  0  0  0  0  0  0  0  0  0  0
  152.6620  144.4442  160.3001 H   0  0  0  0  0  0  0  0  0  0  0  0
  153.7216  142.2304  160.5597 H   0  0  0  0  0  0  0  0  0  0  0  0
  153.2095  140.3659  158.9848 H   0  0  0  0  0  0  0  0  0  0  0  0
  150.9752  135.3347  154.4183 H   0  0  0  0  0  0  0  0  0  0  0  0
  150.8840  134.3649  155.8712 H   0  0  0  0  0  0  0  0  0  0  0  0
  148.5954  134.8792  153.9050 H   0  0  0  0  0  0  0  0  0  0  0  0
  150.2587  133.2288  153.0578 H   0  0  0  0  0  0  0  0  0  0  0  0
  148.7342  132.4432  153.4592 H   0  0  0  0  0  0  0  0  0  0  0  0
  150.1110  132.3015  154.5496 H   0  0  0  0  0  0  0  0  0  0  0  0
  149.7978  143.5242  156.2264 H   0  0  0  0  0  0  0  0  0  0  0  0
  1  2  1  0  0  0  0
  1 24  1  0  0  0  0
  1 25  1  0  0  0  0
  1 26  1  0  0  0  0
  2 23  1  0  0  0  0
  2  3  1  0  0  0  0
  2 27  1  0  0  0  0
  3  4  1  0  0  0  0
  3 28  1  0  0  0  0
  3 29  1  0  0  0  0
  4  5  1  0  0  0  0
  4 20  1  0  0  0  0
  5  6  1  0  0  0  0
  5 30  1  0  0  0  0
  5 31  1  0  0  0  0
  6  7  1  0  0  0  0
  6  8  1  0  0  0  0
  6 32  1  0  0  0  0
  7 33  1  0  0  0  0
  8  9  1  0  0  0  0
  8 34  1  0  0  0  0
  8 35  1  0  0  0  0
  9 19  1  0  0  0  0
  9 10  1  0  0  0  0
 10 11  1  0  0  0  0
 10 13  2  0  0  0  0
 11 12  1  0  0  0  0
 11 36  1  0  0  0  0
 11 37  1  0  0  0  0
 12 38  1  0  0  0  0
 13 14  1  0  0  0  0
 13 49  1  0  0  0  0
 14 19  2  0  0  0  0
 14 15  1  0  0  0  0
 15 16  2  0  0  0  0
 15 39  1  0  0  0  0
 16 17  1  0  0  0  0
 16 40  1  0  0  0  0
 17 18  2  0  0  0  0
 17 41  1  0  0  0  0
 18 19  1  0  0  0  0
 18 42  1  0  0  0  0
 20 21  1  0  0  0  0
 20 43  1  0  0  0  0
 20 44  1  0  0  0  0
 21 22  1  0  0  0  0
 21 23  1  0  0  0  0
 21 45  1  0  0  0  0
 22 46  1  0  0  0  0
 22 47  1  0  0  0  0
 22 48  1  0  0  0  0
M  CHG  1  13   1
M  END
> <s_m_source_file>
AV-unprocessed.smi

> <i_m_source_file_index>
1703

> <i_lp_mmshare_version>
43012

> <i_f3d_flags>
0

> <s_epik_input>
W0NIM11bQ0BASF0xW0NIMl1OKFtDSDJdW0NASF0oTzEpW0NIM10pW0NIMl1bQ0BIXShbT0hdKVtDSDJdbihjKG4yKVtDSDJdW09IXSljKGMyMylbY0hdW2NIXVtjSF1bY0hdMw==

> <s_epik_cmdline>
J2VwaWtfcHl0aG9uJywgJy1waCcsICc3LjAnLCAnLXRuJywgJzgnLCAnLW1hJywgJzIwMCcsICctbWV0YWxfYmluZGluZycsICctaW1hZScsICc8aW5maWxlLm1hZT4nLCAnLW9tYWUnLCAnPG91dGZpbGUubWFlPic=

> <r_epik_Ionization_Penalty>
1.7682

> <r_epik_Ionization_Penalty_Charging>
1.55298

> <r_epik_Ionization_Penalty_Neutral>
0.215215

> <r_epik_State_Penalty>
1.83821

> <r_epik_Charging_Adjusted_Penalty>
3.39119

> <i_epik_Tot_Q>
1

> <i_epik_Tot_abs_Q>
1

> <r_epik_Metal_State_Penalty>
5.89206

> <b_epik_Metal_Only>
0

> <s_lp_Force_Field>
OPLS_2005

> <r_lp_Energy>
30.0096

> <b_lp_Chiralities_Consistent>
1

> <s_lp_Variant>
AV-unprocessed.smi:1703-17

> <Gold.Version>
5.8.1

> <Gold.Id.Protein>
6NUR|6NUR_protein|mol2

> <Gold.PLP.Fitness>
47.8850

> <Gold.PLP.PLP>
-37.8699

> <Gold.PLP.part.hbond>
-2.7548

> <Gold.PLP.part.metal>
0.0000

> <Gold.PLP.part.buried>
-5.1430

> <Gold.PLP.part.nonpolar>
-29.8169

> <Gold.PLP.part.repulsive>
0.0907

> <Gold.PLP.ligand.clash>
0.0000

> <Gold.PLP.ligand.torsion>
0.9857

> <Gold.PLP.Chemscore.Hbond>
3.9920

> <Gold.PLP.Chemscore.CHOScore>
0.0000

> <Gold.PLP.Chemscore.Metal>
0.0000

> <Gold.Chemscore.Hbonds>
donor molecule, donor type, donor heavy atom, donor atom, acceptor molecule, acceptor atom, score
      L1  H    12    38       P1  7957  1.00
      L1  H    13    49       P1  8028  2.00
      P1  H  7989  7998       L1    12  0.37

> <Gold.PLP.Chemscore.Internal.Correction>
0.0105

> <Gold.Rescore>
     Score         DG    S(hbond)    S(metal)    S(lipo)     H(rot)  DE(clash)    DE(int)     intcor
     17.25     -18.16       2.56        0.00      99.95       2.96       0.17       0.75       ----

> <Gold.Chemscore.Fitness>
17.2472

> <Gold.Chemscore.DG>
-18.1587

> <Gold.Chemscore.ZeroCoef>
-5.4800

> <Gold.Chemscore.Hbond>
2.5601

> <Gold.Chemscore.Metal>
0.0000

> <Gold.Chemscore.Lipo>
99.9492

> <Gold.Chemscore.Internal_Hbond>
0.0000

> <Gold.Chemscore.DEClash>
0.1661

> <Gold.Chemscore.DEInternal>
0.7454

> <Gold.Chemscore.Rot>
2.9555

> <Gold.Chemscore.Internal.Correction>
   9.000000E+99

> <Gold.Chemscore.Hbonds>
donor molecule, donor type, donor heavy atom, donor atom, acceptor molecule, acceptor atom, score
      L1  H    12    38       P1  7957  0.96
      L1  H    13    49       P1  8028  0.99
      P1  H  7989  7998       L1    12  0.07

> <Gold.Chemscore.Hbond.Weighted>
-8.5507

> <Gold.Chemscore.Metal.Weighted>
-0.0000

> <Gold.Chemscore.Lipo.Weighted>
-11.6941

> <Gold.Chemscore.Internal_Hbond.Weighted>
0.0000

> <Gold.Chemscore.DEClash.Weighted>
0.1661

> <Gold.Chemscore.DEInternal.Weighted>
0.7454

> <Gold.Chemscore.Rot.Weighted>
7.5660

> <Gold.Chemscore.Internal.Correction.Weighted>
   9.000000E+99

> <Gold.Protein.RotatedTorsions>
[ 6907 6896 6895 6894 ] final  101.62 input  -60.11 | X-H torsion
[ 7974 7965 7964 7962 ] final  112.43 input  175.53 | X-H torsion
[ 8008 7997 7996 7995 ] final  119.25 input   59.86 | X-H torsion
[ 10167 10162 10161 10158 ] final  170.82 input  -65.29 | X-H torsion
[ 10718 10713 10712 10709 ] final  -86.75 input   66.30 | X-H torsion
[ 10763 10752 10751 10750 ] final   29.31 input  -60.55 | X-H torsion
[ 11005 11000 10999 10996 ] final   28.61 input  -57.11 | X-H torsion

> <Gold.Protein.ActiveResidues>
 VAL166  LYS551  ARG553  GLY616  TRP617  ASP618  TYR619  PRO620  LYS621  CYS622 
 ASP623  PHE694  ASN695  SER759  ASP760  ASP761  ALA762  ILE779  LEU786  VAL792 
 PHE793  MET794  SER795  GLU796  ALA797  LYS798  CYS799  TRP800  GLU811  SER814 

> <Gold.Protein.RotatedAtoms>
  152.5345  134.0098  159.7933 H   0  0  0  0  0  0  0  0  0  0  0  0  # atno 6907 bound_to 6896
  151.0303  133.5789  159.2668 H   0  0  0  0  0  0  0  0  0  0  0  0  # atno 6908 bound_to 6896
  151.2796  135.0717  159.9218 H   0  0  0  0  0  0  0  0  0  0  0  0  # atno 6909 bound_to 6896
  145.2296  139.2825  143.4175 H   0  0  0  0  0  0  0  0  0  0  0  0  # atno 7974 bound_to 7965
  156.2586  140.2857  156.0962 H   0  0  0  0  0  0  0  0  0  0  0  0  # atno 8008 bound_to 7997
  155.1410  140.0395  157.2816 H   0  0  0  0  0  0  0  0  0  0  0  0  # atno 8009 bound_to 7997
  154.6530  140.2549  155.7199 H   0  0  0  0  0  0  0  0  0  0  0  0  # atno 8010 bound_to 7997
  139.5029  144.3554  151.9879 H   0  0  0  0  0  0  0  0  0  0  0  0  # atno 10167 bound_to 10162
  155.9988  130.4776  150.4762 H   0  0  0  0  0  0  0  0  0  0  0  0  # atno 10718 bound_to 10713
  153.0438  135.6492  154.0872 H   0  0  0  0  0  0  0  0  0  0  0  0  # atno 10763 bound_to 10752
  154.0573  135.2891  155.3332 H   0  0  0  0  0  0  0  0  0  0  0  0  # atno 10764 bound_to 10752
  154.6681  135.5366  153.8168 H   0  0  0  0  0  0  0  0  0  0  0  0  # atno 10765 bound_to 10752
  140.3137  134.2621  155.7729 H   0  0  0  0  0  0  0  0  0  0  0  0  # atno 11005 bound_to 11000
  146.3356  140.2627  142.8602 LP  0  0  0  0  0  0  0  0  0  0  0  0  # atno 17320 bound_to 7965
  144.9689  140.8349  143.5468 LP  0  0  0  0  0  0  0  0  0  0  0  0  # atno 17321 bound_to 7965
  140.2991  144.3667  150.6065 LP  0  0  0  0  0  0  0  0  0  0  0  0  # atno 17342 bound_to 10162
  140.5887  143.2169  151.7293 LP  0  0  0  0  0  0  0  0  0  0  0  0  # atno 17343 bound_to 10162
  157.2772  131.0599  151.2221 LP  0  0  0  0  0  0  0  0  0  0  0  0  # atno 17370 bound_to 10713
  157.3281  130.6971  149.6308 LP  0  0  0  0  0  0  0  0  0  0  0  0  # atno 17371 bound_to 10713
  141.2102  133.7725  156.9945 LP  0  0  0  0  0  0  0  0  0  0  0  0  # atno 17394 bound_to 11000
  140.1002  134.9540  157.1911 LP  0  0  0  0  0  0  0  0  0  0  0  0  # atno 17395 bound_to 11000

$$$$
