AV-unprocessed.smi:1798|AV-procd|sdf|7259|dock9
  -GOLD-   22720 8513D 1   1.00000     0.00000
 Structure written by MMmdl.
 40 41  0  0  0  0  0  0  0  0  3 V2000
  152.2157  144.9444  159.9366 C   0  0  0  0  0  0  0  0  0  0  0  0
  151.7605  143.5712  159.4226 C   0  0  2  0  0  0  0  0  0  0  0  0
  152.7540  142.4630  159.8207 C   0  0  0  0  0  0  0  0  0  0  0  0
  152.3043  141.0863  159.3053 C   0  0  0  0  0  0  0  0  0  0  0  0
  152.0908  141.0982  157.7781 C   0  0  1  0  0  0  0  0  0  0  0  0
  151.5934  139.8056  157.3168 N   0  0  0  0  0  0  0  0  0  0  0  0
  152.0517  139.1335  156.2499 C   0  0  0  0  0  0  0  0  0  0  0  0
  152.9735  139.5399  155.5408 O   0  0  0  0  0  0  0  0  0  0  0  0
  151.3711  137.7875  155.9619 C   0  0  0  0  0  0  0  0  0  0  0  0
  149.9865  137.9263  155.4797 N   0  0  0  0  0  0  0  0  0  0  0  0
  149.5900  139.2006  155.0275 C   0  0  0  0  0  0  0  0  0  0  0  0
  148.3458  139.4433  154.5708 C   0  0  0  0  0  0  0  0  0  0  0  0
  147.9546  140.7594  154.1157 N   0  3  0  0  0  0  0  0  0  0  0  0
  148.7969  141.6513  154.1017 O   0  0  0  0  0  0  0  0  0  0  0  0
  146.7951  140.9461  153.7591 O   0  5  0  0  0  0  0  0  0  0  0  0
  147.4063  138.3385  154.5544 C   0  0  0  0  0  0  0  0  0  0  0  0
  147.7783  137.1184  154.9888 C   0  0  0  0  0  0  0  0  0  0  0  0
  149.1321  136.8576  155.4887 C   0  0  0  0  0  0  0  0  0  0  0  0
  149.4769  135.7464  155.8910 O   0  0  0  0  0  0  0  0  0  0  0  0
  151.0996  142.2059  157.3779 C   0  0  0  0  0  0  0  0  0  0  0  0
  151.5524  143.5808  157.8961 C   0  0  0  0  0  0  0  0  0  0  0  0
  153.1726  145.2338  159.5010 H   0  0  0  0  0  0  0  0  0  0  0  0
  152.3311  144.9394  161.0207 H   0  0  0  0  0  0  0  0  0  0  0  0
  151.4887  145.7176  159.6871 H   0  0  0  0  0  0  0  0  0  0  0  0
  150.8011  143.3471  159.8912 H   0  0  0  0  0  0  0  0  0  0  0  0
  153.7429  142.6934  159.4219 H   0  0  0  0  0  0  0  0  0  0  0  0
  152.8600  142.4287  160.9055 H   0  0  0  0  0  0  0  0  0  0  0  0
  153.0476  140.3361  159.5772 H   0  0  0  0  0  0  0  0  0  0  0  0
  151.3785  140.7981  159.8055 H   0  0  0  0  0  0  0  0  0  0  0  0
  153.0450  141.3066  157.2897 H   0  0  0  0  0  0  0  0  0  0  0  0
  150.8389  139.3940  157.8470 H   0  0  0  0  0  0  0  0  0  0  0  0
  151.9782  137.2502  155.2321 H   0  0  0  0  0  0  0  0  0  0  0  0
  151.3954  137.1692  156.8613 H   0  0  0  0  0  0  0  0  0  0  0  0
  150.3592  139.9570  155.0874 H   0  0  0  0  0  0  0  0  0  0  0  0
  146.3982  138.4816  154.1945 H   0  0  0  0  0  0  0  0  0  0  0  0
  147.0624  136.3100  154.9690 H   0  0  0  0  0  0  0  0  0  0  0  0
  150.9959  142.2400  156.2928 H   0  0  0  0  0  0  0  0  0  0  0  0
  150.1094  141.9791  157.7761 H   0  0  0  0  0  0  0  0  0  0  0  0
  150.8117  144.3337  157.6248 H   0  0  0  0  0  0  0  0  0  0  0  0
  152.4798  143.8683  157.3985 H   0  0  0  0  0  0  0  0  0  0  0  0
  1  2  1  0  0  0  0
  1 22  1  0  0  0  0
  1 23  1  0  0  0  0
  1 24  1  0  0  0  0
  2 21  1  0  0  0  0
  2  3  1  0  0  0  0
  2 25  1  0  0  0  0
  3  4  1  0  0  0  0
  3 26  1  0  0  0  0
  3 27  1  0  0  0  0
  4  5  1  0  0  0  0
  4 28  1  0  0  0  0
  4 29  1  0  0  0  0
  5  6  1  0  0  0  0
  5 20  1  0  0  0  0
  5 30  1  0  0  0  0
  6  7  1  0  0  0  0
  6 31  1  0  0  0  0
  7  8  2  0  0  0  0
  7  9  1  0  0  0  0
  9 10  1  0  0  0  0
  9 32  1  0  0  0  0
  9 33  1  0  0  0  0
 10 18  1  0  0  0  0
 10 11  1  0  0  0  0
 11 12  2  0  0  0  0
 11 34  1  0  0  0  0
 12 13  1  0  0  0  0
 12 16  1  0  0  0  0
 13 14  2  0  0  0  0
 13 15  1  0  0  0  0
 16 17  2  0  0  0  0
 16 35  1  0  0  0  0
 17 18  1  0  0  0  0
 17 36  1  0  0  0  0
 18 19  2  0  0  0  0
 20 21  1  0  0  0  0
 20 37  1  0  0  0  0
 20 38  1  0  0  0  0
 21 39  1  0  0  0  0
 21 40  1  0  0  0  0
M  CHG  1  13   1
M  CHG  1  15  -1
M  END
> <s_m_source_file>
AV-unprocessed.smi

> <i_m_source_file_index>
1798

> <i_lp_mmshare_version>
43012

> <i_f3d_flags>
0

> <s_epik_input>
W0NIM11bQ0BASF0xW0NIMl1bQ0gyXVtDQEhdKFtDSDJdW0NIMl0xKVtOSF1DKD1PKVtDSDJdbjJbY0hdYyhbTitdKD1PKVtPLV0pW2NIXVtjSF1jMj1P

> <s_epik_cmdline>
J2VwaWtfcHl0aG9uJywgJy1waCcsICc3LjAnLCAnLXRuJywgJzgnLCAnLW1hJywgJzIwMCcsICctbWV0YWxfYmluZGluZycsICctaW1hZScsICc8aW5maWxlLm1hZT4nLCAnLW9tYWUnLCAnPG91dGZpbGUubWFlPic=

> <r_lp_tautomer_probability>
1

> <r_epik_Ionization_Penalty>
1.91292e-08

> <r_epik_Ionization_Penalty_Charging>
8.23013e-11

> <r_epik_Ionization_Penalty_Neutral>
1.90469e-08

> <r_epik_State_Penalty>
-0

> <r_epik_Charging_Adjusted_Penalty>
8.23013e-11

> <i_epik_Tot_Q>
0

> <i_epik_Tot_abs_Q>
2

> <r_epik_Metal_State_Penalty>
-0

> <b_epik_Metal_Only>
0

> <s_lp_Force_Field>
OPLS_2005

> <r_lp_Energy>
19.9033

> <b_lp_Chiralities_Consistent>
1

> <s_lp_Variant>
AV-unprocessed.smi:1798-1

> <Gold.Version>
5.8.1

> <Gold.Id.Protein>
6NUR|6NUR_protein|mol2

> <Gold.PLP.Fitness>
39.2723

> <Gold.PLP.PLP>
-35.3426

> <Gold.PLP.part.hbond>
-2.7223

> <Gold.PLP.part.metal>
0.0000

> <Gold.PLP.part.buried>
-4.8167

> <Gold.PLP.part.nonpolar>
-28.3894

> <Gold.PLP.part.repulsive>
0.5301

> <Gold.PLP.ligand.clash>
0.0263

> <Gold.PLP.ligand.torsion>
0.4861

> <Gold.PLP.Chemscore.Hbond>
1.6400

> <Gold.PLP.Chemscore.CHOScore>
0.0000

> <Gold.PLP.Chemscore.Metal>
0.0000

> <Gold.Chemscore.Hbonds>
donor molecule, donor type, donor heavy atom, donor atom, acceptor molecule, acceptor atom, score
      P1  H  7997  8010       L1     8  1.00
      P1  H  8011  8017       L1    14  0.38

> <Gold.PLP.Chemscore.Internal.Correction>
0.0083

> <Gold.Rescore>
     Score         DG    S(hbond)    S(metal)    S(lipo)     H(rot)  DE(clash)    DE(int)     intcor
     17.12     -17.59       1.71        0.00      88.60       1.55       0.11       0.36       ----

> <Gold.Chemscore.Fitness>
17.1208

> <Gold.Chemscore.DG>
-17.5919

> <Gold.Chemscore.ZeroCoef>
-5.4800

> <Gold.Chemscore.Hbond>
1.7110

> <Gold.Chemscore.Metal>
0.0000

> <Gold.Chemscore.Lipo>
88.5993

> <Gold.Chemscore.Internal_Hbond>
0.0000

> <Gold.Chemscore.DEClash>
0.1147

> <Gold.Chemscore.DEInternal>
0.3564

> <Gold.Chemscore.Rot>
1.5505

> <Gold.Chemscore.Internal.Correction>
   9.000000E+99

> <Gold.Chemscore.Hbonds>
donor molecule, donor type, donor heavy atom, donor atom, acceptor molecule, acceptor atom, score
      P1  H  7997  8010       L1     8  0.98
      P1  H  8011  8017       L1    14  0.39

> <Gold.Chemscore.Hbond.Weighted>
-5.7149

> <Gold.Chemscore.Metal.Weighted>
-0.0000

> <Gold.Chemscore.Lipo.Weighted>
-10.3661

> <Gold.Chemscore.Internal_Hbond.Weighted>
0.0000

> <Gold.Chemscore.DEClash.Weighted>
0.1147

> <Gold.Chemscore.DEInternal.Weighted>
0.3564

> <Gold.Chemscore.Rot.Weighted>
3.9692

> <Gold.Chemscore.Internal.Correction.Weighted>
   9.000000E+99

> <Gold.Protein.RotatedTorsions>
[ 6907 6896 6895 6894 ] final  -81.25 input  -60.11 | X-H torsion
[ 7974 7965 7964 7962 ] final -138.91 input  175.53 | X-H torsion
[ 8008 7997 7996 7995 ] final   84.32 input   59.86 | X-H torsion
[ 10167 10162 10161 10158 ] final   41.31 input  -65.29 | X-H torsion
[ 10718 10713 10712 10709 ] final  -12.07 input   66.30 | X-H torsion
[ 10763 10752 10751 10750 ] final   60.92 input  -60.55 | X-H torsion
[ 11005 11000 10999 10996 ] final  -86.67 input  -57.11 | X-H torsion

> <Gold.Protein.ActiveResidues>
 VAL166  LYS551  ARG553  GLY616  TRP617  ASP618  TYR619  PRO620  LYS621  CYS622 
 ASP623  PHE694  ASN695  SER759  ASP760  ASP761  ALA762  ILE779  LEU786  VAL792 
 PHE793  MET794  SER795  GLU796  ALA797  LYS798  CYS799  TRP800  GLU811  SER814 

> <Gold.Protein.RotatedAtoms>
  150.6915  134.3846  159.5048 H   0  0  0  0  0  0  0  0  0  0  0  0  # atno 6907 bound_to 6896
  152.1643  134.8884  160.0548 H   0  0  0  0  0  0  0  0  0  0  0  0  # atno 6908 bound_to 6896
  151.9934  133.3764  159.4190 H   0  0  0  0  0  0  0  0  0  0  0  0  # atno 6909 bound_to 6896
  144.8720  140.6380  143.5261 H   0  0  0  0  0  0  0  0  0  0  0  0  # atno 7974 bound_to 7965
  155.9355  140.3412  155.6284 H   0  0  0  0  0  0  0  0  0  0  0  0  # atno 8008 bound_to 7997
  155.7105  140.0771  157.2392 H   0  0  0  0  0  0  0  0  0  0  0  0  # atno 8009 bound_to 7997
  154.4093  140.1623  156.2278 H   0  0  0  0  0  0  0  0  0  0  0  0  # atno 8010 bound_to 7997
  140.3656  144.2172  150.6135 H   0  0  0  0  0  0  0  0  0  0  0  0  # atno 10167 bound_to 10162
  156.6499  130.4952  149.6065 H   0  0  0  0  0  0  0  0  0  0  0  0  # atno 10718 bound_to 10713
  152.9935  135.5519  154.5951 H   0  0  0  0  0  0  0  0  0  0  0  0  # atno 10763 bound_to 10752
  154.5304  135.2813  155.1187 H   0  0  0  0  0  0  0  0  0  0  0  0  # atno 10764 bound_to 10752
  154.2504  135.6400  153.5291 H   0  0  0  0  0  0  0  0  0  0  0  0  # atno 10765 bound_to 10752
  141.1627  133.7468  156.9196 H   0  0  0  0  0  0  0  0  0  0  0  0  # atno 11005 bound_to 11000
  145.4113  139.1579  143.4124 LP  0  0  0  0  0  0  0  0  0  0  0  0  # atno 17320 bound_to 7965
  146.2936  140.4217  142.8730 LP  0  0  0  0  0  0  0  0  0  0  0  0  # atno 17321 bound_to 7965
  140.5084  143.2297  151.8573 LP  0  0  0  0  0  0  0  0  0  0  0  0  # atno 17342 bound_to 10162
  139.4809  144.4978  151.9100 LP  0  0  0  0  0  0  0  0  0  0  0  0  # atno 17343 bound_to 10162
  156.2092  130.6668  151.1252 LP  0  0  0  0  0  0  0  0  0  0  0  0  # atno 17370 bound_to 10713
  157.7144  131.0717  150.6382 LP  0  0  0  0  0  0  0  0  0  0  0  0  # atno 17371 bound_to 10713
  140.1461  134.9261  157.2531 LP  0  0  0  0  0  0  0  0  0  0  0  0  # atno 17394 bound_to 11000
  140.2779  134.3384  155.7352 LP  0  0  0  0  0  0  0  0  0  0  0  0  # atno 17395 bound_to 11000

$$$$
