AV-unprocessed.smi:2955|AV-procd|sdf|11304|dock7
  -GOLD-   2272016203D 1   1.00000     0.00000
 Structure written by MMmdl.
 46 48  0  0  0  0  0  0  0  0  2 V2000
  147.6208  132.2952  160.3012 C   0  0  0  0  0  0  0  0  0  0  0  0
  147.3286  133.6636  160.8823 C   0  0  0  0  0  0  0  0  0  0  0  0
  146.5983  133.7816  162.0814 C   0  0  0  0  0  0  0  0  0  0  0  0
  146.3291  135.0541  162.6175 C   0  0  0  0  0  0  0  0  0  0  0  0
  146.7898  136.2085  161.9568 C   0  0  0  0  0  0  0  0  0  0  0  0
  147.5244  136.1087  160.7577 C   0  0  0  0  0  0  0  0  0  0  0  0
  147.9363  137.2890  160.1785 O   0  0  0  0  0  0  0  0  0  0  0  0
  148.7064  137.2241  158.9851 C   0  0  0  0  0  0  0  0  0  0  0  0
  147.9125  137.8650  157.8384 C   0  0  0  0  0  0  0  0  0  0  0  0
  148.6262  137.7831  156.5547 N   0  0  0  0  0  0  0  0  0  0  0  0
  148.3120  137.1188  155.4032 C   0  0  0  0  0  0  0  0  0  0  0  0
  147.1118  136.2519  155.1538 C   0  0  1  0  0  0  0  0  0  0  0  0
  145.8116  137.0538  155.3095 C   0  0  0  0  0  0  0  0  0  0  0  0
  147.1574  135.6383  153.8328 N   0  0  0  0  0  0  0  0  0  0  0  0
  146.2291  134.7950  153.3642 C   0  0  0  0  0  0  0  0  0  0  0  0
  145.2400  134.4593  154.0098 O   0  0  0  0  0  0  0  0  0  0  0  0
  149.3176  137.3626  154.5141 N   0  3  0  0  0  0  0  0  0  0  0  0
  150.2677  138.2051  155.0904 C   0  0  0  0  0  0  0  0  0  0  0  0
  151.4493  138.7311  154.5774 C   0  0  0  0  0  0  0  0  0  0  0  0
  152.1932  139.5686  155.4342 C   0  0  0  0  0  0  0  0  0  0  0  0
  151.7547  139.8548  156.7434 C   0  0  0  0  0  0  0  0  0  0  0  0
  150.5554  139.3141  157.2525 C   0  0  0  0  0  0  0  0  0  0  0  0
  149.8273  138.4844  156.3999 C   0  0  0  0  0  0  0  0  0  0  0  0
  147.7919  134.8221  160.2246 C   0  0  0  0  0  0  0  0  0  0  0  0
  146.9016  131.5562  160.6559 H   0  0  0  0  0  0  0  0  0  0  0  0
  148.6196  131.9686  160.5906 H   0  0  0  0  0  0  0  0  0  0  0  0
  147.5686  132.3198  159.2123 H   0  0  0  0  0  0  0  0  0  0  0  0
  146.2424  132.8990  162.5926 H   0  0  0  0  0  0  0  0  0  0  0  0
  145.7682  135.1451  163.5358 H   0  0  0  0  0  0  0  0  0  0  0  0
  146.5753  137.1809  162.3749 H   0  0  0  0  0  0  0  0  0  0  0  0
  149.6527  137.7508  159.1179 H   0  0  0  0  0  0  0  0  0  0  0  0
  148.9288  136.1861  158.7336 H   0  0  0  0  0  0  0  0  0  0  0  0
  146.9320  137.4004  157.7342 H   0  0  0  0  0  0  0  0  0  0  0  0
  147.7242  138.9167  158.0530 H   0  0  0  0  0  0  0  0  0  0  0  0
  147.0911  135.4545  155.8974 H   0  0  0  0  0  0  0  0  0  0  0  0
  145.7448  137.4994  156.3025 H   0  0  0  0  0  0  0  0  0  0  0  0
  144.9385  136.4139  155.1779 H   0  0  0  0  0  0  0  0  0  0  0  0
  145.7445  137.8602  154.5784 H   0  0  0  0  0  0  0  0  0  0  0  0
  147.9369  135.8735  153.2357 H   0  0  0  0  0  0  0  0  0  0  0  0
  146.4617  134.4520  152.3440 H   0  0  0  0  0  0  0  0  0  0  0  0
  151.7858  138.5148  153.5741 H   0  0  0  0  0  0  0  0  0  0  0  0
  153.1178  140.0012  155.0798 H   0  0  0  0  0  0  0  0  0  0  0  0
  152.3504  140.5022  157.3706 H   0  0  0  0  0  0  0  0  0  0  0  0
  150.2283  139.5427  158.2558 H   0  0  0  0  0  0  0  0  0  0  0  0
  148.3511  134.6996  159.3096 H   0  0  0  0  0  0  0  0  0  0  0  0
  149.3451  136.9804  153.5777 H   0  0  0  0  0  0  0  0  0  0  0  0
  1  2  1  0  0  0  0
  1 25  1  0  0  0  0
  1 26  1  0  0  0  0
  1 27  1  0  0  0  0
  2 24  1  0  0  0  0
  2  3  2  0  0  0  0
  3  4  1  0  0  0  0
  3 28  1  0  0  0  0
  4  5  2  0  0  0  0
  4 29  1  0  0  0  0
  5  6  1  0  0  0  0
  5 30  1  0  0  0  0
  6  7  1  0  0  0  0
  6 24  2  0  0  0  0
  7  8  1  0  0  0  0
  8  9  1  0  0  0  0
  8 31  1  0  0  0  0
  8 32  1  0  0  0  0
  9 10  1  0  0  0  0
  9 33  1  0  0  0  0
  9 34  1  0  0  0  0
 10 23  1  0  0  0  0
 10 11  1  0  0  0  0
 11 12  1  0  0  0  0
 11 17  2  0  0  0  0
 12 13  1  0  0  0  0
 12 14  1  0  0  0  0
 12 35  1  0  0  0  0
 13 36  1  0  0  0  0
 13 37  1  0  0  0  0
 13 38  1  0  0  0  0
 14 15  1  0  0  0  0
 14 39  1  0  0  0  0
 15 16  2  0  0  0  0
 15 40  1  0  0  0  0
 17 18  1  0  0  0  0
 17 46  1  0  0  0  0
 18 23  2  0  0  0  0
 18 19  1  0  0  0  0
 19 20  2  0  0  0  0
 19 41  1  0  0  0  0
 20 21  1  0  0  0  0
 20 42  1  0  0  0  0
 21 22  2  0  0  0  0
 21 43  1  0  0  0  0
 22 23  1  0  0  0  0
 22 44  1  0  0  0  0
 24 45  1  0  0  0  0
M  CHG  1  17   1
M  END
> <s_m_source_file>
AV-unprocessed.smi

> <i_m_source_file_index>
2955

> <i_lp_mmshare_version>
43012

> <i_f3d_flags>
0

> <s_epik_input>
W0NIM11jMVtjSF1bY0hdW2NIXWMoW2NIXTEpT1tDSDJdW0NIMl1uKGMobjIpW0NASF0oW0NIM10pW05IXVtDSF09TyljKGMyMylbY0hdW2NIXVtjSF1bY0hdMw==

> <s_epik_cmdline>
J2VwaWtfcHl0aG9uJywgJy1waCcsICc3LjAnLCAnLXRuJywgJzgnLCAnLW1hJywgJzIwMCcsICctbWV0YWxfYmluZGluZycsICctaW1hZScsICc8aW5maWxlLm1hZT4nLCAnLW9tYWUnLCAnPG91dGZpbGUubWFlPic=

> <r_lp_tautomer_probability>
1

> <r_epik_Ionization_Penalty>
1.15027

> <r_epik_Ionization_Penalty_Charging>
1.15027

> <r_epik_Ionization_Penalty_Neutral>
5.5802e-08

> <r_epik_State_Penalty>
1.21159

> <r_epik_Charging_Adjusted_Penalty>
2.36186

> <i_epik_Tot_Q>
1

> <i_epik_Tot_abs_Q>
1

> <r_epik_Metal_State_Penalty>
1.29223

> <b_epik_Metal_Only>
0

> <s_lp_Force_Field>
OPLS_2005

> <r_lp_Energy>
16.9999

> <b_lp_Chiralities_Consistent>
1

> <s_lp_Variant>
AV-unprocessed.smi:2955-4

> <Gold.Version>
5.8.1

> <Gold.Id.Protein>
6NUR|6NUR_protein|mol2

> <Gold.PLP.Fitness>
48.3292

> <Gold.PLP.PLP>
-36.3211

> <Gold.PLP.part.hbond>
-4.0000

> <Gold.PLP.part.metal>
0.0000

> <Gold.PLP.part.buried>
-3.6235

> <Gold.PLP.part.nonpolar>
-29.8690

> <Gold.PLP.part.repulsive>
0.0768

> <Gold.PLP.ligand.clash>
0.0000

> <Gold.PLP.ligand.torsion>
0.4134

> <Gold.PLP.Chemscore.Hbond>
4.2425

> <Gold.PLP.Chemscore.CHOScore>
0.0000

> <Gold.PLP.Chemscore.Metal>
0.0000

> <Gold.Chemscore.Hbonds>
donor molecule, donor type, donor heavy atom, donor atom, acceptor molecule, acceptor atom, score
      L1  H    14    39       P1  7948  1.00
      L1  H    17    46       P1  7948  2.00
      P1  H  6931  6943       L1     7  0.28
      P1  H  6934  6947       L1     7  0.75

> <Gold.PLP.Chemscore.Internal.Correction>
0.1072

> <Gold.Rescore>
     Score         DG    S(hbond)    S(metal)    S(lipo)     H(rot)  DE(clash)    DE(int)     intcor
     18.57     -19.13       2.88        0.00      85.41       2.32       0.01       0.56       ----

> <Gold.Chemscore.Fitness>
18.5677

> <Gold.Chemscore.DG>
-19.1347

> <Gold.Chemscore.ZeroCoef>
-5.4800

> <Gold.Chemscore.Hbond>
2.8761

> <Gold.Chemscore.Metal>
0.0000

> <Gold.Chemscore.Lipo>
85.4147

> <Gold.Chemscore.Internal_Hbond>
0.0000

> <Gold.Chemscore.DEClash>
0.0106

> <Gold.Chemscore.DEInternal>
0.5564

> <Gold.Chemscore.Rot>
2.3223

> <Gold.Chemscore.Internal.Correction>
   9.000000E+99

> <Gold.Chemscore.Hbonds>
donor molecule, donor type, donor heavy atom, donor atom, acceptor molecule, acceptor atom, score
      L1  H    14    39       P1  7948  1.00
      L1  H    17    46       P1  7948  0.96
      P1  H  6931  6943       L1     7  0.08
      P1  H  6934  6947       L1     7  0.68

> <Gold.Chemscore.Hbond.Weighted>
-9.6062

> <Gold.Chemscore.Metal.Weighted>
-0.0000

> <Gold.Chemscore.Lipo.Weighted>
-9.9935

> <Gold.Chemscore.Internal_Hbond.Weighted>
0.0000

> <Gold.Chemscore.DEClash.Weighted>
0.0106

> <Gold.Chemscore.DEInternal.Weighted>
0.5564

> <Gold.Chemscore.Rot.Weighted>
5.9450

> <Gold.Chemscore.Internal.Correction.Weighted>
   9.000000E+99

> <Gold.Protein.RotatedTorsions>
[ 6907 6896 6895 6894 ] final  -92.41 input  -60.11 | X-H torsion
[ 7974 7965 7964 7962 ] final  129.13 input  175.53 | X-H torsion
[ 8008 7997 7996 7995 ] final   -1.09 input   59.86 | X-H torsion
[ 10167 10162 10161 10158 ] final  -67.28 input  -65.29 | X-H torsion
[ 10718 10713 10712 10709 ] final   86.50 input   66.30 | X-H torsion
[ 10763 10752 10751 10750 ] final  154.83 input  -60.55 | X-H torsion
[ 11005 11000 10999 10996 ] final   38.91 input  -57.11 | X-H torsion

> <Gold.Protein.ActiveResidues>
 VAL166  LYS551  ARG553  GLY616  TRP617  ASP618  TYR619  PRO620  LYS621  CYS622 
 ASP623  PHE694  ASN695  SER759  ASP760  ASP761  ALA762  ILE779  LEU786  VAL792 
 PHE793  MET794  SER795  GLU796  ALA797  LYS798  CYS799  TRP800  GLU811  SER814 

> <Gold.Protein.RotatedAtoms>
  150.6906  134.2127  159.4365 H   0  0  0  0  0  0  0  0  0  0  0  0  # atno 6907 bound_to 6896
  152.0088  134.9885  160.0577 H   0  0  0  0  0  0  0  0  0  0  0  0  # atno 6908 bound_to 6896
  152.1509  133.4486  159.4850 H   0  0  0  0  0  0  0  0  0  0  0  0  # atno 6909 bound_to 6896
  145.0320  139.4038  143.5145 H   0  0  0  0  0  0  0  0  0  0  0  0  # atno 7974 bound_to 7965
  154.6507  140.2568  155.7217 H   0  0  0  0  0  0  0  0  0  0  0  0  # atno 8008 bound_to 7997
  156.2573  140.2868  156.0860 H   0  0  0  0  0  0  0  0  0  0  0  0  # atno 8009 bound_to 7997
  155.1455  140.0381  157.2799 H   0  0  0  0  0  0  0  0  0  0  0  0  # atno 8010 bound_to 7997
  140.5595  143.2312  151.6756 H   0  0  0  0  0  0  0  0  0  0  0  0  # atno 10167 bound_to 10162
  157.6929  131.0218  150.2982 H   0  0  0  0  0  0  0  0  0  0  0  0  # atno 10718 bound_to 10713
  154.1586  135.2811  155.3115 H   0  0  0  0  0  0  0  0  0  0  0  0  # atno 10763 bound_to 10752
  154.6164  135.5482  153.7531 H   0  0  0  0  0  0  0  0  0  0  0  0  # atno 10764 bound_to 10752
  153.0199  135.6428  154.1728 H   0  0  0  0  0  0  0  0  0  0  0  0  # atno 10765 bound_to 10752
  140.2079  134.3791  155.8063 H   0  0  0  0  0  0  0  0  0  0  0  0  # atno 11005 bound_to 11000
  146.3499  139.9874  142.8689 LP  0  0  0  0  0  0  0  0  0  0  0  0  # atno 17320 bound_to 7965
  145.1759  140.9743  143.4294 LP  0  0  0  0  0  0  0  0  0  0  0  0  # atno 17321 bound_to 7965
  139.5063  144.3686  152.0492 LP  0  0  0  0  0  0  0  0  0  0  0  0  # atno 17342 bound_to 10162
  140.2811  144.3859  150.6119 LP  0  0  0  0  0  0  0  0  0  0  0  0  # atno 17343 bound_to 10162
  156.3502  130.3829  149.7336 LP  0  0  0  0  0  0  0  0  0  0  0  0  # atno 17370 bound_to 10713
  156.4816  130.8043  151.3057 LP  0  0  0  0  0  0  0  0  0  0  0  0  # atno 17371 bound_to 10713
  141.2227  133.7128  156.8369 LP  0  0  0  0  0  0  0  0  0  0  0  0  # atno 17394 bound_to 11000
  140.1982  134.8916  157.3139 LP  0  0  0  0  0  0  0  0  0  0  0  0  # atno 17395 bound_to 11000

$$$$
