#       Name:                AV-unprocessed.smi:2597
#       Creating user name   scv26
#       Creation time:       Fri Mar 27 14:19:02 2020


#       File generated by GOLD software.
#

@<TRIPOS>MOLECULE
AV-unprocessed.smi:2597
    35    36     1
SMALL
NO_CHARGES


@<TRIPOS>ATOM
      1 ****        -0.8028   0.2063   2.3628 N.3            1 S1                 0.0000
      2 ****        -1.1683  -0.5768   1.1950 C.3            1 S1                 0.0000
      3 ****        -2.7057  -0.6263   1.1053 C.3            1 S1                 0.0000
      4 ****        -3.1716  -1.3672  -0.1569 C.3            1 S1                 0.0000
      5 ****        -2.5742  -0.7327  -1.4213 C.3            1 S1                 0.0000
      6 ****        -1.0402  -0.6969  -1.3480 C.3            1 S1                 0.0000
      7 ****        -0.5487   0.0415  -0.0848 C.3            1 S1                 0.0000
      8 ****         0.9083   0.0697  -0.0398 N.pl3          1 S1                 0.0000
      9 ****         1.7428   1.1589  -0.1832 C.2            1 S1                 0.0000
     10 ****         2.9940   0.6213  -0.0732 C.2            1 S1                 0.0000
     11 ****         4.3284   1.2993  -0.1420 C.3            1 S1                 0.0000
     12 ****         4.4449   1.8387  -1.4410 O.3            1 S1                 0.0000
     13 ****         2.8729  -0.7527   0.1286 N.2            1 S1                 0.0000
     14 ****         1.6174  -1.0728   0.1409 N.2            1 S1                 0.0000
     15 ****        -0.7906  -1.5905   1.3339 H              1 S1                 0.0000
     16 ****        -0.8855   1.0773  -0.1589 H              1 S1                 0.0000
     17 ****         0.2039   0.2654   2.4259 H              1 S1                 0.0000
     18 ****        -1.1373   1.1529   2.2533 H              1 S1                 0.0000
     19 ****        -3.1175  -1.1154   1.9890 H              1 S1                 0.0000
     20 ****        -3.1120   0.3865   1.0951 H              1 S1                 0.0000
     21 ****        -2.8756  -2.4153  -0.0971 H              1 S1                 0.0000
     22 ****        -4.2605  -1.3560  -0.2141 H              1 S1                 0.0000
     23 ****        -2.8912  -1.2910  -2.3025 H              1 S1                 0.0000
     24 ****        -2.9597   0.2807  -1.5409 H              1 S1                 0.0000
     25 ****        -0.6594  -1.7192  -1.3569 H              1 S1                 0.0000
     26 ****        -0.6429  -0.2124  -2.2406 H              1 S1                 0.0000
     27 ****         1.3931   2.1674  -0.3455 H              1 S1                 0.0000
     28 ****         4.4034   2.0990   0.5950 H              1 S1                 0.0000
     29 ****         5.1464   0.6011   0.0380 H              1 S1                 0.0000
     30 ****         5.2871   2.2605  -1.5156 H              1 S1                 0.0000
     31 ****        -1.1967  -0.2289   3.1724 LP             1 S1                 0.0000
     32 ****         3.7177   2.5075  -1.5951 LP             1 S1                 0.0000
     33 ****         4.3732   1.1063  -2.1182 LP             1 S1                 0.0000
     34 ****         3.6344  -1.3903   0.2454 LP             1 S1                 0.0000
     35 ****         1.2410  -1.9914   0.2612 LP             1 S1                 0.0000
@<TRIPOS>BOND
    1    1    2 1     
    2    1   17 1     
    3    1   18 1     
    4    2   15 1     
    5    2    7 1     
    6    2    3 1     
    7    3    4 1     
    8    3   19 1     
    9    3   20 1     
   10    4    5 1     
   11    4   21 1     
   12    4   22 1     
   13    5    6 1     
   14    5   23 1     
   15    5   24 1     
   16    6    7 1     
   17    6   25 1     
   18    6   26 1     
   19    7   16 1     
   20    7    8 1     
   21    8   14 1     
   22    8    9 1     
   23    9   10 2     
   24    9   27 1     
   25   10   11 1     
   26   10   13 1     
   27   11   12 1     
   28   11   28 1     
   29   11   29 1     
   30   12   30 1     
   31   13   14 2     
   32    1   31 1     
   33   12   32 1     
   34   12   33 1     
   35   13   34 1     
   36   14   35 1     
@<TRIPOS>SUBSTRUCTURE
      1 S1             1
@<TRIPOS>SET
LONE_PAIRS      STATIC     ATOMS    <user>   **** ""
5 31 32 33 34 35
DONOR_HYDROGENS      STATIC     ATOMS    <user>   **** ""
3 17 18 30
ATOM$BLUE        STATIC     ATOMS    COLORGROUP SYSTEM
5 31 32 33 34 35
ATOM$RED        STATIC     ATOMS    COLORGROUP SYSTEM
3 17 18 30
