#       Name:                AV-unprocessed.smi:1648
#       Creating user name   scv26
#       Creation time:       Fri Mar 27 07:32:56 2020


#       File generated by GOLD software.
#

@<TRIPOS>MOLECULE
AV-unprocessed.smi:1648
    46    46     1
SMALL
NO_CHARGES


@<TRIPOS>ATOM
      1 ****        -2.6425   0.1603  -3.1729 C.3            1 S1                 0.0000
      2 ****        -2.7983  -1.3165  -2.8053 C.2            1 S1                 0.0000
      3 ****        -3.1502  -2.1191  -3.6666 O.2            1 S1                 0.0000
      4 ****        -2.5514  -1.7109  -1.5440 N.am           1 S1                 0.0000
      5 ****        -2.6436  -3.0688  -1.0004 C.3            1 S1                 0.0000
      6 ****        -4.1033  -3.3318  -0.5838 C.2            1 S1                 0.0000
      7 ****        -4.7124  -2.5196   0.1146 O.2            1 S1                 0.0000
      8 ****        -4.6423  -4.4872  -1.0040 N.am           1 S1                 0.0000
      9 ****        -5.9968  -4.9420  -0.7065 C.3            1 S1                 0.0000
     10 ****        -6.4717  -5.8827  -1.8254 C.3            1 S1                 0.0000
     11 ****        -6.0398  -5.5918   0.6940 C.3            1 S1                 0.0000
     12 ****        -7.3809  -6.0416   1.0772 N.pl3          1 S1                 0.0000
     13 ****        -7.8544  -7.3285   1.1061 C.2            1 S1                 0.0000
     14 ****        -9.1553  -7.2562   1.5337 C.2            1 S1                 0.0000
     15 ****        -9.4188  -5.9304   1.7519 N.pl3          1 S1                 1.0000
     16 ****        -8.3378  -5.1937   1.4757 C.2            1 S1                 0.0000
     17 ****        -1.7128  -3.1733   0.2443 C.3            1 S1                 0.0000
     18 ****        -0.2472  -2.8496  -0.1077 C.3            1 S1                 0.0000
     19 ****        -1.7718  -4.5539   0.9319 C.3            1 S1                 0.0000
     20 ****        -3.3462   0.7740  -2.6101 H              1 S1                 0.0000
     21 ****        -2.8402   0.3137  -4.2344 H              1 S1                 0.0000
     22 ****        -1.6298   0.5085  -2.9689 H              1 S1                 0.0000
     23 ****        -2.2915  -0.9907  -0.8855 H              1 S1                 0.0000
     24 ****        -2.3258  -3.8007  -1.7449 H              1 S1                 0.0000
     25 ****        -4.0706  -5.0961  -1.5719 H              1 S1                 0.0000
     26 ****        -6.6602  -4.0749  -0.7094 H              1 S1                 0.0000
     27 ****        -7.5102  -6.1817  -1.6833 H              1 S1                 0.0000
     28 ****        -5.8660  -6.7885  -1.8667 H              1 S1                 0.0000
     29 ****        -6.4076  -5.3951  -2.7989 H              1 S1                 0.0000
     30 ****        -5.3725  -6.4541   0.7366 H              1 S1                 0.0000
     31 ****        -5.6985  -4.8916   1.4580 H              1 S1                 0.0000
     32 ****        -7.2475  -8.1776   0.8262 H              1 S1                 0.0000
     33 ****        -9.8928  -8.0287   1.6967 H              1 S1                 0.0000
     34 ****        -8.2543  -4.1243   1.5575 H              1 S1                 0.0000
     35 ****        -2.0335  -2.4329   0.9796 H              1 S1                 0.0000
     36 ****         0.1374  -3.5347  -0.8638 H              1 S1                 0.0000
     37 ****         0.3944  -2.9318   0.7702 H              1 S1                 0.0000
     38 ****        -0.1314  -1.8349  -0.4889 H              1 S1                 0.0000
     39 ****        -1.5109  -5.3521   0.2363 H              1 S1                 0.0000
     40 ****        -2.7601  -4.7727   1.3362 H              1 S1                 0.0000
     41 ****        -1.0743  -4.6044   1.7685 H              1 S1                 0.0000
     42 ****       -10.3025  -5.5592   2.0780 H              1 S1                 0.0000
     43 ****        -3.3320  -1.8049  -4.5984 LP             1 S1                 0.0000
     44 ****        -3.2547  -3.0865  -3.4358 LP             1 S1                 0.0000
     45 ****        -4.2593  -1.6806   0.4161 LP             1 S1                 0.0000
     46 ****        -5.6596  -2.6993   0.3798 LP             1 S1                 0.0000
@<TRIPOS>BOND
    1    1    2 1     
    2    1   20 1     
    3    1   21 1     
    4    1   22 1     
    5    2    3 2     
    6    2    4 am    
    7    4    5 1     
    8    4   23 1     
    9    5    6 1     
   10    5   17 1     
   11    5   24 1     
   12    6    7 2     
   13    6    8 am    
   14    8    9 1     
   15    8   25 1     
   16    9   10 1     
   17    9   11 1     
   18    9   26 1     
   19   10   27 1     
   20   10   28 1     
   21   10   29 1     
   22   11   12 1     
   23   11   30 1     
   24   11   31 1     
   25   12   16 1     
   26   12   13 1     
   27   13   14 2     
   28   13   32 1     
   29   14   15 1     
   30   14   33 1     
   31   15   16 2     
   32   15   42 1     
   33   16   34 1     
   34   17   18 1     
   35   17   19 1     
   36   17   35 1     
   37   18   36 1     
   38   18   37 1     
   39   18   38 1     
   40   19   39 1     
   41   19   40 1     
   42   19   41 1     
   43    3   43 1     
   44    3   44 1     
   45    7   45 1     
   46    7   46 1     
@<TRIPOS>SUBSTRUCTURE
      1 S1             1
@<TRIPOS>SET
LONE_PAIRS      STATIC     ATOMS    <user>   **** ""
4 43 44 45 46
DONOR_HYDROGENS      STATIC     ATOMS    <user>   **** ""
3 23 25 42
ATOM$BLUE        STATIC     ATOMS    COLORGROUP SYSTEM
4 43 44 45 46
ATOM$RED        STATIC     ATOMS    COLORGROUP SYSTEM
3 23 25 42
