#       Name:                AV-unprocessed.smi:3116
#       Creating user name   scv26
#       Creation time:       Fri Mar 27 17:25:13 2020


#       File generated by GOLD software.
#

@<TRIPOS>MOLECULE
AV-unprocessed.smi:3116
    37    37     1
SMALL
NO_CHARGES


@<TRIPOS>ATOM
      1 ****        -2.7058   1.9176   0.9188 C.3            1 S1                 0.0000
      2 ****        -1.2166   1.8457   0.5492 C.3            1 S1                 0.0000
      3 ****        -0.7674   0.4340   0.5587 N.4            1 S1                 1.0000
      4 ****         0.6977   0.2175   0.6426 C.3            1 S1                 0.0000
      5 ****         1.0248  -0.4797   1.9754 C.3            1 S1                 0.0000
      6 ****         1.2099  -0.5246  -0.6216 C.3            1 S1                 0.0000
      7 ****         2.7442  -0.4667  -0.7588 C.3            1 S1                 0.0000
      8 ****         0.7041  -1.8911  -0.7256 N.pl3          1 S1                 0.0000
      9 ****        -0.4263  -2.3253  -1.3885 C.2            1 S1                 0.0000
     10 ****        -0.5253  -3.6731  -1.1944 C.2            1 S1                 0.0000
     11 ****         0.6016  -3.9814  -0.3835 C.2            1 S1                 0.0000
     12 ****         1.3288  -2.9142  -0.0979 N.2            1 S1                 0.0000
     13 ****        -0.9850   2.5017  -0.8190 C.2            1 S1                 0.0000
     14 ****        -0.6336   3.7897  -0.8255 N.am           1 S1                 0.0000
     15 ****        -1.1364   1.8593  -1.8566 O.2            1 S1                 0.0000
     16 ****        -3.0590   2.9494   0.9443 H              1 S1                 0.0000
     17 ****        -2.8842   1.4897   1.9058 H              1 S1                 0.0000
     18 ****        -3.3244   1.3720   0.2048 H              1 S1                 0.0000
     19 ****        -0.6574   2.3911   1.3117 H              1 S1                 0.0000
     20 ****        -1.1819  -0.0171   1.3614 H              1 S1                 0.0000
     21 ****         1.1919   1.1901   0.6632 H              1 S1                 0.0000
     22 ****         2.0933  -0.6662   2.0795 H              1 S1                 0.0000
     23 ****         0.5072  -1.4343   2.0728 H              1 S1                 0.0000
     24 ****         0.7219   0.1395   2.8203 H              1 S1                 0.0000
     25 ****         0.8225   0.0085  -1.4905 H              1 S1                 0.0000
     26 ****         3.0957   0.5652  -0.7769 H              1 S1                 0.0000
     27 ****         3.0702  -0.9374  -1.6869 H              1 S1                 0.0000
     28 ****         3.2525  -0.9716   0.0626 H              1 S1                 0.0000
     29 ****        -1.0600  -1.6462  -1.9400 H              1 S1                 0.0000
     30 ****        -1.2868  -4.3383  -1.5740 H              1 S1                 0.0000
     31 ****         0.9089  -4.9408   0.0064 H              1 S1                 0.0000
     32 ****        -0.4632   4.2669  -1.6990 H              1 S1                 0.0000
     33 ****        -0.5325   4.2843   0.0494 H              1 S1                 0.0000
     34 ****        -1.1185  -0.0166  -0.2744 H              1 S1                 0.0000
     35 ****         2.1581  -2.8726   0.4594 LP             1 S1                 0.0000
     36 ****        -1.4131   0.8993  -1.8145 LP             1 S1                 0.0000
     37 ****        -0.9827   2.2969  -2.7426 LP             1 S1                 0.0000
@<TRIPOS>BOND
    1    1    2 1     
    2    1   16 1     
    3    1   17 1     
    4    1   18 1     
    5    2    3 1     
    6    2   13 1     
    7    2   19 1     
    8    3    4 1     
    9    3   20 1     
   10    3   34 1     
   11    4    5 1     
   12    4    6 1     
   13    4   21 1     
   14    5   22 1     
   15    5   23 1     
   16    5   24 1     
   17    6    7 1     
   18    6    8 1     
   19    6   25 1     
   20    7   26 1     
   21    7   27 1     
   22    7   28 1     
   23    8   12 1     
   24    8    9 1     
   25    9   10 2     
   26    9   29 1     
   27   10   11 1     
   28   10   30 1     
   29   11   12 2     
   30   11   31 1     
   31   13   14 am    
   32   13   15 2     
   33   14   32 1     
   34   14   33 1     
   35   12   35 1     
   36   15   36 1     
   37   15   37 1     
@<TRIPOS>SUBSTRUCTURE
      1 S1             1
@<TRIPOS>SET
LONE_PAIRS      STATIC     ATOMS    <user>   **** ""
3 35 36 37
DONOR_HYDROGENS      STATIC     ATOMS    <user>   **** ""
4 20 34 32 33
ATOM$BLUE        STATIC     ATOMS    COLORGROUP SYSTEM
3 35 36 37
ATOM$RED        STATIC     ATOMS    COLORGROUP SYSTEM
4 20 34 32 33
