AV-unprocessed.smi:2971|AV-procd|sdf|11334|dock3
  -GOLD-   2272016243D 1   1.00000     0.00000
 Structure written by MMmdl.
 37 39  0  0  0  0  0  0  0  0  2 V2000
  150.4650  139.6990  158.0146 O   0  0  0  0  0  0  0  0  0  0  0  0
  151.6034  139.9345  157.2092 C   0  0  2  0  0  0  0  0  0  0  0  0
  152.6135  140.7572  158.0244 C   0  0  0  0  0  0  0  0  0  0  0  0
  152.0916  142.0653  158.2181 O   0  0  0  0  0  0  0  0  0  0  0  0
  152.2565  142.6603  159.4513 C   0  0  0  0  0  0  0  0  0  0  0  0
  152.9335  142.0565  160.5418 C   0  0  0  0  0  0  0  0  0  0  0  0
  153.0568  142.7351  161.7699 C   0  0  0  0  0  0  0  0  0  0  0  0
  152.5072  144.0208  161.9252 C   0  0  0  0  0  0  0  0  0  0  0  0
  151.8332  144.6278  160.8495 C   0  0  0  0  0  0  0  0  0  0  0  0
  151.7100  143.9506  159.6207 C   0  0  0  0  0  0  0  0  0  0  0  0
  151.0590  144.5470  158.5935 F   0  0  0  0  0  0  0  0  0  0  0  0
  151.1737  140.6681  155.9231 C   0  0  0  0  0  0  0  0  0  0  0  0
  150.3188  139.8474  155.0528 N   0  0  0  0  0  0  0  0  0  0  0  0
  150.6101  138.6959  154.3889 C   0  0  0  0  0  0  0  0  0  0  0  0
  149.4927  138.3186  153.7083 N   0  3  0  0  0  0  0  0  0  0  0  0
  148.4705  139.2407  153.9421 C   0  0  0  0  0  0  0  0  0  0  0  0
  147.1608  139.2858  153.4744 C   0  0  0  0  0  0  0  0  0  0  0  0
  146.3699  140.3689  153.9107 C   0  0  0  0  0  0  0  0  0  0  0  0
  146.8867  141.3533  154.7779 C   0  0  0  0  0  0  0  0  0  0  0  0
  148.2168  141.2985  155.2442 C   0  0  0  0  0  0  0  0  0  0  0  0
  148.9933  140.2254  154.8074 C   0  0  0  0  0  0  0  0  0  0  0  0
  149.6998  139.7103  157.4595 H   0  0  0  0  0  0  0  0  0  0  0  0
  152.0476  138.9761  156.9365 H   0  0  0  0  0  0  0  0  0  0  0  0
  152.7473  140.2930  159.0029 H   0  0  0  0  0  0  0  0  0  0  0  0
  153.5862  140.7793  157.5296 H   0  0  0  0  0  0  0  0  0  0  0  0
  153.3676  141.0716  160.4631 H   0  0  0  0  0  0  0  0  0  0  0  0
  153.5741  142.2671  162.5943 H   0  0  0  0  0  0  0  0  0  0  0  0
  152.6021  144.5403  162.8674 H   0  0  0  0  0  0  0  0  0  0  0  0
  151.4098  145.6146  160.9663 H   0  0  0  0  0  0  0  0  0  0  0  0
  150.6655  141.6056  156.1508 H   0  0  0  0  0  0  0  0  0  0  0  0
  152.0549  140.9350  155.3383 H   0  0  0  0  0  0  0  0  0  0  0  0
  151.5574  138.1764  154.3989 H   0  0  0  0  0  0  0  0  0  0  0  0
  146.7617  138.5322  152.8114 H   0  0  0  0  0  0  0  0  0  0  0  0
  145.3458  140.4456  153.5750 H   0  0  0  0  0  0  0  0  0  0  0  0
  146.2501  142.1669  155.0940 H   0  0  0  0  0  0  0  0  0  0  0  0
  148.5997  142.0547  155.9135 H   0  0  0  0  0  0  0  0  0  0  0  0
  149.4349  137.4916  153.1279 H   0  0  0  0  0  0  0  0  0  0  0  0
  1  2  1  0  0  0  0
  1 22  1  0  0  0  0
  2  3  1  0  0  0  0
  2 12  1  0  0  0  0
  2 23  1  0  0  0  0
  3  4  1  0  0  0  0
  3 24  1  0  0  0  0
  3 25  1  0  0  0  0
  4  5  1  0  0  0  0
  5 10  1  0  0  0  0
  5  6  2  0  0  0  0
  6  7  1  0  0  0  0
  6 26  1  0  0  0  0
  7  8  2  0  0  0  0
  7 27  1  0  0  0  0
  8  9  1  0  0  0  0
  8 28  1  0  0  0  0
  9 10  2  0  0  0  0
  9 29  1  0  0  0  0
 10 11  1  0  0  0  0
 12 13  1  0  0  0  0
 12 30  1  0  0  0  0
 12 31  1  0  0  0  0
 13 21  1  0  0  0  0
 13 14  1  0  0  0  0
 14 15  2  0  0  0  0
 14 32  1  0  0  0  0
 15 16  1  0  0  0  0
 15 37  1  0  0  0  0
 16 21  2  0  0  0  0
 16 17  1  0  0  0  0
 17 18  2  0  0  0  0
 17 33  1  0  0  0  0
 18 19  1  0  0  0  0
 18 34  1  0  0  0  0
 19 20  2  0  0  0  0
 19 35  1  0  0  0  0
 20 21  1  0  0  0  0
 20 36  1  0  0  0  0
M  CHG  1  15   1
M  END
> <s_m_source_file>
AV-unprocessed.smi

> <i_m_source_file_index>
2971

> <i_lp_mmshare_version>
43012

> <i_f3d_flags>
0

> <s_epik_input>
W2NIXTFbY0hdW2NIXVtjSF1jKGMxMiluKFtjSF1uMilbQ0gyXVtDQEhdKFtPSF0pW0NIMl1PYzNbY0hdW2NIXVtjSF1bY0hdYzNG

> <s_epik_cmdline>
J2VwaWtfcHl0aG9uJywgJy1waCcsICc3LjAnLCAnLXRuJywgJzgnLCAnLW1hJywgJzIwMCcsICctbWV0YWxfYmluZGluZycsICctaW1hZScsICc8aW5maWxlLm1hZT4nLCAnLW9tYWUnLCAnPG91dGZpbGUubWFlPic=

> <r_lp_tautomer_probability>
1

> <r_epik_Ionization_Penalty>
1.38569

> <r_epik_Ionization_Penalty_Charging>
1.38568

> <r_epik_Ionization_Penalty_Neutral>
2.3993e-06

> <r_epik_State_Penalty>
1.46659

> <r_epik_Charging_Adjusted_Penalty>
2.85227

> <i_epik_Tot_Q>
1

> <i_epik_Tot_abs_Q>
1

> <r_epik_Metal_State_Penalty>
5.50731

> <b_epik_Metal_Only>
0

> <s_lp_Force_Field>
OPLS_2005

> <r_lp_Energy>
22.099

> <b_lp_Chiralities_Consistent>
1

> <s_lp_Variant>
AV-unprocessed.smi:2971-3

> <Gold.Version>
5.8.1

> <Gold.Id.Protein>
6NUR|6NUR_protein|mol2

> <Gold.PLP.Fitness>
58.8766

> <Gold.PLP.PLP>
-53.5955

> <Gold.PLP.part.hbond>
-2.0000

> <Gold.PLP.part.metal>
0.0000

> <Gold.PLP.part.buried>
0.9466

> <Gold.PLP.part.nonpolar>
-51.0180

> <Gold.PLP.part.repulsive>
0.0650

> <Gold.PLP.ligand.clash>
0.0000

> <Gold.PLP.ligand.torsion>
0.3697

> <Gold.PLP.Chemscore.Hbond>
2.0000

> <Gold.PLP.Chemscore.CHOScore>
0.0000

> <Gold.PLP.Chemscore.Metal>
0.0000

> <Gold.Chemscore.Hbonds>
donor molecule, donor type, donor heavy atom, donor atom, acceptor molecule, acceptor atom, score
      L1  H    15    37       P1  7948  2.00

> <Gold.PLP.Chemscore.Internal.Correction>
0.0206

> <Gold.Rescore>
     Score         DG    S(hbond)    S(metal)    S(lipo)     H(rot)  DE(clash)    DE(int)     intcor
     16.09     -16.88       0.99        0.00     122.83       2.46       0.15       0.63       ----

> <Gold.Chemscore.Fitness>
16.0924

> <Gold.Chemscore.DG>
-16.8798

> <Gold.Chemscore.ZeroCoef>
-5.4800

> <Gold.Chemscore.Hbond>
0.9948

> <Gold.Chemscore.Metal>
0.0000

> <Gold.Chemscore.Lipo>
122.8274

> <Gold.Chemscore.Internal_Hbond>
0.0000

> <Gold.Chemscore.DEClash>
0.1545

> <Gold.Chemscore.DEInternal>
0.6328

> <Gold.Chemscore.Rot>
2.4584

> <Gold.Chemscore.Internal.Correction>
   9.000000E+99

> <Gold.Chemscore.Hbonds>
donor molecule, donor type, donor heavy atom, donor atom, acceptor molecule, acceptor atom, score
      L1  H    15    37       P1  7948  0.91

> <Gold.Chemscore.Hbond.Weighted>
-3.3225

> <Gold.Chemscore.Metal.Weighted>
-0.0000

> <Gold.Chemscore.Lipo.Weighted>
-14.3708

> <Gold.Chemscore.Internal_Hbond.Weighted>
0.0000

> <Gold.Chemscore.DEClash.Weighted>
0.1545

> <Gold.Chemscore.DEInternal.Weighted>
0.6328

> <Gold.Chemscore.Rot.Weighted>
6.2936

> <Gold.Chemscore.Internal.Correction.Weighted>
   9.000000E+99

> <Gold.Protein.RotatedTorsions>
[ 6907 6896 6895 6894 ] final  176.48 input  -60.11 | X-H torsion
[ 7974 7965 7964 7962 ] final   53.81 input  175.53 | X-H torsion
[ 8008 7997 7996 7995 ] final   12.03 input   59.86 | X-H torsion
[ 10167 10162 10161 10158 ] final  -47.09 input  -65.29 | X-H torsion
[ 10718 10713 10712 10709 ] final  174.77 input   66.30 | X-H torsion
[ 10763 10752 10751 10750 ] final  -28.69 input  -60.55 | X-H torsion
[ 11005 11000 10999 10996 ] final  -50.40 input  -57.11 | X-H torsion

> <Gold.Protein.ActiveResidues>
 VAL166  LYS551  ARG553  GLY616  TRP617  ASP618  TYR619  PRO620  LYS621  CYS622 
 ASP623  PHE694  ASN695  SER759  ASP760  ASP761  ALA762  ILE779  LEU786  VAL792 
 PHE793  MET794  SER795  GLU796  ALA797  LYS798  CYS799  TRP800  GLU811  SER814 

> <Gold.Protein.RotatedAtoms>
  151.7194  133.3314  159.3311 H   0  0  0  0  0  0  0  0  0  0  0  0  # atno 6907 bound_to 6896
  150.7659  134.6461  159.6272 H   0  0  0  0  0  0  0  0  0  0  0  0  # atno 6908 bound_to 6896
  152.3661  134.6804  160.0243 H   0  0  0  0  0  0  0  0  0  0  0  0  # atno 6909 bound_to 6896
  145.9673  139.4115  143.0211 H   0  0  0  0  0  0  0  0  0  0  0  0  # atno 7974 bound_to 7965
  154.8150  140.2874  155.5826 H   0  0  0  0  0  0  0  0  0  0  0  0  # atno 8008 bound_to 7997
  156.2992  140.2561  156.2976 H   0  0  0  0  0  0  0  0  0  0  0  0  # atno 8009 bound_to 7997
  154.9404  140.0381  157.2083 H   0  0  0  0  0  0  0  0  0  0  0  0  # atno 8010 bound_to 7997
  140.6790  143.2800  151.3877 H   0  0  0  0  0  0  0  0  0  0  0  0  # atno 10167 bound_to 10162
  156.9446  131.0012  151.2961 H   0  0  0  0  0  0  0  0  0  0  0  0  # atno 10718 bound_to 10713
  153.7525  135.6925  153.4942 H   0  0  0  0  0  0  0  0  0  0  0  0  # atno 10763 bound_to 10752
  153.1993  135.4442  155.0246 H   0  0  0  0  0  0  0  0  0  0  0  0  # atno 10764 bound_to 10752
  154.8182  135.3409  154.7045 H   0  0  0  0  0  0  0  0  0  0  0  0  # atno 10765 bound_to 10752
  141.0814  133.6652  156.3725 H   0  0  0  0  0  0  0  0  0  0  0  0  # atno 11005 bound_to 11000
  145.7956  140.9795  143.1026 LP  0  0  0  0  0  0  0  0  0  0  0  0  # atno 17320 bound_to 7965
  144.6828  139.9737  143.7482 LP  0  0  0  0  0  0  0  0  0  0  0  0  # atno 17321 bound_to 7965
  139.6099  144.1119  152.2288 LP  0  0  0  0  0  0  0  0  0  0  0  0  # atno 17342 bound_to 10162
  140.0530  144.5917  150.7321 LP  0  0  0  0  0  0  0  0  0  0  0  0  # atno 17343 bound_to 10162
  157.5762  130.8344  149.8459 LP  0  0  0  0  0  0  0  0  0  0  0  0  # atno 17370 bound_to 10713
  156.0389  130.3744  150.1487 LP  0  0  0  0  0  0  0  0  0  0  0  0  # atno 17371 bound_to 10713
  140.5461  134.6073  157.5394 LP  0  0  0  0  0  0  0  0  0  0  0  0  # atno 17394 bound_to 11000
  139.9628  134.7424  156.0201 LP  0  0  0  0  0  0  0  0  0  0  0  0  # atno 17395 bound_to 11000

$$$$
