#       Name:                AV-unprocessed.smi:72
#       Creating user name   scv26
#       Creation time:       Thu Mar 26 16:56:34 2020


#       File generated by GOLD software.
#

@<TRIPOS>MOLECULE
AV-unprocessed.smi:72
    41    42     1
SMALL
NO_CHARGES


@<TRIPOS>ATOM
      1 ****        -3.9505   2.8680   1.9221 N.2            1 S1                 0.0000
      2 ****        -2.9408   2.2736   1.3940 C.2            1 S1                 0.0000
      3 ****        -1.8765   1.6984   2.1046 N.2            1 S1                 0.0000
      4 ****        -0.9195   1.1282   1.4396 C.2            1 S1                 0.0000
      5 ****        -0.9141   1.0695  -0.0154 N.am           1 S1                 0.0000
      6 ****         0.2034   0.4006  -0.7941 C.3            1 S1                 0.0000
      7 ****         1.3696   0.3746  -0.0185 O.3            1 S1                 0.0000
      8 ****         1.6936  -0.9702   0.3144 C.3            1 S1                 0.0000
      9 ****         3.1860  -1.1009   0.6679 C.3            1 S1                 0.0000
     10 ****         4.0135  -1.0130  -0.4737 O.3            1 S1                 0.0000
     11 ****         1.1828  -1.7751  -0.8810 C.3            1 S1                 0.0000
     12 ****         1.0224  -3.1527  -0.5980 O.3            1 S1                 0.0000
     13 ****        -0.1246  -1.0579  -1.2061 C.3            1 S1                 0.0000
     14 ****        -1.2301  -1.6100  -0.5060 O.3            1 S1                 0.0000
     15 ****        -1.9857   1.6369  -0.7460 C.2            1 S1                 0.0000
     16 ****        -2.0404   1.5949  -1.9749 O.2            1 S1                 0.0000
     17 ****        -2.9524   2.2221  -0.0064 N.am           1 S1                 0.0000
     18 ****         0.4005   1.0509  -1.6480 H              1 S1                 0.0000
     19 ****         1.1065  -1.2315   1.1966 H              1 S1                 0.0000
     20 ****         1.8579  -1.6658  -1.7302 H              1 S1                 0.0000
     21 ****        -0.3443  -1.0949  -2.2735 H              1 S1                 0.0000
     22 ****        -4.5827   3.1968   1.2072 H              1 S1                 0.0000
     23 ****        -0.0671   0.6593   1.9306 H              1 S1                 0.0000
     24 ****         3.4761  -0.3379   1.3906 H              1 S1                 0.0000
     25 ****         3.3681  -2.0683   1.1365 H              1 S1                 0.0000
     26 ****         4.9146  -1.0882  -0.1987 H              1 S1                 0.0000
     27 ****         1.8687  -3.5151  -0.3856 H              1 S1                 0.0000
     28 ****        -2.0071  -1.1295  -0.7469 H              1 S1                 0.0000
     29 ****        -3.7279   2.6384  -0.5004 H              1 S1                 0.0000
     30 ****        -4.0904   2.9881   2.9049 LP             1 S1                 0.0000
     31 ****        -1.8560   1.7273   3.1039 LP             1 S1                 0.0000
     32 ****         1.2227   0.8986   0.8204 LP             1 S1                 0.0000
     33 ****         2.1228   0.7795  -0.5369 LP             1 S1                 0.0000
     34 ****         3.8715  -0.1325  -0.9260 LP             1 S1                 0.0000
     35 ****         3.7919  -1.7533  -1.1084 LP             1 S1                 0.0000
     36 ****         0.6464  -3.6201  -1.3981 LP             1 S1                 0.0000
     37 ****         0.4017  -3.2679   0.1775 LP             1 S1                 0.0000
     38 ****        -1.0779  -1.5334   0.4793 LP             1 S1                 0.0000
     39 ****        -1.3388  -2.5730  -0.7526 LP             1 S1                 0.0000
     40 ****        -1.3109   1.1482  -2.4929 LP             1 S1                 0.0000
     41 ****        -2.8143   2.0075  -2.4554 LP             1 S1                 0.0000
@<TRIPOS>BOND
    1    1    2 2     
    2    1   22 1     
    3    2   17 1     
    4    2    3 1     
    5    3    4 2     
    6    4    5 1     
    7    4   23 1     
    8    5    6 1     
    9    5   15 am    
   10    6   18 1     
   11    6   13 1     
   12    6    7 1     
   13    7    8 1     
   14    8   19 1     
   15    8    9 1     
   16    8   11 1     
   17    9   10 1     
   18    9   24 1     
   19    9   25 1     
   20   10   26 1     
   21   11   20 1     
   22   11   12 1     
   23   11   13 1     
   24   12   27 1     
   25   13   21 1     
   26   13   14 1     
   27   14   28 1     
   28   15   16 2     
   29   15   17 am    
   30   17   29 1     
   31    1   30 1     
   32    3   31 1     
   33    7   32 1     
   34    7   33 1     
   35   10   34 1     
   36   10   35 1     
   37   12   36 1     
   38   12   37 1     
   39   14   38 1     
   40   14   39 1     
   41   16   40 1     
   42   16   41 1     
@<TRIPOS>SUBSTRUCTURE
      1 S1             1
@<TRIPOS>SET
LONE_PAIRS      STATIC     ATOMS    <user>   **** ""
12 30 31 32 33 34 35 36 37 38 39 40 41
DONOR_HYDROGENS      STATIC     ATOMS    <user>   **** ""
5 22 26 27 28 29
ATOM$BLUE        STATIC     ATOMS    COLORGROUP SYSTEM
12 30 31 32 33 34 35 36 37 38 39 40 41
ATOM$RED        STATIC     ATOMS    COLORGROUP SYSTEM
5 22 26 27 28 29
