#       Name:                AV-unprocessed.smi:1470
#       Creating user name   scv26
#       Creation time:       Fri Mar 27 06:04:45 2020


#       File generated by GOLD software.
#

@<TRIPOS>MOLECULE
AV-unprocessed.smi:1470
    48    49     1
SMALL
NO_CHARGES


@<TRIPOS>ATOM
      1 ****        -4.6296  -4.1481   1.9987 C.3            1 S1                 0.0000
      2 ****        -3.2485  -4.0116   2.2812 O.3            1 S1                 0.0000
      3 ****        -2.5331  -5.2241   2.1111 C.3            1 S1                 0.0000
      4 ****        -1.0467  -5.0014   2.4287 C.3            1 S1                 0.0000
      5 ****        -0.3872  -4.2044   1.3997 N.am           1 S1                 0.0000
      6 ****        -0.3114  -2.8660   1.3903 C.2            1 S1                 0.0000
      7 ****        -0.7807  -2.1512   2.2756 O.2            1 S1                 0.0000
      8 ****         0.3573  -2.4245   0.3114 N.am           1 S1                 0.0000
      9 ****         0.5912  -1.0807  -0.0854 C.ar           1 S1                 0.0000
     10 ****         1.6731  -0.8179  -0.9474 C.ar           1 S1                 0.0000
     11 ****         1.9086   0.5032  -1.3727 C.ar           1 S1                 0.0000
     12 ****         1.0461   1.5342  -0.9317 C.ar           1 S1                 0.0000
     13 ****         1.2628   2.8666  -1.3461 N.3            1 S1                 0.0000
     14 ****         0.1694   3.8240  -1.1567 C.3            1 S1                 0.0000
     15 ****         0.3962   5.0997  -1.9856 C.3            1 S1                 0.0000
     16 ****         1.7738   5.7110  -1.6917 C.3            1 S1                 0.0000
     17 ****         2.8719   4.6614  -1.9177 C.3            1 S1                 0.0000
     18 ****         2.6049   3.3932  -1.0890 C.3            1 S1                 0.0000
     19 ****        -0.0071   1.2769  -0.1178 N.ar           1 S1                 0.0000
     20 ****        -0.2278   0.0097   0.2908 C.ar           1 S1                 0.0000
     21 ****        -5.1285  -3.1900   2.1437 H              1 S1                 0.0000
     22 ****        -5.0981  -4.8758   2.6625 H              1 S1                 0.0000
     23 ****        -4.7920  -4.4595   0.9660 H              1 S1                 0.0000
     24 ****        -2.9387  -5.9786   2.7869 H              1 S1                 0.0000
     25 ****        -2.6523  -5.6012   1.0939 H              1 S1                 0.0000
     26 ****        -0.9253  -4.5513   3.4154 H              1 S1                 0.0000
     27 ****        -0.5398  -5.9657   2.4675 H              1 S1                 0.0000
     28 ****         0.0332  -4.7098   0.6337 H              1 S1                 0.0000
     29 ****         0.7784  -3.1308  -0.2739 H              1 S1                 0.0000
     30 ****         2.3189  -1.6171  -1.2809 H              1 S1                 0.0000
     31 ****         2.7321   0.7075  -2.0407 H              1 S1                 0.0000
     32 ****        -0.7799   3.3744  -1.4510 H              1 S1                 0.0000
     33 ****         0.0937   4.0758  -0.0978 H              1 S1                 0.0000
     34 ****         0.3220   4.8621  -3.0477 H              1 S1                 0.0000
     35 ****        -0.3896   5.8254  -1.7746 H              1 S1                 0.0000
     36 ****         1.9453   6.5800  -2.3277 H              1 S1                 0.0000
     37 ****         1.8082   6.0646  -0.6606 H              1 S1                 0.0000
     38 ****         2.9162   4.4017  -2.9763 H              1 S1                 0.0000
     39 ****         3.8460   5.0774  -1.6597 H              1 S1                 0.0000
     40 ****         2.6897   3.6210  -0.0257 H              1 S1                 0.0000
     41 ****         3.3769   2.6577  -1.3111 H              1 S1                 0.0000
     42 ****        -1.0993  -0.1192   0.9136 H              1 S1                 0.0000
     43 ****        -3.1441  -3.7086   3.2284 LP             1 S1                 0.0000
     44 ****        -2.8627  -3.3235   1.6667 LP             1 S1                 0.0000
     45 ****        -1.2494  -2.5647   3.0562 LP             1 S1                 0.0000
     46 ****        -0.6933  -1.1569   2.2143 LP             1 S1                 0.0000
     47 ****         1.2347   2.7517  -2.3391 LP             1 S1                 0.0000
     48 ****        -0.6126   2.0165   0.1760 LP             1 S1                 0.0000
@<TRIPOS>BOND
    1    1    2 1     
    2    1   21 1     
    3    1   22 1     
    4    1   23 1     
    5    2    3 1     
    6    3    4 1     
    7    3   24 1     
    8    3   25 1     
    9    4    5 1     
   10    4   26 1     
   11    4   27 1     
   12    5    6 am    
   13    5   28 1     
   14    6    7 2     
   15    6    8 am    
   16    8    9 1     
   17    8   29 1     
   18    9   20 ar    
   19    9   10 ar    
   20   10   11 ar    
   21   10   30 1     
   22   11   12 ar    
   23   11   31 1     
   24   12   13 1     
   25   12   19 ar    
   26   13   18 1     
   27   13   14 1     
   28   14   15 1     
   29   14   32 1     
   30   14   33 1     
   31   15   16 1     
   32   15   34 1     
   33   15   35 1     
   34   16   17 1     
   35   16   36 1     
   36   16   37 1     
   37   17   18 1     
   38   17   38 1     
   39   17   39 1     
   40   18   40 1     
   41   18   41 1     
   42   19   20 ar    
   43   20   42 1     
   44    2   43 1     
   45    2   44 1     
   46    7   45 1     
   47    7   46 1     
   48   13   47 1     
   49   19   48 1     
@<TRIPOS>SUBSTRUCTURE
      1 S1             1
@<TRIPOS>SET
LONE_PAIRS      STATIC     ATOMS    <user>   **** ""
6 43 44 45 46 47 48
DONOR_HYDROGENS      STATIC     ATOMS    <user>   **** ""
2 28 29
ATOM$BLUE        STATIC     ATOMS    COLORGROUP SYSTEM
6 43 44 45 46 47 48
ATOM$RED        STATIC     ATOMS    COLORGROUP SYSTEM
2 28 29
