AV-unprocessed.smi:2831|AV-procd|sdf|10909|dock8
  -GOLD-   2272015353D 1   1.00000     0.00000
 Structure written by MMmdl.
 30 31  0  0  0  0  0  0  0  0  1 V2000
  147.3175  139.0205  152.7094 C   0  0  0  0  0  0  0  0  0  0  0  0
  148.1455  139.7537  153.7087 C   0  0  0  0  0  0  0  0  0  0  0  0
  149.0904  139.1530  154.4421 N   0  0  0  0  0  0  0  0  0  0  0  0
  149.7325  140.0363  155.2987 N   0  0  0  0  0  0  0  0  0  0  0  0
  149.2519  141.2821  155.1844 C   0  0  0  0  0  0  0  0  0  0  0  0
  149.7290  142.3848  155.9413 N   0  0  0  0  0  0  0  0  0  0  0  0
  150.7418  142.4127  156.8253 C   0  0  0  0  0  0  0  0  0  0  0  0
  151.4370  141.4463  157.1391 O   0  0  0  0  0  0  0  0  0  0  0  0
  150.9058  143.6456  157.3327 N   0  0  0  0  0  0  0  0  0  0  0  0
  151.9202  144.0828  158.2986 C   0  0  2  0  0  0  0  0  0  0  0  0
  153.1214  144.7274  157.5727 C   0  0  0  0  0  0  0  0  0  0  0  0
  152.3629  142.9523  159.2454 C   0  0  0  0  0  0  0  0  0  0  0  0
  151.9669  143.4288  160.6419 C   0  0  0  0  0  0  0  0  0  0  0  0
  151.9071  144.8372  160.5122 O   0  0  0  0  0  0  0  0  0  0  0  0
  151.2820  145.0938  159.2669 C   0  0  0  0  0  0  0  0  0  0  0  0
  147.9609  141.4775  154.0112 S   0  0  0  0  0  0  0  0  0  0  0  0
  147.0208  138.0487  153.1048 H   0  0  0  0  0  0  0  0  0  0  0  0
  147.8879  138.8679  151.7930 H   0  0  0  0  0  0  0  0  0  0  0  0
  146.4181  139.5890  152.4717 H   0  0  0  0  0  0  0  0  0  0  0  0
  149.2492  143.2584  155.7819 H   0  0  0  0  0  0  0  0  0  0  0  0
  150.2738  144.3629  157.0087 H   0  0  0  0  0  0  0  0  0  0  0  0
  153.8348  145.1419  158.2860 H   0  0  0  0  0  0  0  0  0  0  0  0
  152.8004  145.5412  156.9214 H   0  0  0  0  0  0  0  0  0  0  0  0
  153.6612  144.0068  156.9584 H   0  0  0  0  0  0  0  0  0  0  0  0
  151.9055  141.9867  159.0272 H   0  0  0  0  0  0  0  0  0  0  0  0
  153.4434  142.8104  159.1960 H   0  0  0  0  0  0  0  0  0  0  0  0
  150.9819  143.0477  160.9169 H   0  0  0  0  0  0  0  0  0  0  0  0
  152.6789  143.1244  161.4093 H   0  0  0  0  0  0  0  0  0  0  0  0
  151.4195  146.1311  158.9596 H   0  0  0  0  0  0  0  0  0  0  0  0
  150.2094  144.9219  159.3784 H   0  0  0  0  0  0  0  0  0  0  0  0
  1  2  1  0  0  0  0
  1 17  1  0  0  0  0
  1 18  1  0  0  0  0
  1 19  1  0  0  0  0
  2 16  1  0  0  0  0
  2  3  2  0  0  0  0
  3  4  1  0  0  0  0
  4  5  2  0  0  0  0
  5  6  1  0  0  0  0
  5 16  1  0  0  0  0
  6  7  1  0  0  0  0
  6 20  1  0  0  0  0
  7  8  2  0  0  0  0
  7  9  1  0  0  0  0
  9 10  1  0  0  0  0
  9 21  1  0  0  0  0
 10 15  1  0  0  0  0
 10 11  1  0  0  0  0
 10 12  1  0  0  0  0
 11 22  1  0  0  0  0
 11 23  1  0  0  0  0
 11 24  1  0  0  0  0
 12 13  1  0  0  0  0
 12 25  1  0  0  0  0
 12 26  1  0  0  0  0
 13 14  1  0  0  0  0
 13 27  1  0  0  0  0
 13 28  1  0  0  0  0
 14 15  1  0  0  0  0
 15 29  1  0  0  0  0
 15 30  1  0  0  0  0
M  END
> <s_m_source_file>
AV-unprocessed.smi

> <i_m_source_file_index>
2831

> <i_lp_mmshare_version>
43012

> <i_f3d_flags>
0

> <s_epik_input>
W0NIM11jMW5uYyhzMSlbTkhdQyg9TylbTkhdW0NAQF0yKFtDSDNdKVtDSDJdW0NIMl1PW0NIMl0y

> <s_epik_cmdline>
J2VwaWtfcHl0aG9uJywgJy1waCcsICc3LjAnLCAnLXRuJywgJzgnLCAnLW1hJywgJzIwMCcsICctbWV0YWxfYmluZGluZycsICctaW1hZScsICc8aW5maWxlLm1hZT4nLCAnLW9tYWUnLCAnPG91dGZpbGUubWFlPic=

> <r_lp_tautomer_probability>
1

> <r_epik_Ionization_Penalty>
0.00277018

> <r_epik_Ionization_Penalty_Charging>
0

> <r_epik_Ionization_Penalty_Neutral>
0.00277018

> <r_epik_State_Penalty>
-0

> <r_epik_Charging_Adjusted_Penalty>
0

> <i_epik_Tot_Q>
0

> <i_epik_Tot_abs_Q>
0

> <r_epik_Metal_State_Penalty>
0.356997

> <b_epik_Metal_Only>
0

> <s_lp_Force_Field>
OPLS_2005

> <r_lp_Energy>
14.9894

> <b_lp_Chiralities_Consistent>
1

> <s_lp_Variant>
AV-unprocessed.smi:2831-2

> <Gold.Version>
5.8.1

> <Gold.Id.Protein>
6NUR|6NUR_protein|mol2

> <Gold.PLP.Fitness>
37.5994

> <Gold.PLP.PLP>
-33.0833

> <Gold.PLP.part.hbond>
-1.8914

> <Gold.PLP.part.metal>
0.0000

> <Gold.PLP.part.buried>
-4.6907

> <Gold.PLP.part.nonpolar>
-27.6896

> <Gold.PLP.part.repulsive>
0.4665

> <Gold.PLP.ligand.clash>
0.0031

> <Gold.PLP.ligand.torsion>
0.5136

> <Gold.PLP.Chemscore.Hbond>
1.8388

> <Gold.PLP.Chemscore.CHOScore>
0.0000

> <Gold.PLP.Chemscore.Metal>
0.0000

> <Gold.Chemscore.Hbonds>
donor molecule, donor type, donor heavy atom, donor atom, acceptor molecule, acceptor atom, score
      L1  H     6    20       P1  8028  0.94
      L1  H     9    21       P1  8028  0.88

> <Gold.PLP.Chemscore.Internal.Correction>
0.0300

> <Gold.Rescore>
     Score         DG    S(hbond)    S(metal)    S(lipo)     H(rot)  DE(clash)    DE(int)     intcor
     14.80     -19.80       1.93        0.00      89.14       1.00       1.76       3.24       ----

> <Gold.Chemscore.Fitness>
14.8014

> <Gold.Chemscore.DG>
-19.8001

> <Gold.Chemscore.ZeroCoef>
-5.4800

> <Gold.Chemscore.Hbond>
1.9315

> <Gold.Chemscore.Metal>
0.0000

> <Gold.Chemscore.Lipo>
89.1368

> <Gold.Chemscore.Internal_Hbond>
0.0000

> <Gold.Chemscore.DEClash>
1.7617

> <Gold.Chemscore.DEInternal>
3.2370

> <Gold.Chemscore.Rot>
1.0000

> <Gold.Chemscore.Internal.Correction>
   9.000000E+99

> <Gold.Chemscore.Hbonds>
donor molecule, donor type, donor heavy atom, donor atom, acceptor molecule, acceptor atom, score
      L1  H     6    20       P1  8028  0.90
      L1  H     9    21       P1  8028  0.73

> <Gold.Chemscore.Hbond.Weighted>
-6.4511

> <Gold.Chemscore.Metal.Weighted>
-0.0000

> <Gold.Chemscore.Lipo.Weighted>
-10.4290

> <Gold.Chemscore.Internal_Hbond.Weighted>
0.0000

> <Gold.Chemscore.DEClash.Weighted>
1.7617

> <Gold.Chemscore.DEInternal.Weighted>
3.2370

> <Gold.Chemscore.Rot.Weighted>
2.5600

> <Gold.Chemscore.Internal.Correction.Weighted>
   9.000000E+99

> <Gold.Protein.RotatedTorsions>
[ 6907 6896 6895 6894 ] final -125.08 input  -60.11 | X-H torsion
[ 7974 7965 7964 7962 ] final  145.88 input  175.53 | X-H torsion
[ 8008 7997 7996 7995 ] final -165.19 input   59.86 | X-H torsion
[ 10167 10162 10161 10158 ] final   78.02 input  -65.29 | X-H torsion
[ 10718 10713 10712 10709 ] final  -73.29 input   66.30 | X-H torsion
[ 10763 10752 10751 10750 ] final  112.02 input  -60.55 | X-H torsion
[ 11005 11000 10999 10996 ] final -106.85 input  -57.11 | X-H torsion

> <Gold.Protein.ActiveResidues>
 VAL166  LYS551  ARG553  GLY616  TRP617  ASP618  TYR619  PRO620  LYS621  CYS622 
 ASP623  PHE694  ASN695  SER759  ASP760  ASP761  ALA762  ILE779  LEU786  VAL792 
 PHE793  MET794  SER795  GLU796  ALA797  LYS798  CYS799  TRP800  GLU811  SER814 

> <Gold.Protein.RotatedAtoms>
  150.8832  133.7344  159.2925 H   0  0  0  0  0  0  0  0  0  0  0  0  # atno 6907 bound_to 6896
  151.4918  135.1056  159.9815 H   0  0  0  0  0  0  0  0  0  0  0  0  # atno 6908 bound_to 6896
  152.4773  133.8122  159.7065 H   0  0  0  0  0  0  0  0  0  0  0  0  # atno 6909 bound_to 6896
  144.8716  139.5837  143.5884 H   0  0  0  0  0  0  0  0  0  0  0  0  # atno 7974 bound_to 7965
  155.8463  140.0956  157.1703 H   0  0  0  0  0  0  0  0  0  0  0  0  # atno 8008 bound_to 7997
  154.3983  140.1391  156.3851 H   0  0  0  0  0  0  0  0  0  0  0  0  # atno 8009 bound_to 7997
  155.8010  140.3453  155.5405 H   0  0  0  0  0  0  0  0  0  0  0  0  # atno 8010 bound_to 7997
  139.9753  144.5865  150.7948 H   0  0  0  0  0  0  0  0  0  0  0  0  # atno 10167 bound_to 10162
  156.0286  130.4391  150.2720 H   0  0  0  0  0  0  0  0  0  0  0  0  # atno 10718 bound_to 10713
  153.4718  135.3699  155.2395 H   0  0  0  0  0  0  0  0  0  0  0  0  # atno 10763 bound_to 10752
  154.8757  135.3933  154.3804 H   0  0  0  0  0  0  0  0  0  0  0  0  # atno 10764 bound_to 10752
  153.4393  135.7084  153.6244 H   0  0  0  0  0  0  0  0  0  0  0  0  # atno 10765 bound_to 10752
  141.0984  133.8929  157.1905 H   0  0  0  0  0  0  0  0  0  0  0  0  # atno 11005 bound_to 11000
  146.2934  139.7206  142.9144 LP  0  0  0  0  0  0  0  0  0  0  0  0  # atno 17320 bound_to 7965
  145.4119  141.0397  143.3012 LP  0  0  0  0  0  0  0  0  0  0  0  0  # atno 17321 bound_to 7965
  140.7508  143.2961  151.3201 LP  0  0  0  0  0  0  0  0  0  0  0  0  # atno 17342 bound_to 10162
  139.6450  144.0468  152.2584 LP  0  0  0  0  0  0  0  0  0  0  0  0  # atno 17343 bound_to 10162
  157.0823  131.0147  151.3152 LP  0  0  0  0  0  0  0  0  0  0  0  0  # atno 17370 bound_to 10713
  157.4918  130.7826  149.7515 LP  0  0  0  0  0  0  0  0  0  0  0  0  # atno 17371 bound_to 10713
  139.9827  135.0092  156.9789 LP  0  0  0  0  0  0  0  0  0  0  0  0  # atno 17394 bound_to 11000
  140.5083  134.1027  155.7265 LP  0  0  0  0  0  0  0  0  0  0  0  0  # atno 17395 bound_to 11000

$$$$
