AV-unprocessed.smi:86|AV-procd|sdf|814|dock5
  -GOLD-   2262017213D 1   1.00000     0.00000
 Structure written by MMmdl.
 51 55  0  0  0  0  0  0  0  0  1 V2000
  147.0313  137.6676  151.2607 O   0  0  0  0  0  0  0  0  0  0  0  0
  146.0348  138.0274  152.1964 C   0  0  0  0  0  0  0  0  0  0  0  0
  146.6229  138.6813  153.4634 C   0  0  0  0  0  0  0  0  0  0  0  0
  147.3338  139.9860  153.0587 C   0  0  0  0  0  0  0  0  0  0  0  0
  148.1864  140.5396  154.0999 N   0  0  0  0  0  0  0  0  0  0  0  0
  147.9595  141.6821  154.8323 C   0  0  0  0  0  0  0  0  0  0  0  0
  148.8820  141.9731  155.7075 N   0  0  0  0  0  0  0  0  0  0  0  0
  149.8221  140.9574  155.5701 C   0  0  0  0  0  0  0  0  0  0  0  0
  151.0664  140.6539  156.1979 C   0  0  0  0  0  0  0  0  0  0  0  0
  151.6262  141.4015  157.1827 N   0  0  0  0  0  0  0  0  0  0  0  0
  152.1979  140.8019  158.3868 C   0  0  0  0  0  0  0  0  0  0  0  0
  152.5624  142.0112  159.2442 C   0  0  2  0  0  0  0  0  0  0  0  0
  152.7291  141.8245  160.7559 C   0  0  0  0  0  0  0  0  0  0  0  0
  153.0007  143.2000  161.4061 C   0  0  0  0  0  0  0  0  0  0  0  0
  151.9515  144.2776  161.0284 C   0  0  2  0  0  0  0  0  0  0  0  0
  150.7413  144.0146  161.7103 O   0  0  0  0  0  0  0  0  0  0  0  0
  151.6871  144.3556  159.5045 C   0  0  0  0  0  0  0  0  0  0  0  0
  151.4060  142.9538  158.9457 C   0  0  1  0  0  0  0  0  0  0  0  0
  151.2255  142.7840  157.4361 C   0  0  0  0  0  0  0  0  0  0  0  0
  151.7320  139.5530  155.7587 N   0  0  0  0  0  0  0  0  0  0  0  0
  151.2179  138.7896  154.7907 C   0  0  0  0  0  0  0  0  0  0  0  0
  150.0710  138.9442  154.1281 N   0  0  0  0  0  0  0  0  0  0  0  0
  149.4015  140.0538  154.5520 C   0  0  0  0  0  0  0  0  0  0  0  0
  145.6750  138.8093  154.6646 C   0  0  0  0  0  0  0  0  0  0  0  0
  146.3296  137.7339  155.3732 O   0  0  0  0  0  0  0  0  0  0  0  0
  147.4009  137.7500  154.4039 C   0  0  0  0  0  0  0  0  0  0  0  0
  147.5043  136.9217  151.5972 H   0  0  0  0  0  0  0  0  0  0  0  0
  145.3468  138.7022  151.6873 H   0  0  0  0  0  0  0  0  0  0  0  0
  145.4694  137.1303  152.4504 H   0  0  0  0  0  0  0  0  0  0  0  0
  147.9369  139.8301  152.1635 H   0  0  0  0  0  0  0  0  0  0  0  0
  146.6043  140.7513  152.7904 H   0  0  0  0  0  0  0  0  0  0  0  0
  147.0845  142.3007  154.6959 H   0  0  0  0  0  0  0  0  0  0  0  0
  151.4525  140.1796  158.8844 H   0  0  0  0  0  0  0  0  0  0  0  0
  153.0704  140.1889  158.1581 H   0  0  0  0  0  0  0  0  0  0  0  0
  153.4836  142.4396  158.8430 H   0  0  0  0  0  0  0  0  0  0  0  0
  151.8305  141.3777  161.1832 H   0  0  0  0  0  0  0  0  0  0  0  0
  153.5513  141.1394  160.9646 H   0  0  0  0  0  0  0  0  0  0  0  0
  153.0640  143.0964  162.4900 H   0  0  0  0  0  0  0  0  0  0  0  0
  153.9831  143.5465  161.0825 H   0  0  0  0  0  0  0  0  0  0  0  0
  152.3009  145.2497  161.3776 H   0  0  0  0  0  0  0  0  0  0  0  0
  150.3779  144.8362  162.0036 H   0  0  0  0  0  0  0  0  0  0  0  0
  150.8560  145.0289  159.2913 H   0  0  0  0  0  0  0  0  0  0  0  0
  152.5614  144.7761  159.0061 H   0  0  0  0  0  0  0  0  0  0  0  0
  150.5058  142.5625  159.4241 H   0  0  0  0  0  0  0  0  0  0  0  0
  151.8807  143.4548  156.8791 H   0  0  0  0  0  0  0  0  0  0  0  0
  150.1937  142.9816  157.1446 H   0  0  0  0  0  0  0  0  0  0  0  0
  151.8109  137.9328  154.5064 H   0  0  0  0  0  0  0  0  0  0  0  0
  145.7626  139.7564  155.1991 H   0  0  0  0  0  0  0  0  0  0  0  0
  144.6304  138.5906  154.4413 H   0  0  0  0  0  0  0  0  0  0  0  0
  147.6057  136.7634  153.9872 H   0  0  0  0  0  0  0  0  0  0  0  0
  148.3074  138.1907  154.8193 H   0  0  0  0  0  0  0  0  0  0  0  0
  1  2  1  0  0  0  0
  1 27  1  0  0  0  0
  2  3  1  0  0  0  0
  2 28  1  0  0  0  0
  2 29  1  0  0  0  0
  3 26  1  0  0  0  0
  3  4  1  0  0  0  0
  3 24  1  0  0  0  0
  4  5  1  0  0  0  0
  4 30  1  0  0  0  0
  4 31  1  0  0  0  0
  5 23  1  0  0  0  0
  5  6  1  0  0  0  0
  6  7  2  0  0  0  0
  6 32  1  0  0  0  0
  7  8  1  0  0  0  0
  8 23  2  0  0  0  0
  8  9  1  0  0  0  0
  9 10  1  0  0  0  0
  9 20  2  0  0  0  0
 10 19  1  0  0  0  0
 10 11  1  0  0  0  0
 11 12  1  0  0  0  0
 11 33  1  0  0  0  0
 11 34  1  0  0  0  0
 12 18  1  0  0  0  0
 12 13  1  0  0  0  0
 12 35  1  0  0  0  0
 13 14  1  0  0  0  0
 13 36  1  0  0  0  0
 13 37  1  0  0  0  0
 14 15  1  0  0  0  0
 14 38  1  0  0  0  0
 14 39  1  0  0  0  0
 15 16  1  0  0  0  0
 15 17  1  0  0  0  0
 15 40  1  0  0  0  0
 16 41  1  0  0  0  0
 17 18  1  0  0  0  0
 17 42  1  0  0  0  0
 17 43  1  0  0  0  0
 18 19  1  0  0  0  0
 18 44  1  0  0  0  0
 19 45  1  0  0  0  0
 19 46  1  0  0  0  0
 20 21  1  0  0  0  0
 21 22  2  0  0  0  0
 21 47  1  0  0  0  0
 22 23  1  0  0  0  0
 24 25  1  0  0  0  0
 24 48  1  0  0  0  0
 24 49  1  0  0  0  0
 25 26  1  0  0  0  0
 26 50  1  0  0  0  0
 26 51  1  0  0  0  0
M  END
> <s_m_source_file>
AV-unprocessed.smi

> <i_m_source_file_index>
86

> <i_lp_mmshare_version>
43012

> <i_f3d_flags>
0

> <s_epik_input>
W0NIMl0xT1tDSDJdQzEoW0NIMl1bT0hdKVtDSDJdbihbY0hdbjIpYyhjMjMpbltjSF1uYzNOKFtDSDJdNClbQ0gyXVtDQEBIXShbQ0BIXTQ1KVtDSDJdW0NASF0oW09IXSlbQ0gyXVtDSDJdNQ==

> <s_epik_cmdline>
J2VwaWtfcHl0aG9uJywgJy1waCcsICc3LjAnLCAnLXRuJywgJzgnLCAnLW1hJywgJzIwMCcsICctbWV0YWxfYmluZGluZycsICctaW1hZScsICc8aW5maWxlLm1hZT4nLCAnLW9tYWUnLCAnPG91dGZpbGUubWFlPic=

> <r_lp_tautomer_probability>
1

> <r_epik_Ionization_Penalty>
0.00425795

> <r_epik_Ionization_Penalty_Charging>
0

> <r_epik_Ionization_Penalty_Neutral>
0.00425795

> <r_epik_State_Penalty>
0.00299946

> <r_epik_Charging_Adjusted_Penalty>
0.00299946

> <i_epik_Tot_Q>
0

> <i_epik_Tot_abs_Q>
0

> <r_epik_Metal_State_Penalty>
-0

> <b_epik_Metal_Only>
0

> <s_lp_Force_Field>
OPLS_2005

> <r_lp_Energy>
55.6071

> <b_lp_Chiralities_Consistent>
1

> <s_lp_Variant>
AV-unprocessed.smi:86-3

> <Gold.Version>
5.8.1

> <Gold.Id.Protein>
6NUR|6NUR_protein|mol2

> <Gold.PLP.Fitness>
54.9333

> <Gold.PLP.PLP>
-51.0951

> <Gold.PLP.part.hbond>
-4.4219

> <Gold.PLP.part.metal>
0.0000

> <Gold.PLP.part.buried>
-7.2090

> <Gold.PLP.part.nonpolar>
-43.2526

> <Gold.PLP.part.repulsive>
2.7971

> <Gold.PLP.ligand.clash>
0.0000

> <Gold.PLP.ligand.torsion>
0.8517

> <Gold.PLP.Chemscore.Hbond>
1.6882

> <Gold.PLP.Chemscore.CHOScore>
0.0000

> <Gold.PLP.Chemscore.Metal>
0.0000

> <Gold.Chemscore.Hbonds>
donor molecule, donor type, donor heavy atom, donor atom, acceptor molecule, acceptor atom, score
      L1  H     1    27       P1  7948  0.91
      P1  H  6933  6945       L1    16  0.02
      P1  H  7954  7966       L1     1  0.60

> <Gold.PLP.Chemscore.Internal.Correction>
0.4771

> <Gold.Rescore>
     Score         DG    S(hbond)    S(metal)    S(lipo)     H(rot)  DE(clash)    DE(int)     intcor
     10.72     -16.13       1.47        0.00     109.55       2.76       3.45       1.96       ----

> <Gold.Chemscore.Fitness>
10.7171

> <Gold.Chemscore.DG>
-16.1278

> <Gold.Chemscore.ZeroCoef>
-5.4800

> <Gold.Chemscore.Hbond>
1.4681

> <Gold.Chemscore.Metal>
0.0000

> <Gold.Chemscore.Lipo>
109.5546

> <Gold.Chemscore.Internal_Hbond>
0.0000

> <Gold.Chemscore.DEClash>
3.4478

> <Gold.Chemscore.DEInternal>
1.9629

> <Gold.Chemscore.Rot>
2.7630

> <Gold.Chemscore.Internal.Correction>
   9.000000E+99

> <Gold.Chemscore.Hbonds>
donor molecule, donor type, donor heavy atom, donor atom, acceptor molecule, acceptor atom, score
      L1  H     1    27       P1  7948  0.88
      P1  H  6933  6945       L1    16  0.03
      P1  H  7954  7966       L1     1  0.04

> <Gold.Chemscore.Hbond.Weighted>
-4.9033

> <Gold.Chemscore.Metal.Weighted>
-0.0000

> <Gold.Chemscore.Lipo.Weighted>
-12.8179

> <Gold.Chemscore.Internal_Hbond.Weighted>
0.0000

> <Gold.Chemscore.DEClash.Weighted>
3.4478

> <Gold.Chemscore.DEInternal.Weighted>
1.9629

> <Gold.Chemscore.Rot.Weighted>
7.0734

> <Gold.Chemscore.Internal.Correction.Weighted>
   9.000000E+99

> <Gold.Protein.RotatedTorsions>
[ 6907 6896 6895 6894 ] final  -13.83 input  -60.11 | X-H torsion
[ 7974 7965 7964 7962 ] final  141.89 input  175.53 | X-H torsion
[ 8008 7997 7996 7995 ] final  161.45 input   59.86 | X-H torsion
[ 10167 10162 10161 10158 ] final  110.63 input  -65.29 | X-H torsion
[ 10718 10713 10712 10709 ] final -150.47 input   66.30 | X-H torsion
[ 10763 10752 10751 10750 ] final   49.74 input  -60.55 | X-H torsion
[ 11005 11000 10999 10996 ] final    8.50 input  -57.11 | X-H torsion

> <Gold.Protein.ActiveResidues>
 VAL166  LYS551  ARG553  GLY616  TRP617  ASP618  TYR619  PRO620  LYS621  CYS622 
 ASP623  PHE694  ASN695  SER759  ASP760  ASP761  ALA762  ILE779  LEU786  VAL792 
 PHE793  MET794  SER795  GLU796  ALA797  LYS798  CYS799  TRP800  GLU811  SER814 

> <Gold.Protein.RotatedAtoms>
  151.3488  135.0880  159.9395 H   0  0  0  0  0  0  0  0  0  0  0  0  # atno 6907 bound_to 6896
  152.5192  133.9373  159.7620 H   0  0  0  0  0  0  0  0  0  0  0  0  # atno 6908 bound_to 6896
  150.9745  133.6256  159.2762 H   0  0  0  0  0  0  0  0  0  0  0  0  # atno 6909 bound_to 6896
  144.9056  139.5363  143.5733 H   0  0  0  0  0  0  0  0  0  0  0  0  # atno 7974 bound_to 7965
  156.2102  140.1777  156.7711 H   0  0  0  0  0  0  0  0  0  0  0  0  # atno 8008 bound_to 7997
  154.5712  140.0682  156.8996 H   0  0  0  0  0  0  0  0  0  0  0  0  # atno 8009 bound_to 7997
  155.2670  140.3340  155.4271 H   0  0  0  0  0  0  0  0  0  0  0  0  # atno 8010 bound_to 7997
  139.6673  144.7127  151.1753 H   0  0  0  0  0  0  0  0  0  0  0  0  # atno 10167 bound_to 10162
  156.4466  130.8147  151.2378 H   0  0  0  0  0  0  0  0  0  0  0  0  # atno 10718 bound_to 10713
  152.9786  135.5901  154.4139 H   0  0  0  0  0  0  0  0  0  0  0  0  # atno 10763 bound_to 10752
  154.3771  135.2767  155.2235 H   0  0  0  0  0  0  0  0  0  0  0  0  # atno 10764 bound_to 10752
  154.4164  135.6069  153.6038 H   0  0  0  0  0  0  0  0  0  0  0  0  # atno 10765 bound_to 10752
  140.5363  134.0417  155.7889 H   0  0  0  0  0  0  0  0  0  0  0  0  # atno 11005 bound_to 11000
  146.3132  139.7821  142.9004 LP  0  0  0  0  0  0  0  0  0  0  0  0  # atno 17320 bound_to 7965
  145.3542  141.0313  143.3321 LP  0  0  0  0  0  0  0  0  0  0  0  0  # atno 17321 bound_to 7965
  140.7604  143.5899  150.8807 LP  0  0  0  0  0  0  0  0  0  0  0  0  # atno 17342 bound_to 10162
  139.9562  143.6216  152.3015 LP  0  0  0  0  0  0  0  0  0  0  0  0  # atno 17343 bound_to 10162
  157.7504  131.0151  150.3492 LP  0  0  0  0  0  0  0  0  0  0  0  0  # atno 17370 bound_to 10713
  156.3861  130.3889  149.7065 LP  0  0  0  0  0  0  0  0  0  0  0  0  # atno 17371 bound_to 10713
  141.1253  133.9394  157.2648 LP  0  0  0  0  0  0  0  0  0  0  0  0  # atno 17394 bound_to 11000
  139.9527  135.0172  156.9041 LP  0  0  0  0  0  0  0  0  0  0  0  0  # atno 17395 bound_to 11000

$$$$
