#       Name:                AV-unprocessed.smi:2454
#       Creating user name   scv26
#       Creation time:       Fri Mar 27 13:33:19 2020


#       File generated by GOLD software.
#

@<TRIPOS>MOLECULE
AV-unprocessed.smi:2454
    48    49     1
SMALL
NO_CHARGES


@<TRIPOS>ATOM
      1 ****        -7.2485  -4.3571   0.7285 C.3            1 S1                 0.0000
      2 ****        -5.9100  -4.5256   1.1610 O.3            1 S1                 0.0000
      3 ****        -5.0736  -3.4412   0.7841 C.3            1 S1                 0.0000
      4 ****        -3.6351  -3.6118   1.2406 C.ar           1 S1                 0.0000
      5 ****        -2.6923  -2.5798   1.0476 C.ar           1 S1                 0.0000
      6 ****        -1.3706  -2.8125   1.4907 C.ar           1 S1                 0.0000
      7 ****        -0.4603  -1.7346   1.2835 N.am           1 S1                 0.0000
      8 ****         0.8715  -1.6445   1.4874 C.2            1 S1                 0.0000
      9 ****         1.5136  -2.5953   1.9306 O.2            1 S1                 0.0000
     10 ****         1.4353  -0.4640   1.1842 N.am           1 S1                 0.0000
     11 ****         2.8539  -0.1319   1.2895 C.3            1 S1                 0.0000
     12 ****         3.0264   1.3859   1.4874 C.3            1 S1                 0.0000
     13 ****         2.6611   2.1785   0.2209 C.3            1 S1                 0.0000
     14 ****         3.4571   1.6838  -0.9970 C.3            1 S1                 0.0000
     15 ****         3.2645   0.1703  -1.2312 C.3            1 S1                 0.0000
     16 ****         4.0504  -0.3284  -2.4612 C.3            1 S1                 0.0000
     17 ****         5.3614  -0.1524  -2.2913 F              1 S1                 0.0000
     18 ****         3.8118  -1.6248  -2.6605 F              1 S1                 0.0000
     19 ****         3.6641   0.3365  -3.5501 F              1 S1                 0.0000
     20 ****         3.6328  -0.6164   0.0478 C.3            1 S1                 0.0000
     21 ****        -1.0586  -3.9949   2.0806 N.ar           1 S1                 0.0000
     22 ****        -2.0251  -4.9058   2.2151 C.ar           1 S1                 0.0000
     23 ****        -3.2939  -4.7804   1.8269 N.ar           1 S1                 0.0000
     24 ****        -7.8463  -5.2111   1.0462 H              1 S1                 0.0000
     25 ****        -7.3063  -4.2918  -0.3587 H              1 S1                 0.0000
     26 ****        -7.6919  -3.4578   1.1579 H              1 S1                 0.0000
     27 ****        -5.0777  -3.3331  -0.3016 H              1 S1                 0.0000
     28 ****        -5.4620  -2.5129   1.2060 H              1 S1                 0.0000
     29 ****        -2.9755  -1.6491   0.5773 H              1 S1                 0.0000
     30 ****        -0.8928  -0.8792   0.9662 H              1 S1                 0.0000
     31 ****         0.8284   0.2613   0.8280 H              1 S1                 0.0000
     32 ****         3.2569  -0.6316   2.1722 H              1 S1                 0.0000
     33 ****         2.4238   1.7285   2.3296 H              1 S1                 0.0000
     34 ****         4.0635   1.5962   1.7518 H              1 S1                 0.0000
     35 ****         1.5925   2.0881   0.0216 H              1 S1                 0.0000
     36 ****         2.8532   3.2397   0.3817 H              1 S1                 0.0000
     37 ****         3.1470   2.2424  -1.8804 H              1 S1                 0.0000
     38 ****         4.5154   1.9030  -0.8504 H              1 S1                 0.0000
     39 ****         2.2064   0.0001  -1.4367 H              1 S1                 0.0000
     40 ****         4.7012  -0.5098   0.2395 H              1 S1                 0.0000
     41 ****         3.4624  -1.6830  -0.1034 H              1 S1                 0.0000
     42 ****        -1.7504  -5.8379   2.6864 H              1 S1                 0.0000
     43 ****        -5.5465  -5.3655   0.7581 LP             1 S1                 0.0000
     44 ****        -5.9030  -4.6039   2.1579 LP             1 S1                 0.0000
     45 ****         1.0498  -3.4545   2.1468 LP             1 S1                 0.0000
     46 ****         2.4994  -2.5092   2.0748 LP             1 S1                 0.0000
     47 ****        -0.1307  -4.1783   2.4054 LP             1 S1                 0.0000
     48 ****        -3.9597  -5.5141   1.9627 LP             1 S1                 0.0000
@<TRIPOS>BOND
    1    1    2 1     
    2    1   24 1     
    3    1   25 1     
    4    1   26 1     
    5    2    3 1     
    6    3    4 1     
    7    3   27 1     
    8    3   28 1     
    9    4   23 ar    
   10    4    5 ar    
   11    5    6 ar    
   12    5   29 1     
   13    6    7 1     
   14    6   21 ar    
   15    7    8 am    
   16    7   30 1     
   17    8    9 2     
   18    8   10 am    
   19   10   11 1     
   20   10   31 1     
   21   11   20 1     
   22   11   12 1     
   23   11   32 1     
   24   12   13 1     
   25   12   33 1     
   26   12   34 1     
   27   13   14 1     
   28   13   35 1     
   29   13   36 1     
   30   14   15 1     
   31   14   37 1     
   32   14   38 1     
   33   15   16 1     
   34   15   20 1     
   35   15   39 1     
   36   16   17 1     
   37   16   18 1     
   38   16   19 1     
   39   20   40 1     
   40   20   41 1     
   41   21   22 ar    
   42   22   23 ar    
   43   22   42 1     
   44    2   43 1     
   45    2   44 1     
   46    9   45 1     
   47    9   46 1     
   48   21   47 1     
   49   23   48 1     
@<TRIPOS>SUBSTRUCTURE
      1 S1             1
@<TRIPOS>SET
LONE_PAIRS      STATIC     ATOMS    <user>   **** ""
6 43 44 45 46 47 48
DONOR_HYDROGENS      STATIC     ATOMS    <user>   **** ""
2 30 31
ATOM$BLUE        STATIC     ATOMS    COLORGROUP SYSTEM
6 43 44 45 46 47 48
ATOM$RED        STATIC     ATOMS    COLORGROUP SYSTEM
2 30 31
