AV-unprocessed.smi:438|AV-procd|sdf|2577|dock8
  -GOLD-   2262022563D 1   1.00000     0.00000
 Structure written by MMmdl.
 48 49  0  0  0  0  0  0  0  0  1 V2000
  147.8268  133.4602  158.6703 C   0  0  0  0  0  0  0  0  0  0  0  0
  148.2171  134.8049  159.2559 C   0  0  0  0  0  0  0  0  0  0  0  0
  149.2763  135.4127  158.6778 N   0  0  0  0  0  0  0  0  0  0  0  0
  149.6260  136.6000  159.1739 C   0  0  0  0  0  0  0  0  0  0  0  0
  151.0317  137.3959  158.4317 S   0  0  0  0  0  0  0  0  0  0  0  0
  150.6010  139.1486  158.6526 C   0  0  0  0  0  0  0  0  0  0  0  0
  151.8125  140.0599  158.4842 C   0  0  0  0  0  0  0  0  0  0  0  0
  152.5445  139.9339  157.5030 O   0  0  0  0  0  0  0  0  0  0  0  0
  152.0027  140.9781  159.4451 N   0  0  0  0  0  0  0  0  0  0  0  0
  153.0624  141.9878  159.4804 C   0  0  2  0  0  0  0  0  0  0  0  0
  153.8849  141.8425  160.7769 C   0  0  0  0  0  0  0  0  0  0  0  0
  153.0891  142.2655  162.0239 C   0  0  0  0  0  0  0  0  0  0  0  0
  152.5371  143.6907  161.8743 C   0  0  0  0  0  0  0  0  0  0  0  0
  151.6930  143.8325  160.5974 C   0  0  0  0  0  0  0  0  0  0  0  0
  152.4892  143.4218  159.3412 C   0  0  2  0  0  0  0  0  0  0  0  0
  151.6610  143.6195  158.0597 C   0  0  0  0  0  0  0  0  0  0  0  0
  149.0554  137.2546  160.1850 N   0  0  0  0  0  0  0  0  0  0  0  0
  147.9960  136.6598  160.7742 C   0  0  0  0  0  0  0  0  0  0  0  0
  147.3862  137.3163  161.8035 O   0  0  0  0  0  0  0  0  0  0  0  0
  147.5208  135.3965  160.3413 C   0  0  0  0  0  0  0  0  0  0  0  0
  146.3246  134.7262  161.0057 C   0  0  0  0  0  0  0  0  0  0  0  0
  146.5675  134.4566  162.4967 C   0  0  0  0  0  0  0  0  0  0  0  0
  145.3812  133.9839  163.0961 O   0  0  0  0  0  0  0  0  0  0  0  0
  146.7611  133.4336  158.4419 H   0  0  0  0  0  0  0  0  0  0  0  0
  148.0503  132.6616  159.3780 H   0  0  0  0  0  0  0  0  0  0  0  0
  148.3704  133.2551  157.7470 H   0  0  0  0  0  0  0  0  0  0  0  0
  149.8371  139.4190  157.9230 H   0  0  0  0  0  0  0  0  0  0  0  0
  150.1671  139.3171  159.6383 H   0  0  0  0  0  0  0  0  0  0  0  0
  151.3396  140.9988  160.2062 H   0  0  0  0  0  0  0  0  0  0  0  0
  153.7468  141.8191  158.6472 H   0  0  0  0  0  0  0  0  0  0  0  0
  154.2367  140.8161  160.8881 H   0  0  0  0  0  0  0  0  0  0  0  0
  154.7802  142.4609  160.7020 H   0  0  0  0  0  0  0  0  0  0  0  0
  152.2663  141.5696  162.1921 H   0  0  0  0  0  0  0  0  0  0  0  0
  153.7262  142.2060  162.9069 H   0  0  0  0  0  0  0  0  0  0  0  0
  151.9369  143.9506  162.7468 H   0  0  0  0  0  0  0  0  0  0  0  0
  153.3644  144.4009  161.8455 H   0  0  0  0  0  0  0  0  0  0  0  0
  150.7931  143.2223  160.6847 H   0  0  0  0  0  0  0  0  0  0  0  0
  151.3542  144.8645  160.5010 H   0  0  0  0  0  0  0  0  0  0  0  0
  153.3423  144.0980  159.2672 H   0  0  0  0  0  0  0  0  0  0  0  0
  150.7454  143.0276  158.0740 H   0  0  0  0  0  0  0  0  0  0  0  0
  152.2310  143.3310  157.1761 H   0  0  0  0  0  0  0  0  0  0  0  0
  151.3732  144.6640  157.9385 H   0  0  0  0  0  0  0  0  0  0  0  0
  146.6821  136.8159  162.1864 H   0  0  0  0  0  0  0  0  0  0  0  0
  145.4341  135.3413  160.8772 H   0  0  0  0  0  0  0  0  0  0  0  0
  146.1053  133.7906  160.4898 H   0  0  0  0  0  0  0  0  0  0  0  0
  147.3546  133.7140  162.6323 H   0  0  0  0  0  0  0  0  0  0  0  0
  146.8838  135.3661  163.0083 H   0  0  0  0  0  0  0  0  0  0  0  0
  144.6452  134.2877  162.5869 H   0  0  0  0  0  0  0  0  0  0  0  0
  1  2  1  0  0  0  0
  1 24  1  0  0  0  0
  1 25  1  0  0  0  0
  1 26  1  0  0  0  0
  2 20  1  0  0  0  0
  2  3  2  0  0  0  0
  3  4  1  0  0  0  0
  4  5  1  0  0  0  0
  4 17  2  0  0  0  0
  5  6  1  0  0  0  0
  6  7  1  0  0  0  0
  6 27  1  0  0  0  0
  6 28  1  0  0  0  0
  7  8  2  0  0  0  0
  7  9  1  0  0  0  0
  9 10  1  0  0  0  0
  9 29  1  0  0  0  0
 10 15  1  0  0  0  0
 10 11  1  0  0  0  0
 10 30  1  0  0  0  0
 11 12  1  0  0  0  0
 11 31  1  0  0  0  0
 11 32  1  0  0  0  0
 12 13  1  0  0  0  0
 12 33  1  0  0  0  0
 12 34  1  0  0  0  0
 13 14  1  0  0  0  0
 13 35  1  0  0  0  0
 13 36  1  0  0  0  0
 14 15  1  0  0  0  0
 14 37  1  0  0  0  0
 14 38  1  0  0  0  0
 15 16  1  0  0  0  0
 15 39  1  0  0  0  0
 16 40  1  0  0  0  0
 16 41  1  0  0  0  0
 16 42  1  0  0  0  0
 17 18  1  0  0  0  0
 18 19  1  0  0  0  0
 18 20  2  0  0  0  0
 19 43  1  0  0  0  0
 20 21  1  0  0  0  0
 21 22  1  0  0  0  0
 21 44  1  0  0  0  0
 21 45  1  0  0  0  0
 22 23  1  0  0  0  0
 22 46  1  0  0  0  0
 22 47  1  0  0  0  0
 23 48  1  0  0  0  0
M  END
> <s_m_source_file>
AV-unprocessed.smi

> <i_m_source_file_index>
438

> <i_lp_mmshare_version>
43012

> <i_f3d_flags>
0

> <s_epik_input>
W09IXVtDSDJdW0NIMl1jMWMoW09IXSluYyhuYzFbQ0gzXSlTW0NIMl1DKD1PKVtOSF1bQ0BASF0yW0NIMl1bQ0gyXVtDSDJdW0NIMl1bQ0BIXTJbQ0gzXQ==

> <s_epik_cmdline>
J2VwaWtfcHl0aG9uJywgJy1waCcsICc3LjAnLCAnLXRuJywgJzgnLCAnLW1hJywgJzIwMCcsICctbWV0YWxfYmluZGluZycsICctaW1hZScsICc8aW5maWxlLm1hZT4nLCAnLW9tYWUnLCAnPG91dGZpbGUubWFlPic=

> <r_lp_tautomer_probability>
0.0660145

> <r_epik_Ionization_Penalty>
2.91405

> <r_epik_Ionization_Penalty_Charging>
0

> <r_epik_Ionization_Penalty_Neutral>
2.91405

> <r_epik_State_Penalty>
2.44767

> <r_epik_Charging_Adjusted_Penalty>
2.44767

> <i_epik_Tot_Q>
0

> <i_epik_Tot_abs_Q>
0

> <r_epik_Metal_State_Penalty>
3.04288

> <b_epik_Metal_Only>
0

> <s_lp_Force_Field>
OPLS_2005

> <r_lp_Energy>
3.55381

> <b_lp_Chiralities_Consistent>
1

> <s_lp_Variant>
AV-unprocessed.smi:438-15

> <Gold.Version>
5.8.1

> <Gold.Id.Protein>
6NUR|6NUR_protein|mol2

> <Gold.PLP.Fitness>
56.5871

> <Gold.PLP.PLP>
-49.0096

> <Gold.PLP.part.hbond>
-6.1321

> <Gold.PLP.part.metal>
0.0000

> <Gold.PLP.part.buried>
-4.4548

> <Gold.PLP.part.nonpolar>
-38.6235

> <Gold.PLP.part.repulsive>
0.1568

> <Gold.PLP.ligand.clash>
0.0000

> <Gold.PLP.ligand.torsion>
0.5920

> <Gold.PLP.Chemscore.Hbond>
2.9028

> <Gold.PLP.Chemscore.CHOScore>
0.0000

> <Gold.PLP.Chemscore.Metal>
0.0000

> <Gold.Chemscore.Hbonds>
donor molecule, donor type, donor heavy atom, donor atom, acceptor molecule, acceptor atom, score
      P1  H  6896  6909       L1     3  0.85
      P1  H  6931  6943       L1    19  0.21
      P1  H  6934  6947       L1    19  0.69
      P1  H  7997  8010       L1     8  1.00

> <Gold.PLP.Chemscore.Internal.Correction>
0.0532

> <Gold.Rescore>
     Score         DG    S(hbond)    S(metal)    S(lipo)     H(rot)  DE(clash)    DE(int)     intcor
     17.20     -17.52       2.42        0.00     108.90       3.44       0.01       0.31       ----

> <Gold.Chemscore.Fitness>
17.2026

> <Gold.Chemscore.DG>
-17.5203

> <Gold.Chemscore.ZeroCoef>
-5.4800

> <Gold.Chemscore.Hbond>
2.4236

> <Gold.Chemscore.Metal>
0.0000

> <Gold.Chemscore.Lipo>
108.9004

> <Gold.Chemscore.Internal_Hbond>
0.0000

> <Gold.Chemscore.DEClash>
0.0089

> <Gold.Chemscore.DEInternal>
0.3088

> <Gold.Chemscore.Rot>
3.4359

> <Gold.Chemscore.Internal.Correction>
   9.000000E+99

> <Gold.Chemscore.Hbonds>
donor molecule, donor type, donor heavy atom, donor atom, acceptor molecule, acceptor atom, score
      P1  H  6896  6909       L1     3  0.04
      P1  H  6934  6947       L1    19  0.13
      P1  H  7997  8010       L1     8  0.92

> <Gold.Chemscore.Hbond.Weighted>
-8.0949

> <Gold.Chemscore.Metal.Weighted>
-0.0000

> <Gold.Chemscore.Lipo.Weighted>
-12.7413

> <Gold.Chemscore.Internal_Hbond.Weighted>
0.0000

> <Gold.Chemscore.DEClash.Weighted>
0.0089

> <Gold.Chemscore.DEInternal.Weighted>
0.3088

> <Gold.Chemscore.Rot.Weighted>
8.7960

> <Gold.Chemscore.Internal.Correction.Weighted>
   9.000000E+99

> <Gold.Protein.RotatedTorsions>
[ 6907 6896 6895 6894 ] final   31.96 input  -60.11 | X-H torsion
[ 7974 7965 7964 7962 ] final   72.39 input  175.53 | X-H torsion
[ 8008 7997 7996 7995 ] final   48.90 input   59.86 | X-H torsion
[ 10167 10162 10161 10158 ] final  168.51 input  -65.29 | X-H torsion
[ 10718 10713 10712 10709 ] final    6.55 input   66.30 | X-H torsion
[ 10763 10752 10751 10750 ] final   90.50 input  -60.55 | X-H torsion
[ 11005 11000 10999 10996 ] final  -20.18 input  -57.11 | X-H torsion

> <Gold.Protein.ActiveResidues>
 VAL166  LYS551  ARG553  GLY616  TRP617  ASP618  TYR619  PRO620  LYS621  CYS622 
 ASP623  PHE694  ASN695  SER759  ASP760  ASP761  ALA762  ILE779  LEU786  VAL792 
 PHE793  MET794  SER795  GLU796  ALA797  LYS798  CYS799  TRP800  GLU811  SER814 

> <Gold.Protein.RotatedAtoms>
  152.0677  134.9553  160.0574 H   0  0  0  0  0  0  0  0  0  0  0  0  # atno 6907 bound_to 6896
  152.0891  133.4187  159.4544 H   0  0  0  0  0  0  0  0  0  0  0  0  # atno 6908 bound_to 6896
  150.6836  134.2812  159.4671 H   0  0  0  0  0  0  0  0  0  0  0  0  # atno 6909 bound_to 6896
  145.7539  139.2772  143.1415 H   0  0  0  0  0  0  0  0  0  0  0  0  # atno 7974 bound_to 7965
  155.3932  140.3434  155.4252 H   0  0  0  0  0  0  0  0  0  0  0  0  # atno 8008 bound_to 7997
  156.1545  140.1581  156.8747 H   0  0  0  0  0  0  0  0  0  0  0  0  # atno 8009 bound_to 7997
  154.5083  140.0796  156.7919 H   0  0  0  0  0  0  0  0  0  0  0  0  # atno 8010 bound_to 7997
  139.4970  144.3806  151.9626 H   0  0  0  0  0  0  0  0  0  0  0  0  # atno 10167 bound_to 10162
  156.9238  130.5800  149.5648 H   0  0  0  0  0  0  0  0  0  0  0  0  # atno 10718 bound_to 10713
  153.1982  135.4432  155.0234 H   0  0  0  0  0  0  0  0  0  0  0  0  # atno 10763 bound_to 10752
  154.8131  135.3303  154.7253 H   0  0  0  0  0  0  0  0  0  0  0  0  # atno 10764 bound_to 10752
  153.7700  135.6985  153.4963 H   0  0  0  0  0  0  0  0  0  0  0  0  # atno 10765 bound_to 10752
  140.8439  133.7906  155.9891 H   0  0  0  0  0  0  0  0  0  0  0  0  # atno 11005 bound_to 11000
  146.0329  140.8240  142.9867 LP  0  0  0  0  0  0  0  0  0  0  0  0  # atno 17320 bound_to 7965
  144.6844  140.2796  143.7294 LP  0  0  0  0  0  0  0  0  0  0  0  0  # atno 17321 bound_to 7965
  140.3243  144.3391  150.6002 LP  0  0  0  0  0  0  0  0  0  0  0  0  # atno 17342 bound_to 10162
  140.5697  143.2182  151.7621 LP  0  0  0  0  0  0  0  0  0  0  0  0  # atno 17343 bound_to 10162
  156.0479  130.5552  150.8922 LP  0  0  0  0  0  0  0  0  0  0  0  0  # atno 17370 bound_to 10713
  157.5891  131.0945  150.9148 LP  0  0  0  0  0  0  0  0  0  0  0  0  # atno 17371 bound_to 10713
  140.8865  134.2547  157.5117 LP  0  0  0  0  0  0  0  0  0  0  0  0  # atno 17394 bound_to 11000
  139.8703  134.9641  156.4483 LP  0  0  0  0  0  0  0  0  0  0  0  0  # atno 17395 bound_to 11000

$$$$
