AV-unprocessed.smi:697|AV-procd|sdf|3390|dock7
  -GOLD-   22720 0373D 1   1.00000     0.00000
 Structure written by MMmdl.
 44 45  0  0  0  0  0  0  0  0  1 V2000
  152.4099  138.8831  158.5086 C   0  0  0  0  0  0  0  0  0  0  0  0
  152.3363  138.6524  157.1070 O   0  0  0  0  0  0  0  0  0  0  0  0
  151.0585  138.8181  156.4768 C   0  0  2  0  0  0  0  0  0  0  0  0
  150.4905  140.2116  156.7729 C   0  0  0  0  0  0  0  0  0  0  0  0
  150.1773  137.5769  156.7175 C   0  0  0  0  0  0  0  0  0  0  0  0
  150.9018  136.9266  155.5404 C   0  0  1  0  0  0  0  0  0  0  0  0
  150.0209  136.1094  154.7122 N   0  0  0  0  0  0  0  0  0  0  0  0
  149.4953  134.9387  155.0970 C   0  0  0  0  0  0  0  0  0  0  0  0
  149.6871  134.4459  156.2086 O   0  0  0  0  0  0  0  0  0  0  0  0
  148.7746  134.3844  154.1051 N   0  0  0  0  0  0  0  0  0  0  0  0
  148.0660  133.1716  154.1002 C   0  0  0  0  0  0  0  0  0  0  0  0
  148.6301  131.9468  153.9337 C   0  0  0  0  0  0  0  0  0  0  0  0
  147.8406  130.7263  153.9429 C   0  0  0  0  0  0  0  0  0  0  0  0
  148.4893  129.3572  153.8080 C   0  0  0  0  0  0  0  0  0  0  0  0
  149.8185  129.4531  153.7552 F   0  0  0  0  0  0  0  0  0  0  0  0
  148.1692  128.5995  154.8561 F   0  0  0  0  0  0  0  0  0  0  0  0
  148.0710  128.7368  152.7046 F   0  0  0  0  0  0  0  0  0  0  0  0
  146.5194  130.8682  154.1564 C   0  0  0  0  0  0  0  0  0  0  0  0
  145.9324  132.1234  154.3307 N   0  0  0  0  0  0  0  0  0  0  0  0
  146.6155  133.2900  154.3224 C   0  0  0  0  0  0  0  0  0  0  0  0
  146.0256  134.3566  154.4919 O   0  0  0  0  0  0  0  0  0  0  0  0
  151.1775  138.3494  154.9894 C   0  0  0  0  0  0  0  0  0  0  0  0
  150.1343  138.9287  154.0148 C   0  0  0  0  0  0  0  0  0  0  0  0
  152.5365  138.5518  154.3099 C   0  0  0  0  0  0  0  0  0  0  0  0
  144.9333  132.1464  154.4767 H   0  0  0  0  0  0  0  0  0  0  0  0
  153.3929  138.5780  158.8668 H   0  0  0  0  0  0  0  0  0  0  0  0
  151.6652  138.3134  159.0634 H   0  0  0  0  0  0  0  0  0  0  0  0
  152.2953  139.9398  158.7498 H   0  0  0  0  0  0  0  0  0  0  0  0
  149.5699  140.4000  156.2217 H   0  0  0  0  0  0  0  0  0  0  0  0
  151.2001  140.9935  156.5021 H   0  0  0  0  0  0  0  0  0  0  0  0
  150.2409  140.3345  157.8264 H   0  0  0  0  0  0  0  0  0  0  0  0
  150.3185  137.0644  157.6684 H   0  0  0  0  0  0  0  0  0  0  0  0
  149.1190  137.7665  156.5296 H   0  0  0  0  0  0  0  0  0  0  0  0
  151.8099  136.4121  155.8634 H   0  0  0  0  0  0  0  0  0  0  0  0
  149.8199  136.4460  153.7820 H   0  0  0  0  0  0  0  0  0  0  0  0
  148.7781  134.8722  153.2210 H   0  0  0  0  0  0  0  0  0  0  0  0
  149.6949  131.8421  153.8013 H   0  0  0  0  0  0  0  0  0  0  0  0
  145.8204  130.0468  154.2143 H   0  0  0  0  0  0  0  0  0  0  0  0
  150.1629  138.4252  153.0478 H   0  0  0  0  0  0  0  0  0  0  0  0
  150.3075  139.9893  153.8296 H   0  0  0  0  0  0  0  0  0  0  0  0
  149.1166  138.8312  154.3935 H   0  0  0  0  0  0  0  0  0  0  0  0
  152.5509  138.1228  153.3075 H   0  0  0  0  0  0  0  0  0  0  0  0
  153.3457  138.0750  154.8632 H   0  0  0  0  0  0  0  0  0  0  0  0
  152.7836  139.6098  154.2205 H   0  0  0  0  0  0  0  0  0  0  0  0
  1  2  1  0  0  0  0
  1 26  1  0  0  0  0
  1 27  1  0  0  0  0
  1 28  1  0  0  0  0
  2  3  1  0  0  0  0
  3 22  1  0  0  0  0
  3  4  1  0  0  0  0
  3  5  1  0  0  0  0
  4 29  1  0  0  0  0
  4 30  1  0  0  0  0
  4 31  1  0  0  0  0
  5  6  1  0  0  0  0
  5 32  1  0  0  0  0
  5 33  1  0  0  0  0
  6  7  1  0  0  0  0
  6 22  1  0  0  0  0
  6 34  1  0  0  0  0
  7  8  1  0  0  0  0
  7 35  1  0  0  0  0
  8  9  2  0  0  0  0
  8 10  1  0  0  0  0
 10 11  1  0  0  0  0
 10 36  1  0  0  0  0
 11 20  1  0  0  0  0
 11 12  2  0  0  0  0
 12 13  1  0  0  0  0
 12 37  1  0  0  0  0
 13 14  1  0  0  0  0
 13 18  2  0  0  0  0
 14 15  1  0  0  0  0
 14 16  1  0  0  0  0
 14 17  1  0  0  0  0
 18 19  1  0  0  0  0
 18 38  1  0  0  0  0
 19 25  1  0  0  0  0
 19 20  1  0  0  0  0
 20 21  2  0  0  0  0
 22 23  1  0  0  0  0
 22 24  1  0  0  0  0
 23 39  1  0  0  0  0
 23 40  1  0  0  0  0
 23 41  1  0  0  0  0
 24 42  1  0  0  0  0
 24 43  1  0  0  0  0
 24 44  1  0  0  0  0
M  END
> <s_m_source_file>
AV-unprocessed.smi

> <i_m_source_file_index>
697

> <i_lp_mmshare_version>
43012

> <i_f3d_flags>
0

> <s_epik_input>
W0NIM11PW0NAQF0xKFtDSDNdKVtDSDJdW0NASF0oQzEoW0NIM10pW0NIM10pW05IXUMoPU8pW05IXWMyW2NIXWMoQyhGKShGKUYpW2NIXVtuSF1jMj1P

> <s_epik_cmdline>
J2VwaWtfcHl0aG9uJywgJy1waCcsICc3LjAnLCAnLXRuJywgJzgnLCAnLW1hJywgJzIwMCcsICctbWV0YWxfYmluZGluZycsICctaW1hZScsICc8aW5maWxlLm1hZT4nLCAnLW9tYWUnLCAnPG91dGZpbGUubWFlPic=

> <r_lp_tautomer_probability>
1

> <r_epik_Ionization_Penalty>
0.0036482

> <r_epik_Ionization_Penalty_Charging>
0.00362828

> <r_epik_Ionization_Penalty_Neutral>
1.99208e-05

> <r_epik_State_Penalty>
-0

> <r_epik_Charging_Adjusted_Penalty>
0.00362828

> <i_epik_Tot_Q>
0

> <i_epik_Tot_abs_Q>
0

> <r_epik_Metal_State_Penalty>
0.369362

> <b_epik_Metal_Only>
0

> <s_lp_Force_Field>
OPLS_2005

> <r_lp_Energy>
34.8139

> <b_lp_Chiralities_Consistent>
1

> <s_lp_Variant>
AV-unprocessed.smi:697-2

> <Gold.Version>
5.8.1

> <Gold.Id.Protein>
6NUR|6NUR_protein|mol2

> <Gold.PLP.Fitness>
37.9803

> <Gold.PLP.PLP>
-29.0949

> <Gold.PLP.part.hbond>
-2.4983

> <Gold.PLP.part.metal>
0.0000

> <Gold.PLP.part.buried>
-4.5628

> <Gold.PLP.part.nonpolar>
-22.9241

> <Gold.PLP.part.repulsive>
0.1471

> <Gold.PLP.ligand.clash>
0.0000

> <Gold.PLP.ligand.torsion>
1.0144

> <Gold.PLP.Chemscore.Hbond>
2.5038

> <Gold.PLP.Chemscore.CHOScore>
1.0000

> <Gold.PLP.Chemscore.Metal>
0.0000

> <Gold.Chemscore.Hbonds>
donor molecule, donor type, donor heavy atom, donor atom, acceptor molecule, acceptor atom, score
      L1  H     7    35       P1  7948  0.88
      L1  H    10    36       P1  7948  1.00
      L1  H    19    25       P1 10957  0.34
      L1  C    18    38       P1 10956  0.71

> <Gold.PLP.Chemscore.Internal.Correction>
0.4029

> <Gold.Rescore>
     Score         DG    S(hbond)    S(metal)    S(lipo)     H(rot)  DE(clash)    DE(int)     intcor
     15.94     -17.11       2.24        0.00      63.98       1.31       0.11       1.06       ----

> <Gold.Chemscore.Fitness>
15.9388

> <Gold.Chemscore.DG>
-17.1064

> <Gold.Chemscore.ZeroCoef>
-5.4800

> <Gold.Chemscore.Hbond>
2.2411

> <Gold.Chemscore.Metal>
0.0000

> <Gold.Chemscore.Lipo>
63.9772

> <Gold.Chemscore.Internal_Hbond>
0.0000

> <Gold.Chemscore.DEClash>
0.1110

> <Gold.Chemscore.DEInternal>
1.0566

> <Gold.Chemscore.Rot>
1.3062

> <Gold.Chemscore.Internal.Correction>
   9.000000E+99

> <Gold.Chemscore.Hbonds>
donor molecule, donor type, donor heavy atom, donor atom, acceptor molecule, acceptor atom, score
      L1  H     7    35       P1  7948  0.33
      L1  H    10    36       P1  7948  0.35
      L1  H    19    25       P1 10957  0.11

> <Gold.Chemscore.Hbond.Weighted>
-7.4851

> <Gold.Chemscore.Metal.Weighted>
-0.0000

> <Gold.Chemscore.Lipo.Weighted>
-7.4853

> <Gold.Chemscore.Internal_Hbond.Weighted>
0.0000

> <Gold.Chemscore.DEClash.Weighted>
0.1110

> <Gold.Chemscore.DEInternal.Weighted>
1.0566

> <Gold.Chemscore.Rot.Weighted>
3.3440

> <Gold.Chemscore.Internal.Correction.Weighted>
   9.000000E+99

> <Gold.Protein.RotatedTorsions>
[ 6907 6896 6895 6894 ] final -126.55 input  -60.11 | X-H torsion
[ 7974 7965 7964 7962 ] final   22.72 input  175.53 | X-H torsion
[ 8008 7997 7996 7995 ] final  174.99 input   59.86 | X-H torsion
[ 10167 10162 10161 10158 ] final -171.80 input  -65.29 | X-H torsion
[ 10718 10713 10712 10709 ] final   99.72 input   66.30 | X-H torsion
[ 10763 10752 10751 10750 ] final   87.63 input  -60.55 | X-H torsion
[ 11005 11000 10999 10996 ] final  177.04 input  -57.11 | X-H torsion

> <Gold.Protein.ActiveResidues>
 VAL166  LYS551  ARG553  GLY616  TRP617  ASP618  TYR619  PRO620  LYS621  CYS622 
 ASP623  PHE694  ASN695  SER759  ASP760  ASP761  ALA762  ILE779  LEU786  VAL792 
 PHE793  MET794  SER795  GLU796  ALA797  LYS798  CYS799  TRP800  GLU811  SER814 

> <Gold.Protein.RotatedAtoms>
  150.8980  133.7155  159.2886 H   0  0  0  0  0  0  0  0  0  0  0  0  # atno 6907 bound_to 6896
  151.4683  135.1042  159.9754 H   0  0  0  0  0  0  0  0  0  0  0  0  # atno 6908 bound_to 6896
  152.4860  133.8327  159.7167 H   0  0  0  0  0  0  0  0  0  0  0  0  # atno 6909 bound_to 6896
  146.2016  139.7846  142.8757 H   0  0  0  0  0  0  0  0  0  0  0  0  # atno 7974 bound_to 7965
  156.0917  140.1420  156.9583 H   0  0  0  0  0  0  0  0  0  0  0  0  # atno 8008 bound_to 7997
  154.4646  140.0931  156.7032 H   0  0  0  0  0  0  0  0  0  0  0  0  # atno 8009 bound_to 7997
  155.4909  140.3448  155.4357 H   0  0  0  0  0  0  0  0  0  0  0  0  # atno 8010 bound_to 7997
  139.5781  144.1485  152.1478 H   0  0  0  0  0  0  0  0  0  0  0  0  # atno 10167 bound_to 10162
  157.6870  131.0678  150.4991 H   0  0  0  0  0  0  0  0  0  0  0  0  # atno 10718 bound_to 10713
  153.1688  135.4536  154.9874 H   0  0  0  0  0  0  0  0  0  0  0  0  # atno 10763 bound_to 10752
  154.7951  135.3234  154.7688 H   0  0  0  0  0  0  0  0  0  0  0  0  # atno 10764 bound_to 10752
  153.8168  135.6950  153.4887 H   0  0  0  0  0  0  0  0  0  0  0  0  # atno 10765 bound_to 10752
  140.3797  134.6957  157.4443 H   0  0  0  0  0  0  0  0  0  0  0  0  # atno 11005 bound_to 11000
  145.3462  141.0298  143.3364 LP  0  0  0  0  0  0  0  0  0  0  0  0  # atno 17320 bound_to 7965
  144.8697  139.5056  143.6773 LP  0  0  0  0  0  0  0  0  0  0  0  0  # atno 17321 bound_to 7965
  140.1033  144.5521  150.6974 LP  0  0  0  0  0  0  0  0  0  0  0  0  # atno 17342 bound_to 10162
  140.7062  143.2470  151.4719 LP  0  0  0  0  0  0  0  0  0  0  0  0  # atno 17343 bound_to 10162
  156.5313  130.4185  149.6200 LP  0  0  0  0  0  0  0  0  0  0  0  0  # atno 17370 bound_to 10713
  156.3066  130.7206  151.2090 LP  0  0  0  0  0  0  0  0  0  0  0  0  # atno 17371 bound_to 10713
  140.0488  134.6160  155.8887 LP  0  0  0  0  0  0  0  0  0  0  0  0  # atno 17394 bound_to 11000
  141.1927  133.6576  156.5516 LP  0  0  0  0  0  0  0  0  0  0  0  0  # atno 17395 bound_to 11000

$$$$
