#       Name:                AV-unprocessed.smi:864
#       Creating user name   scv26
#       Creation time:       Fri Mar 27 01:46:36 2020


#       File generated by GOLD software.
#

@<TRIPOS>MOLECULE
AV-unprocessed.smi:864
    49    51     1
SMALL
NO_CHARGES


@<TRIPOS>ATOM
      1 ****        -4.2538   2.0290  -2.4754 C.3            1 S1                 0.0000
      2 ****        -3.6852   0.6342  -2.3186 C.ar           1 S1                 0.0000
      3 ****        -3.7983  -0.0579  -1.0947 C.ar           1 S1                 0.0000
      4 ****        -3.2496  -1.3512  -1.0031 C.ar           1 S1                 0.0000
      5 ****        -2.6086  -1.9002  -2.1333 C.ar           1 S1                 0.0000
      6 ****        -1.9637  -3.2746  -2.0771 C.3            1 S1                 0.0000
      7 ****        -0.4272  -3.2281  -1.9659 C.3            1 S1                 0.0000
      8 ****         0.0117  -2.4240  -0.8275 N.am           1 S1                 0.0000
      9 ****         0.4436  -1.1560  -0.8935 C.2            1 S1                 0.0000
     10 ****         0.6116  -0.5364  -1.9440 O.2            1 S1                 0.0000
     11 ****         0.6401  -0.6380   0.3263 N.am           1 S1                 0.0000
     12 ****         1.0581   0.7335   0.6065 C.3            1 S1                 0.0000
     13 ****         0.2020   1.3731   1.7080 C.3            1 S1                 0.0000
     14 ****         1.2283   1.9975   2.6376 C.2            1 S1                 0.0000
     15 ****         0.9167   2.7483   3.5612 O.2            1 S1                 0.0000
     16 ****         2.4721   1.6333   2.3055 N.am           1 S1                 0.0000
     17 ****         3.6658   2.1511   2.9068 C.3            1 S1                 0.0000
     18 ****         5.0233   1.5549   2.5873 C.3            1 S1                 0.0000
     19 ****         4.3809   1.2962   3.9280 C.3            1 S1                 0.0000
     20 ****         2.5050   0.7757   1.1289 C.3            1 S1                 0.0000
     21 ****        -2.5541  -1.1258  -3.3114 C.ar           1 S1                 0.0000
     22 ****        -3.0802   0.1139  -3.4091 N.ar           1 S1                 0.0000
     23 ****        -4.4524   2.4829  -1.5041 H              1 S1                 0.0000
     24 ****        -5.1890   1.9937  -3.0348 H              1 S1                 0.0000
     25 ****        -3.5553   2.6721  -3.0118 H              1 S1                 0.0000
     26 ****        -4.2898   0.3909  -0.2441 H              1 S1                 0.0000
     27 ****        -3.3089  -1.9039  -0.0769 H              1 S1                 0.0000
     28 ****        -2.3743  -3.8238  -1.2287 H              1 S1                 0.0000
     29 ****        -2.2514  -3.8342  -2.9678 H              1 S1                 0.0000
     30 ****        -0.0370  -4.2388  -1.8458 H              1 S1                 0.0000
     31 ****         0.0010  -2.8473  -2.8947 H              1 S1                 0.0000
     32 ****        -0.0815  -2.8450   0.0852 H              1 S1                 0.0000
     33 ****         0.4668  -1.2306   1.1250 H              1 S1                 0.0000
     34 ****         0.9843   1.3580  -0.2862 H              1 S1                 0.0000
     35 ****        -0.4789   2.1263   1.3098 H              1 S1                 0.0000
     36 ****        -0.3816   0.6371   2.2629 H              1 S1                 0.0000
     37 ****         3.6670   3.2236   3.0967 H              1 S1                 0.0000
     38 ****         5.0918   0.7103   1.9050 H              1 S1                 0.0000
     39 ****         5.8728   2.2344   2.5640 H              1 S1                 0.0000
     40 ****         4.8043   1.7991   4.7950 H              1 S1                 0.0000
     41 ****         3.9933   0.2961   4.1131 H              1 S1                 0.0000
     42 ****         2.8605  -0.2135   1.4220 H              1 S1                 0.0000
     43 ****         3.1843   1.1691   0.3714 H              1 S1                 0.0000
     44 ****        -2.0647  -1.5064  -4.1960 H              1 S1                 0.0000
     45 ****         0.4230  -0.9785  -2.8209 LP             1 S1                 0.0000
     46 ****         0.9367   0.4090  -1.9204 LP             1 S1                 0.0000
     47 ****        -0.0451   2.9690   3.7233 LP             1 S1                 0.0000
     48 ****         1.6252   3.1378   4.1496 LP             1 S1                 0.0000
     49 ****        -3.0238   0.6315  -4.2629 LP             1 S1                 0.0000
@<TRIPOS>BOND
    1    1    2 1     
    2    1   23 1     
    3    1   24 1     
    4    1   25 1     
    5    2   22 ar    
    6    2    3 ar    
    7    3    4 ar    
    8    3   26 1     
    9    4    5 ar    
   10    4   27 1     
   11    5    6 1     
   12    5   21 ar    
   13    6    7 1     
   14    6   28 1     
   15    6   29 1     
   16    7    8 1     
   17    7   30 1     
   18    7   31 1     
   19    8    9 am    
   20    8   32 1     
   21    9   10 2     
   22    9   11 am    
   23   11   12 1     
   24   11   33 1     
   25   12   20 1     
   26   12   13 1     
   27   12   34 1     
   28   13   14 1     
   29   13   35 1     
   30   13   36 1     
   31   14   15 2     
   32   14   16 am    
   33   16   17 1     
   34   16   20 1     
   35   17   19 1     
   36   17   18 1     
   37   17   37 1     
   38   18   19 1     
   39   18   38 1     
   40   18   39 1     
   41   19   40 1     
   42   19   41 1     
   43   20   42 1     
   44   20   43 1     
   45   21   22 ar    
   46   21   44 1     
   47   10   45 1     
   48   10   46 1     
   49   15   47 1     
   50   15   48 1     
   51   22   49 1     
@<TRIPOS>SUBSTRUCTURE
      1 S1             1
@<TRIPOS>SET
LONE_PAIRS      STATIC     ATOMS    <user>   **** ""
5 45 46 47 48 49
DONOR_HYDROGENS      STATIC     ATOMS    <user>   **** ""
2 32 33
ATOM$BLUE        STATIC     ATOMS    COLORGROUP SYSTEM
5 45 46 47 48 49
ATOM$RED        STATIC     ATOMS    COLORGROUP SYSTEM
2 32 33
