AV-unprocessed.smi:108|AV-procd|sdf|1030|dock8
  -GOLD-   2262018 33D 1   1.00000     0.00000
 Structure written by MMmdl.
 59 62  0  0  0  0  0  0  0  0  1 V2000
  146.9154  134.2357  156.4737 O   0  0  0  0  0  0  0  0  0  0  0  0
  147.9357  133.5785  156.2562 C   0  0  0  0  0  0  0  0  0  0  0  0
  148.8216  133.1481  157.4455 C   0  0  0  0  0  0  0  0  0  0  0  0
  148.2396  133.4791  158.7649 N   0  0  0  0  0  0  0  0  0  0  0  0
  147.8028  132.4194  159.5966 C   0  0  0  0  0  0  0  0  0  0  0  0
  147.8882  131.2447  159.2349 O   0  0  0  0  0  0  0  0  0  0  0  0
  147.2581  132.8196  160.8877 C   0  0  0  0  0  0  0  0  0  0  0  0
  146.8721  131.8798  161.7672 F   0  0  0  0  0  0  0  0  0  0  0  0
  147.1507  134.1215  161.2236 C   0  0  0  0  0  0  0  0  0  0  0  0
  147.5220  135.1529  160.3764 N   0  0  0  0  0  0  0  0  0  0  0  0
  147.4569  136.6171  160.7865 C   0  0  1  0  0  0  0  0  0  0  0  0
  146.0755  137.0767  161.2718 C   0  0  0  0  0  0  0  0  0  0  0  0
  146.1849  136.9746  162.7909 C   0  0  0  0  0  0  0  0  0  0  0  0
  147.6140  136.4848  163.0486 C   0  0  0  0  0  0  0  0  0  0  0  0
  148.3206  136.8134  161.8603 O   0  0  0  0  0  0  0  0  0  0  0  0
  148.1192  134.8405  159.1340 C   0  0  0  0  0  0  0  0  0  0  0  0
  148.5174  135.7346  158.3837 O   0  0  0  0  0  0  0  0  0  0  0  0
  148.3100  133.2314  154.9995 N   0  0  0  0  0  0  0  0  0  0  0  0
  147.5250  133.6629  153.8304 C   0  0  0  0  0  0  0  0  0  0  0  0
  146.0555  133.1923  153.8858 C   0  0  0  0  0  0  0  0  0  0  0  0
  145.3858  133.1311  152.5232 C   0  0  0  0  0  0  0  0  0  0  0  0
  144.2716  133.9505  152.2415 C   0  0  0  0  0  0  0  0  0  0  0  0
  143.6643  133.9070  150.9719 C   0  0  0  0  0  0  0  0  0  0  0  0
  144.1669  133.0426  149.9801 C   0  0  0  0  0  0  0  0  0  0  0  0
  145.2774  132.2223  150.2583 C   0  0  0  0  0  0  0  0  0  0  0  0
  145.8860  132.2660  151.5278 C   0  0  0  0  0  0  0  0  0  0  0  0
  149.4973  132.4127  154.6980 C   0  0  0  0  0  0  0  0  0  0  0  0
  149.2143  130.9356  154.4442 C   0  0  0  0  0  0  0  0  0  0  0  0
  148.1107  130.5131  153.6675 C   0  0  0  0  0  0  0  0  0  0  0  0
  147.8762  129.1411  153.4534 C   0  0  0  0  0  0  0  0  0  0  0  0
  148.7444  128.1817  154.0078 C   0  0  0  0  0  0  0  0  0  0  0  0
  149.8499  128.5957  154.7747 C   0  0  0  0  0  0  0  0  0  0  0  0
  150.0839  129.9677  154.9903 C   0  0  0  0  0  0  0  0  0  0  0  0
  149.0225  132.0788  157.3788 H   0  0  0  0  0  0  0  0  0  0  0  0
  149.8027  133.6128  157.3396 H   0  0  0  0  0  0  0  0  0  0  0  0
  146.7644  134.3415  162.2063 H   0  0  0  0  0  0  0  0  0  0  0  0
  147.7749  137.1795  159.9071 H   0  0  0  0  0  0  0  0  0  0  0  0
  145.9439  138.1205  160.9841 H   0  0  0  0  0  0  0  0  0  0  0  0
  145.2595  136.5085  160.8257 H   0  0  0  0  0  0  0  0  0  0  0  0
  146.0290  137.9549  163.2422 H   0  0  0  0  0  0  0  0  0  0  0  0
  145.4467  136.2930  163.2142 H   0  0  0  0  0  0  0  0  0  0  0  0
  148.0658  136.9553  163.9221 H   0  0  0  0  0  0  0  0  0  0  0  0
  147.6348  135.4051  163.2016 H   0  0  0  0  0  0  0  0  0  0  0  0
  147.5474  134.7501  153.7463 H   0  0  0  0  0  0  0  0  0  0  0  0
  147.9935  133.3036  152.9126 H   0  0  0  0  0  0  0  0  0  0  0  0
  146.0051  132.2064  154.3492 H   0  0  0  0  0  0  0  0  0  0  0  0
  145.4772  133.8529  154.5328 H   0  0  0  0  0  0  0  0  0  0  0  0
  143.8856  134.6214  152.9956 H   0  0  0  0  0  0  0  0  0  0  0  0
  142.8139  134.5376  150.7584 H   0  0  0  0  0  0  0  0  0  0  0  0
  143.7010  133.0097  149.0062 H   0  0  0  0  0  0  0  0  0  0  0  0
  145.6637  131.5603  149.4974 H   0  0  0  0  0  0  0  0  0  0  0  0
  146.7408  131.6386  151.7341 H   0  0  0  0  0  0  0  0  0  0  0  0
  150.0135  132.8005  153.8193 H   0  0  0  0  0  0  0  0  0  0  0  0
  150.2298  132.5110  155.4996 H   0  0  0  0  0  0  0  0  0  0  0  0
  147.4345  131.2326  153.2302 H   0  0  0  0  0  0  0  0  0  0  0  0
  147.0290  128.8252  152.8626 H   0  0  0  0  0  0  0  0  0  0  0  0
  148.5640  127.1296  153.8429 H   0  0  0  0  0  0  0  0  0  0  0  0
  150.5187  127.8607  155.1982 H   0  0  0  0  0  0  0  0  0  0  0  0
  150.9345  130.2752  155.5809 H   0  0  0  0  0  0  0  0  0  0  0  0
  1  2  2  0  0  0  0
  2  3  1  0  0  0  0
  2 18  1  0  0  0  0
  3  4  1  0  0  0  0
  3 34  1  0  0  0  0
  3 35  1  0  0  0  0
  4 16  1  0  0  0  0
  4  5  1  0  0  0  0
  5  6  2  0  0  0  0
  5  7  1  0  0  0  0
  7  8  1  0  0  0  0
  7  9  2  0  0  0  0
  9 10  1  0  0  0  0
  9 36  1  0  0  0  0
 10 11  1  0  0  0  0
 10 16  1  0  0  0  0
 11 15  1  0  0  0  0
 11 12  1  0  0  0  0
 11 37  1  0  0  0  0
 12 13  1  0  0  0  0
 12 38  1  0  0  0  0
 12 39  1  0  0  0  0
 13 14  1  0  0  0  0
 13 40  1  0  0  0  0
 13 41  1  0  0  0  0
 14 15  1  0  0  0  0
 14 42  1  0  0  0  0
 14 43  1  0  0  0  0
 16 17  2  0  0  0  0
 18 19  1  0  0  0  0
 18 27  1  0  0  0  0
 19 20  1  0  0  0  0
 19 44  1  0  0  0  0
 19 45  1  0  0  0  0
 20 21  1  0  0  0  0
 20 46  1  0  0  0  0
 20 47  1  0  0  0  0
 21 26  1  0  0  0  0
 21 22  2  0  0  0  0
 22 23  1  0  0  0  0
 22 48  1  0  0  0  0
 23 24  2  0  0  0  0
 23 49  1  0  0  0  0
 24 25  1  0  0  0  0
 24 50  1  0  0  0  0
 25 26  2  0  0  0  0
 25 51  1  0  0  0  0
 26 52  1  0  0  0  0
 27 28  1  0  0  0  0
 27 53  1  0  0  0  0
 27 54  1  0  0  0  0
 28 33  1  0  0  0  0
 28 29  2  0  0  0  0
 29 30  1  0  0  0  0
 29 55  1  0  0  0  0
 30 31  2  0  0  0  0
 30 56  1  0  0  0  0
 31 32  1  0  0  0  0
 31 57  1  0  0  0  0
 32 33  2  0  0  0  0
 32 58  1  0  0  0  0
 33 59  1  0  0  0  0
M  END
> <s_m_source_file>
AV-unprocessed.smi

> <i_m_source_file_index>
108

> <i_lp_mmshare_version>
43012

> <i_f3d_flags>
0

> <s_epik_input>
W2NIXTFbY0hdW2NIXVtjSF1bY0hdYzFbQ0gyXVtDSDJdTihbQ0gyXWMyW2NIXVtjSF1bY0hdW2NIXVtjSF0yKUMoPU8pW0NIMl1uM2MoPU8pYyhGKVtjSF1uKGMzPU8pW0NAQEhdNFtDSDJdW0NIMl1bQ0gyXU80

> <s_epik_cmdline>
J2VwaWtfcHl0aG9uJywgJy1waCcsICc3LjAnLCAnLXRuJywgJzgnLCAnLW1hJywgJzIwMCcsICctbWV0YWxfYmluZGluZycsICctaW1hZScsICc8aW5maWxlLm1hZT4nLCAnLW9tYWUnLCAnPG91dGZpbGUubWFlPic=

> <r_lp_tautomer_probability>
1

> <r_epik_Ionization_Penalty>
5.46209e-09

> <r_epik_Ionization_Penalty_Charging>
4.22697e-09

> <r_epik_Ionization_Penalty_Neutral>
1.23512e-09

> <r_epik_State_Penalty>
-0

> <r_epik_Charging_Adjusted_Penalty>
4.22697e-09

> <i_epik_Tot_Q>
0

> <i_epik_Tot_abs_Q>
0

> <r_epik_Metal_State_Penalty>
-0

> <b_epik_Metal_Only>
0

> <s_epik_Chemistry_Notes>
This compound contains an acetal/aminal-like group ( X-CH(R)-Y where X, Y are N, S, or O) that may be acid/base labile, releasing an aldehyde.

> <s_lp_Force_Field>
OPLS_2005

> <r_lp_Energy>
38.0932

> <b_lp_Chiralities_Consistent>
1

> <s_lp_Variant>
AV-unprocessed.smi:108-2

> <Gold.Version>
5.8.1

> <Gold.Id.Protein>
6NUR|6NUR_protein|mol2

> <Gold.PLP.Fitness>
55.2586

> <Gold.PLP.PLP>
-53.7770

> <Gold.PLP.part.hbond>
-1.3964

> <Gold.PLP.part.metal>
0.0000

> <Gold.PLP.part.buried>
-6.0070

> <Gold.PLP.part.nonpolar>
-46.9247

> <Gold.PLP.part.repulsive>
0.0000

> <Gold.PLP.ligand.clash>
0.0000

> <Gold.PLP.ligand.torsion>
0.8807

> <Gold.PLP.Chemscore.Hbond>
1.0000

> <Gold.PLP.Chemscore.CHOScore>
0.0000

> <Gold.PLP.Chemscore.Metal>
0.0000

> <Gold.Chemscore.Hbonds>
donor molecule, donor type, donor heavy atom, donor atom, acceptor molecule, acceptor atom, score
      P1  H  6931  6943       L1    15  1.00

> <Gold.PLP.Chemscore.Internal.Correction>
0.2430

> <Gold.Rescore>
     Score         DG    S(hbond)    S(metal)    S(lipo)     H(rot)  DE(clash)    DE(int)     intcor
     14.66     -17.78       0.95        0.00     127.97       2.28       0.17       2.95       ----

> <Gold.Chemscore.Fitness>
14.6611

> <Gold.Chemscore.DG>
-17.7836

> <Gold.Chemscore.ZeroCoef>
-5.4800

> <Gold.Chemscore.Hbond>
0.9452

> <Gold.Chemscore.Metal>
0.0000

> <Gold.Chemscore.Lipo>
127.9678

> <Gold.Chemscore.Internal_Hbond>
0.0000

> <Gold.Chemscore.DEClash>
0.1728

> <Gold.Chemscore.DEInternal>
2.9498

> <Gold.Chemscore.Rot>
2.2756

> <Gold.Chemscore.Internal.Correction>
   9.000000E+99

> <Gold.Chemscore.Hbonds>
donor molecule, donor type, donor heavy atom, donor atom, acceptor molecule, acceptor atom, score
      P1  H  6931  6943       L1    15  0.78

> <Gold.Chemscore.Hbond.Weighted>
-3.1569

> <Gold.Chemscore.Metal.Weighted>
-0.0000

> <Gold.Chemscore.Lipo.Weighted>
-14.9722

> <Gold.Chemscore.Internal_Hbond.Weighted>
0.0000

> <Gold.Chemscore.DEClash.Weighted>
0.1728

> <Gold.Chemscore.DEInternal.Weighted>
2.9498

> <Gold.Chemscore.Rot.Weighted>
5.8255

> <Gold.Chemscore.Internal.Correction.Weighted>
   9.000000E+99

> <Gold.Protein.RotatedTorsions>
[ 6907 6896 6895 6894 ] final -141.42 input  -60.11 | X-H torsion
[ 7974 7965 7964 7962 ] final  -53.60 input  175.53 | X-H torsion
[ 8008 7997 7996 7995 ] final  -15.25 input   59.86 | X-H torsion
[ 10167 10162 10161 10158 ] final  -59.12 input  -65.29 | X-H torsion
[ 10718 10713 10712 10709 ] final -169.79 input   66.30 | X-H torsion
[ 10763 10752 10751 10750 ] final   -3.59 input  -60.55 | X-H torsion
[ 11005 11000 10999 10996 ] final  131.60 input  -57.11 | X-H torsion

> <Gold.Protein.ActiveResidues>
 VAL166  LYS551  ARG553  GLY616  TRP617  ASP618  TYR619  PRO620  LYS621  CYS622 
 ASP623  PHE694  ASN695  SER759  ASP760  ASP761  ALA762  ILE779  LEU786  VAL792 
 PHE793  MET794  SER795  GLU796  ALA797  LYS798  CYS799  TRP800  GLU811  SER814 

> <Gold.Protein.RotatedAtoms>
  151.0735  133.5447  159.2625 H   0  0  0  0  0  0  0  0  0  0  0  0  # atno 6907 bound_to 6896
  151.2377  135.0577  159.9022 H   0  0  0  0  0  0  0  0  0  0  0  0  # atno 6908 bound_to 6896
  152.5414  134.0515  159.8165 H   0  0  0  0  0  0  0  0  0  0  0  0  # atno 6909 bound_to 6896
  145.8950  140.8040  142.9772 H   0  0  0  0  0  0  0  0  0  0  0  0  # atno 7974 bound_to 7965
  154.5145  140.2201  155.9093 H   0  0  0  0  0  0  0  0  0  0  0  0  # atno 8008 bound_to 7997
  156.1591  140.3146  155.8742 H   0  0  0  0  0  0  0  0  0  0  0  0  # atno 8009 bound_to 7997
  155.3787  140.0471  157.3035 H   0  0  0  0  0  0  0  0  0  0  0  0  # atno 8010 bound_to 7997
  140.6155  143.2401  151.5608 H   0  0  0  0  0  0  0  0  0  0  0  0  # atno 10167 bound_to 10162
  156.7167  130.9254  151.3094 H   0  0  0  0  0  0  0  0  0  0  0  0  # atno 10718 bound_to 10713
  153.3735  135.6995  153.6620 H   0  0  0  0  0  0  0  0  0  0  0  0  # atno 10763 bound_to 10752
  153.5260  135.3602  155.2654 H   0  0  0  0  0  0  0  0  0  0  0  0  # atno 10764 bound_to 10752
  154.8684  135.4169  154.3018 H   0  0  0  0  0  0  0  0  0  0  0  0  # atno 10765 bound_to 10752
  139.9740  134.9569  156.9461 H   0  0  0  0  0  0  0  0  0  0  0  0  # atno 11005 bound_to 11000
  144.6732  140.1589  143.7424 LP  0  0  0  0  0  0  0  0  0  0  0  0  # atno 17320 bound_to 7965
  145.8861  139.2350  143.1577 LP  0  0  0  0  0  0  0  0  0  0  0  0  # atno 17321 bound_to 7965
  139.5395  144.2687  152.1321 LP  0  0  0  0  0  0  0  0  0  0  0  0  # atno 17342 bound_to 10162
  140.1895  144.4765  150.6486 LP  0  0  0  0  0  0  0  0  0  0  0  0  # atno 17343 bound_to 10162
  157.6914  130.9238  150.0525 LP  0  0  0  0  0  0  0  0  0  0  0  0  # atno 17370 bound_to 10713
  156.1623  130.3644  149.9281 LP  0  0  0  0  0  0  0  0  0  0  0  0  # atno 17371 bound_to 10713
  140.5234  134.0885  155.7297 LP  0  0  0  0  0  0  0  0  0  0  0  0  # atno 17394 bound_to 11000
  141.1418  133.9125  157.2308 LP  0  0  0  0  0  0  0  0  0  0  0  0  # atno 17395 bound_to 11000

$$$$
