AV-unprocessed.smi:560|AV-procd|sdf|2927|dock1
  -GOLD-   2262023423D 1   1.00000     0.00000
 Structure written by MMmdl.
 41 42  0  0  0  0  0  0  0  0  1 V2000
  153.8452  141.8534  161.1960 C   0  0  0  0  0  0  0  0  0  0  0  0
  153.6015  142.2855  159.7352 C   0  0  1  0  0  0  0  0  0  0  0  0
  152.9413  141.1842  158.8899 C   0  0  0  0  0  0  0  0  0  0  0  0
  153.5489  140.1478  158.6184 O   0  0  0  0  0  0  0  0  0  0  0  0
  151.6887  141.4294  158.4734 N   0  0  0  0  0  0  0  0  0  0  0  0
  150.8779  140.5285  157.6608 C   0  0  0  0  0  0  0  0  0  0  0  0
  151.3853  140.4933  156.2101 C   0  0  0  0  0  0  0  0  0  0  0  0
  150.4509  139.6601  155.3161 C   0  0  0  0  0  0  0  0  0  0  0  0
  149.0871  140.1986  155.3479 N   0  0  0  0  0  0  0  0  0  0  0  0
  148.2473  139.4571  154.3796 C   0  0  0  0  0  0  0  0  0  0  0  0
  146.9219  140.1444  154.0287 C   0  0  0  0  0  0  0  0  0  0  0  0
  146.1127  139.5106  153.1764 N   0  0  0  0  0  0  0  0  0  0  0  0
  146.6310  141.2307  154.5251 O   0  0  0  0  0  0  0  0  0  0  0  0
  148.5523  140.1467  156.7167 C   0  0  0  0  0  0  0  0  0  0  0  0
  149.4159  140.9961  157.6661 C   0  0  0  0  0  0  0  0  0  0  0  0
  152.8356  143.5235  159.6443 N   0  0  0  0  0  0  0  0  0  0  0  0
  152.2915  144.2610  160.6767 C   0  0  0  0  0  0  0  0  0  0  0  0
  151.6957  145.3601  160.1280 C   0  0  0  0  0  0  0  0  0  0  0  0
  151.9417  145.2168  158.7344 C   0  0  0  0  0  0  0  0  0  0  0  0
  152.6304  144.1242  158.4488 N   0  0  0  0  0  0  0  0  0  0  0  0
  154.4726  140.9624  161.2419 H   0  0  0  0  0  0  0  0  0  0  0  0
  152.9151  141.6286  161.7196 H   0  0  0  0  0  0  0  0  0  0  0  0
  154.3556  142.6395  161.7533 H   0  0  0  0  0  0  0  0  0  0  0  0
  154.5803  142.4835  159.2952 H   0  0  0  0  0  0  0  0  0  0  0  0
  151.2646  142.3059  158.7405 H   0  0  0  0  0  0  0  0  0  0  0  0
  150.9196  139.5222  158.0820 H   0  0  0  0  0  0  0  0  0  0  0  0
  151.4553  141.5078  155.8143 H   0  0  0  0  0  0  0  0  0  0  0  0
  152.3930  140.0779  156.1737 H   0  0  0  0  0  0  0  0  0  0  0  0
  150.8334  139.6814  154.2948 H   0  0  0  0  0  0  0  0  0  0  0  0
  150.4556  138.6161  155.6346 H   0  0  0  0  0  0  0  0  0  0  0  0
  148.7963  139.3355  153.4448 H   0  0  0  0  0  0  0  0  0  0  0  0
  148.0536  138.4511  154.7570 H   0  0  0  0  0  0  0  0  0  0  0  0
  145.2297  139.9247  152.9154 H   0  0  0  0  0  0  0  0  0  0  0  0
  146.3889  138.6174  152.7953 H   0  0  0  0  0  0  0  0  0  0  0  0
  147.5340  140.5334  156.7526 H   0  0  0  0  0  0  0  0  0  0  0  0
  148.5097  139.1133  157.0652 H   0  0  0  0  0  0  0  0  0  0  0  0
  149.0111  140.9431  158.6775 H   0  0  0  0  0  0  0  0  0  0  0  0
  149.3575  142.0433  157.3646 H   0  0  0  0  0  0  0  0  0  0  0  0
  152.3726  143.9449  161.7064 H   0  0  0  0  0  0  0  0  0  0  0  0
  151.1688  146.1490  160.6438 H   0  0  0  0  0  0  0  0  0  0  0  0
  151.6464  145.8715  157.9278 H   0  0  0  0  0  0  0  0  0  0  0  0
  1  2  1  0  0  0  0
  1 21  1  0  0  0  0
  1 22  1  0  0  0  0
  1 23  1  0  0  0  0
  2  3  1  0  0  0  0
  2 16  1  0  0  0  0
  2 24  1  0  0  0  0
  3  4  2  0  0  0  0
  3  5  1  0  0  0  0
  5  6  1  0  0  0  0
  5 25  1  0  0  0  0
  6 15  1  0  0  0  0
  6  7  1  0  0  0  0
  6 26  1  0  0  0  0
  7  8  1  0  0  0  0
  7 27  1  0  0  0  0
  7 28  1  0  0  0  0
  8  9  1  0  0  0  0
  8 29  1  0  0  0  0
  8 30  1  0  0  0  0
  9 10  1  0  0  0  0
  9 14  1  0  0  0  0
 10 11  1  0  0  0  0
 10 31  1  0  0  0  0
 10 32  1  0  0  0  0
 11 12  1  0  0  0  0
 11 13  2  0  0  0  0
 12 33  1  0  0  0  0
 12 34  1  0  0  0  0
 14 15  1  0  0  0  0
 14 35  1  0  0  0  0
 14 36  1  0  0  0  0
 15 37  1  0  0  0  0
 15 38  1  0  0  0  0
 16 20  1  0  0  0  0
 16 17  1  0  0  0  0
 17 18  2  0  0  0  0
 17 39  1  0  0  0  0
 18 19  1  0  0  0  0
 18 40  1  0  0  0  0
 19 20  2  0  0  0  0
 19 41  1  0  0  0  0
M  END
> <s_m_source_file>
AV-unprocessed.smi

> <i_m_source_file_index>
560

> <i_lp_mmshare_version>
43012

> <i_f3d_flags>
0

> <s_epik_input>
bjFbY0hdW2NIXVtjSF1uMVtDQEhdKFtDSDNdKUMoPU8pW05IXVtDSF0yW0NIMl1bQ0gyXU4oW0NIMl1bQ0gyXTIpW0NIMl1DKD1PKVtOSDJd

> <s_epik_cmdline>
J2VwaWtfcHl0aG9uJywgJy1waCcsICc3LjAnLCAnLXRuJywgJzgnLCAnLW1hJywgJzIwMCcsICctbWV0YWxfYmluZGluZycsICctaW1hZScsICc8aW5maWxlLm1hZT4nLCAnLW9tYWUnLCAnPG91dGZpbGUubWFlPic=

> <r_lp_tautomer_probability>
1

> <r_epik_Ionization_Penalty>
0.114724

> <r_epik_Ionization_Penalty_Charging>
0

> <r_epik_Ionization_Penalty_Neutral>
0.114724

> <r_epik_State_Penalty>
0.104339

> <r_epik_Charging_Adjusted_Penalty>
0.104339

> <i_epik_Tot_Q>
0

> <i_epik_Tot_abs_Q>
0

> <r_epik_Metal_State_Penalty>
0.117437

> <b_epik_Metal_Only>
0

> <s_lp_Force_Field>
OPLS_2005

> <r_lp_Energy>
15.5431

> <b_lp_Chiralities_Consistent>
1

> <s_lp_Variant>
AV-unprocessed.smi:560-2

> <Gold.Version>
5.8.1

> <Gold.Id.Protein>
6NUR|6NUR_protein|mol2

> <Gold.PLP.Fitness>
48.2933

> <Gold.PLP.PLP>
-43.2045

> <Gold.PLP.part.hbond>
-2.0000

> <Gold.PLP.part.metal>
0.0000

> <Gold.PLP.part.buried>
-6.3620

> <Gold.PLP.part.nonpolar>
-35.4958

> <Gold.PLP.part.repulsive>
0.3604

> <Gold.PLP.ligand.clash>
0.0000

> <Gold.PLP.ligand.torsion>
0.4974

> <Gold.PLP.Chemscore.Hbond>
1.9840

> <Gold.PLP.Chemscore.CHOScore>
0.0000

> <Gold.PLP.Chemscore.Metal>
0.0000

> <Gold.Chemscore.Hbonds>
donor molecule, donor type, donor heavy atom, donor atom, acceptor molecule, acceptor atom, score
      L1  H    12    33       P1 10175  1.00
      P1  H  7997  8009       L1     4  0.96

> <Gold.PLP.Chemscore.Internal.Correction>
0.1315

> <Gold.Rescore>
     Score         DG    S(hbond)    S(metal)    S(lipo)     H(rot)  DE(clash)    DE(int)     intcor
     14.19     -16.17       1.95        0.00      89.95       2.48       0.09       1.89       ----

> <Gold.Chemscore.Fitness>
14.1923

> <Gold.Chemscore.DG>
-16.1676

> <Gold.Chemscore.ZeroCoef>
-5.4800

> <Gold.Chemscore.Hbond>
1.9474

> <Gold.Chemscore.Metal>
0.0000

> <Gold.Chemscore.Lipo>
89.9486

> <Gold.Chemscore.Internal_Hbond>
0.0000

> <Gold.Chemscore.DEClash>
0.0864

> <Gold.Chemscore.DEInternal>
1.8889

> <Gold.Chemscore.Rot>
2.4768

> <Gold.Chemscore.Internal.Correction>
   9.000000E+99

> <Gold.Chemscore.Hbonds>
donor molecule, donor type, donor heavy atom, donor atom, acceptor molecule, acceptor atom, score
      L1  H    12    33       P1 10175  1.00
      P1  H  7997  8009       L1     4  0.91

> <Gold.Chemscore.Hbond.Weighted>
-6.5043

> <Gold.Chemscore.Metal.Weighted>
-0.0000

> <Gold.Chemscore.Lipo.Weighted>
-10.5240

> <Gold.Chemscore.Internal_Hbond.Weighted>
0.0000

> <Gold.Chemscore.DEClash.Weighted>
0.0864

> <Gold.Chemscore.DEInternal.Weighted>
1.8889

> <Gold.Chemscore.Rot.Weighted>
6.3406

> <Gold.Chemscore.Internal.Correction.Weighted>
   9.000000E+99

> <Gold.Protein.RotatedTorsions>
[ 6907 6896 6895 6894 ] final   -3.70 input  -60.11 | X-H torsion
[ 7974 7965 7964 7962 ] final   70.39 input  175.53 | X-H torsion
[ 8008 7997 7996 7995 ] final  140.50 input   59.86 | X-H torsion
[ 10167 10162 10161 10158 ] final   -3.44 input  -65.29 | X-H torsion
[ 10718 10713 10712 10709 ] final -138.59 input   66.30 | X-H torsion
[ 10763 10752 10751 10750 ] final -113.88 input  -60.55 | X-H torsion
[ 11005 11000 10999 10996 ] final  -18.03 input  -57.11 | X-H torsion

> <Gold.Protein.ActiveResidues>
 VAL166  LYS551  ARG553  GLY616  TRP617  ASP618  TYR619  PRO620  LYS621  CYS622 
 ASP623  PHE694  ASN695  SER759  ASP760  ASP761  ALA762  ILE779  LEU786  VAL792 
 PHE793  MET794  SER795  GLU796  ALA797  LYS798  CYS799  TRP800  GLU811  SER814 

> <Gold.Protein.RotatedAtoms>
  151.5096  135.1064  159.9850 H   0  0  0  0  0  0  0  0  0  0  0  0  # atno 6907 bound_to 6896
  152.4667  133.7935  159.6925 H   0  0  0  0  0  0  0  0  0  0  0  0  # atno 6908 bound_to 6896
  150.8654  133.7518  159.3004 H   0  0  0  0  0  0  0  0  0  0  0  0  # atno 6909 bound_to 6896
  145.7787  139.2877  143.1278 H   0  0  0  0  0  0  0  0  0  0  0  0  # atno 7974 bound_to 7965
  156.2978  140.2340  156.4411 H   0  0  0  0  0  0  0  0  0  0  0  0  # atno 8008 bound_to 7997
  154.8185  140.0439  157.1414 H   0  0  0  0  0  0  0  0  0  0  0  0  # atno 8009 bound_to 7997
  154.9342  140.3020  155.5156 H   0  0  0  0  0  0  0  0  0  0  0  0  # atno 8010 bound_to 7997
  140.6890  143.6540  150.8325 H   0  0  0  0  0  0  0  0  0  0  0  0  # atno 10167 bound_to 10162
  156.3011  130.7429  151.1481 H   0  0  0  0  0  0  0  0  0  0  0  0  # atno 10718 bound_to 10713
  154.8416  135.4438  154.1419 H   0  0  0  0  0  0  0  0  0  0  0  0  # atno 10763 bound_to 10752
  153.2602  135.6935  153.7593 H   0  0  0  0  0  0  0  0  0  0  0  0  # atno 10764 bound_to 10752
  153.6872  135.3393  155.3168 H   0  0  0  0  0  0  0  0  0  0  0  0  # atno 10765 bound_to 10752
  140.8228  133.8056  155.9677 H   0  0  0  0  0  0  0  0  0  0  0  0  # atno 11005 bound_to 11000
  146.0096  140.8448  142.9978 LP  0  0  0  0  0  0  0  0  0  0  0  0  # atno 17320 bound_to 7965
  144.6800  140.2470  143.7336 LP  0  0  0  0  0  0  0  0  0  0  0  0  # atno 17321 bound_to 7965
  140.0250  143.5502  152.2784 LP  0  0  0  0  0  0  0  0  0  0  0  0  # atno 17342 bound_to 10162
  139.6274  144.7639  151.2608 LP  0  0  0  0  0  0  0  0  0  0  0  0  # atno 17343 bound_to 10162
  157.7368  131.0558  150.5393 LP  0  0  0  0  0  0  0  0  0  0  0  0  # atno 17370 bound_to 10713
  156.5520  130.4234  149.6103 LP  0  0  0  0  0  0  0  0  0  0  0  0  # atno 17371 bound_to 10713
  140.9081  134.2294  157.5002 LP  0  0  0  0  0  0  0  0  0  0  0  0  # atno 17394 bound_to 11000
  139.8708  134.9737  156.4821 LP  0  0  0  0  0  0  0  0  0  0  0  0  # atno 17395 bound_to 11000

$$$$
