AV-unprocessed.smi:2030|AV-procd|sdf|8226|dock2
  -GOLD-   2272010493D 1   1.00000     0.00000
 Structure written by MMmdl.
 34 35  0  0  0  0  0  0  0  0  2 V2000
  145.0149  139.5775  155.8749 C   0  0  0  0  0  0  0  0  0  0  0  0
  146.0528  140.4134  155.2755 N   0  0  0  0  0  0  0  0  0  0  0  0
  147.2556  139.7741  155.0605 N   0  0  0  0  0  0  0  0  0  0  0  0
  148.3377  140.4168  154.7477 C   0  0  0  0  0  0  0  0  0  0  0  0
  149.6126  139.6630  154.5519 C   0  0  0  0  0  0  0  0  0  0  0  0
  149.4897  138.5349  154.0589 O   0  0  0  0  0  0  0  0  0  0  0  0
  150.7862  140.2604  154.9159 N   0  5  0  0  0  0  0  0  0  0  0  0
  151.1389  140.6738  156.2744 C   0  0  0  0  0  0  0  0  0  0  0  0
  151.0141  142.2080  156.4292 C   0  0  0  0  0  0  0  0  0  0  0  0
  151.5664  142.7816  157.7330 C   0  0  0  0  0  0  0  0  0  0  0  0
  151.6222  144.1796  157.9371 C   0  0  0  0  0  0  0  0  0  0  0  0
  152.1317  144.6645  159.1568 C   0  0  0  0  0  0  0  0  0  0  0  0
  152.5611  143.7406  160.1283 C   0  0  0  0  0  0  0  0  0  0  0  0
  152.4585  142.3663  159.8363 C   0  0  0  0  0  0  0  0  0  0  0  0
  151.9675  141.8906  158.6727 N   0  0  0  0  0  0  0  0  0  0  0  0
  148.3170  141.9300  154.6181 C   0  0  0  0  0  0  0  0  0  0  0  0
  146.9210  142.4640  154.2407 C   0  0  0  0  0  0  0  0  0  0  0  0
  145.7968  141.7038  154.9487 C   0  0  0  0  0  0  0  0  0  0  0  0
  144.7228  142.2652  155.1668 O   0  0  0  0  0  0  0  0  0  0  0  0
  144.7079  139.9821  156.8401 H   0  0  0  0  0  0  0  0  0  0  0  0
  145.3582  138.5549  156.0401 H   0  0  0  0  0  0  0  0  0  0  0  0
  144.1377  139.5286  155.2284 H   0  0  0  0  0  0  0  0  0  0  0  0
  150.5165  140.1868  157.0265 H   0  0  0  0  0  0  0  0  0  0  0  0
  152.1647  140.3892  156.5122 H   0  0  0  0  0  0  0  0  0  0  0  0
  151.5415  142.6875  155.6039 H   0  0  0  0  0  0  0  0  0  0  0  0
  149.9702  142.5069  156.3210 H   0  0  0  0  0  0  0  0  0  0  0  0
  151.2879  144.8643  157.1716 H   0  0  0  0  0  0  0  0  0  0  0  0
  152.1919  145.7264  159.3435 H   0  0  0  0  0  0  0  0  0  0  0  0
  152.9589  144.0765  161.0742 H   0  0  0  0  0  0  0  0  0  0  0  0
  152.7762  141.6288  160.5586 H   0  0  0  0  0  0  0  0  0  0  0  0
  148.6445  142.3744  155.5584 H   0  0  0  0  0  0  0  0  0  0  0  0
  149.0225  142.2646  153.8569 H   0  0  0  0  0  0  0  0  0  0  0  0
  146.8506  143.5299  154.4599 H   0  0  0  0  0  0  0  0  0  0  0  0
  146.7645  142.3526  153.1671 H   0  0  0  0  0  0  0  0  0  0  0  0
  1  2  1  0  0  0  0
  1 20  1  0  0  0  0
  1 21  1  0  0  0  0
  1 22  1  0  0  0  0
  2 18  1  0  0  0  0
  2  3  1  0  0  0  0
  3  4  2  0  0  0  0
  4  5  1  0  0  0  0
  4 16  1  0  0  0  0
  5  6  2  0  0  0  0
  5  7  1  0  0  0  0
  7  8  1  0  0  0  0
  8  9  1  0  0  0  0
  8 23  1  0  0  0  0
  8 24  1  0  0  0  0
  9 10  1  0  0  0  0
  9 25  1  0  0  0  0
  9 26  1  0  0  0  0
 10 15  1  0  0  0  0
 10 11  2  0  0  0  0
 11 12  1  0  0  0  0
 11 27  1  0  0  0  0
 12 13  2  0  0  0  0
 12 28  1  0  0  0  0
 13 14  1  0  0  0  0
 13 29  1  0  0  0  0
 14 15  2  0  0  0  0
 14 30  1  0  0  0  0
 16 17  1  0  0  0  0
 16 31  1  0  0  0  0
 16 32  1  0  0  0  0
 17 18  1  0  0  0  0
 17 33  1  0  0  0  0
 17 34  1  0  0  0  0
 18 19  2  0  0  0  0
M  CHG  1   7  -1
M  END
> <s_m_source_file>
AV-unprocessed.smi

> <i_m_source_file_index>
2030

> <i_lp_mmshare_version>
43012

> <i_f3d_flags>
0

> <s_epik_input>
Tz1DMVtDSDJdW0NIMl1DKD1OTjFbQ0gzXSlDKD1PKVtOSF1bQ0gyXVtDSDJdYzJbY0hdW2NIXVtjSF1bY0hdbjI=

> <s_epik_cmdline>
J2VwaWtfcHl0aG9uJywgJy1waCcsICc3LjAnLCAnLXRuJywgJzgnLCAnLW1hJywgJzIwMCcsICctbWV0YWxfYmluZGluZycsICctaW1hZScsICc8aW5maWxlLm1hZT4nLCAnLW9tYWUnLCAnPG91dGZpbGUubWFlPic=

> <r_epik_Ionization_Penalty>
5.44594

> <r_epik_Ionization_Penalty_Charging>
5.3715

> <r_epik_Ionization_Penalty_Neutral>
0.0744438

> <r_epik_State_Penalty>
5.38529

> <r_epik_Charging_Adjusted_Penalty>
10.7568

> <i_epik_Tot_Q>
-1

> <i_epik_Tot_abs_Q>
1

> <r_epik_Metal_State_Penalty>
1.42988

> <b_epik_Metal_Only>
1

> <s_epik_Chemistry_Notes>
This compound has an imine and may undergo hydrolysis.

> <s_lp_Force_Field>
OPLS_2005

> <r_lp_Energy>
26.3213

> <b_lp_Chiralities_Consistent>
1

> <s_lp_Variant>
AV-unprocessed.smi:2030-3

> <Gold.Version>
5.8.1

> <Gold.Id.Protein>
6NUR|6NUR_protein|mol2

> <Gold.PLP.Fitness>
38.9967

> <Gold.PLP.PLP>
-38.3531

> <Gold.PLP.part.hbond>
-1.0000

> <Gold.PLP.part.metal>
0.0000

> <Gold.PLP.part.buried>
-4.8007

> <Gold.PLP.part.nonpolar>
-33.1429

> <Gold.PLP.part.repulsive>
0.5233

> <Gold.PLP.ligand.clash>
0.0000

> <Gold.PLP.ligand.torsion>
1.2035

> <Gold.PLP.Chemscore.Hbond>
1.0000

> <Gold.PLP.Chemscore.CHOScore>
0.0000

> <Gold.PLP.Chemscore.Metal>
0.0000

> <Gold.Chemscore.Hbonds>
donor molecule, donor type, donor heavy atom, donor atom, acceptor molecule, acceptor atom, score
      P1  H  7989  7998       L1     7  1.00

> <Gold.PLP.Chemscore.Internal.Correction>
0.0507

> <Gold.Rescore>
     Score         DG    S(hbond)    S(metal)    S(lipo)     H(rot)  DE(clash)    DE(int)     intcor
     14.95     -16.18       0.85        0.00      98.10       1.42       0.08       1.14       ----

> <Gold.Chemscore.Fitness>
14.9526

> <Gold.Chemscore.DG>
-16.1753

> <Gold.Chemscore.ZeroCoef>
-5.4800

> <Gold.Chemscore.Hbond>
0.8524

> <Gold.Chemscore.Metal>
0.0000

> <Gold.Chemscore.Lipo>
98.1016

> <Gold.Chemscore.Internal_Hbond>
0.0000

> <Gold.Chemscore.DEClash>
0.0777

> <Gold.Chemscore.DEInternal>
1.1450

> <Gold.Chemscore.Rot>
1.4178

> <Gold.Chemscore.Internal.Correction>
   9.000000E+99

> <Gold.Chemscore.Hbonds>
donor molecule, donor type, donor heavy atom, donor atom, acceptor molecule, acceptor atom, score
      P1  H  7989  7998       L1     7  0.77

> <Gold.Chemscore.Hbond.Weighted>
-2.8469

> <Gold.Chemscore.Metal.Weighted>
-0.0000

> <Gold.Chemscore.Lipo.Weighted>
-11.4779

> <Gold.Chemscore.Internal_Hbond.Weighted>
0.0000

> <Gold.Chemscore.DEClash.Weighted>
0.0777

> <Gold.Chemscore.DEInternal.Weighted>
1.1450

> <Gold.Chemscore.Rot.Weighted>
3.6295

> <Gold.Chemscore.Internal.Correction.Weighted>
   9.000000E+99

> <Gold.Protein.RotatedTorsions>
[ 6907 6896 6895 6894 ] final  142.26 input  -60.11 | X-H torsion
[ 7974 7965 7964 7962 ] final   -7.12 input  175.53 | X-H torsion
[ 8008 7997 7996 7995 ] final   -4.02 input   59.86 | X-H torsion
[ 10167 10162 10161 10158 ] final  -95.18 input  -65.29 | X-H torsion
[ 10718 10713 10712 10709 ] final  -57.01 input   66.30 | X-H torsion
[ 10763 10752 10751 10750 ] final    5.41 input  -60.55 | X-H torsion
[ 11005 11000 10999 10996 ] final  140.22 input  -57.11 | X-H torsion

> <Gold.Protein.ActiveResidues>
 VAL166  LYS551  ARG553  GLY616  TRP617  ASP618  TYR619  PRO620  LYS621  CYS622 
 ASP623  PHE694  ASN695  SER759  ASP760  ASP761  ALA762  ILE779  LEU786  VAL792 
 PHE793  MET794  SER795  GLU796  ALA797  LYS798  CYS799  TRP800  GLU811  SER814 

> <Gold.Protein.RotatedAtoms>
  152.2209  133.4982  159.5161 H   0  0  0  0  0  0  0  0  0  0  0  0  # atno 6907 bound_to 6896
  150.7012  134.1344  159.4091 H   0  0  0  0  0  0  0  0  0  0  0  0  # atno 6908 bound_to 6896
  151.9265  135.0275  160.0576 H   0  0  0  0  0  0  0  0  0  0  0  0  # atno 6909 bound_to 6896
  146.2314  140.2272  142.8339 H   0  0  0  0  0  0  0  0  0  0  0  0  # atno 7974 bound_to 7965
  154.6187  140.2494  155.7576 H   0  0  0  0  0  0  0  0  0  0  0  0  # atno 8008 bound_to 7997
  156.2414  140.2931  156.0404 H   0  0  0  0  0  0  0  0  0  0  0  0  # atno 8009 bound_to 7997
  155.1932  140.0392  157.2894 H   0  0  0  0  0  0  0  0  0  0  0  0  # atno 8010 bound_to 7997
  140.3068  143.3129  152.0190 H   0  0  0  0  0  0  0  0  0  0  0  0  # atno 10167 bound_to 10162
  156.1244  130.4164  150.0383 H   0  0  0  0  0  0  0  0  0  0  0  0  # atno 10718 bound_to 10713
  153.2598  135.6922  153.7591 H   0  0  0  0  0  0  0  0  0  0  0  0  # atno 10763 bound_to 10752
  153.6654  135.3353  155.3139 H   0  0  0  0  0  0  0  0  0  0  0  0  # atno 10764 bound_to 10752
  154.8426  135.4487  154.1584 H   0  0  0  0  0  0  0  0  0  0  0  0  # atno 10765 bound_to 10752
  140.0311  134.9351  157.0665 H   0  0  0  0  0  0  0  0  0  0  0  0  # atno 11005 bound_to 11000
  144.9586  140.8252  143.5527 LP  0  0  0  0  0  0  0  0  0  0  0  0  # atno 17320 bound_to 7965
  145.2240  139.2145  143.5078 LP  0  0  0  0  0  0  0  0  0  0  0  0  # atno 17321 bound_to 7965
  139.4902  144.6414  151.6868 LP  0  0  0  0  0  0  0  0  0  0  0  0  # atno 17342 bound_to 10162
  140.5603  144.0280  150.6166 LP  0  0  0  0  0  0  0  0  0  0  0  0  # atno 17343 bound_to 10162
  156.8312  130.9393  151.3637 LP  0  0  0  0  0  0  0  0  0  0  0  0  # atno 17370 bound_to 10713
  157.6426  130.8818  149.9477 LP  0  0  0  0  0  0  0  0  0  0  0  0  # atno 17371 bound_to 10713
  140.4223  134.1867  155.7165 LP  0  0  0  0  0  0  0  0  0  0  0  0  # atno 17394 bound_to 11000
  141.1831  133.8370  157.1184 LP  0  0  0  0  0  0  0  0  0  0  0  0  # atno 17395 bound_to 11000

$$$$
