AV-unprocessed.smi:99|AV-procd|sdf|871|dock6
  -GOLD-   2262017333D 1   1.00000     0.00000
 Structure written by MMmdl.
 53 56  0  0  0  0  0  0  0  0  1 V2000
  148.9673  133.4944  158.5510 O   0  0  0  0  0  0  0  0  0  0  0  0
  147.7414  133.4076  158.6492 C   0  0  0  0  0  0  0  0  0  0  0  0
  146.9371  133.0360  157.6339 O   0  0  0  0  0  0  0  0  0  0  0  0
  147.4140  133.0824  156.2995 C   0  0  0  0  0  0  0  0  0  0  0  0
  146.8045  134.2925  155.5852 C   0  0  2  0  0  0  0  0  0  0  0  0
  145.6430  133.8997  154.8722 O   0  0  0  0  0  0  0  0  0  0  0  0
  145.4131  134.8037  153.8387 C   0  0  2  0  0  0  0  0  0  0  0  0
  144.8725  134.0247  152.6593 N   0  0  0  0  0  0  0  0  0  0  0  0
  145.5193  132.8779  152.2193 C   0  0  0  0  0  0  0  0  0  0  0  0
  145.0778  132.1332  151.1783 C   0  0  0  0  0  0  0  0  0  0  0  0
  143.8685  132.5156  150.4564 C   0  0  0  0  0  0  0  0  0  0  0  0
  143.3887  131.9048  149.5037 O   0  0  0  0  0  0  0  0  0  0  0  0
  143.2522  133.6776  150.9308 N   0  0  0  0  0  0  0  0  0  0  0  0
  143.6996  134.4553  152.0006 C   0  0  0  0  0  0  0  0  0  0  0  0
  143.0807  135.4688  152.3228 O   0  0  0  0  0  0  0  0  0  0  0  0
  146.7410  135.5353  153.5373 C   0  0  2  0  0  0  0  0  0  0  0  0
  147.1999  135.4137  152.2028 O   0  0  0  0  0  0  0  0  0  0  0  0
  147.7167  134.8710  154.5029 C   0  0  1  0  0  0  0  0  0  0  0  0
  148.5880  135.8342  155.0831 O   0  0  0  0  0  0  0  0  0  0  0  0
  149.7830  135.4651  155.5921 C   0  0  0  0  0  0  0  0  0  0  0  0
  150.0027  134.3568  156.0845 O   0  0  0  0  0  0  0  0  0  0  0  0
  150.8134  136.5381  155.4907 C   0  0  0  0  0  0  0  0  0  0  0  0
  152.1444  136.2590  155.8794 C   0  0  0  0  0  0  0  0  0  0  0  0
  153.1410  137.2500  155.7891 C   0  0  0  0  0  0  0  0  0  0  0  0
  152.8191  138.5322  155.3077 C   0  0  0  0  0  0  0  0  0  0  0  0
  151.4987  138.8227  154.9176 C   0  0  0  0  0  0  0  0  0  0  0  0
  150.5002  137.8331  155.0085 C   0  0  0  0  0  0  0  0  0  0  0  0
  146.9931  133.7039  159.9051 C   0  0  0  0  0  0  0  0  0  0  0  0
  147.5553  134.5899  160.8537 C   0  0  0  0  0  0  0  0  0  0  0  0
  146.8731  134.8882  162.0493 C   0  0  0  0  0  0  0  0  0  0  0  0
  145.6204  134.3036  162.3113 C   0  0  0  0  0  0  0  0  0  0  0  0
  145.0505  133.4202  161.3760 C   0  0  0  0  0  0  0  0  0  0  0  0
  145.7313  133.1209  160.1797 C   0  0  0  0  0  0  0  0  0  0  0  0
  142.4142  133.9820  150.4571 H   0  0  0  0  0  0  0  0  0  0  0  0
  148.5012  133.1703  156.3163 H   0  0  0  0  0  0  0  0  0  0  0  0
  147.1651  132.1625  155.7684 H   0  0  0  0  0  0  0  0  0  0  0  0
  146.5298  135.0722  156.2985 H   0  0  0  0  0  0  0  0  0  0  0  0
  144.6323  135.4885  154.1728 H   0  0  0  0  0  0  0  0  0  0  0  0
  146.4228  132.5621  152.7215 H   0  0  0  0  0  0  0  0  0  0  0  0
  145.6227  131.2500  150.8774 H   0  0  0  0  0  0  0  0  0  0  0  0
  146.6035  136.5896  153.7818 H   0  0  0  0  0  0  0  0  0  0  0  0
  148.0646  135.0322  152.2153 H   0  0  0  0  0  0  0  0  0  0  0  0
  148.2528  134.0556  154.0134 H   0  0  0  0  0  0  0  0  0  0  0  0
  152.4164  135.2814  156.2513 H   0  0  0  0  0  0  0  0  0  0  0  0
  154.1539  137.0248  156.0891 H   0  0  0  0  0  0  0  0  0  0  0  0
  153.5841  139.2915  155.2370 H   0  0  0  0  0  0  0  0  0  0  0  0
  151.2509  139.8063  154.5467 H   0  0  0  0  0  0  0  0  0  0  0  0
  149.4976  138.0887  154.6981 H   0  0  0  0  0  0  0  0  0  0  0  0
  148.5162  135.0511  160.6750 H   0  0  0  0  0  0  0  0  0  0  0  0
  147.3120  135.5665  162.7660 H   0  0  0  0  0  0  0  0  0  0  0  0
  145.0973  134.5321  163.2282 H   0  0  0  0  0  0  0  0  0  0  0  0
  144.0891  132.9707  161.5765 H   0  0  0  0  0  0  0  0  0  0  0  0
  145.2658  132.4381  159.4840 H   0  0  0  0  0  0  0  0  0  0  0  0
  1  2  2  0  0  0  0
  2  3  1  0  0  0  0
  2 28  1  0  0  0  0
  3  4  1  0  0  0  0
  4  5  1  0  0  0  0
  4 35  1  0  0  0  0
  4 36  1  0  0  0  0
  5 18  1  0  0  0  0
  5  6  1  0  0  0  0
  5 37  1  0  0  0  0
  6  7  1  0  0  0  0
  7  8  1  0  0  0  0
  7 16  1  0  0  0  0
  7 38  1  0  0  0  0
  8 14  1  0  0  0  0
  8  9  1  0  0  0  0
  9 10  2  0  0  0  0
  9 39  1  0  0  0  0
 10 11  1  0  0  0  0
 10 40  1  0  0  0  0
 11 12  2  0  0  0  0
 11 13  1  0  0  0  0
 13 34  1  0  0  0  0
 13 14  1  0  0  0  0
 14 15  2  0  0  0  0
 16 17  1  0  0  0  0
 16 18  1  0  0  0  0
 16 41  1  0  0  0  0
 17 42  1  0  0  0  0
 18 19  1  0  0  0  0
 18 43  1  0  0  0  0
 19 20  1  0  0  0  0
 20 21  2  0  0  0  0
 20 22  1  0  0  0  0
 22 27  1  0  0  0  0
 22 23  2  0  0  0  0
 23 24  1  0  0  0  0
 23 44  1  0  0  0  0
 24 25  2  0  0  0  0
 24 45  1  0  0  0  0
 25 26  1  0  0  0  0
 25 46  1  0  0  0  0
 26 27  2  0  0  0  0
 26 47  1  0  0  0  0
 27 48  1  0  0  0  0
 28 33  1  0  0  0  0
 28 29  2  0  0  0  0
 29 30  1  0  0  0  0
 29 49  1  0  0  0  0
 30 31  2  0  0  0  0
 30 50  1  0  0  0  0
 31 32  1  0  0  0  0
 31 51  1  0  0  0  0
 32 33  2  0  0  0  0
 32 52  1  0  0  0  0
 33 53  1  0  0  0  0
M  END
> <s_m_source_file>
AV-unprocessed.smi

> <i_m_source_file_index>
99

> <i_lp_mmshare_version>
43012

> <i_f3d_flags>
0

> <s_epik_input>
W2NIXTFbY0hdW2NIXVtjSF1bY0hdYzFDKD1PKU9bQ0gyXVtDQEBIXTJPW0NAQEhdKG4zW2NIXVtjSF1jKD1PKVtuSF1jMz1PKVtDQEBIXShbT0hdKVtDQEhdMk9DKD1PKWM0W2NIXVtjSF1bY0hdW2NIXVtjSF00

> <s_epik_cmdline>
J2VwaWtfcHl0aG9uJywgJy1waCcsICc3LjAnLCAnLXRuJywgJzgnLCAnLW1hJywgJzIwMCcsICctbWV0YWxfYmluZGluZycsICctaW1hZScsICc8aW5maWxlLm1hZT4nLCAnLW9tYWUnLCAnPG91dGZpbGUubWFlPic=

> <r_lp_tautomer_probability>
1

> <r_epik_Ionization_Penalty>
0.00454555

> <r_epik_Ionization_Penalty_Charging>
0.0045191

> <r_epik_Ionization_Penalty_Neutral>
2.64449e-05

> <r_epik_State_Penalty>
-0

> <r_epik_Charging_Adjusted_Penalty>
0.0045191

> <i_epik_Tot_Q>
0

> <i_epik_Tot_abs_Q>
0

> <r_epik_Metal_State_Penalty>
1.27877

> <b_epik_Metal_Only>
0

> <s_epik_Chemistry_Notes>
This compound has an ester and may undergo hydrolysis at high or low pH. This compound contains an acetal/aminal-like group ( X-CH(R)-Y where X, Y are N, S, or O) that may be acid/base labile, releasing an aldehyde.

> <s_lp_Force_Field>
OPLS_2005

> <r_lp_Energy>
38.4241

> <b_lp_Chiralities_Consistent>
1

> <s_lp_Variant>
AV-unprocessed.smi:99-7

> <Gold.Version>
5.8.1

> <Gold.Id.Protein>
6NUR|6NUR_protein|mol2

> <Gold.PLP.Fitness>
47.5667

> <Gold.PLP.PLP>
-39.5348

> <Gold.PLP.part.hbond>
-3.4800

> <Gold.PLP.part.metal>
0.0000

> <Gold.PLP.part.buried>
-4.7215

> <Gold.PLP.part.nonpolar>
-32.8364

> <Gold.PLP.part.repulsive>
1.6114

> <Gold.PLP.ligand.clash>
0.0000

> <Gold.PLP.ligand.torsion>
2.1199

> <Gold.PLP.Chemscore.Hbond>
3.9357

> <Gold.PLP.Chemscore.CHOScore>
0.0000

> <Gold.PLP.Chemscore.Metal>
0.0000

> <Gold.Chemscore.Hbonds>
donor molecule, donor type, donor heavy atom, donor atom, acceptor molecule, acceptor atom, score
      L1  H    13    34       P1 10186  1.00
      L1  H    17    42       P1  7948  0.07
      P1  H  6896  6909       L1     1  1.00
      P1  H 10785 10796       L1    12  1.00

> <Gold.PLP.Chemscore.Internal.Correction>
0.4644

> <Gold.Rescore>
     Score         DG    S(hbond)    S(metal)    S(lipo)     H(rot)  DE(clash)    DE(int)     intcor
     17.41     -20.21       3.88        0.00      84.88       3.19       0.11       2.69       ----

> <Gold.Chemscore.Fitness>
17.4089

> <Gold.Chemscore.DG>
-20.2140

> <Gold.Chemscore.ZeroCoef>
-5.4800

> <Gold.Chemscore.Hbond>
3.8834

> <Gold.Chemscore.Metal>
0.0000

> <Gold.Chemscore.Lipo>
84.8773

> <Gold.Chemscore.Internal_Hbond>
0.0000

> <Gold.Chemscore.DEClash>
0.1110

> <Gold.Chemscore.DEInternal>
2.6942

> <Gold.Chemscore.Rot>
3.1903

> <Gold.Chemscore.Internal.Correction>
   9.000000E+99

> <Gold.Chemscore.Hbonds>
donor molecule, donor type, donor heavy atom, donor atom, acceptor molecule, acceptor atom, score
      L1  H    13    34       P1 10186  0.88
      L1  H    17    42       P1  7948  0.06
      P1  H  6896  6909       L1     1  0.96
      P1  H 10785 10796       L1    12  0.97

> <Gold.Chemscore.Hbond.Weighted>
-12.9705

> <Gold.Chemscore.Metal.Weighted>
-0.0000

> <Gold.Chemscore.Lipo.Weighted>
-9.9306

> <Gold.Chemscore.Internal_Hbond.Weighted>
0.0000

> <Gold.Chemscore.DEClash.Weighted>
0.1110

> <Gold.Chemscore.DEInternal.Weighted>
2.6942

> <Gold.Chemscore.Rot.Weighted>
8.1671

> <Gold.Chemscore.Internal.Correction.Weighted>
   9.000000E+99

> <Gold.Protein.RotatedTorsions>
[ 6907 6896 6895 6894 ] final   -2.60 input  -60.11 | X-H torsion
[ 7974 7965 7964 7962 ] final  157.64 input  175.53 | X-H torsion
[ 8008 7997 7996 7995 ] final  -30.02 input   59.86 | X-H torsion
[ 10167 10162 10161 10158 ] final  149.25 input  -65.29 | X-H torsion
[ 10718 10713 10712 10709 ] final -118.05 input   66.30 | X-H torsion
[ 10763 10752 10751 10750 ] final   91.79 input  -60.55 | X-H torsion
[ 11005 11000 10999 10996 ] final -155.08 input  -57.11 | X-H torsion

> <Gold.Protein.ActiveResidues>
 VAL166  LYS551  ARG553  GLY616  TRP617  ASP618  TYR619  PRO620  LYS621  CYS622 
 ASP623  PHE694  ASN695  SER759  ASP760  ASP761  ALA762  ILE779  LEU786  VAL792 
 PHE793  MET794  SER795  GLU796  ALA797  LYS798  CYS799  TRP800  GLU811  SER814 

> <Gold.Protein.RotatedAtoms>
  151.5273  135.1068  159.9893 H   0  0  0  0  0  0  0  0  0  0  0  0  # atno 6907 bound_to 6896
  152.4594  133.7786  159.6849 H   0  0  0  0  0  0  0  0  0  0  0  0  # atno 6908 bound_to 6896
  150.8550  133.7664  159.3037 H   0  0  0  0  0  0  0  0  0  0  0  0  # atno 6909 bound_to 6896
  144.7891  139.7368  143.6228 H   0  0  0  0  0  0  0  0  0  0  0  0  # atno 7974 bound_to 7965
  154.4266  140.1802  156.1341 H   0  0  0  0  0  0  0  0  0  0  0  0  # atno 8008 bound_to 7997
  156.0044  140.3357  155.6853 H   0  0  0  0  0  0  0  0  0  0  0  0  # atno 8009 bound_to 7997
  155.6198  140.0658  157.2672 H   0  0  0  0  0  0  0  0  0  0  0  0  # atno 8010 bound_to 7997
  139.4864  144.5616  151.7221 H   0  0  0  0  0  0  0  0  0  0  0  0  # atno 10167 bound_to 10162
  156.1078  130.6224  150.9242 H   0  0  0  0  0  0  0  0  0  0  0  0  # atno 10718 bound_to 10713
  153.2121  135.4385  155.0391 H   0  0  0  0  0  0  0  0  0  0  0  0  # atno 10763 bound_to 10752
  154.8205  135.3335  154.7054 H   0  0  0  0  0  0  0  0  0  0  0  0  # atno 10764 bound_to 10752
  153.7491  135.6999  153.5005 H   0  0  0  0  0  0  0  0  0  0  0  0  # atno 10765 bound_to 10752
  140.6904  134.4048  157.5220 H   0  0  0  0  0  0  0  0  0  0  0  0  # atno 11005 bound_to 11000
  146.2136  139.5510  142.9665 LP  0  0  0  0  0  0  0  0  0  0  0  0  # atno 17320 bound_to 7965
  145.5841  141.0378  143.2106 LP  0  0  0  0  0  0  0  0  0  0  0  0  # atno 17321 bound_to 7965
  140.5187  144.0913  150.6016 LP  0  0  0  0  0  0  0  0  0  0  0  0  # atno 17342 bound_to 10162
  140.3864  143.2775  152.0111 LP  0  0  0  0  0  0  0  0  0  0  0  0  # atno 17343 bound_to 10162
  157.6256  131.0926  150.8539 LP  0  0  0  0  0  0  0  0  0  0  0  0  # atno 17370 bound_to 10713
  156.8655  130.5128  149.5300 LP  0  0  0  0  0  0  0  0  0  0  0  0  # atno 17371 bound_to 10713
  139.8925  134.8753  156.2267 LP  0  0  0  0  0  0  0  0  0  0  0  0  # atno 17394 bound_to 11000
  141.0246  133.7022  156.1326 LP  0  0  0  0  0  0  0  0  0  0  0  0  # atno 17395 bound_to 11000

$$$$
