AV-unprocessed.smi:1208|AV-procd|sdf|5063|dock10
  -GOLD-   22720 4103D 1   1.00000     0.00000
 Structure written by MMmdl.
 35 36  0  0  0  0  0  0  0  0  2 V2000
  153.7213  141.8196  160.5991 C   0  0  0  0  0  0  0  0  0  0  0  0
  152.4285  141.6505  159.7875 C   0  0  2  0  0  0  0  0  0  0  0  0
  152.7342  140.9373  158.5487 N   0  0  0  0  0  0  0  0  0  0  0  0
  152.2515  139.7387  158.1851 C   0  0  0  0  0  0  0  0  0  0  0  0
  151.4668  139.0859  158.8748 O   0  0  0  0  0  0  0  0  0  0  0  0
  152.7207  139.2223  156.8160 C   0  0  0  0  0  0  0  0  0  0  0  0
  151.6396  139.0688  155.8315 N   0  0  0  0  0  0  0  0  0  0  0  0
  151.0609  140.3335  155.3865 N   0  5  0  0  0  0  0  0  0  0  0  0
  150.0467  140.3159  154.4813 C   0  0  0  0  0  0  0  0  0  0  0  0
  149.5000  141.3378  154.0730 O   0  0  0  0  0  0  0  0  0  0  0  0
  149.6004  139.0271  153.9787 C   0  0  0  0  0  0  0  0  0  0  0  0
  150.1683  137.8765  154.3904 C   0  0  0  0  0  0  0  0  0  0  0  0
  151.2549  137.8476  155.3618 C   0  0  0  0  0  0  0  0  0  0  0  0
  151.7870  136.8007  155.7324 O   0  0  0  0  0  0  0  0  0  0  0  0
  151.7645  143.0038  159.4653 C   0  0  1  0  0  0  0  0  0  0  0  0
  151.9297  144.0702  160.5514 C   0  0  0  0  0  0  0  0  0  0  0  0
  151.7837  145.3461  159.7557 C   0  0  0  0  0  0  0  0  0  0  0  0
  152.5138  144.9873  158.4659 C   0  0  0  0  0  0  0  0  0  0  0  0
  152.3420  143.5827  158.2958 O   0  0  0  0  0  0  0  0  0  0  0  0
  153.5271  142.3153  161.5504 H   0  0  0  0  0  0  0  0  0  0  0  0
  154.4564  142.4159  160.0575 H   0  0  0  0  0  0  0  0  0  0  0  0
  154.1740  140.8524  160.8207 H   0  0  0  0  0  0  0  0  0  0  0  0
  151.7307  141.0698  160.3936 H   0  0  0  0  0  0  0  0  0  0  0  0
  153.3665  141.3963  157.9096 H   0  0  0  0  0  0  0  0  0  0  0  0
  153.4826  139.9092  156.4434 H   0  0  0  0  0  0  0  0  0  0  0  0
  153.2281  138.2645  156.9450 H   0  0  0  0  0  0  0  0  0  0  0  0
  148.7976  138.9917  153.2572 H   0  0  0  0  0  0  0  0  0  0  0  0
  149.8065  136.9421  153.9882 H   0  0  0  0  0  0  0  0  0  0  0  0
  150.7000  142.8627  159.2705 H   0  0  0  0  0  0  0  0  0  0  0  0
  151.1957  143.9800  161.3529 H   0  0  0  0  0  0  0  0  0  0  0  0
  152.9261  144.0187  160.9933 H   0  0  0  0  0  0  0  0  0  0  0  0
  150.7302  145.5424  159.5522 H   0  0  0  0  0  0  0  0  0  0  0  0
  152.2061  146.2173  160.2571 H   0  0  0  0  0  0  0  0  0  0  0  0
  152.1376  145.5426  157.6066 H   0  0  0  0  0  0  0  0  0  0  0  0
  153.5803  145.1944  158.5628 H   0  0  0  0  0  0  0  0  0  0  0  0
  1  2  1  0  0  0  0
  1 20  1  0  0  0  0
  1 21  1  0  0  0  0
  1 22  1  0  0  0  0
  2  3  1  0  0  0  0
  2 15  1  0  0  0  0
  2 23  1  0  0  0  0
  3  4  1  0  0  0  0
  3 24  1  0  0  0  0
  4  5  2  0  0  0  0
  4  6  1  0  0  0  0
  6 25  1  0  0  0  0
  6 26  1  0  0  0  0
  6  7  1  0  0  0  0
  7  8  1  0  0  0  0
  7 13  1  0  0  0  0
  8  9  1  0  0  0  0
  9 10  2  0  0  0  0
  9 11  1  0  0  0  0
 11 27  1  0  0  0  0
 11 12  2  0  0  0  0
 12 28  1  0  0  0  0
 12 13  1  0  0  0  0
 13 14  2  0  0  0  0
 15 19  1  0  0  0  0
 15 16  1  0  0  0  0
 15 29  1  0  0  0  0
 16 17  1  0  0  0  0
 16 30  1  0  0  0  0
 16 31  1  0  0  0  0
 17 18  1  0  0  0  0
 17 32  1  0  0  0  0
 17 33  1  0  0  0  0
 18 19  1  0  0  0  0
 18 34  1  0  0  0  0
 18 35  1  0  0  0  0
M  CHG  1   8  -1
M  END
> <s_m_source_file>
AV-unprocessed.smi

> <i_m_source_file_index>
1208

> <i_lp_mmshare_version>
43012

> <i_f3d_flags>
0

> <s_epik_input>
TzFbQ0gyXVtDSDJdW0NIMl1bQ0BIXTFbQ0BIXShbQ0gzXSlbTkhdQyg9TylbQ0gyXW4yW25IXWMoPU8pW2NIXVtjSF1jMj1P

> <s_epik_cmdline>
J2VwaWtfcHl0aG9uJywgJy1waCcsICc3LjAnLCAnLXRuJywgJzgnLCAnLW1hJywgJzIwMCcsICctbWV0YWxfYmluZGluZycsICctaW1hZScsICc8aW5maWxlLm1hZT4nLCAnLW9tYWUnLCAnPG91dGZpbGUubWFlPic=

> <r_lp_tautomer_probability>
1

> <r_epik_Ionization_Penalty>
0.0975494

> <r_epik_Ionization_Penalty_Charging>
0.0975494

> <r_epik_Ionization_Penalty_Neutral>
2.30132e-08

> <r_epik_State_Penalty>
0.034345

> <r_epik_Charging_Adjusted_Penalty>
0.131894

> <i_epik_Tot_Q>
-1

> <i_epik_Tot_abs_Q>
1

> <r_epik_Metal_State_Penalty>
0.034345

> <b_epik_Metal_Only>
0

> <s_lp_Force_Field>
OPLS_2005

> <r_lp_Energy>
33.2444

> <b_lp_Chiralities_Consistent>
1

> <s_lp_Variant>
AV-unprocessed.smi:1208-3

> <Gold.Version>
5.8.1

> <Gold.Id.Protein>
6NUR|6NUR_protein|mol2

> <Gold.PLP.Fitness>
41.8839

> <Gold.PLP.PLP>
-38.1228

> <Gold.PLP.part.hbond>
-4.0000

> <Gold.PLP.part.metal>
0.0000

> <Gold.PLP.part.buried>
2.3329

> <Gold.PLP.part.nonpolar>
-35.0944

> <Gold.PLP.part.repulsive>
0.3815

> <Gold.PLP.ligand.clash>
0.0000

> <Gold.PLP.ligand.torsion>
0.6073

> <Gold.PLP.Chemscore.Hbond>
1.6521

> <Gold.PLP.Chemscore.CHOScore>
0.0000

> <Gold.PLP.Chemscore.Metal>
0.0000

> <Gold.Chemscore.Hbonds>
donor molecule, donor type, donor heavy atom, donor atom, acceptor molecule, acceptor atom, score
      P1  H  8011  8017       L1    10  0.66
      P1  H 10752 10764       L1    14  1.00

> <Gold.PLP.Chemscore.Internal.Correction>
0.0195

> <Gold.Rescore>
     Score         DG    S(hbond)    S(metal)    S(lipo)     H(rot)  DE(clash)    DE(int)     intcor
     13.26     -15.43       1.42        0.00      88.13       1.99       1.42       0.75       ----

> <Gold.Chemscore.Fitness>
13.2592

> <Gold.Chemscore.DG>
-15.4283

> <Gold.Chemscore.ZeroCoef>
-5.4800

> <Gold.Chemscore.Hbond>
1.4197

> <Gold.Chemscore.Metal>
0.0000

> <Gold.Chemscore.Lipo>
88.1295

> <Gold.Chemscore.Internal_Hbond>
0.0000

> <Gold.Chemscore.DEClash>
1.4239

> <Gold.Chemscore.DEInternal>
0.7452

> <Gold.Chemscore.Rot>
1.9940

> <Gold.Chemscore.Internal.Correction>
   9.000000E+99

> <Gold.Chemscore.Hbonds>
donor molecule, donor type, donor heavy atom, donor atom, acceptor molecule, acceptor atom, score
      P1  H  8011  8017       L1    10  0.64
      P1  H 10752 10764       L1    14  0.90

> <Gold.Chemscore.Hbond.Weighted>
-4.7419

> <Gold.Chemscore.Metal.Weighted>
-0.0000

> <Gold.Chemscore.Lipo.Weighted>
-10.3112

> <Gold.Chemscore.Internal_Hbond.Weighted>
0.0000

> <Gold.Chemscore.DEClash.Weighted>
1.4239

> <Gold.Chemscore.DEInternal.Weighted>
0.7452

> <Gold.Chemscore.Rot.Weighted>
5.1047

> <Gold.Chemscore.Internal.Correction.Weighted>
   9.000000E+99

> <Gold.Protein.RotatedTorsions>
[ 6907 6896 6895 6894 ] final   10.37 input  -60.11 | X-H torsion
[ 7974 7965 7964 7962 ] final   86.26 input  175.53 | X-H torsion
[ 8008 7997 7996 7995 ] final -146.26 input   59.86 | X-H torsion
[ 10167 10162 10161 10158 ] final  143.37 input  -65.29 | X-H torsion
[ 10718 10713 10712 10709 ] final    4.61 input   66.30 | X-H torsion
[ 10763 10752 10751 10750 ] final  -60.26 input  -60.55 | X-H torsion
[ 11005 11000 10999 10996 ] final   52.99 input  -57.11 | X-H torsion

> <Gold.Protein.ActiveResidues>
 VAL166  LYS551  ARG553  GLY616  TRP617  ASP618  TYR619  PRO620  LYS621  CYS622 
 ASP623  PHE694  ASN695  SER759  ASP760  ASP761  ALA762  ILE779  LEU786  VAL792 
 PHE793  MET794  SER795  GLU796  ALA797  LYS798  CYS799  TRP800  GLU811  SER814 

> <Gold.Protein.RotatedAtoms>
  151.7372  135.0862  160.0309 H   0  0  0  0  0  0  0  0  0  0  0  0  # atno 6907 bound_to 6896
  152.3503  133.6167  159.5948 H   0  0  0  0  0  0  0  0  0  0  0  0  # atno 6908 bound_to 6896
  150.7535  133.9501  159.3524 H   0  0  0  0  0  0  0  0  0  0  0  0  # atno 6909 bound_to 6896
  145.5746  139.2318  143.2387 H   0  0  0  0  0  0  0  0  0  0  0  0  # atno 7974 bound_to 7965
  155.5565  140.0621  157.2838 H   0  0  0  0  0  0  0  0  0  0  0  0  # atno 8008 bound_to 7997
  154.4404  140.1893  156.0784 H   0  0  0  0  0  0  0  0  0  0  0  0  # atno 8009 bound_to 7997
  156.0478  140.3288  155.7320 H   0  0  0  0  0  0  0  0  0  0  0  0  # atno 8010 bound_to 7997
  139.4971  144.6045  151.6409 H   0  0  0  0  0  0  0  0  0  0  0  0  # atno 10167 bound_to 10162
  156.8952  130.5702  149.5649 H   0  0  0  0  0  0  0  0  0  0  0  0  # atno 10718 bound_to 10713
  154.2665  135.6298  153.5294 H   0  0  0  0  0  0  0  0  0  0  0  0  # atno 10763 bound_to 10752
  152.9887  135.5600  154.5647 H   0  0  0  0  0  0  0  0  0  0  0  0  # atno 10764 bound_to 10752
  154.5207  135.2882  155.1240 H   0  0  0  0  0  0  0  0  0  0  0  0  # atno 10765 bound_to 10752
  140.0804  134.5347  155.8953 H   0  0  0  0  0  0  0  0  0  0  0  0  # atno 11005 bound_to 11000
  146.1760  140.6572  142.9211 LP  0  0  0  0  0  0  0  0  0  0  0  0  # atno 17320 bound_to 7965
  144.7422  140.4972  143.6861 LP  0  0  0  0  0  0  0  0  0  0  0  0  # atno 17321 bound_to 7965
  140.5703  144.0120  150.6213 LP  0  0  0  0  0  0  0  0  0  0  0  0  # atno 17342 bound_to 10162
  140.3236  143.3122  152.0759 LP  0  0  0  0  0  0  0  0  0  0  0  0  # atno 17343 bound_to 10162
  156.0609  130.5662  150.9190 LP  0  0  0  0  0  0  0  0  0  0  0  0  # atno 17370 bound_to 10713
  157.6060  131.0939  150.8879 LP  0  0  0  0  0  0  0  0  0  0  0  0  # atno 17371 bound_to 10713
  141.2044  133.6639  156.6121 LP  0  0  0  0  0  0  0  0  0  0  0  0  # atno 17394 bound_to 11000
  140.3497  134.7779  157.4457 LP  0  0  0  0  0  0  0  0  0  0  0  0  # atno 17395 bound_to 11000

$$$$
