#       Name:                AV-unprocessed.smi:3250
#       Creating user name   scv26
#       Creation time:       Fri Mar 27 18:31:54 2020


#       File generated by GOLD software.
#

@<TRIPOS>MOLECULE
AV-unprocessed.smi:3250
    45    46     1
SMALL
NO_CHARGES


@<TRIPOS>ATOM
      1 ****        -4.1678   3.8117   0.6415 C.3            1 S1                 0.0000
      2 ****        -3.5382   2.4358   0.3813 C.3            1 S1                 0.0000
      3 ****        -2.0785   2.4308   0.3033 N.3            1 S1                 0.0000
      4 ****        -1.5769   3.1538  -0.8629 C.3            1 S1                 0.0000
      5 ****        -0.0422   3.1066  -0.9490 C.3            1 S1                 0.0000
      6 ****         0.3920   1.7511  -0.9575 O.3            1 S1                 0.0000
      7 ****        -0.0231   1.0267   0.1983 C.3            1 S1                 0.0000
      8 ****         0.5015  -0.4105   0.0846 C.3            1 S1                 0.0000
      9 ****         1.9515  -0.4632   0.1938 N.pl3          1 S1                 0.0000
     10 ****         2.6890  -1.6308   0.1438 C.ar           1 S1                 0.0000
     11 ****         4.0146  -1.4759   0.1640 N.ar           1 S1                 0.0000
     12 ****         4.7641  -2.5983   0.1117 C.ar           1 S1                 0.0000
     13 ****         4.1806  -3.8789   0.0397 C.ar           1 S1                 0.0000
     14 ****         2.7719  -3.9277   0.0276 C.ar           1 S1                 0.0000
     15 ****         2.1359  -5.1500  -0.0375 O.3            1 S1                 0.0000
     16 ****         0.7127  -5.1665  -0.0247 C.3            1 S1                 0.0000
     17 ****         2.0296  -2.7934   0.0798 N.ar           1 S1                 0.0000
     18 ****        -1.5623   1.0662   0.2720 C.3            1 S1                 0.0000
     19 ****        -5.2442   3.7181   0.7860 H              1 S1                 0.0000
     20 ****        -4.0128   4.4955  -0.1926 H              1 S1                 0.0000
     21 ****        -3.7525   4.2710   1.5389 H              1 S1                 0.0000
     22 ****        -3.8488   1.7768   1.1930 H              1 S1                 0.0000
     23 ****        -3.9602   2.0082  -0.5292 H              1 S1                 0.0000
     24 ****        -2.0023   2.7291  -1.7734 H              1 S1                 0.0000
     25 ****        -1.8913   4.1962  -0.8266 H              1 S1                 0.0000
     26 ****         0.3021   3.5976  -1.8594 H              1 S1                 0.0000
     27 ****         0.4093   3.6356  -0.1082 H              1 S1                 0.0000
     28 ****         0.3933   1.4958   1.0921 H              1 S1                 0.0000
     29 ****         0.0748  -1.0199   0.8820 H              1 S1                 0.0000
     30 ****         0.1894  -0.8538  -0.8618 H              1 S1                 0.0000
     31 ****         2.4620   0.4078   0.2123 H              1 S1                 0.0000
     32 ****         5.8366  -2.4744   0.1275 H              1 S1                 0.0000
     33 ****         4.7816  -4.7751  -0.0027 H              1 S1                 0.0000
     34 ****         0.3629  -6.1974  -0.0746 H              1 S1                 0.0000
     35 ****         0.2994  -4.6345  -0.8828 H              1 S1                 0.0000
     36 ****         0.3172  -4.7271   0.8924 H              1 S1                 0.0000
     37 ****        -1.8921   0.5289   1.1620 H              1 S1                 0.0000
     38 ****        -1.9797   0.5343  -0.5847 H              1 S1                 0.0000
     39 ****        -1.7550   2.8994   1.1254 LP             1 S1                 0.0000
     40 ****         1.3910   1.7366  -1.0011 LP             1 S1                 0.0000
     41 ****         0.0164   1.3011  -1.7677 LP             1 S1                 0.0000
     42 ****         4.4340  -0.5696   0.2155 LP             1 S1                 0.0000
     43 ****         2.4462  -5.6883   0.7460 LP             1 S1                 0.0000
     44 ****         2.4305  -5.5933  -0.8841 LP             1 S1                 0.0000
     45 ****         1.0302  -2.8248   0.0708 LP             1 S1                 0.0000
@<TRIPOS>BOND
    1    1    2 1     
    2    1   19 1     
    3    1   20 1     
    4    1   21 1     
    5    2    3 1     
    6    2   22 1     
    7    2   23 1     
    8    3   18 1     
    9    3    4 1     
   10    4    5 1     
   11    4   24 1     
   12    4   25 1     
   13    5    6 1     
   14    5   26 1     
   15    5   27 1     
   16    6    7 1     
   17    7    8 1     
   18    7   18 1     
   19    7   28 1     
   20    8    9 1     
   21    8   29 1     
   22    8   30 1     
   23    9   10 1     
   24    9   31 1     
   25   10   17 ar    
   26   10   11 ar    
   27   11   12 ar    
   28   12   13 ar    
   29   12   32 1     
   30   13   14 ar    
   31   13   33 1     
   32   14   15 1     
   33   14   17 ar    
   34   15   16 1     
   35   16   34 1     
   36   16   35 1     
   37   16   36 1     
   38   18   37 1     
   39   18   38 1     
   40    3   39 1     
   41    6   40 1     
   42    6   41 1     
   43   11   42 1     
   44   15   43 1     
   45   15   44 1     
   46   17   45 1     
@<TRIPOS>SUBSTRUCTURE
      1 S1             1
@<TRIPOS>SET
LONE_PAIRS      STATIC     ATOMS    <user>   **** ""
7 39 40 41 42 43 44 45
DONOR_HYDROGENS      STATIC     ATOMS    <user>   **** ""
1 31
ATOM$BLUE        STATIC     ATOMS    COLORGROUP SYSTEM
7 39 40 41 42 43 44 45
ATOM$RED        STATIC     ATOMS    COLORGROUP SYSTEM
1 31
