AV-unprocessed.smi:2691|AV-procd|sdf|10390|dock3
  -GOLD-   2272014423D 1   1.00000     0.00000
 Structure written by MMmdl.
 49 51  0  0  0  0  0  0  0  0  1 V2000
  153.1543  142.8874  161.1625 C   0  0  0  0  0  0  0  0  0  0  0  0
  152.3839  142.5491  159.8985 C   0  0  0  0  0  0  0  0  0  0  0  0
  152.1632  141.1925  159.5707 C   0  0  0  0  0  0  0  0  0  0  0  0
  151.4559  140.8353  158.4022 C   0  0  0  0  0  0  0  0  0  0  0  0
  151.1288  139.5890  157.8959 N   0  0  0  0  0  0  0  0  0  0  0  0
  150.4750  139.9151  156.7850 C   0  0  0  0  0  0  0  0  0  0  0  0
  150.3475  141.2267  156.5060 N   0  0  0  0  0  0  0  0  0  0  0  0
  149.6942  141.8182  155.3518 C   0  0  0  0  0  0  0  0  0  0  0  0
  148.9542  140.7718  154.4944 C   0  0  2  0  0  0  0  0  0  0  0  0
  149.5064  140.8384  153.1957 O   0  0  0  0  0  0  0  0  0  0  0  0
  147.4273  141.0132  154.3962 C   0  0  0  0  0  0  0  0  0  0  0  0
  146.7091  139.8014  153.9726 N   0  0  0  0  0  0  0  0  0  0  0  0
  146.9121  139.3863  152.6433 C   0  0  0  0  0  0  0  0  0  0  0  0
  146.3399  138.3276  152.1655 N   0  0  0  0  0  0  0  0  0  0  0  0
  145.4955  137.5641  152.9813 C   0  0  0  0  0  0  0  0  0  0  0  0
  144.8536  136.3247  152.3713 C   0  0  0  0  0  0  0  0  0  0  0  0
  145.3766  136.0538  150.9514 C   0  0  0  0  0  0  0  0  0  0  0  0
  143.3205  136.4200  152.3993 C   0  0  0  0  0  0  0  0  0  0  0  0
  145.2751  137.9203  154.2694 C   0  0  0  0  0  0  0  0  0  0  0  0
  145.9079  139.1112  154.8362 C   0  0  0  0  0  0  0  0  0  0  0  0
  145.7358  139.4617  156.0038 O   0  0  0  0  0  0  0  0  0  0  0  0
  150.9726  141.8808  157.5622 C   0  0  0  0  0  0  0  0  0  0  0  0
  151.1806  143.2345  157.8805 C   0  0  0  0  0  0  0  0  0  0  0  0
  151.8889  143.5737  159.0522 C   0  0  0  0  0  0  0  0  0  0  0  0
  152.1117  145.0383  159.3850 C   0  0  0  0  0  0  0  0  0  0  0  0
  153.4901  141.9865  161.6771 H   0  0  0  0  0  0  0  0  0  0  0  0
  152.5273  143.4528  161.8522 H   0  0  0  0  0  0  0  0  0  0  0  0
  154.0353  143.4837  160.9249 H   0  0  0  0  0  0  0  0  0  0  0  0
  152.5386  140.4116  160.2155 H   0  0  0  0  0  0  0  0  0  0  0  0
  150.0750  139.1559  156.1290 H   0  0  0  0  0  0  0  0  0  0  0  0
  149.0019  142.5883  155.6958 H   0  0  0  0  0  0  0  0  0  0  0  0
  150.4569  142.3241  154.7581 H   0  0  0  0  0  0  0  0  0  0  0  0
  149.1624  139.7800  154.8974 H   0  0  0  0  0  0  0  0  0  0  0  0
  149.1645  140.1197  152.6861 H   0  0  0  0  0  0  0  0  0  0  0  0
  147.0231  141.3166  155.3624 H   0  0  0  0  0  0  0  0  0  0  0  0
  147.2116  141.8677  153.7512 H   0  0  0  0  0  0  0  0  0  0  0  0
  147.5827  140.0131  152.0531 H   0  0  0  0  0  0  0  0  0  0  0  0
  145.1353  135.4688  152.9861 H   0  0  0  0  0  0  0  0  0  0  0  0
  146.4632  135.9638  150.9442 H   0  0  0  0  0  0  0  0  0  0  0  0
  145.1034  136.8538  150.2625 H   0  0  0  0  0  0  0  0  0  0  0  0
  144.9673  135.1242  150.5549 H   0  0  0  0  0  0  0  0  0  0  0  0
  142.9565  136.5865  153.4137 H   0  0  0  0  0  0  0  0  0  0  0  0
  142.8648  135.4996  152.0335 H   0  0  0  0  0  0  0  0  0  0  0  0
  142.9583  137.2392  151.7770 H   0  0  0  0  0  0  0  0  0  0  0  0
  144.6260  137.3244  154.8944 H   0  0  0  0  0  0  0  0  0  0  0  0
  150.8015  144.0050  157.2258 H   0  0  0  0  0  0  0  0  0  0  0  0
  151.6159  145.6896  158.6646 H   0  0  0  0  0  0  0  0  0  0  0  0
  153.1761  145.2736  159.3734 H   0  0  0  0  0  0  0  0  0  0  0  0
  151.7152  145.2722  160.3733 H   0  0  0  0  0  0  0  0  0  0  0  0
  1  2  1  0  0  0  0
  1 26  1  0  0  0  0
  1 27  1  0  0  0  0
  1 28  1  0  0  0  0
  2 24  1  0  0  0  0
  2  3  2  0  0  0  0
  3  4  1  0  0  0  0
  3 29  1  0  0  0  0
  4 22  2  0  0  0  0
  4  5  1  0  0  0  0
  5  6  2  0  0  0  0
  6  7  1  0  0  0  0
  6 30  1  0  0  0  0
  7  8  1  0  0  0  0
  7 22  1  0  0  0  0
  8  9  1  0  0  0  0
  8 31  1  0  0  0  0
  8 32  1  0  0  0  0
  9 10  1  0  0  0  0
  9 11  1  0  0  0  0
  9 33  1  0  0  0  0
 10 34  1  0  0  0  0
 11 12  1  0  0  0  0
 11 35  1  0  0  0  0
 11 36  1  0  0  0  0
 12 20  1  0  0  0  0
 12 13  1  0  0  0  0
 13 14  2  0  0  0  0
 13 37  1  0  0  0  0
 14 15  1  0  0  0  0
 15 16  1  0  0  0  0
 15 19  2  0  0  0  0
 16 17  1  0  0  0  0
 16 18  1  0  0  0  0
 16 38  1  0  0  0  0
 17 39  1  0  0  0  0
 17 40  1  0  0  0  0
 17 41  1  0  0  0  0
 18 42  1  0  0  0  0
 18 43  1  0  0  0  0
 18 44  1  0  0  0  0
 19 20  1  0  0  0  0
 19 45  1  0  0  0  0
 20 21  2  0  0  0  0
 22 23  1  0  0  0  0
 23 24  2  0  0  0  0
 23 46  1  0  0  0  0
 24 25  1  0  0  0  0
 25 47  1  0  0  0  0
 25 48  1  0  0  0  0
 25 49  1  0  0  0  0
M  END
> <s_m_source_file>
AV-unprocessed.smi

> <i_m_source_file_index>
2691

> <i_lp_mmshare_version>
43012

> <i_f3d_flags>
0

> <s_epik_input>
W0NIM11jKFtjSF0xKWMoW0NIM10pW2NIXWMoYzEyKW4oW2NIXW4yKVtDSDJdW0NASF0oW09IXSlbQ0gyXW4zW2NIXW5jKFtDSF0oW0NIM10pW0NIM10pW2NIXWMzPU8=

> <s_epik_cmdline>
J2VwaWtfcHl0aG9uJywgJy1waCcsICc3LjAnLCAnLXRuJywgJzgnLCAnLW1hJywgJzIwMCcsICctbWV0YWxfYmluZGluZycsICctaW1hZScsICc8aW5maWxlLm1hZT4nLCAnLW9tYWUnLCAnPG91dGZpbGUubWFlPic=

> <r_lp_tautomer_probability>
1

> <r_epik_Ionization_Penalty>
0.113357

> <r_epik_Ionization_Penalty_Charging>
3.84185e-08

> <r_epik_Ionization_Penalty_Neutral>
0.113357

> <r_epik_State_Penalty>
0.103025

> <r_epik_Charging_Adjusted_Penalty>
0.103025

> <i_epik_Tot_Q>
0

> <i_epik_Tot_abs_Q>
0

> <r_epik_Metal_State_Penalty>
0.0863451

> <b_epik_Metal_Only>
0

> <s_lp_Force_Field>
OPLS_2005

> <r_lp_Energy>
18.3457

> <b_lp_Chiralities_Consistent>
1

> <s_lp_Variant>
AV-unprocessed.smi:2691-1

> <Gold.Version>
5.8.1

> <Gold.Id.Protein>
6NUR|6NUR_protein|mol2

> <Gold.PLP.Fitness>
54.2939

> <Gold.PLP.PLP>
-48.6412

> <Gold.PLP.part.hbond>
-1.7395

> <Gold.PLP.part.metal>
0.0000

> <Gold.PLP.part.buried>
-5.7133

> <Gold.PLP.part.nonpolar>
-42.2731

> <Gold.PLP.part.repulsive>
0.3595

> <Gold.PLP.ligand.clash>
0.0000

> <Gold.PLP.ligand.torsion>
1.1114

> <Gold.PLP.Chemscore.Hbond>
1.5880

> <Gold.PLP.Chemscore.CHOScore>
1.0000

> <Gold.PLP.Chemscore.Metal>
0.0000

> <Gold.Chemscore.Hbonds>
donor molecule, donor type, donor heavy atom, donor atom, acceptor molecule, acceptor atom, score
      L1  H    10    34       P1  7957  0.34
      P1  H  7989  7998       L1    10  0.17
      P1  H  8011  8017       L1    10  1.00
      L1  C    13    37       P1  7957  1.00

> <Gold.PLP.Chemscore.Internal.Correction>
0.1116

> <Gold.Rescore>
     Score         DG    S(hbond)    S(metal)    S(lipo)     H(rot)  DE(clash)    DE(int)     intcor
     15.75     -18.40       1.33        0.00     125.99       2.45       0.49       2.15       ----

> <Gold.Chemscore.Fitness>
15.7534

> <Gold.Chemscore.DG>
-18.3979

> <Gold.Chemscore.ZeroCoef>
-5.4800

> <Gold.Chemscore.Hbond>
1.3350

> <Gold.Chemscore.Metal>
0.0000

> <Gold.Chemscore.Lipo>
125.9865

> <Gold.Chemscore.Internal_Hbond>
0.0000

> <Gold.Chemscore.DEClash>
0.4924

> <Gold.Chemscore.DEInternal>
2.1520

> <Gold.Chemscore.Rot>
2.4536

> <Gold.Chemscore.Internal.Correction>
   9.000000E+99

> <Gold.Chemscore.Hbonds>
donor molecule, donor type, donor heavy atom, donor atom, acceptor molecule, acceptor atom, score
      L1  H    10    34       P1  7957  0.33
      P1  H  7989  7998       L1    10  0.09
      P1  H  8011  8017       L1    10  0.94

> <Gold.Chemscore.Hbond.Weighted>
-4.4587

> <Gold.Chemscore.Metal.Weighted>
-0.0000

> <Gold.Chemscore.Lipo.Weighted>
-14.7404

> <Gold.Chemscore.Internal_Hbond.Weighted>
0.0000

> <Gold.Chemscore.DEClash.Weighted>
0.4924

> <Gold.Chemscore.DEInternal.Weighted>
2.1520

> <Gold.Chemscore.Rot.Weighted>
6.2812

> <Gold.Chemscore.Internal.Correction.Weighted>
   9.000000E+99

> <Gold.Protein.RotatedTorsions>
[ 6907 6896 6895 6894 ] final  -53.29 input  -60.11 | X-H torsion
[ 7974 7965 7964 7962 ] final  124.05 input  175.53 | X-H torsion
[ 8008 7997 7996 7995 ] final  -31.47 input   59.86 | X-H torsion
[ 10167 10162 10161 10158 ] final  -97.01 input  -65.29 | X-H torsion
[ 10718 10713 10712 10709 ] final   79.17 input   66.30 | X-H torsion
[ 10763 10752 10751 10750 ] final   46.70 input  -60.55 | X-H torsion
[ 11005 11000 10999 10996 ] final   22.63 input  -57.11 | X-H torsion

> <Gold.Protein.ActiveResidues>
 VAL166  LYS551  ARG553  GLY616  TRP617  ASP618  TYR619  PRO620  LYS621  CYS622 
 ASP623  PHE694  ASN695  SER759  ASP760  ASP761  ALA762  ILE779  LEU786  VAL792 
 PHE793  MET794  SER795  GLU796  ALA797  LYS798  CYS799  TRP800  GLU811  SER814 

> <Gold.Protein.RotatedAtoms>
  150.8440  134.7742  159.6954 H   0  0  0  0  0  0  0  0  0  0  0  0  # atno 6907 bound_to 6896
  152.4521  134.5368  159.9837 H   0  0  0  0  0  0  0  0  0  0  0  0  # atno 6908 bound_to 6896
  151.5502  133.3381  159.2987 H   0  0  0  0  0  0  0  0  0  0  0  0  # atno 6909 bound_to 6896
  145.0889  139.3602  143.4871 H   0  0  0  0  0  0  0  0  0  0  0  0  # atno 7974 bound_to 7965
  154.4212  140.1763  156.1572 H   0  0  0  0  0  0  0  0  0  0  0  0  # atno 8008 bound_to 7997
  155.9867  140.3372  155.6690 H   0  0  0  0  0  0  0  0  0  0  0  0  # atno 8009 bound_to 7997
  155.6427  140.0682  157.2604 H   0  0  0  0  0  0  0  0  0  0  0  0  # atno 8010 bound_to 7997
  140.2879  143.3240  152.0376 H   0  0  0  0  0  0  0  0  0  0  0  0  # atno 10167 bound_to 10162
  157.6768  130.9902  150.1893 H   0  0  0  0  0  0  0  0  0  0  0  0  # atno 10718 bound_to 10713
  152.9808  135.6000  154.3642 H   0  0  0  0  0  0  0  0  0  0  0  0  # atno 10763 bound_to 10752
  154.3321  135.2768  155.2468 H   0  0  0  0  0  0  0  0  0  0  0  0  # atno 10764 bound_to 10752
  154.4587  135.5971  153.6296 H   0  0  0  0  0  0  0  0  0  0  0  0  # atno 10765 bound_to 10752
  140.3785  134.1946  155.7664 H   0  0  0  0  0  0  0  0  0  0  0  0  # atno 11005 bound_to 11000
  146.3531  140.0714  142.8623 LP  0  0  0  0  0  0  0  0  0  0  0  0  # atno 17320 bound_to 7965
  145.1090  140.9393  143.4668 LP  0  0  0  0  0  0  0  0  0  0  0  0  # atno 17321 bound_to 7965
  139.4945  144.6546  151.6601 LP  0  0  0  0  0  0  0  0  0  0  0  0  # atno 17342 bound_to 10162
  140.5757  144.0032  150.6240 LP  0  0  0  0  0  0  0  0  0  0  0  0  # atno 17343 bound_to 10162
  156.2608  130.3710  149.8133 LP  0  0  0  0  0  0  0  0  0  0  0  0  # atno 17370 bound_to 10713
  156.5879  130.8493  151.3400 LP  0  0  0  0  0  0  0  0  0  0  0  0  # atno 17371 bound_to 10713
  141.1931  133.8157  157.0811 LP  0  0  0  0  0  0  0  0  0  0  0  0  # atno 17394 bound_to 11000
  140.0497  134.9812  157.1114 LP  0  0  0  0  0  0  0  0  0  0  0  0  # atno 17395 bound_to 11000

$$$$
