AV-unprocessed.smi:2177|AV-procd|sdf|8850|dock6
  -GOLD-   2272012 43D 1   1.00000     0.00000
 Structure written by MMmdl.
 42 43  0  0  0  0  0  0  0  0  1 V2000
  151.7554  145.6816  160.0455 C   0  0  0  0  0  0  0  0  0  0  0  0
  152.2284  144.2858  160.3348 C   0  0  0  0  0  0  0  0  0  0  0  0
  152.7222  144.0001  161.5281 N   0  0  0  0  0  0  0  0  0  0  0  0
  153.0601  142.6970  161.4578 N   0  0  0  0  0  0  0  0  0  0  0  0
  153.6488  142.0539  162.6165 C   0  0  0  0  0  0  0  0  0  0  0  0
  152.7696  142.1556  160.2205 C   0  0  0  0  0  0  0  0  0  0  0  0
  153.0544  140.7255  159.8902 C   0  0  0  0  0  0  0  0  0  0  0  0
  152.2293  143.1596  159.4608 C   0  0  0  0  0  0  0  0  0  0  0  0
  151.7536  143.1149  158.0298 C   0  0  0  0  0  0  0  0  0  0  0  0
  150.9105  141.8586  157.8136 C   0  0  0  0  0  0  0  0  0  0  0  0
  149.9844  141.5956  158.5802 O   0  0  0  0  0  0  0  0  0  0  0  0
  151.2366  141.1036  156.7539 N   0  0  0  0  0  0  0  0  0  0  0  0
  150.5070  139.9321  156.2820 C   0  0  2  0  0  0  0  0  0  0  0  0
  151.3136  139.2254  155.1796 C   0  0  0  0  0  0  0  0  0  0  0  0
  149.1179  140.3849  155.7951 C   0  0  1  0  0  0  0  0  0  0  0  0
  149.1164  141.6496  154.9357 C   0  0  0  0  0  0  0  0  0  0  0  0
  147.8569  141.5097  154.0941 C   0  0  0  0  0  0  0  0  0  0  0  0
  147.4611  140.0390  154.2523 C   0  0  0  0  0  0  0  0  0  0  0  0
  148.5635  139.4272  154.9055 O   0  0  0  0  0  0  0  0  0  0  0  0
  152.2032  146.0613  159.1269 H   0  0  0  0  0  0  0  0  0  0  0  0
  152.0152  146.3723  160.8485 H   0  0  0  0  0  0  0  0  0  0  0  0
  150.6729  145.7075  159.9221 H   0  0  0  0  0  0  0  0  0  0  0  0
  152.8995  141.4341  163.1091 H   0  0  0  0  0  0  0  0  0  0  0  0
  154.0145  142.7992  163.3242 H   0  0  0  0  0  0  0  0  0  0  0  0
  154.4850  141.4265  162.3074 H   0  0  0  0  0  0  0  0  0  0  0  0
  152.5649  140.4285  158.9630 H   0  0  0  0  0  0  0  0  0  0  0  0
  152.6985  140.0634  160.6796 H   0  0  0  0  0  0  0  0  0  0  0  0
  154.1258  140.5649  159.7691 H   0  0  0  0  0  0  0  0  0  0  0  0
  151.1610  143.9938  157.7740 H   0  0  0  0  0  0  0  0  0  0  0  0
  152.5923  143.1052  157.3327 H   0  0  0  0  0  0  0  0  0  0  0  0
  152.0147  141.4066  156.1865 H   0  0  0  0  0  0  0  0  0  0  0  0
  150.3695  139.2394  157.1145 H   0  0  0  0  0  0  0  0  0  0  0  0
  150.8057  138.3259  154.8317 H   0  0  0  0  0  0  0  0  0  0  0  0
  152.2958  138.9215  155.5431 H   0  0  0  0  0  0  0  0  0  0  0  0
  151.4646  139.8770  154.3182 H   0  0  0  0  0  0  0  0  0  0  0  0
  148.4391  140.5100  156.6414 H   0  0  0  0  0  0  0  0  0  0  0  0
  149.1268  142.5630  155.5311 H   0  0  0  0  0  0  0  0  0  0  0  0
  149.9902  141.6638  154.2828 H   0  0  0  0  0  0  0  0  0  0  0  0
  147.0604  142.1618  154.4537 H   0  0  0  0  0  0  0  0  0  0  0  0
  148.0551  141.7644  153.0526 H   0  0  0  0  0  0  0  0  0  0  0  0
  146.5753  139.9453  154.8820 H   0  0  0  0  0  0  0  0  0  0  0  0
  147.2534  139.5552  153.2977 H   0  0  0  0  0  0  0  0  0  0  0  0
  1  2  1  0  0  0  0
  1 20  1  0  0  0  0
  1 21  1  0  0  0  0
  1 22  1  0  0  0  0
  2  8  1  0  0  0  0
  2  3  2  0  0  0  0
  3  4  1  0  0  0  0
  4  5  1  0  0  0  0
  4  6  1  0  0  0  0
  5 23  1  0  0  0  0
  5 24  1  0  0  0  0
  5 25  1  0  0  0  0
  6  7  1  0  0  0  0
  6  8  2  0  0  0  0
  7 26  1  0  0  0  0
  7 27  1  0  0  0  0
  7 28  1  0  0  0  0
  8  9  1  0  0  0  0
  9 10  1  0  0  0  0
  9 29  1  0  0  0  0
  9 30  1  0  0  0  0
 10 11  2  0  0  0  0
 10 12  1  0  0  0  0
 12 13  1  0  0  0  0
 12 31  1  0  0  0  0
 13 14  1  0  0  0  0
 13 15  1  0  0  0  0
 13 32  1  0  0  0  0
 14 33  1  0  0  0  0
 14 34  1  0  0  0  0
 14 35  1  0  0  0  0
 15 19  1  0  0  0  0
 15 16  1  0  0  0  0
 15 36  1  0  0  0  0
 16 17  1  0  0  0  0
 16 37  1  0  0  0  0
 16 38  1  0  0  0  0
 17 18  1  0  0  0  0
 17 39  1  0  0  0  0
 17 40  1  0  0  0  0
 18 19  1  0  0  0  0
 18 41  1  0  0  0  0
 18 42  1  0  0  0  0
M  END
> <s_m_source_file>
AV-unprocessed.smi

> <i_m_source_file_index>
2177

> <i_lp_mmshare_version>
43012

> <i_f3d_flags>
0

> <s_epik_input>
W0NIM11jMW5uKFtDSDNdKWMoW0NIM10pYzFbQ0gyXUMoPU8pW05IXVtDQEhdKFtDSDNdKVtDQEBIXTJbQ0gyXVtDSDJdW0NIMl1PMg==

> <s_epik_cmdline>
J2VwaWtfcHl0aG9uJywgJy1waCcsICc3LjAnLCAnLXRuJywgJzgnLCAnLW1hJywgJzIwMCcsICctbWV0YWxfYmluZGluZycsICctaW1hZScsICc8aW5maWxlLm1hZT4nLCAnLW9tYWUnLCAnPG91dGZpbGUubWFlPic=

> <r_lp_tautomer_probability>
1

> <r_epik_Ionization_Penalty>
0.00310467

> <r_epik_Ionization_Penalty_Charging>
0

> <r_epik_Ionization_Penalty_Neutral>
0.00310467

> <r_epik_State_Penalty>
0.00218493

> <r_epik_Charging_Adjusted_Penalty>
0.00218493

> <i_epik_Tot_Q>
0

> <i_epik_Tot_abs_Q>
0

> <r_epik_Metal_State_Penalty>
-0

> <b_epik_Metal_Only>
0

> <s_lp_Force_Field>
OPLS_2005

> <r_lp_Energy>
12.0116

> <b_lp_Chiralities_Consistent>
1

> <s_lp_Variant>
AV-unprocessed.smi:2177-3

> <Gold.Version>
5.8.1

> <Gold.Id.Protein>
6NUR|6NUR_protein|mol2

> <Gold.PLP.Fitness>
43.4693

> <Gold.PLP.PLP>
-44.7866

> <Gold.PLP.part.hbond>
0.0000

> <Gold.PLP.part.metal>
0.0000

> <Gold.PLP.part.buried>
-1.0440

> <Gold.PLP.part.nonpolar>
-42.6745

> <Gold.PLP.part.repulsive>
0.4204

> <Gold.PLP.ligand.clash>
0.0000

> <Gold.PLP.ligand.torsion>
0.6729

> <Gold.PLP.Chemscore.Hbond>
0.0000

> <Gold.PLP.Chemscore.CHOScore>
0.0000

> <Gold.PLP.Chemscore.Metal>
0.0000

> <Gold.PLP.Chemscore.Internal.Correction>
0.0285

> <Gold.Rescore>
     Score         DG    S(hbond)    S(metal)    S(lipo)     H(rot)  DE(clash)    DE(int)     intcor
     14.13     -14.63       0.00        0.00     110.24       1.46       0.02       0.48       ----

> <Gold.Chemscore.Fitness>
14.1308

> <Gold.Chemscore.DG>
-14.6332

> <Gold.Chemscore.ZeroCoef>
-5.4800

> <Gold.Chemscore.Hbond>
0.0000

> <Gold.Chemscore.Metal>
0.0000

> <Gold.Chemscore.Lipo>
110.2363

> <Gold.Chemscore.Internal_Hbond>
0.0000

> <Gold.Chemscore.DEClash>
0.0211

> <Gold.Chemscore.DEInternal>
0.4812

> <Gold.Chemscore.Rot>
1.4627

> <Gold.Chemscore.Internal.Correction>
   9.000000E+99

> <Gold.Chemscore.Hbond.Weighted>
-0.0000

> <Gold.Chemscore.Metal.Weighted>
-0.0000

> <Gold.Chemscore.Lipo.Weighted>
-12.8976

> <Gold.Chemscore.Internal_Hbond.Weighted>
0.0000

> <Gold.Chemscore.DEClash.Weighted>
0.0211

> <Gold.Chemscore.DEInternal.Weighted>
0.4812

> <Gold.Chemscore.Rot.Weighted>
3.7445

> <Gold.Chemscore.Internal.Correction.Weighted>
   9.000000E+99

> <Gold.Protein.RotatedTorsions>
[ 6907 6896 6895 6894 ] final -131.78 input  -60.11 | X-H torsion
[ 7974 7965 7964 7962 ] final  151.71 input  175.53 | X-H torsion
[ 8008 7997 7996 7995 ] final -173.33 input   59.86 | X-H torsion
[ 10167 10162 10161 10158 ] final -143.97 input  -65.29 | X-H torsion
[ 10718 10713 10712 10709 ] final  156.27 input   66.30 | X-H torsion
[ 10763 10752 10751 10750 ] final   21.38 input  -60.55 | X-H torsion
[ 11005 11000 10999 10996 ] final  109.40 input  -57.11 | X-H torsion

> <Gold.Protein.ActiveResidues>
 VAL166  LYS551  ARG553  GLY616  TRP617  ASP618  TYR619  PRO620  LYS621  CYS622 
 ASP623  PHE694  ASN695  SER759  ASP760  ASP761  ALA762  ILE779  LEU786  VAL792 
 PHE793  MET794  SER795  GLU796  ALA797  LYS798  CYS799  TRP800  GLU811  SER814 

> <Gold.Protein.RotatedAtoms>
  150.9549  133.6509  159.2764 H   0  0  0  0  0  0  0  0  0  0  0  0  # atno 6907 bound_to 6896
  151.3852  135.0945  159.9518 H   0  0  0  0  0  0  0  0  0  0  0  0  # atno 6908 bound_to 6896
  152.5125  133.9075  159.7526 H   0  0  0  0  0  0  0  0  0  0  0  0  # atno 6909 bound_to 6896
  144.8273  139.6574  143.6074 H   0  0  0  0  0  0  0  0  0  0  0  0  # atno 7974 bound_to 7965
  155.9560  140.1135  157.0936 H   0  0  0  0  0  0  0  0  0  0  0  0  # atno 8008 bound_to 7997
  154.4120  140.1191  156.5182 H   0  0  0  0  0  0  0  0  0  0  0  0  # atno 8009 bound_to 7997
  155.6781  140.3473  155.4847 H   0  0  0  0  0  0  0  0  0  0  0  0  # atno 8010 bound_to 7997
  139.7943  143.7922  152.2653 H   0  0  0  0  0  0  0  0  0  0  0  0  # atno 10167 bound_to 10162
  157.2071  131.0689  151.1991 H   0  0  0  0  0  0  0  0  0  0  0  0  # atno 10718 bound_to 10713
  153.1000  135.6670  153.9690 H   0  0  0  0  0  0  0  0  0  0  0  0  # atno 10763 bound_to 10752
  153.9264  135.3009  155.3448 H   0  0  0  0  0  0  0  0  0  0  0  0  # atno 10764 bound_to 10752
  154.7421  135.5075  153.9215 H   0  0  0  0  0  0  0  0  0  0  0  0  # atno 10765 bound_to 10752
  139.8861  134.9457  156.6120 H   0  0  0  0  0  0  0  0  0  0  0  0  # atno 11005 bound_to 11000
  146.2578  139.6341  142.9383 LP  0  0  0  0  0  0  0  0  0  0  0  0  # atno 17320 bound_to 7965
  145.4972  141.0438  143.2560 LP  0  0  0  0  0  0  0  0  0  0  0  0  # atno 17321 bound_to 7965
  139.8023  144.7369  150.9808 LP  0  0  0  0  0  0  0  0  0  0  0  0  # atno 17342 bound_to 10162
  140.7820  143.4332  151.0662 LP  0  0  0  0  0  0  0  0  0  0  0  0  # atno 17343 bound_to 10162
  157.3709  130.7180  149.6564 LP  0  0  0  0  0  0  0  0  0  0  0  0  # atno 17370 bound_to 10713
  155.9694  130.4199  150.4397 LP  0  0  0  0  0  0  0  0  0  0  0  0  # atno 17371 bound_to 10713
  140.7804  133.8664  155.8563 LP  0  0  0  0  0  0  0  0  0  0  0  0  # atno 17394 bound_to 11000
  140.9765  134.1462  157.4531 LP  0  0  0  0  0  0  0  0  0  0  0  0  # atno 17395 bound_to 11000

$$$$
