AV-unprocessed.smi:169|AV-procd|sdf|1400|dock1
  -GOLD-   2262019143D 1   1.00000     0.00000
 Structure written by MMmdl.
 56 60  0  0  0  0  0  0  0  0  2 V2000
  152.6027  142.8076  161.7012 C   0  0  0  0  0  0  0  0  0  0  0  0
  152.0012  143.2386  160.3517 C   0  0  0  0  0  0  0  0  0  0  0  0
  151.8115  142.1223  159.3894 N   0  3  2  0  0  0  0  0  0  0  0  0
  153.0964  141.4510  158.9833 C   0  0  0  0  0  0  0  0  0  0  0  0
  152.9706  139.9169  158.6896 C   0  0  0  0  0  0  0  0  0  0  0  0
  151.8887  139.3889  157.6894 C   0  0  2  0  0  0  0  0  0  0  0  0
  152.0734  139.7333  156.1753 C   0  0  0  0  0  0  0  0  0  0  0  0
  151.0630  140.8954  155.8981 C   0  0  0  0  0  0  0  0  0  0  0  0
  150.6438  141.2578  157.3298 C   0  0  3  0  0  0  0  0  0  0  0  0
  150.8689  142.4698  158.2640 C   0  0  0  0  0  0  0  0  0  0  0  0
  150.6069  139.9867  158.0375 N   0  0  0  0  0  0  0  0  0  0  0  0
  149.4458  139.2834  157.9204 C   0  0  0  0  0  0  0  0  0  0  0  0
  148.4570  139.7329  157.1025 N   0  0  0  0  0  0  0  0  0  0  0  0
  147.3078  139.0619  156.9904 C   0  0  0  0  0  0  0  0  0  0  0  0
  146.9432  137.9293  157.5917 N   0  0  0  0  0  0  0  0  0  0  0  0
  147.9331  137.4577  158.4011 C   0  0  0  0  0  0  0  0  0  0  0  0
  149.2017  138.0668  158.6228 C   0  0  0  0  0  0  0  0  0  0  0  0
  149.9417  137.2943  159.5099 N   0  0  0  0  0  0  0  0  0  0  0  0
  149.1554  136.2944  159.8007 C   0  0  0  0  0  0  0  0  0  0  0  0
  147.9331  136.3043  159.1681 N   0  0  0  0  0  0  0  0  0  0  0  0
  146.8678  135.3215  159.3119 C   0  0  0  0  0  0  0  0  0  0  0  0
  146.4761  135.0104  160.7734 C   0  0  0  0  0  0  0  0  0  0  0  0
  146.0339  136.2915  161.4994 C   0  0  0  0  0  0  0  0  0  0  0  0
  147.1496  137.0467  161.9252 O   0  0  0  0  0  0  0  0  0  0  0  0
  145.5523  133.7987  160.9703 C   0  0  0  0  0  0  0  0  0  0  0  0
  146.6338  132.9695  161.4435 O   0  0  0  0  0  0  0  0  0  0  0  0
  147.4799  134.1346  161.5358 C   0  0  0  0  0  0  0  0  0  0  0  0
  152.6974  143.6670  162.3653 H   0  0  0  0  0  0  0  0  0  0  0  0
  153.5979  142.3791  161.5880 H   0  0  0  0  0  0  0  0  0  0  0  0
  151.9761  142.0748  162.2096 H   0  0  0  0  0  0  0  0  0  0  0  0
  151.0366  143.7179  160.5227 H   0  0  0  0  0  0  0  0  0  0  0  0
  152.6347  143.9992  159.8935 H   0  0  0  0  0  0  0  0  0  0  0  0
  153.5424  141.9759  158.1369 H   0  0  0  0  0  0  0  0  0  0  0  0
  153.8181  141.5561  159.7947 H   0  0  0  0  0  0  0  0  0  0  0  0
  153.9449  139.5445  158.3721 H   0  0  0  0  0  0  0  0  0  0  0  0
  152.7811  139.4275  159.6458 H   0  0  0  0  0  0  0  0  0  0  0  0
  151.8814  138.3042  157.7972 H   0  0  0  0  0  0  0  0  0  0  0  0
  153.1015  140.0276  155.9613 H   0  0  0  0  0  0  0  0  0  0  0  0
  151.8385  138.8743  155.5457 H   0  0  0  0  0  0  0  0  0  0  0  0
  151.4831  141.7146  155.3061 H   0  0  0  0  0  0  0  0  0  0  0  0
  150.2006  140.5130  155.3504 H   0  0  0  0  0  0  0  0  0  0  0  0
  151.6708  141.5628  157.2158 H   0  0  0  0  0  0  0  0  0  0  0  0
  149.9154  142.7475  158.7125 H   0  0  0  0  0  0  0  0  0  0  0  0
  151.1997  143.3556  157.7137 H   0  0  0  0  0  0  0  0  0  0  0  0
  146.5758  139.4937  156.3236 H   0  0  0  0  0  0  0  0  0  0  0  0
  149.4496  135.5190  160.4928 H   0  0  0  0  0  0  0  0  0  0  0  0
  146.0022  135.6953  158.7632 H   0  0  0  0  0  0  0  0  0  0  0  0
  147.1672  134.4123  158.7897 H   0  0  0  0  0  0  0  0  0  0  0  0
  145.3947  136.9124  160.8724 H   0  0  0  0  0  0  0  0  0  0  0  0
  145.4434  136.0492  162.3834 H   0  0  0  0  0  0  0  0  0  0  0  0
  147.0958  137.1627  162.8616 H   0  0  0  0  0  0  0  0  0  0  0  0
  144.7889  133.9419  161.7367 H   0  0  0  0  0  0  0  0  0  0  0  0
  145.1081  133.4108  160.0549 H   0  0  0  0  0  0  0  0  0  0  0  0
  148.4327  134.0015  161.0217 H   0  0  0  0  0  0  0  0  0  0  0  0
  147.6382  134.4385  162.5718 H   0  0  0  0  0  0  0  0  0  0  0  0
  151.3222  141.4168  159.9216 H   0  0  0  0  0  0  0  0  0  0  0  0
  1  2  1  0  0  0  0
  1 28  1  0  0  0  0
  1 29  1  0  0  0  0
  1 30  1  0  0  0  0
  2  3  1  0  0  0  0
  2 31  1  0  0  0  0
  2 32  1  0  0  0  0
  3 10  1  0  0  0  0
  3  4  1  0  0  0  0
  3 56  1  0  0  0  0
  4  5  1  0  0  0  0
  4 33  1  0  0  0  0
  4 34  1  0  0  0  0
  5  6  1  0  0  0  0
  5 35  1  0  0  0  0
  5 36  1  0  0  0  0
  6 11  1  0  0  0  0
  6  7  1  0  0  0  0
  6 37  1  0  0  0  0
  7  8  1  0  0  0  0
  7 38  1  0  0  0  0
  7 39  1  0  0  0  0
  8  9  1  0  0  0  0
  8 40  1  0  0  0  0
  8 41  1  0  0  0  0
  9 10  1  0  0  0  0
  9 11  1  0  0  0  0
  9 42  1  0  0  0  0
 10 43  1  0  0  0  0
 10 44  1  0  0  0  0
 11 12  1  0  0  0  0
 12 17  1  0  0  0  0
 12 13  2  0  0  0  0
 13 14  1  0  0  0  0
 14 15  2  0  0  0  0
 14 45  1  0  0  0  0
 15 16  1  0  0  0  0
 16 20  1  0  0  0  0
 16 17  2  0  0  0  0
 17 18  1  0  0  0  0
 18 19  2  0  0  0  0
 19 20  1  0  0  0  0
 19 46  1  0  0  0  0
 20 21  1  0  0  0  0
 21 22  1  0  0  0  0
 21 47  1  0  0  0  0
 21 48  1  0  0  0  0
 22 27  1  0  0  0  0
 22 23  1  0  0  0  0
 22 25  1  0  0  0  0
 23 24  1  0  0  0  0
 23 49  1  0  0  0  0
 23 50  1  0  0  0  0
 24 51  1  0  0  0  0
 25 26  1  0  0  0  0
 25 52  1  0  0  0  0
 25 53  1  0  0  0  0
 26 27  1  0  0  0  0
 27 54  1  0  0  0  0
 27 55  1  0  0  0  0
M  CHG  1   3   1
M  END
> <s_m_source_file>
AV-unprocessed.smi

> <i_m_source_file_index>
169

> <i_lp_mmshare_version>
43012

> <i_f3d_flags>
0

> <s_epik_input>
W0NASF0xMltDSDJdW0NIMl1OKFtDSDJdW0NIM10pW0NIMl1bQ0BIXShbQ0gyXVtDSDJdMSlOMmMobltjSF1uMyljKGMzNCluW2NIXW40W0NIMl1DNShbQ0gyXVtPSF0pW0NIMl1PW0NIMl01

> <s_epik_cmdline>
J2VwaWtfcHl0aG9uJywgJy1waCcsICc3LjAnLCAnLXRuJywgJzgnLCAnLW1hJywgJzIwMCcsICctbWV0YWxfYmluZGluZycsICctaW1hZScsICc8aW5maWxlLm1hZT4nLCAnLW9tYWUnLCAnPG91dGZpbGUubWFlPic=

> <r_lp_tautomer_probability>
1

> <r_epik_Ionization_Penalty>
0.00274162

> <r_epik_Ionization_Penalty_Charging>
0.00243722

> <r_epik_Ionization_Penalty_Neutral>
0.000304399

> <r_epik_State_Penalty>
-0

> <r_epik_Charging_Adjusted_Penalty>
0.00243722

> <i_epik_Tot_Q>
1

> <i_epik_Tot_abs_Q>
1

> <r_epik_Metal_State_Penalty>
-0

> <b_epik_Metal_Only>
0

> <s_lp_Force_Field>
OPLS_2005

> <r_lp_Energy>
131.332

> <b_lp_Chiralities_Consistent>
1

> <s_lp_Variant>
AV-unprocessed.smi:169-3

> <Gold.Version>
5.8.1

> <Gold.Id.Protein>
6NUR|6NUR_protein|mol2

> <Gold.PLP.Fitness>
41.9981

> <Gold.PLP.PLP>
-39.2923

> <Gold.PLP.part.hbond>
-3.0000

> <Gold.PLP.part.metal>
0.0000

> <Gold.PLP.part.buried>
-5.0148

> <Gold.PLP.part.nonpolar>
-31.0693

> <Gold.PLP.part.repulsive>
0.1035

> <Gold.PLP.ligand.clash>
0.0000

> <Gold.PLP.ligand.torsion>
0.5776

> <Gold.PLP.Chemscore.Hbond>
1.1117

> <Gold.PLP.Chemscore.CHOScore>
0.0000

> <Gold.PLP.Chemscore.Metal>
0.0000

> <Gold.Chemscore.Hbonds>
donor molecule, donor type, donor heavy atom, donor atom, acceptor molecule, acceptor atom, score
      P1  H  6931  6943       L1    24  0.20
      P1  H  6934  6947       L1    24  0.48

> <Gold.PLP.Chemscore.Internal.Correction>
0.5259

> <Gold.Rescore>
     Score         DG    S(hbond)    S(metal)    S(lipo)     H(rot)  DE(clash)    DE(int)     intcor
     11.84     -12.70       0.62        0.00     101.38       2.62       0.01       0.84       ----

> <Gold.Chemscore.Fitness>
11.8430

> <Gold.Chemscore.DG>
-12.6995

> <Gold.Chemscore.ZeroCoef>
-5.4800

> <Gold.Chemscore.Hbond>
0.6192

> <Gold.Chemscore.Metal>
0.0000

> <Gold.Chemscore.Lipo>
101.3823

> <Gold.Chemscore.Internal_Hbond>
0.0000

> <Gold.Chemscore.DEClash>
0.0125

> <Gold.Chemscore.DEInternal>
0.8440

> <Gold.Chemscore.Rot>
2.6212

> <Gold.Chemscore.Internal.Correction>
   9.000000E+99

> <Gold.Chemscore.Hbonds>
donor molecule, donor type, donor heavy atom, donor atom, acceptor molecule, acceptor atom, score
      P1  H  6931  6943       L1    24  0.01
      P1  H  6934  6947       L1    24  0.26

> <Gold.Chemscore.Hbond.Weighted>
-2.0680

> <Gold.Chemscore.Metal.Weighted>
-0.0000

> <Gold.Chemscore.Lipo.Weighted>
-11.8617

> <Gold.Chemscore.Internal_Hbond.Weighted>
0.0000

> <Gold.Chemscore.DEClash.Weighted>
0.0125

> <Gold.Chemscore.DEInternal.Weighted>
0.8440

> <Gold.Chemscore.Rot.Weighted>
6.7102

> <Gold.Chemscore.Internal.Correction.Weighted>
   9.000000E+99

> <Gold.Protein.RotatedTorsions>
[ 6907 6896 6895 6894 ] final   13.14 input  -60.11 | X-H torsion
[ 7974 7965 7964 7962 ] final   38.85 input  175.53 | X-H torsion
[ 8008 7997 7996 7995 ] final   73.58 input   59.86 | X-H torsion
[ 10167 10162 10161 10158 ] final  175.85 input  -65.29 | X-H torsion
[ 10718 10713 10712 10709 ] final  -53.67 input   66.30 | X-H torsion
[ 10763 10752 10751 10750 ] final  -93.92 input  -60.55 | X-H torsion
[ 11005 11000 10999 10996 ] final   70.42 input  -57.11 | X-H torsion

> <Gold.Protein.ActiveResidues>
 VAL166  LYS551  ARG553  GLY616  TRP617  ASP618  TYR619  PRO620  LYS621  CYS622 
 ASP623  PHE694  ASN695  SER759  ASP760  ASP761  ALA762  ILE779  LEU786  VAL792 
 PHE793  MET794  SER795  GLU796  ALA797  LYS798  CYS799  TRP800  GLU811  SER814 

> <Gold.Protein.RotatedAtoms>
  151.7816  135.0760  160.0374 H   0  0  0  0  0  0  0  0  0  0  0  0  # atno 6907 bound_to 6896
  152.3219  133.5859  159.5759 H   0  0  0  0  0  0  0  0  0  0  0  0  # atno 6908 bound_to 6896
  150.7374  133.9914  159.3650 H   0  0  0  0  0  0  0  0  0  0  0  0  # atno 6909 bound_to 6896
  146.1030  139.5722  142.9402 H   0  0  0  0  0  0  0  0  0  0  0  0  # atno 7974 bound_to 7965
  155.7857  140.3480  155.5322 H   0  0  0  0  0  0  0  0  0  0  0  0  # atno 8008 bound_to 7997
  155.8684  140.0982  157.1587 H   0  0  0  0  0  0  0  0  0  0  0  0  # atno 8009 bound_to 7997
  154.4016  140.1345  156.4035 H   0  0  0  0  0  0  0  0  0  0  0  0  # atno 8010 bound_to 7997
  139.5192  144.2983  152.0401 H   0  0  0  0  0  0  0  0  0  0  0  0  # atno 10167 bound_to 10162
  156.1515  130.4151  149.9937 H   0  0  0  0  0  0  0  0  0  0  0  0  # atno 10718 bound_to 10713
  154.7005  135.5176  153.8520 H   0  0  0  0  0  0  0  0  0  0  0  0  # atno 10763 bound_to 10752
  153.0700  135.6598  154.0277 H   0  0  0  0  0  0  0  0  0  0  0  0  # atno 10764 bound_to 10752
  154.0136  135.3000  155.3369 H   0  0  0  0  0  0  0  0  0  0  0  0  # atno 10765 bound_to 10752
  139.9598  134.7080  156.0671 H   0  0  0  0  0  0  0  0  0  0  0  0  # atno 11005 bound_to 11000
  145.5817  141.0381  143.2118 LP  0  0  0  0  0  0  0  0  0  0  0  0  # atno 17320 bound_to 7965
  144.7448  139.7351  143.7297 LP  0  0  0  0  0  0  0  0  0  0  0  0  # atno 17321 bound_to 7965
  140.2432  144.4247  150.6251 LP  0  0  0  0  0  0  0  0  0  0  0  0  # atno 17342 bound_to 10162
  140.6276  143.2183  151.6563 LP  0  0  0  0  0  0  0  0  0  0  0  0  # atno 17343 bound_to 10162
  156.7793  130.9215  151.3646 LP  0  0  0  0  0  0  0  0  0  0  0  0  # atno 17370 bound_to 10713
  157.6661  130.9009  149.9935 LP  0  0  0  0  0  0  0  0  0  0  0  0  # atno 17371 bound_to 10713
  141.1274  133.6595  156.3374 LP  0  0  0  0  0  0  0  0  0  0  0  0  # atno 17394 bound_to 11000
  140.5525  134.6013  157.5412 LP  0  0  0  0  0  0  0  0  0  0  0  0  # atno 17395 bound_to 11000

$$$$
