AV-unprocessed.smi:1217|AV-procd|sdf|5102|dock10
  -GOLD-   22720 4153D 1   1.00000     0.00000
 Structure written by MMmdl.
 34 35  0  0  0  0  0  0  0  0  1 V2000
  145.6243  138.5040  154.5411 C   0  0  0  0  0  0  0  0  0  0  0  0
  146.2335  138.7511  153.1525 C   0  0  2  0  0  0  0  0  0  0  0  0
  146.5224  137.4585  152.5349 N   0  0  0  0  0  0  0  0  0  0  0  0
  145.6102  136.5454  152.1690 C   0  0  0  0  0  0  0  0  0  0  0  0
  144.3971  136.6955  152.3175 O   0  0  0  0  0  0  0  0  0  0  0  0
  146.1974  135.4667  151.6214 N   0  0  0  0  0  0  0  0  0  0  0  0
  145.5830  134.2726  151.1586 C   0  0  0  0  0  0  0  0  0  0  0  0
  146.4750  133.2186  150.8570 C   0  0  0  0  0  0  0  0  0  0  0  0
  145.9650  131.9893  150.3964 C   0  0  0  0  0  0  0  0  0  0  0  0
  144.5740  131.8440  150.2517 C   0  0  0  0  0  0  0  0  0  0  0  0
  143.7556  132.9421  150.5748 C   0  0  0  0  0  0  0  0  0  0  0  0
  144.2425  134.1216  151.0151 N   0  0  0  0  0  0  0  0  0  0  0  0
  147.5211  139.5971  153.2216 C   0  0  2  0  0  0  0  0  0  0  0  0
  148.6165  139.0231  154.1226 C   0  0  0  0  0  0  0  0  0  0  0  0
  149.4142  140.2454  154.5527 C   0  0  0  0  0  0  0  0  0  0  0  0
  148.5326  141.4288  154.1470 C   0  0  0  0  0  0  0  0  0  0  0  0
  147.2730  140.8543  153.8325 O   0  0  0  0  0  0  0  0  0  0  0  0
  145.3462  139.4399  155.0258 H   0  0  0  0  0  0  0  0  0  0  0  0
  146.3251  137.9856  155.1964 H   0  0  0  0  0  0  0  0  0  0  0  0
  144.7221  137.8955  154.4700 H   0  0  0  0  0  0  0  0  0  0  0  0
  145.4918  139.2877  152.5579 H   0  0  0  0  0  0  0  0  0  0  0  0
  147.4951  137.2473  152.3680 H   0  0  0  0  0  0  0  0  0  0  0  0
  147.2026  135.4976  151.5383 H   0  0  0  0  0  0  0  0  0  0  0  0
  147.5412  133.3469  150.9754 H   0  0  0  0  0  0  0  0  0  0  0  0
  146.6305  131.1723  150.1594 H   0  0  0  0  0  0  0  0  0  0  0  0
  144.1452  130.9163  149.9028 H   0  0  0  0  0  0  0  0  0  0  0  0
  142.6823  132.8718  150.4787 H   0  0  0  0  0  0  0  0  0  0  0  0
  147.9190  139.7673  152.2190 H   0  0  0  0  0  0  0  0  0  0  0  0
  148.1740  138.5526  155.0019 H   0  0  0  0  0  0  0  0  0  0  0  0
  149.2286  138.2766  153.6157 H   0  0  0  0  0  0  0  0  0  0  0  0
  149.5931  140.2302  155.6282 H   0  0  0  0  0  0  0  0  0  0  0  0
  150.3815  140.2937  154.0515 H   0  0  0  0  0  0  0  0  0  0  0  0
  148.4407  142.1750  154.9366 H   0  0  0  0  0  0  0  0  0  0  0  0
  148.9338  141.9198  153.2592 H   0  0  0  0  0  0  0  0  0  0  0  0
  1  2  1  0  0  0  0
  1 18  1  0  0  0  0
  1 19  1  0  0  0  0
  1 20  1  0  0  0  0
  2  3  1  0  0  0  0
  2 13  1  0  0  0  0
  2 21  1  0  0  0  0
  3  4  1  0  0  0  0
  3 22  1  0  0  0  0
  4  5  2  0  0  0  0
  4  6  1  0  0  0  0
  6  7  1  0  0  0  0
  6 23  1  0  0  0  0
  7 12  1  0  0  0  0
  7  8  2  0  0  0  0
  8  9  1  0  0  0  0
  8 24  1  0  0  0  0
  9 10  2  0  0  0  0
  9 25  1  0  0  0  0
 10 11  1  0  0  0  0
 10 26  1  0  0  0  0
 11 12  2  0  0  0  0
 11 27  1  0  0  0  0
 13 17  1  0  0  0  0
 13 14  1  0  0  0  0
 13 28  1  0  0  0  0
 14 15  1  0  0  0  0
 14 29  1  0  0  0  0
 14 30  1  0  0  0  0
 15 16  1  0  0  0  0
 15 31  1  0  0  0  0
 15 32  1  0  0  0  0
 16 17  1  0  0  0  0
 16 33  1  0  0  0  0
 16 34  1  0  0  0  0
M  END
> <s_m_source_file>
AV-unprocessed.smi

> <i_m_source_file_index>
1217

> <i_lp_mmshare_version>
43012

> <i_f3d_flags>
0

> <s_epik_input>
TzFbQ0gyXVtDSDJdW0NIMl1bQ0BIXTFbQ0BIXShbQ0gzXSlbTkhdQyg9TylbTkhdYzJbY0hdW2NIXVtjSF1bY0hdbjI=

> <s_epik_cmdline>
J2VwaWtfcHl0aG9uJywgJy1waCcsICc3LjAnLCAnLXRuJywgJzgnLCAnLW1hJywgJzIwMCcsICctbWV0YWxfYmluZGluZycsICctaW1hZScsICc8aW5maWxlLm1hZT4nLCAnLW9tYWUnLCAnPG91dGZpbGUubWFlPic=

> <r_lp_tautomer_probability>
1

> <r_epik_Ionization_Penalty>
4.51768e-05

> <r_epik_Ionization_Penalty_Charging>
0

> <r_epik_Ionization_Penalty_Neutral>
4.51768e-05

> <r_epik_State_Penalty>
-0

> <r_epik_Charging_Adjusted_Penalty>
0

> <i_epik_Tot_Q>
0

> <i_epik_Tot_abs_Q>
0

> <r_epik_Metal_State_Penalty>
-0

> <b_epik_Metal_Only>
0

> <s_lp_Force_Field>
OPLS_2005

> <r_lp_Energy>
20.7335

> <b_lp_Chiralities_Consistent>
1

> <s_lp_Variant>
AV-unprocessed.smi:1217-1

> <Gold.Version>
5.8.1

> <Gold.Id.Protein>
6NUR|6NUR_protein|mol2

> <Gold.PLP.Fitness>
37.9733

> <Gold.PLP.PLP>
-29.1259

> <Gold.PLP.part.hbond>
-2.0000

> <Gold.PLP.part.metal>
0.0000

> <Gold.PLP.part.buried>
-2.6490

> <Gold.PLP.part.nonpolar>
-25.8797

> <Gold.PLP.part.repulsive>
0.5916

> <Gold.PLP.ligand.clash>
0.0000

> <Gold.PLP.ligand.torsion>
0.0868

> <Gold.PLP.Chemscore.Hbond>
2.0000

> <Gold.PLP.Chemscore.CHOScore>
1.0000

> <Gold.PLP.Chemscore.Metal>
0.0000

> <Gold.Chemscore.Hbonds>
donor molecule, donor type, donor heavy atom, donor atom, acceptor molecule, acceptor atom, score
      L1  H     3    22       P1  7948  1.00
      L1  H     6    23       P1  7948  1.00
      L1  C    11    27       P1 10186  1.00

> <Gold.PLP.Chemscore.Internal.Correction>
0.0210

> <Gold.Rescore>
     Score         DG    S(hbond)    S(metal)    S(lipo)     H(rot)  DE(clash)    DE(int)     intcor
     15.59     -17.04       1.94        0.00      70.78       1.25       0.04       1.40       ----

> <Gold.Chemscore.Fitness>
15.5929

> <Gold.Chemscore.DG>
-17.0375

> <Gold.Chemscore.ZeroCoef>
-5.4800

> <Gold.Chemscore.Hbond>
1.9394

> <Gold.Chemscore.Metal>
0.0000

> <Gold.Chemscore.Lipo>
70.7814

> <Gold.Chemscore.Internal_Hbond>
0.0000

> <Gold.Chemscore.DEClash>
0.0435

> <Gold.Chemscore.DEInternal>
1.4011

> <Gold.Chemscore.Rot>
1.2506

> <Gold.Chemscore.Internal.Correction>
   9.000000E+99

> <Gold.Chemscore.Hbonds>
donor molecule, donor type, donor heavy atom, donor atom, acceptor molecule, acceptor atom, score
      L1  H     3    22       P1  7948  0.99
      L1  H     6    23       P1  7948  0.96

> <Gold.Chemscore.Hbond.Weighted>
-6.4777

> <Gold.Chemscore.Metal.Weighted>
-0.0000

> <Gold.Chemscore.Lipo.Weighted>
-8.2814

> <Gold.Chemscore.Internal_Hbond.Weighted>
0.0000

> <Gold.Chemscore.DEClash.Weighted>
0.0435

> <Gold.Chemscore.DEInternal.Weighted>
1.4011

> <Gold.Chemscore.Rot.Weighted>
3.2016

> <Gold.Chemscore.Internal.Correction.Weighted>
   9.000000E+99

> <Gold.Protein.RotatedTorsions>
[ 6907 6896 6895 6894 ] final   52.96 input  -60.11 | X-H torsion
[ 7974 7965 7964 7962 ] final   41.76 input  175.53 | X-H torsion
[ 8008 7997 7996 7995 ] final  -44.97 input   59.86 | X-H torsion
[ 10167 10162 10161 10158 ] final  -86.33 input  -65.29 | X-H torsion
[ 10718 10713 10712 10709 ] final  153.44 input   66.30 | X-H torsion
[ 10763 10752 10751 10750 ] final  -67.35 input  -60.55 | X-H torsion
[ 11005 11000 10999 10996 ] final   26.87 input  -57.11 | X-H torsion

> <Gold.Protein.ActiveResidues>
 VAL166  LYS551  ARG553  GLY616  TRP617  ASP618  TYR619  PRO620  LYS621  CYS622 
 ASP623  PHE694  ASN695  SER759  ASP760  ASP761  ALA762  ILE779  LEU786  VAL792 
 PHE793  MET794  SER795  GLU796  ALA797  LYS798  CYS799  TRP800  GLU811  SER814 

> <Gold.Protein.RotatedAtoms>
  152.3287  134.7287  160.0294 H   0  0  0  0  0  0  0  0  0  0  0  0  # atno 6907 bound_to 6896
  151.7711  133.3336  159.3453 H   0  0  0  0  0  0  0  0  0  0  0  0  # atno 6908 bound_to 6896
  150.7410  134.5949  159.6051 H   0  0  0  0  0  0  0  0  0  0  0  0  # atno 6909 bound_to 6896
  146.0796  139.5378  142.9545 H   0  0  0  0  0  0  0  0  0  0  0  0  # atno 7974 bound_to 7965
  154.3999  140.1408  156.3771 H   0  0  0  0  0  0  0  0  0  0  0  0  # atno 8008 bound_to 7997
  155.8039  140.3475  155.5398 H   0  0  0  0  0  0  0  0  0  0  0  0  # atno 8009 bound_to 7997
  155.8456  140.0933  157.1698 H   0  0  0  0  0  0  0  0  0  0  0  0  # atno 8010 bound_to 7997
  140.3952  143.2687  151.9214 H   0  0  0  0  0  0  0  0  0  0  0  0  # atno 10167 bound_to 10162
  157.2448  131.0766  151.1769 H   0  0  0  0  0  0  0  0  0  0  0  0  # atno 10718 bound_to 10713
  154.3732  135.6090  153.5751 H   0  0  0  0  0  0  0  0  0  0  0  0  # atno 10763 bound_to 10752
  152.9789  135.5843  154.4497 H   0  0  0  0  0  0  0  0  0  0  0  0  # atno 10764 bound_to 10752
  154.4255  135.2846  155.1925 H   0  0  0  0  0  0  0  0  0  0  0  0  # atno 10765 bound_to 10752
  140.3323  134.2424  155.7700 H   0  0  0  0  0  0  0  0  0  0  0  0  # atno 11005 bound_to 11000
  145.6242  141.0317  143.1898 LP  0  0  0  0  0  0  0  0  0  0  0  0  # atno 17320 bound_to 7965
  144.7284  139.7801  143.7356 LP  0  0  0  0  0  0  0  0  0  0  0  0  # atno 17321 bound_to 7965
  139.4787  144.5689  151.8121 LP  0  0  0  0  0  0  0  0  0  0  0  0  # atno 17342 bound_to 10162
  140.4798  144.1466  150.5931 LP  0  0  0  0  0  0  0  0  0  0  0  0  # atno 17343 bound_to 10162
  157.3341  130.7000  149.6342 LP  0  0  0  0  0  0  0  0  0  0  0  0  # atno 17370 bound_to 10713
  155.9668  130.4299  150.4852 LP  0  0  0  0  0  0  0  0  0  0  0  0  # atno 17371 bound_to 10713
  141.2060  133.7845  157.0201 LP  0  0  0  0  0  0  0  0  0  0  0  0  # atno 17394 bound_to 11000
  140.0850  134.9626  157.1685 LP  0  0  0  0  0  0  0  0  0  0  0  0  # atno 17395 bound_to 11000

$$$$
