AV-unprocessed.smi:2973|AV-procd|sdf|11343|dock9
  -GOLD-   2272016253D 1   1.00000     0.00000
 Structure written by MMmdl.
 50 52  0  0  0  0  0  0  0  0  2 V2000
  152.0683  139.0439  158.4668 C   0  0  0  0  0  0  0  0  0  0  0  0
  152.1039  140.4824  157.9084 C   0  0  2  0  0  0  0  0  0  0  0  0
  152.1431  141.5019  159.0677 C   0  0  0  0  0  0  0  0  0  0  0  0
  152.2439  142.9493  158.5604 C   0  0  0  0  0  0  0  0  0  0  0  0
  151.0965  143.2838  157.5978 C   0  0  0  0  0  0  0  0  0  0  0  0
  151.0567  142.2890  156.4278 C   0  0  0  0  0  0  0  0  0  0  0  0
  150.9507  140.8236  156.9148 C   0  0  2  0  0  0  0  0  0  0  0  0
  149.6368  140.5596  157.4777 N   0  0  0  0  0  0  0  0  0  0  0  0
  148.9272  139.6808  156.7581 C   0  0  0  0  0  0  0  0  0  0  0  0
  147.7804  139.3181  157.0138 O   0  0  0  0  0  0  0  0  0  0  0  0
  149.6816  139.2784  155.7191 N   0  0  0  0  0  0  0  0  0  0  0  0
  149.2311  138.3564  154.6690 C   0  0  0  0  0  0  0  0  0  0  0  0
  147.9207  138.8190  154.0180 C   0  0  0  0  0  0  0  0  0  0  0  0
  147.4173  139.9002  154.3264 O   0  0  0  0  0  0  0  0  0  0  0  0
  147.3795  137.9897  153.1120 N   0  0  0  0  0  0  0  0  0  0  0  0
  146.1644  138.2538  152.3438 C   0  0  0  0  0  0  0  0  0  0  0  0
  144.9748  137.3830  152.7977 C   0  0  0  0  0  0  0  0  0  0  0  0
  144.9435  136.0013  152.1660 C   0  0  0  0  0  0  0  0  0  0  0  0
  143.7385  135.3882  151.7585 C   0  0  0  0  0  0  0  0  0  0  0  0
  143.7775  134.0917  151.2053 C   0  0  0  0  0  0  0  0  0  0  0  0
  145.0182  133.4354  151.0705 C   0  0  0  0  0  0  0  0  0  0  0  0
  146.1911  134.0958  151.4889 C   0  0  0  0  0  0  0  0  0  0  0  0
  146.1132  135.3394  152.0116 N   0  3  0  0  0  0  0  0  0  0  0  0
  150.8805  139.8772  155.7237 C   0  0  0  0  0  0  0  0  0  0  0  0
  151.7912  139.7222  154.9095 O   0  0  0  0  0  0  0  0  0  0  0  0
  151.1566  138.8539  159.0334 H   0  0  0  0  0  0  0  0  0  0  0  0
  152.9104  138.8675  159.1364 H   0  0  0  0  0  0  0  0  0  0  0  0
  152.1310  138.2986  157.6741 H   0  0  0  0  0  0  0  0  0  0  0  0
  153.0444  140.5841  157.3641 H   0  0  0  0  0  0  0  0  0  0  0  0
  151.2511  141.3951  159.6866 H   0  0  0  0  0  0  0  0  0  0  0  0
  152.9922  141.2910  159.7190 H   0  0  0  0  0  0  0  0  0  0  0  0
  152.2336  143.6402  159.4039 H   0  0  0  0  0  0  0  0  0  0  0  0
  153.1993  143.0937  158.0545 H   0  0  0  0  0  0  0  0  0  0  0  0
  150.1474  143.2655  158.1348 H   0  0  0  0  0  0  0  0  0  0  0  0
  151.2157  144.2987  157.2173 H   0  0  0  0  0  0  0  0  0  0  0  0
  150.2231  142.5357  155.7679 H   0  0  0  0  0  0  0  0  0  0  0  0
  151.9620  142.4141  155.8317 H   0  0  0  0  0  0  0  0  0  0  0  0
  149.2993  141.0142  158.3137 H   0  0  0  0  0  0  0  0  0  0  0  0
  150.0093  138.2571  153.9098 H   0  0  0  0  0  0  0  0  0  0  0  0
  149.0814  137.3551  155.0756 H   0  0  0  0  0  0  0  0  0  0  0  0
  147.8538  137.1170  152.9282 H   0  0  0  0  0  0  0  0  0  0  0  0
  145.9095  139.3065  152.4667 H   0  0  0  0  0  0  0  0  0  0  0  0
  146.3489  138.1121  151.2777 H   0  0  0  0  0  0  0  0  0  0  0  0
  144.9989  137.2734  153.8827 H   0  0  0  0  0  0  0  0  0  0  0  0
  144.0390  137.8940  152.5683 H   0  0  0  0  0  0  0  0  0  0  0  0
  142.7930  135.8963  151.8810 H   0  0  0  0  0  0  0  0  0  0  0  0
  142.8647  133.6032  150.8973 H   0  0  0  0  0  0  0  0  0  0  0  0
  145.0682  132.4390  150.6565 H   0  0  0  0  0  0  0  0  0  0  0  0
  147.1813  133.6687  151.4252 H   0  0  0  0  0  0  0  0  0  0  0  0
  146.9745  135.7943  152.3153 H   0  0  0  0  0  0  0  0  0  0  0  0
  1  2  1  0  0  0  0
  1 26  1  0  0  0  0
  1 27  1  0  0  0  0
  1 28  1  0  0  0  0
  2  7  1  0  0  0  0
  2  3  1  0  0  0  0
  2 29  1  0  0  0  0
  3  4  1  0  0  0  0
  3 30  1  0  0  0  0
  3 31  1  0  0  0  0
  4  5  1  0  0  0  0
  4 32  1  0  0  0  0
  4 33  1  0  0  0  0
  5  6  1  0  0  0  0
  5 34  1  0  0  0  0
  5 35  1  0  0  0  0
  6  7  1  0  0  0  0
  6 36  1  0  0  0  0
  6 37  1  0  0  0  0
  7 24  1  0  0  0  0
  7  8  1  0  0  0  0
  8  9  1  0  0  0  0
  8 38  1  0  0  0  0
  9 10  2  0  0  0  0
  9 11  1  0  0  0  0
 11 12  1  0  0  0  0
 11 24  1  0  0  0  0
 12 13  1  0  0  0  0
 12 39  1  0  0  0  0
 12 40  1  0  0  0  0
 13 14  2  0  0  0  0
 13 15  1  0  0  0  0
 15 16  1  0  0  0  0
 15 41  1  0  0  0  0
 16 17  1  0  0  0  0
 16 42  1  0  0  0  0
 16 43  1  0  0  0  0
 17 18  1  0  0  0  0
 17 44  1  0  0  0  0
 17 45  1  0  0  0  0
 18 23  1  0  0  0  0
 18 19  2  0  0  0  0
 19 20  1  0  0  0  0
 19 46  1  0  0  0  0
 20 21  2  0  0  0  0
 20 47  1  0  0  0  0
 21 22  1  0  0  0  0
 21 48  1  0  0  0  0
 22 23  2  0  0  0  0
 22 49  1  0  0  0  0
 23 50  1  0  0  0  0
 24 25  2  0  0  0  0
M  CHG  1  23   1
M  END
> <s_m_source_file>
AV-unprocessed.smi

> <i_m_source_file_index>
2973

> <i_lp_mmshare_version>
43012

> <i_f3d_flags>
0

> <s_epik_input>
W0NIMl0xW0NIMl1bQ0gyXVtDSDJdW0NAQEhdKFtDSDNdKVtDQF0xMltOSF1DKD1PKU4oQzI9TylbQ0gyXUMoPU8pW05IXVtDSDJdW0NIMl1jM1tjSF1bY0hdW2NIXVtjSF1uMw==

> <s_epik_cmdline>
J2VwaWtfcHl0aG9uJywgJy1waCcsICc3LjAnLCAnLXRuJywgJzgnLCAnLW1hJywgJzIwMCcsICctbWV0YWxfYmluZGluZycsICctaW1hZScsICc8aW5maWxlLm1hZT4nLCAnLW9tYWUnLCAnPG91dGZpbGUubWFlPic=

> <r_lp_tautomer_probability>
1

> <r_epik_Ionization_Penalty>
1.90043

> <r_epik_Ionization_Penalty_Charging>
1.90039

> <r_epik_Ionization_Penalty_Neutral>
4.65525e-05

> <r_epik_State_Penalty>
2.02162

> <r_epik_Charging_Adjusted_Penalty>
3.922

> <i_epik_Tot_Q>
1

> <i_epik_Tot_abs_Q>
1

> <r_epik_Metal_State_Penalty>
2.06631

> <b_epik_Metal_Only>
0

> <s_lp_Force_Field>
OPLS_2005

> <r_lp_Energy>
26.4657

> <b_lp_Chiralities_Consistent>
1

> <s_lp_Variant>
AV-unprocessed.smi:2973-7

> <Gold.Version>
5.8.1

> <Gold.Id.Protein>
6NUR|6NUR_protein|mol2

> <Gold.PLP.Fitness>
51.2105

> <Gold.PLP.PLP>
-40.4699

> <Gold.PLP.part.hbond>
-2.9794

> <Gold.PLP.part.metal>
0.0000

> <Gold.PLP.part.buried>
-7.1238

> <Gold.PLP.part.nonpolar>
-31.8971

> <Gold.PLP.part.repulsive>
0.3732

> <Gold.PLP.ligand.clash>
0.0000

> <Gold.PLP.ligand.torsion>
0.5327

> <Gold.PLP.Chemscore.Hbond>
3.9280

> <Gold.PLP.Chemscore.CHOScore>
0.0000

> <Gold.PLP.Chemscore.Metal>
0.0000

> <Gold.Chemscore.Hbonds>
donor molecule, donor type, donor heavy atom, donor atom, acceptor molecule, acceptor atom, score
      L1  H    15    41       P1  7948  0.91
      L1  H    23    50       P1  7948  1.69
      P1  H  7989  7998       L1    25  1.00

> <Gold.PLP.Chemscore.Internal.Correction>
0.0220

> <Gold.Rescore>
     Score         DG    S(hbond)    S(metal)    S(lipo)     H(rot)  DE(clash)    DE(int)     intcor
     19.69     -21.50       2.73        0.00     102.03       1.96       0.37       1.44       ----

> <Gold.Chemscore.Fitness>
19.6920

> <Gold.Chemscore.DG>
-21.5025

> <Gold.Chemscore.ZeroCoef>
-5.4800

> <Gold.Chemscore.Hbond>
2.7283

> <Gold.Chemscore.Metal>
0.0000

> <Gold.Chemscore.Lipo>
102.0286

> <Gold.Chemscore.Internal_Hbond>
0.0000

> <Gold.Chemscore.DEClash>
0.3713

> <Gold.Chemscore.DEInternal>
1.4391

> <Gold.Chemscore.Rot>
1.9638

> <Gold.Chemscore.Internal.Correction>
   9.000000E+99

> <Gold.Chemscore.Hbonds>
donor molecule, donor type, donor heavy atom, donor atom, acceptor molecule, acceptor atom, score
      L1  H    15    41       P1  7948  0.90
      L1  H    23    50       P1  7948  0.79
      P1  H  7989  7998       L1    25  0.81

> <Gold.Chemscore.Hbond.Weighted>
-9.1125

> <Gold.Chemscore.Metal.Weighted>
-0.0000

> <Gold.Chemscore.Lipo.Weighted>
-11.9373

> <Gold.Chemscore.Internal_Hbond.Weighted>
0.0000

> <Gold.Chemscore.DEClash.Weighted>
0.3713

> <Gold.Chemscore.DEInternal.Weighted>
1.4391

> <Gold.Chemscore.Rot.Weighted>
5.0274

> <Gold.Chemscore.Internal.Correction.Weighted>
   9.000000E+99

> <Gold.Protein.RotatedTorsions>
[ 6907 6896 6895 6894 ] final    3.27 input  -60.11 | X-H torsion
[ 7974 7965 7964 7962 ] final  138.05 input  175.53 | X-H torsion
[ 8008 7997 7996 7995 ] final -171.45 input   59.86 | X-H torsion
[ 10167 10162 10161 10158 ] final -108.73 input  -65.29 | X-H torsion
[ 10718 10713 10712 10709 ] final   88.10 input   66.30 | X-H torsion
[ 10763 10752 10751 10750 ] final    5.46 input  -60.55 | X-H torsion
[ 11005 11000 10999 10996 ] final -115.39 input  -57.11 | X-H torsion

> <Gold.Protein.ActiveResidues>
 VAL166  LYS551  ARG553  GLY616  TRP617  ASP618  TYR619  PRO620  LYS621  CYS622 
 ASP623  PHE694  ASN695  SER759  ASP760  ASP761  ALA762  ILE779  LEU786  VAL792 
 PHE793  MET794  SER795  GLU796  ALA797  LYS798  CYS799  TRP800  GLU811  SER814 

> <Gold.Protein.RotatedAtoms>
  151.6224  135.1031  160.0104 H   0  0  0  0  0  0  0  0  0  0  0  0  # atno 6907 bound_to 6896
  152.4151  133.7020  159.6440 H   0  0  0  0  0  0  0  0  0  0  0  0  # atno 6908 bound_to 6896
  150.8039  133.8472  159.3236 H   0  0  0  0  0  0  0  0  0  0  0  0  # atno 6909 bound_to 6896
  144.9409  139.4932  143.5572 H   0  0  0  0  0  0  0  0  0  0  0  0  # atno 7974 bound_to 7965
  155.9318  140.1092  157.1126 H   0  0  0  0  0  0  0  0  0  0  0  0  # atno 8008 bound_to 7997
  154.4072  140.1236  156.4878 H   0  0  0  0  0  0  0  0  0  0  0  0  # atno 8009 bound_to 7997
  155.7071  140.3471  155.4960 H   0  0  0  0  0  0  0  0  0  0  0  0  # atno 8010 bound_to 7997
  140.1629  143.4105  152.1412 H   0  0  0  0  0  0  0  0  0  0  0  0  # atno 10167 bound_to 10162
  157.6946  131.0281  150.3223 H   0  0  0  0  0  0  0  0  0  0  0  0  # atno 10718 bound_to 10713
  153.2591  135.6921  153.7597 H   0  0  0  0  0  0  0  0  0  0  0  0  # atno 10763 bound_to 10752
  153.6663  135.3352  155.3142 H   0  0  0  0  0  0  0  0  0  0  0  0  # atno 10764 bound_to 10752
  154.8423  135.4489  154.1575 H   0  0  0  0  0  0  0  0  0  0  0  0  # atno 10765 bound_to 10752
  141.0491  133.9716  157.2868 H   0  0  0  0  0  0  0  0  0  0  0  0  # atno 11005 bound_to 11000
  146.3285  139.8427  142.8887 LP  0  0  0  0  0  0  0  0  0  0  0  0  # atno 17320 bound_to 7965
  145.2993  141.0189  143.3618 LP  0  0  0  0  0  0  0  0  0  0  0  0  # atno 17321 bound_to 7965
  139.5373  144.7222  151.4852 LP  0  0  0  0  0  0  0  0  0  0  0  0  # atno 17342 bound_to 10162
  140.6631  143.8456  150.6911 LP  0  0  0  0  0  0  0  0  0  0  0  0  # atno 17343 bound_to 10162
  156.3709  130.3863  149.7176 LP  0  0  0  0  0  0  0  0  0  0  0  0  # atno 17370 bound_to 10713
  156.4591  130.7943  151.2964 LP  0  0  0  0  0  0  0  0  0  0  0  0  # atno 17371 bound_to 10713
  139.9335  135.0198  156.8480 LP  0  0  0  0  0  0  0  0  0  0  0  0  # atno 17394 bound_to 11000
  140.6090  134.0100  155.7569 LP  0  0  0  0  0  0  0  0  0  0  0  0  # atno 17395 bound_to 11000

$$$$
