AV-unprocessed.smi:2026|AV-procd|sdf|8204|dock5
  -GOLD-   2272010463D 1   1.00000     0.00000
 Structure written by MMmdl.
 47 49  0  0  0  0  0  0  0  0  2 V2000
  151.9452  144.7296  160.3416 C   0  0  0  0  0  0  0  0  0  0  0  0
  151.8505  143.5567  159.3809 C   0  0  0  0  0  0  0  0  0  0  0  0
  151.0349  143.6887  158.2346 C   0  0  0  0  0  0  0  0  0  0  0  0
  150.9668  142.5982  157.3756 C   0  0  0  0  0  0  0  0  0  0  0  0
  150.2651  142.4190  156.1818 N   0  3  0  0  0  0  0  0  0  0  0  0
  150.5122  141.1727  155.6925 C   0  0  0  0  0  0  0  0  0  0  0  0
  151.3599  140.5522  156.5570 N   0  0  0  0  0  0  0  0  0  0  0  0
  151.9383  139.2022  156.4910 C   0  0  0  0  0  0  0  0  0  0  0  0
  152.5992  138.9060  155.1307 C   0  0  1  0  0  0  0  0  0  0  0  0
  153.7066  138.0505  155.3376 O   0  0  0  0  0  0  0  0  0  0  0  0
  151.6190  138.2190  154.1580 C   0  0  0  0  0  0  0  0  0  0  0  0
  150.5237  137.5511  154.8681 N   0  0  0  0  0  0  0  0  0  0  0  0
  149.2297  137.9038  154.7709 C   0  0  0  0  0  0  0  0  0  0  0  0
  148.7670  138.8057  154.0740 O   0  0  0  0  0  0  0  0  0  0  0  0
  148.5146  137.1034  155.5726 N   0  0  0  0  0  0  0  0  0  0  0  0
  149.3319  136.1368  156.2813 C   0  0  0  0  0  0  0  0  0  0  0  0
  149.2555  136.3636  157.8018 C   0  0  0  0  0  0  0  0  0  0  0  0
  148.9513  134.6988  155.8857 C   0  0  0  0  0  0  0  0  0  0  0  0
  150.6902  136.5338  155.7239 C   0  0  0  0  0  0  0  0  0  0  0  0
  151.7509  135.9937  156.0393 O   0  0  0  0  0  0  0  0  0  0  0  0
  151.6730  141.4046  157.6229 C   0  0  0  0  0  0  0  0  0  0  0  0
  152.4836  141.2601  158.7469 C   0  0  0  0  0  0  0  0  0  0  0  0
  152.5678  142.3584  159.6323 C   0  0  0  0  0  0  0  0  0  0  0  0
  153.4473  142.2295  160.8644 C   0  0  0  0  0  0  0  0  0  0  0  0
  151.2981  145.5512  160.0331 H   0  0  0  0  0  0  0  0  0  0  0  0
  152.9670  145.1073  160.3841 H   0  0  0  0  0  0  0  0  0  0  0  0
  151.6441  144.4291  161.3455 H   0  0  0  0  0  0  0  0  0  0  0  0
  150.4883  144.5988  158.0348 H   0  0  0  0  0  0  0  0  0  0  0  0
  150.1106  140.7530  154.7813 H   0  0  0  0  0  0  0  0  0  0  0  0
  152.6386  139.0620  157.3146 H   0  0  0  0  0  0  0  0  0  0  0  0
  151.1215  138.5004  156.6644 H   0  0  0  0  0  0  0  0  0  0  0  0
  152.9591  139.8446  154.7066 H   0  0  0  0  0  0  0  0  0  0  0  0
  154.0440  137.7856  154.4956 H   0  0  0  0  0  0  0  0  0  0  0  0
  151.2398  138.9295  153.4210 H   0  0  0  0  0  0  0  0  0  0  0  0
  152.1514  137.4644  153.5761 H   0  0  0  0  0  0  0  0  0  0  0  0
  147.5134  137.1629  155.6883 H   0  0  0  0  0  0  0  0  0  0  0  0
  149.8803  135.6496  158.3395 H   0  0  0  0  0  0  0  0  0  0  0  0
  148.2341  136.2448  158.1647 H   0  0  0  0  0  0  0  0  0  0  0  0
  149.5874  137.3657  158.0783 H   0  0  0  0  0  0  0  0  0  0  0  0
  149.5764  133.9684  156.4011 H   0  0  0  0  0  0  0  0  0  0  0  0
  149.0634  134.5307  154.8136 H   0  0  0  0  0  0  0  0  0  0  0  0
  147.9140  134.4834  156.1444 H   0  0  0  0  0  0  0  0  0  0  0  0
  153.0331  140.3510  158.9396 H   0  0  0  0  0  0  0  0  0  0  0  0
  153.9688  141.2719  160.8846 H   0  0  0  0  0  0  0  0  0  0  0  0
  152.8471  142.3016  161.7718 H   0  0  0  0  0  0  0  0  0  0  0  0
  154.2007  143.0175  160.8827 H   0  0  0  0  0  0  0  0  0  0  0  0
  149.6638  143.0965  155.7308 H   0  0  0  0  0  0  0  0  0  0  0  0
  1  2  1  0  0  0  0
  1 25  1  0  0  0  0
  1 26  1  0  0  0  0
  1 27  1  0  0  0  0
  2 23  1  0  0  0  0
  2  3  2  0  0  0  0
  3  4  1  0  0  0  0
  3 28  1  0  0  0  0
  4 21  2  0  0  0  0
  4  5  1  0  0  0  0
  5  6  2  0  0  0  0
  5 47  1  0  0  0  0
  6  7  1  0  0  0  0
  6 29  1  0  0  0  0
  7  8  1  0  0  0  0
  7 21  1  0  0  0  0
  8  9  1  0  0  0  0
  8 30  1  0  0  0  0
  8 31  1  0  0  0  0
  9 10  1  0  0  0  0
  9 11  1  0  0  0  0
  9 32  1  0  0  0  0
 10 33  1  0  0  0  0
 11 12  1  0  0  0  0
 11 34  1  0  0  0  0
 11 35  1  0  0  0  0
 12 19  1  0  0  0  0
 12 13  1  0  0  0  0
 13 14  2  0  0  0  0
 13 15  1  0  0  0  0
 15 16  1  0  0  0  0
 15 36  1  0  0  0  0
 16 17  1  0  0  0  0
 16 18  1  0  0  0  0
 16 19  1  0  0  0  0
 17 37  1  0  0  0  0
 17 38  1  0  0  0  0
 17 39  1  0  0  0  0
 18 40  1  0  0  0  0
 18 41  1  0  0  0  0
 18 42  1  0  0  0  0
 19 20  2  0  0  0  0
 21 22  1  0  0  0  0
 22 23  2  0  0  0  0
 22 43  1  0  0  0  0
 23 24  1  0  0  0  0
 24 44  1  0  0  0  0
 24 45  1  0  0  0  0
 24 46  1  0  0  0  0
M  CHG  1   5   1
M  END
> <s_m_source_file>
AV-unprocessed.smi

> <i_m_source_file_index>
2026

> <i_lp_mmshare_version>
43012

> <i_f3d_flags>
0

> <s_epik_input>
W0NIM11jKFtjSF0xKWMoW0NIM10pW2NIXWMoYzEyKW4oW2NIXW4yKVtDSDJdW0NASF0oW09IXSlbQ0gyXU4oQzM9TylDKD1PKVtOSF1DMyhbQ0gzXSlbQ0gzXQ==

> <s_epik_cmdline>
J2VwaWtfcHl0aG9uJywgJy1waCcsICc3LjAnLCAnLXRuJywgJzgnLCAnLW1hJywgJzIwMCcsICctbWV0YWxfYmluZGluZycsICctaW1hZScsICc8aW5maWxlLm1hZT4nLCAnLW9tYWUnLCAnPG91dGZpbGUubWFlPic=

> <r_lp_tautomer_probability>
1

> <r_epik_Ionization_Penalty>
1.08255

> <r_epik_Ionization_Penalty_Charging>
1.08249

> <r_epik_Ionization_Penalty_Neutral>
6.65731e-05

> <r_epik_State_Penalty>
1.13805

> <r_epik_Charging_Adjusted_Penalty>
2.22054

> <i_epik_Tot_Q>
1

> <i_epik_Tot_abs_Q>
1

> <r_epik_Metal_State_Penalty>
1.29676

> <b_epik_Metal_Only>
0

> <s_lp_Force_Field>
OPLS_2005

> <r_lp_Energy>
29.7067

> <b_lp_Chiralities_Consistent>
1

> <s_lp_Variant>
AV-unprocessed.smi:2026-4

> <Gold.Version>
5.8.1

> <Gold.Id.Protein>
6NUR|6NUR_protein|mol2

> <Gold.PLP.Fitness>
54.7261

> <Gold.PLP.PLP>
-47.7754

> <Gold.PLP.part.hbond>
-3.8597

> <Gold.PLP.part.metal>
0.0000

> <Gold.PLP.part.buried>
-6.4651

> <Gold.PLP.part.nonpolar>
-37.8849

> <Gold.PLP.part.repulsive>
0.3402

> <Gold.PLP.ligand.clash>
0.0000

> <Gold.PLP.ligand.torsion>
1.0424

> <Gold.PLP.Chemscore.Hbond>
3.0016

> <Gold.PLP.Chemscore.CHOScore>
0.0000

> <Gold.PLP.Chemscore.Metal>
0.0000

> <Gold.Chemscore.Hbonds>
donor molecule, donor type, donor heavy atom, donor atom, acceptor molecule, acceptor atom, score
      L1  H     5    47       P1  8028  2.00
      P1  H 10752 10764       L1    20  1.00

> <Gold.PLP.Chemscore.Internal.Correction>
0.0309

> <Gold.Rescore>
     Score         DG    S(hbond)    S(metal)    S(lipo)     H(rot)  DE(clash)    DE(int)     intcor
     17.70     -19.12       1.99        0.00     114.23       2.49       0.13       1.28       ----

> <Gold.Chemscore.Fitness>
17.7011

> <Gold.Chemscore.DG>
-19.1176

> <Gold.Chemscore.ZeroCoef>
-5.4800

> <Gold.Chemscore.Hbond>
1.9925

> <Gold.Chemscore.Metal>
0.0000

> <Gold.Chemscore.Lipo>
114.2252

> <Gold.Chemscore.Internal_Hbond>
0.0000

> <Gold.Chemscore.DEClash>
0.1317

> <Gold.Chemscore.DEInternal>
1.2848

> <Gold.Chemscore.Rot>
2.4929

> <Gold.Chemscore.Internal.Correction>
   9.000000E+99

> <Gold.Chemscore.Hbonds>
donor molecule, donor type, donor heavy atom, donor atom, acceptor molecule, acceptor atom, score
      L1  H     5    47       P1  8028  0.96
      P1  H 10752 10764       L1    20  1.00

> <Gold.Chemscore.Hbond.Weighted>
-6.6551

> <Gold.Chemscore.Metal.Weighted>
-0.0000

> <Gold.Chemscore.Lipo.Weighted>
-13.3643

> <Gold.Chemscore.Internal_Hbond.Weighted>
0.0000

> <Gold.Chemscore.DEClash.Weighted>
0.1317

> <Gold.Chemscore.DEInternal.Weighted>
1.2848

> <Gold.Chemscore.Rot.Weighted>
6.3819

> <Gold.Chemscore.Internal.Correction.Weighted>
   9.000000E+99

> <Gold.Protein.RotatedTorsions>
[ 6907 6896 6895 6894 ] final  -84.98 input  -60.11 | X-H torsion
[ 7974 7965 7964 7962 ] final -158.56 input  175.53 | X-H torsion
[ 8008 7997 7996 7995 ] final  145.95 input   59.86 | X-H torsion
[ 10167 10162 10161 10158 ] final   35.36 input  -65.29 | X-H torsion
[ 10718 10713 10712 10709 ] final   47.71 input   66.30 | X-H torsion
[ 10763 10752 10751 10750 ] final  -34.03 input  -60.55 | X-H torsion
[ 11005 11000 10999 10996 ] final   67.56 input  -57.11 | X-H torsion

> <Gold.Protein.ActiveResidues>
 VAL166  LYS551  ARG553  GLY616  TRP617  ASP618  TYR619  PRO620  LYS621  CYS622 
 ASP623  PHE694  ASN695  SER759  ASP760  ASP761  ALA762  ILE779  LEU786  VAL792 
 PHE793  MET794  SER795  GLU796  ALA797  LYS798  CYS799  TRP800  GLU811  SER814 

> <Gold.Protein.RotatedAtoms>
  150.6873  134.3275  159.4812 H   0  0  0  0  0  0  0  0  0  0  0  0  # atno 6907 bound_to 6896
  152.1143  134.9249  160.0574 H   0  0  0  0  0  0  0  0  0  0  0  0  # atno 6908 bound_to 6896
  152.0479  133.3971  159.4401 H   0  0  0  0  0  0  0  0  0  0  0  0  # atno 6909 bound_to 6896
  144.7500  140.3809  143.6055 H   0  0  0  0  0  0  0  0  0  0  0  0  # atno 7974 bound_to 7965
  156.2869  140.2195  156.5298 H   0  0  0  0  0  0  0  0  0  0  0  0  # atno 8008 bound_to 7997
  154.7459  140.0484  157.0873 H   0  0  0  0  0  0  0  0  0  0  0  0  # atno 8009 bound_to 7997
  155.0172  140.3120  155.4810 H   0  0  0  0  0  0  0  0  0  0  0  0  # atno 8010 bound_to 7997
  140.4229  144.1434  150.6150 H   0  0  0  0  0  0  0  0  0  0  0  0  # atno 10167 bound_to 10162
  157.4612  130.8198  149.7889 H   0  0  0  0  0  0  0  0  0  0  0  0  # atno 10718 bound_to 10713
  153.8400  135.6858  153.4804 H   0  0  0  0  0  0  0  0  0  0  0  0  # atno 10763 bound_to 10752
  153.1459  135.4638  154.9564 H   0  0  0  0  0  0  0  0  0  0  0  0  # atno 10764 bound_to 10752
  154.7849  135.3281  154.7855 H   0  0  0  0  0  0  0  0  0  0  0  0  # atno 10765 bound_to 10752
  139.9763  134.6817  156.0347 H   0  0  0  0  0  0  0  0  0  0  0  0  # atno 11005 bound_to 11000
  145.6978  139.1654  143.2610 LP  0  0  0  0  0  0  0  0  0  0  0  0  # atno 17320 bound_to 7965
  146.1437  140.7022  142.9355 LP  0  0  0  0  0  0  0  0  0  0  0  0  # atno 17321 bound_to 7965
  140.4513  143.2485  151.9343 LP  0  0  0  0  0  0  0  0  0  0  0  0  # atno 17342 bound_to 10162
  139.4783  144.5559  151.8314 LP  0  0  0  0  0  0  0  0  0  0  0  0  # atno 17343 bound_to 10162
  156.0030  130.3870  150.2536 LP  0  0  0  0  0  0  0  0  0  0  0  0  # atno 17370 bound_to 10713
  157.0713  131.0117  151.3189 LP  0  0  0  0  0  0  0  0  0  0  0  0  # atno 17371 bound_to 10713
  141.1440  133.6559  156.3812 LP  0  0  0  0  0  0  0  0  0  0  0  0  # atno 17394 bound_to 11000
  140.5188  134.6324  157.5310 LP  0  0  0  0  0  0  0  0  0  0  0  0  # atno 17395 bound_to 11000

$$$$
