AV-unprocessed.smi:2124|AV-procd|sdf|8662|dock10
  -GOLD-   2272011413D 1   1.00000     0.00000
 Structure written by MMmdl.
 47 49  0  0  0  0  0  0  0  0  1 V2000
  145.0921  147.3027  158.8540 C   0  0  0  0  0  0  0  0  0  0  0  0
  145.5479  145.8893  158.5638 C   0  0  0  0  0  0  0  0  0  0  0  0
  145.3351  145.4939  157.2534 N   0  0  0  0  0  0  0  0  0  0  0  0
  145.7069  144.2099  156.8957 C   0  0  0  0  0  0  0  0  0  0  0  0
  145.4292  143.8545  155.4453 C   0  0  0  0  0  0  0  0  0  0  0  0
  146.2713  143.3661  157.7966 C   0  0  0  0  0  0  0  0  0  0  0  0
  146.7027  141.9421  157.4507 C   0  0  0  0  0  0  0  0  0  0  0  0
  148.1959  141.6402  157.6002 C   0  0  0  0  0  0  0  0  0  0  0  0
  148.5767  140.5182  157.9342 O   0  0  0  0  0  0  0  0  0  0  0  0
  149.0313  142.6582  157.3443 N   0  0  0  0  0  0  0  0  0  0  0  0
  150.4910  142.5963  157.3939 C   0  0  2  0  0  0  0  0  0  0  0  0
  150.9553  141.2730  156.7587 C   0  0  0  0  0  0  0  0  0  0  0  0
  150.9629  142.7580  158.8605 C   0  0  2  0  0  0  0  0  0  0  0  0
  150.5407  144.1027  159.5059 C   0  0  0  0  0  0  0  0  0  0  0  0
  151.8662  144.6740  160.0384 C   0  0  1  0  0  0  0  0  0  0  0  0
  152.3572  143.8225  161.2232 C   0  0  0  0  0  0  0  0  0  0  0  0
  152.8257  142.5266  160.5358 C   0  0  0  0  0  0  0  0  0  0  0  0
  152.5008  142.7909  159.0527 C   0  0  2  0  0  0  0  0  0  0  0  0
  152.8338  144.2749  158.9329 C   0  0  0  0  0  0  0  0  0  0  0  0
  146.4916  143.8527  159.1787 C   0  0  0  0  0  0  0  0  0  0  0  0
  147.0219  143.1431  160.0328 O   0  0  0  0  0  0  0  0  0  0  0  0
  146.0825  145.1585  159.4943 N   0  0  0  0  0  0  0  0  0  0  0  0
  144.9193  146.0894  156.5518 H   0  0  0  0  0  0  0  0  0  0  0  0
  145.2664  147.5623  159.8991 H   0  0  0  0  0  0  0  0  0  0  0  0
  144.0259  147.4078  158.6505 H   0  0  0  0  0  0  0  0  0  0  0  0
  145.6369  148.0131  158.2315 H   0  0  0  0  0  0  0  0  0  0  0  0
  144.7097  143.0378  155.3849 H   0  0  0  0  0  0  0  0  0  0  0  0
  146.3467  143.5442  154.9450 H   0  0  0  0  0  0  0  0  0  0  0  0
  145.0194  144.7020  154.8944 H   0  0  0  0  0  0  0  0  0  0  0  0
  146.4310  141.7263  156.4177 H   0  0  0  0  0  0  0  0  0  0  0  0
  146.1249  141.2301  158.0423 H   0  0  0  0  0  0  0  0  0  0  0  0
  148.6260  143.5428  157.0752 H   0  0  0  0  0  0  0  0  0  0  0  0
  150.9005  143.4210  156.8083 H   0  0  0  0  0  0  0  0  0  0  0  0
  152.0409  141.2088  156.6999 H   0  0  0  0  0  0  0  0  0  0  0  0
  150.5769  141.1727  155.7410 H   0  0  0  0  0  0  0  0  0  0  0  0
  150.6010  140.4137  157.3290 H   0  0  0  0  0  0  0  0  0  0  0  0
  150.5432  141.9330  159.4387 H   0  0  0  0  0  0  0  0  0  0  0  0
  150.1179  144.7875  158.7694 H   0  0  0  0  0  0  0  0  0  0  0  0
  149.7989  143.9693  160.2943 H   0  0  0  0  0  0  0  0  0  0  0  0
  151.8263  145.7423  160.2530 H   0  0  0  0  0  0  0  0  0  0  0  0
  153.1890  144.3079  161.7354 H   0  0  0  0  0  0  0  0  0  0  0  0
  151.5696  143.6437  161.9562 H   0  0  0  0  0  0  0  0  0  0  0  0
  153.8983  142.3871  160.6761 H   0  0  0  0  0  0  0  0  0  0  0  0
  152.3222  141.6408  160.9246 H   0  0  0  0  0  0  0  0  0  0  0  0
  153.0612  142.1446  158.3788 H   0  0  0  0  0  0  0  0  0  0  0  0
  152.5828  144.7031  157.9612 H   0  0  0  0  0  0  0  0  0  0  0  0
  153.8752  144.5051  159.1658 H   0  0  0  0  0  0  0  0  0  0  0  0
  1 24  1  0  0  0  0
  1 25  1  0  0  0  0
  1 26  1  0  0  0  0
  1  2  1  0  0  0  0
  2  3  1  0  0  0  0
  2 22  2  0  0  0  0
  3  4  1  0  0  0  0
  3 23  1  0  0  0  0
  4  6  2  0  0  0  0
  4  5  1  0  0  0  0
  5 27  1  0  0  0  0
  5 28  1  0  0  0  0
  5 29  1  0  0  0  0
  6 20  1  0  0  0  0
  6  7  1  0  0  0  0
  7  8  1  0  0  0  0
  7 30  1  0  0  0  0
  7 31  1  0  0  0  0
  8  9  2  0  0  0  0
  8 10  1  0  0  0  0
 10 11  1  0  0  0  0
 10 32  1  0  0  0  0
 11 12  1  0  0  0  0
 11 13  1  0  0  0  0
 11 33  1  0  0  0  0
 12 34  1  0  0  0  0
 12 35  1  0  0  0  0
 12 36  1  0  0  0  0
 13 18  1  0  0  0  0
 13 14  1  0  0  0  0
 13 37  1  0  0  0  0
 14 15  1  0  0  0  0
 14 38  1  0  0  0  0
 14 39  1  0  0  0  0
 15 19  1  0  0  0  0
 15 16  1  0  0  0  0
 15 40  1  0  0  0  0
 16 17  1  0  0  0  0
 16 41  1  0  0  0  0
 16 42  1  0  0  0  0
 17 18  1  0  0  0  0
 17 43  1  0  0  0  0
 17 44  1  0  0  0  0
 18 19  1  0  0  0  0
 18 45  1  0  0  0  0
 19 46  1  0  0  0  0
 19 47  1  0  0  0  0
 20 21  2  0  0  0  0
 20 22  1  0  0  0  0
M  END
> <s_m_source_file>
AV-unprocessed.smi

> <i_m_source_file_index>
2124

> <i_lp_mmshare_version>
43012

> <i_f3d_flags>
0

> <s_epik_input>
W0NIM11jMW5jKFtDSDNdKWMoYyg9TylbbkhdMSlbQ0gyXUMoPU8pW05IXVtDQEhdKFtDSDNdKVtDQEhdKFtDSDJdW0NASF0yMylbQ0BIXShbQ0gyXTMpW0NIMl1bQ0gyXTI=

> <s_epik_cmdline>
J2VwaWtfcHl0aG9uJywgJy1waCcsICc3LjAnLCAnLXRuJywgJzgnLCAnLW1hJywgJzIwMCcsICctbWV0YWxfYmluZGluZycsICctaW1hZScsICc8aW5maWxlLm1hZT4nLCAnLW9tYWUnLCAnPG91dGZpbGUubWFlPic=

> <r_lp_tautomer_probability>
0.156392

> <r_epik_Ionization_Penalty>
0.0139374

> <r_epik_Ionization_Penalty_Charging>
0.0138122

> <r_epik_Ionization_Penalty_Neutral>
0.000125146

> <r_epik_State_Penalty>
1.15342

> <r_epik_Charging_Adjusted_Penalty>
1.16723

> <i_epik_Tot_Q>
0

> <i_epik_Tot_abs_Q>
0

> <r_epik_Metal_State_Penalty>
1.3173

> <b_epik_Metal_Only>
0

> <s_lp_Force_Field>
OPLS_2005

> <r_lp_Energy>
56.0301

> <b_lp_Chiralities_Consistent>
1

> <s_lp_Variant>
AV-unprocessed.smi:2124-13

> <Gold.Version>
5.8.1

> <Gold.Id.Protein>
6NUR|6NUR_protein|mol2

> <Gold.PLP.Fitness>
46.5538

> <Gold.PLP.PLP>
-41.1087

> <Gold.PLP.part.hbond>
-3.8914

> <Gold.PLP.part.metal>
0.0000

> <Gold.PLP.part.buried>
-4.5610

> <Gold.PLP.part.nonpolar>
-33.1832

> <Gold.PLP.part.repulsive>
0.1938

> <Gold.PLP.ligand.clash>
0.0000

> <Gold.PLP.ligand.torsion>
0.6591

> <Gold.PLP.Chemscore.Hbond>
2.2476

> <Gold.PLP.Chemscore.CHOScore>
0.0000

> <Gold.PLP.Chemscore.Metal>
0.0000

> <Gold.Chemscore.Hbonds>
donor molecule, donor type, donor heavy atom, donor atom, acceptor molecule, acceptor atom, score
      L1  H    10    32       P1  8028  0.65
      P1  H  6933  6944       L1    21  0.61
      P1  H  6934  6946       L1    21  0.11

> <Gold.PLP.Chemscore.Internal.Correction>
0.0205

> <Gold.Rescore>
     Score         DG    S(hbond)    S(metal)    S(lipo)     H(rot)  DE(clash)    DE(int)     intcor
     17.23     -19.26       1.74        0.00     104.37       1.65       0.09       1.93       ----

> <Gold.Chemscore.Fitness>
17.2343

> <Gold.Chemscore.DG>
-19.2587

> <Gold.Chemscore.ZeroCoef>
-5.4800

> <Gold.Chemscore.Hbond>
1.7364

> <Gold.Chemscore.Metal>
0.0000

> <Gold.Chemscore.Lipo>
104.3725

> <Gold.Chemscore.Internal_Hbond>
0.0000

> <Gold.Chemscore.DEClash>
0.0905

> <Gold.Chemscore.DEInternal>
1.9338

> <Gold.Chemscore.Rot>
1.6534

> <Gold.Chemscore.Internal.Correction>
   9.000000E+99

> <Gold.Chemscore.Hbonds>
donor molecule, donor type, donor heavy atom, donor atom, acceptor molecule, acceptor atom, score
      L1  H    10    32       P1  8028  0.13
      P1  H  6933  6944       L1    21  0.59
      P1  H  6934  6946       L1    21  0.13

> <Gold.Chemscore.Hbond.Weighted>
-5.7997

> <Gold.Chemscore.Metal.Weighted>
-0.0000

> <Gold.Chemscore.Lipo.Weighted>
-12.2116

> <Gold.Chemscore.Internal_Hbond.Weighted>
0.0000

> <Gold.Chemscore.DEClash.Weighted>
0.0905

> <Gold.Chemscore.DEInternal.Weighted>
1.9338

> <Gold.Chemscore.Rot.Weighted>
4.2326

> <Gold.Chemscore.Internal.Correction.Weighted>
   9.000000E+99

> <Gold.Protein.RotatedTorsions>
[ 6907 6896 6895 6894 ] final -156.15 input  -60.11 | X-H torsion
[ 7974 7965 7964 7962 ] final  -89.25 input  175.53 | X-H torsion
[ 8008 7997 7996 7995 ] final  -20.86 input   59.86 | X-H torsion
[ 10167 10162 10161 10158 ] final -169.86 input  -65.29 | X-H torsion
[ 10718 10713 10712 10709 ] final   85.58 input   66.30 | X-H torsion
[ 10763 10752 10751 10750 ] final   49.78 input  -60.55 | X-H torsion
[ 11005 11000 10999 10996 ] final   34.23 input  -57.11 | X-H torsion

> <Gold.Protein.ActiveResidues>
 VAL166  LYS551  ARG553  GLY616  TRP617  ASP618  TYR619  PRO620  LYS621  CYS622 
 ASP623  PHE694  ASN695  SER759  ASP760  ASP761  ALA762  ILE779  LEU786  VAL792 
 PHE793  MET794  SER795  GLU796  ALA797  LYS798  CYS799  TRP800  GLU811  SER814 

> <Gold.Protein.RotatedAtoms>
  151.2832  133.4200  159.2628 H   0  0  0  0  0  0  0  0  0  0  0  0  # atno 6907 bound_to 6896
  151.0342  134.9561  159.8137 H   0  0  0  0  0  0  0  0  0  0  0  0  # atno 6908 bound_to 6896
  152.5352  134.2792  159.9053 H   0  0  0  0  0  0  0  0  0  0  0  0  # atno 6909 bound_to 6896
  145.4423  140.9559  143.2068 H   0  0  0  0  0  0  0  0  0  0  0  0  # atno 7974 bound_to 7965
  154.4742  140.2050  155.9918 H   0  0  0  0  0  0  0  0  0  0  0  0  # atno 8008 bound_to 7997
  156.1062  140.3236  155.7980 H   0  0  0  0  0  0  0  0  0  0  0  0  # atno 8009 bound_to 7997
  155.4713  140.0531  157.2970 H   0  0  0  0  0  0  0  0  0  0  0  0  # atno 8010 bound_to 7997
  139.5897  144.1241  152.1619 H   0  0  0  0  0  0  0  0  0  0  0  0  # atno 10167 bound_to 10162
  157.6917  131.0180  150.2844 H   0  0  0  0  0  0  0  0  0  0  0  0  # atno 10718 bound_to 10713
  152.9786  135.5900  154.4145 H   0  0  0  0  0  0  0  0  0  0  0  0  # atno 10763 bound_to 10752
  154.3776  135.2767  155.2232 H   0  0  0  0  0  0  0  0  0  0  0  0  # atno 10764 bound_to 10752
  154.4159  135.6070  153.6035 H   0  0  0  0  0  0  0  0  0  0  0  0  # atno 10765 bound_to 10752
  140.2550  134.3259  155.7877 H   0  0  0  0  0  0  0  0  0  0  0  0  # atno 11005 bound_to 11000
  144.8113  139.5956  143.7028 LP  0  0  0  0  0  0  0  0  0  0  0  0  # atno 17320 bound_to 7965
  146.2549  139.6281  142.9401 LP  0  0  0  0  0  0  0  0  0  0  0  0  # atno 17321 bound_to 7965
  140.0812  144.5699  150.7121 LP  0  0  0  0  0  0  0  0  0  0  0  0  # atno 17342 bound_to 10162
  140.7162  143.2547  151.4426 LP  0  0  0  0  0  0  0  0  0  0  0  0  # atno 17343 bound_to 10162
  156.3385  130.3811  149.7429 LP  0  0  0  0  0  0  0  0  0  0  0  0  # atno 17370 bound_to 10713
  156.4945  130.8100  151.3108 LP  0  0  0  0  0  0  0  0  0  0  0  0  # atno 17371 bound_to 10713
  141.2197  133.7375  156.9096 LP  0  0  0  0  0  0  0  0  0  0  0  0  # atno 17394 bound_to 11000
  140.1521  134.9223  157.2606 LP  0  0  0  0  0  0  0  0  0  0  0  0  # atno 17395 bound_to 11000

$$$$
