#       Name:                AV-unprocessed.smi:475
#       Creating user name   scv26
#       Creation time:       Thu Mar 26 23:08:17 2020


#       File generated by GOLD software.
#

@<TRIPOS>MOLECULE
AV-unprocessed.smi:475
    44    46     1
SMALL
NO_CHARGES


@<TRIPOS>ATOM
      1 ****        -1.9578   3.3948   3.3426 C.3            1 S1                 0.0000
      2 ****        -1.8051   1.9983   3.1620 O.3            1 S1                 0.0000
      3 ****        -2.6274   1.4905   2.1241 C.3            1 S1                 0.0000
      4 ****        -2.4079  -0.0218   1.9750 C.3            1 S1                 0.0000
      5 ****        -1.0108  -0.3535   1.6583 N.pl3          1 S1                 0.0000
      6 ****        -0.3793  -0.4368   0.4545 C.2            1 S1                 0.0000
      7 ****        -1.1101  -0.1578  -1.1258 S.3            1 S1                 0.0000
      8 ****         0.2232  -0.4267  -2.3323 C.3            1 S1                 0.0000
      9 ****        -0.2529  -0.3128  -3.7843 C.2            1 S1                 0.0000
     10 ****        -1.4307  -0.0675  -4.0483 O.2            1 S1                 0.0000
     11 ****         0.7467  -0.5134  -4.8285 C.2            1 S1                 0.0000
     12 ****         2.0904  -0.7727  -4.7854 C.2            1 S1                 0.0000
     13 ****         2.5579  -0.8725  -6.1303 C.2            1 S1                 0.0000
     14 ****         1.4915  -0.6722  -6.9634 C.2            1 S1                 0.0000
     15 ****         0.3923  -0.4537  -6.1609 N.pl3          1 S1                 0.0000
     16 ****         0.9188  -0.7740   0.6902 N.pl3          1 S1                 1.0000
     17 ****         1.1235  -0.9049   2.0648 C.ar           1 S1                 0.0000
     18 ****         2.2673  -1.2304   2.7874 C.ar           1 S1                 0.0000
     19 ****         2.1376  -1.2752   4.1911 C.ar           1 S1                 0.0000
     20 ****         0.9080  -1.0005   4.8242 C.ar           1 S1                 0.0000
     21 ****        -0.2453  -0.6730   4.0813 C.ar           1 S1                 0.0000
     22 ****        -0.1105  -0.6337   2.6935 C.ar           1 S1                 0.0000
     23 ****        -0.5434  -0.2749  -6.4979 H              1 S1                 0.0000
     24 ****        -1.3078   3.7326   4.1497 H              1 S1                 0.0000
     25 ****        -2.9848   3.6483   3.6088 H              1 S1                 0.0000
     26 ****        -1.6846   3.9416   2.4392 H              1 S1                 0.0000
     27 ****        -3.6764   1.6896   2.3480 H              1 S1                 0.0000
     28 ****        -2.3935   1.9932   1.1842 H              1 S1                 0.0000
     29 ****        -2.7094  -0.5529   2.8778 H              1 S1                 0.0000
     30 ****        -3.0316  -0.4111   1.1697 H              1 S1                 0.0000
     31 ****         1.0152   0.3014  -2.1560 H              1 S1                 0.0000
     32 ****         0.6478  -1.4186  -2.1768 H              1 S1                 0.0000
     33 ****         2.6796  -0.8800  -3.8866 H              1 S1                 0.0000
     34 ****         3.5695  -1.0703  -6.4529 H              1 S1                 0.0000
     35 ****         1.4112  -0.6646  -8.0405 H              1 S1                 0.0000
     36 ****         3.2111  -1.4386   2.3052 H              1 S1                 0.0000
     37 ****         2.9990  -1.5228   4.7946 H              1 S1                 0.0000
     38 ****         0.8474  -1.0408   5.9023 H              1 S1                 0.0000
     39 ****        -1.1803  -0.4593   4.5775 H              1 S1                 0.0000
     40 ****         1.6116  -0.9027  -0.0357 H              1 S1                 0.0000
     41 ****        -2.0451   1.5366   4.0159 LP             1 S1                 0.0000
     42 ****        -0.8498   1.8069   2.9367 LP             1 S1                 0.0000
     43 ****        -2.0925   0.0606  -3.3096 LP             1 S1                 0.0000
     44 ****        -1.7252   0.0035  -5.0013 LP             1 S1                 0.0000
@<TRIPOS>BOND
    1    1    2 1     
    2    1   24 1     
    3    1   25 1     
    4    1   26 1     
    5    2    3 1     
    6    3    4 1     
    7    3   27 1     
    8    3   28 1     
    9    4    5 1     
   10    4   29 1     
   11    4   30 1     
   12    5   22 1     
   13    5    6 1     
   14    6    7 1     
   15    6   16 2     
   16    7    8 1     
   17    8    9 1     
   18    8   31 1     
   19    8   32 1     
   20    9   10 2     
   21    9   11 1     
   22   11   15 1     
   23   11   12 2     
   24   12   13 1     
   25   12   33 1     
   26   13   14 2     
   27   13   34 1     
   28   14   15 1     
   29   14   35 1     
   30   15   23 1     
   31   16   17 1     
   32   16   40 1     
   33   17   22 ar    
   34   17   18 ar    
   35   18   19 ar    
   36   18   36 1     
   37   19   20 ar    
   38   19   37 1     
   39   20   21 ar    
   40   20   38 1     
   41   21   22 ar    
   42   21   39 1     
   43    2   41 1     
   44    2   42 1     
   45   10   43 1     
   46   10   44 1     
@<TRIPOS>SUBSTRUCTURE
      1 S1             1
@<TRIPOS>SET
LONE_PAIRS      STATIC     ATOMS    <user>   **** ""
4 41 42 43 44
DONOR_HYDROGENS      STATIC     ATOMS    <user>   **** ""
2 23 40
ATOM$BLUE        STATIC     ATOMS    COLORGROUP SYSTEM
4 41 42 43 44
ATOM$RED        STATIC     ATOMS    COLORGROUP SYSTEM
2 23 40
