AV-unprocessed.smi:3018|AV-procd|sdf|11480|dock3
  -GOLD-   2272016413D 1   1.00000     0.00000
 Structure written by MMmdl.
 45 46  0  0  0  0  0  0  0  0  1 V2000
  153.7363  138.1425  159.9484 C   0  0  0  0  0  0  0  0  0  0  0  0
  153.5745  139.4506  159.1558 C   0  0  0  0  0  0  0  0  0  0  0  0
  152.2954  139.5618  158.2981 C   0  0  1  0  0  0  0  0  0  0  0  0
  152.1023  140.9393  157.9666 O   0  0  0  0  0  0  0  0  0  0  0  0
  151.6988  141.8326  159.0065 C   0  0  0  0  0  0  0  0  0  0  0  0
  151.0342  143.0403  158.3230 C   0  0  0  0  0  0  0  0  0  0  0  0
  150.6157  144.1107  159.3434 C   0  0  0  0  0  0  0  0  0  0  0  0
  151.8082  144.5558  160.2035 C   0  0  0  0  0  0  0  0  0  0  0  0
  152.4777  143.3547  160.8889 C   0  0  0  0  0  0  0  0  0  0  0  0
  152.8973  142.2872  159.8653 C   0  0  0  0  0  0  0  0  0  0  0  0
  152.3407  138.6922  157.0289 C   0  0  0  0  0  0  0  0  0  0  0  0
  153.0402  139.0212  156.0706 O   0  0  0  0  0  0  0  0  0  0  0  0
  151.5333  137.6202  157.0184 N   0  0  0  0  0  0  0  0  0  0  0  0
  151.3005  136.7419  155.8745 C   0  0  0  0  0  0  0  0  0  0  0  0
  150.8131  137.5313  154.6404 C   0  0  0  0  0  0  0  0  0  0  0  0
  150.0521  138.8157  154.9433 C   0  0  0  0  0  0  0  0  0  0  0  0
  149.7749  139.3167  156.0956 N   0  0  0  0  0  0  0  0  0  0  0  0
  149.1178  140.4488  155.7413 N   0  0  0  0  0  0  0  0  0  0  0  0
  149.0072  140.6326  154.4205 C   0  0  0  0  0  0  0  0  0  0  0  0
  148.4807  141.5743  153.8331 O   0  0  0  0  0  0  0  0  0  0  0  0
  149.6023  139.5725  153.8895 N   0  0  0  0  0  0  0  0  0  0  0  0
  148.7756  141.0668  156.4630 H   0  0  0  0  0  0  0  0  0  0  0  0
  149.7302  139.3676  152.9090 H   0  0  0  0  0  0  0  0  0  0  0  0
  154.7068  138.1137  160.4441 H   0  0  0  0  0  0  0  0  0  0  0  0
  153.6748  137.2713  159.2954 H   0  0  0  0  0  0  0  0  0  0  0  0
  152.9768  138.0391  160.7227 H   0  0  0  0  0  0  0  0  0  0  0  0
  153.6194  140.2919  159.8486 H   0  0  0  0  0  0  0  0  0  0  0  0
  154.4378  139.5640  158.4994 H   0  0  0  0  0  0  0  0  0  0  0  0
  151.4651  139.2293  158.9213 H   0  0  0  0  0  0  0  0  0  0  0  0
  150.9537  141.3693  159.6512 H   0  0  0  0  0  0  0  0  0  0  0  0
  151.7235  143.4782  157.5999 H   0  0  0  0  0  0  0  0  0  0  0  0
  150.1617  142.7107  157.7580 H   0  0  0  0  0  0  0  0  0  0  0  0
  150.1891  144.9703  158.8260 H   0  0  0  0  0  0  0  0  0  0  0  0
  149.8279  143.7168  159.9857 H   0  0  0  0  0  0  0  0  0  0  0  0
  152.5371  145.0720  159.5776 H   0  0  0  0  0  0  0  0  0  0  0  0
  151.4779  145.2758  160.9527 H   0  0  0  0  0  0  0  0  0  0  0  0
  153.3475  143.6874  161.4558 H   0  0  0  0  0  0  0  0  0  0  0  0
  151.7885  142.9161  161.6113 H   0  0  0  0  0  0  0  0  0  0  0  0
  153.3322  141.4426  160.3985 H   0  0  0  0  0  0  0  0  0  0  0  0
  153.6809  142.6863  159.2202 H   0  0  0  0  0  0  0  0  0  0  0  0
  150.9932  137.4323  157.8509 H   0  0  0  0  0  0  0  0  0  0  0  0
  152.1805  136.1441  155.6314 H   0  0  0  0  0  0  0  0  0  0  0  0
  150.5300  136.0276  156.1654 H   0  0  0  0  0  0  0  0  0  0  0  0
  151.6669  137.7834  154.0111 H   0  0  0  0  0  0  0  0  0  0  0  0
  150.1752  136.8856  154.0351 H   0  0  0  0  0  0  0  0  0  0  0  0
  1  2  1  0  0  0  0
  1 24  1  0  0  0  0
  1 25  1  0  0  0  0
  1 26  1  0  0  0  0
  2  3  1  0  0  0  0
  2 27  1  0  0  0  0
  2 28  1  0  0  0  0
  3  4  1  0  0  0  0
  3 11  1  0  0  0  0
  3 29  1  0  0  0  0
  4  5  1  0  0  0  0
  5 10  1  0  0  0  0
  5  6  1  0  0  0  0
  5 30  1  0  0  0  0
  6  7  1  0  0  0  0
  6 31  1  0  0  0  0
  6 32  1  0  0  0  0
  7  8  1  0  0  0  0
  7 33  1  0  0  0  0
  7 34  1  0  0  0  0
  8  9  1  0  0  0  0
  8 35  1  0  0  0  0
  8 36  1  0  0  0  0
  9 10  1  0  0  0  0
  9 37  1  0  0  0  0
  9 38  1  0  0  0  0
 10 39  1  0  0  0  0
 10 40  1  0  0  0  0
 11 12  2  0  0  0  0
 11 13  1  0  0  0  0
 13 14  1  0  0  0  0
 13 41  1  0  0  0  0
 14 15  1  0  0  0  0
 14 42  1  0  0  0  0
 14 43  1  0  0  0  0
 15 16  1  0  0  0  0
 15 44  1  0  0  0  0
 15 45  1  0  0  0  0
 16 21  1  0  0  0  0
 16 17  2  0  0  0  0
 17 18  1  0  0  0  0
 18 22  1  0  0  0  0
 18 19  1  0  0  0  0
 19 20  2  0  0  0  0
 19 21  1  0  0  0  0
 21 23  1  0  0  0  0
M  END
> <s_m_source_file>
AV-unprocessed.smi

> <i_m_source_file_index>
3018

> <i_lp_mmshare_version>
43012

> <i_f3d_flags>
0

> <s_epik_input>
W0NIMl0xW0NIMl1bQ0gyXVtDSDJdW0NIMl1bQ0hdMU9bQ0BASF0oW0NIMl1bQ0gzXSlDKD1PKVtOSF1bQ0gyXVtDSDJdYzJuW25IXWMoPU8pW25IXTI=

> <s_epik_cmdline>
J2VwaWtfcHl0aG9uJywgJy1waCcsICc3LjAnLCAnLXRuJywgJzgnLCAnLW1hJywgJzIwMCcsICctbWV0YWxfYmluZGluZycsICctaW1hZScsICc8aW5maWxlLm1hZT4nLCAnLW9tYWUnLCAnPG91dGZpbGUubWFlPic=

> <r_lp_tautomer_probability>
1

> <r_epik_Ionization_Penalty>
0.000773817

> <r_epik_Ionization_Penalty_Charging>
0.000773741

> <r_epik_Ionization_Penalty_Neutral>
7.58514e-08

> <r_epik_State_Penalty>
-0

> <r_epik_Charging_Adjusted_Penalty>
0.000773741

> <i_epik_Tot_Q>
0

> <i_epik_Tot_abs_Q>
0

> <r_epik_Metal_State_Penalty>
0.495152

> <b_epik_Metal_Only>
0

> <s_lp_Force_Field>
OPLS_2005

> <r_lp_Energy>
29.5576

> <b_lp_Chiralities_Consistent>
1

> <s_lp_Variant>
AV-unprocessed.smi:3018-2

> <Gold.Version>
5.8.1

> <Gold.Id.Protein>
6NUR|6NUR_protein|mol2

> <Gold.PLP.Fitness>
43.6168

> <Gold.PLP.PLP>
-37.1393

> <Gold.PLP.part.hbond>
-3.0000

> <Gold.PLP.part.metal>
0.0000

> <Gold.PLP.part.buried>
-7.2434

> <Gold.PLP.part.nonpolar>
-28.6009

> <Gold.PLP.part.repulsive>
0.4556

> <Gold.PLP.ligand.clash>
0.0000

> <Gold.PLP.ligand.torsion>
0.8888

> <Gold.PLP.Chemscore.Hbond>
2.5680

> <Gold.PLP.Chemscore.CHOScore>
0.0000

> <Gold.PLP.Chemscore.Metal>
0.0000

> <Gold.Chemscore.Hbonds>
donor molecule, donor type, donor heavy atom, donor atom, acceptor molecule, acceptor atom, score
      L1  H    21    23       P1  7957  0.93
      P1  H  7997  8009       L1    12  1.00
      P1  H  8011  8017       L1    20  0.44

> <Gold.PLP.Chemscore.Internal.Correction>
0.5511

> <Gold.Rescore>
     Score         DG    S(hbond)    S(metal)    S(lipo)     H(rot)  DE(clash)    DE(int)     intcor
     12.49     -15.78       2.28        0.00      89.51       3.04       0.01       3.29       ----

> <Gold.Chemscore.Fitness>
12.4877

> <Gold.Chemscore.DG>
-15.7819

> <Gold.Chemscore.ZeroCoef>
-5.4800

> <Gold.Chemscore.Hbond>
2.2764

> <Gold.Chemscore.Metal>
0.0000

> <Gold.Chemscore.Lipo>
89.5102

> <Gold.Chemscore.Internal_Hbond>
0.0000

> <Gold.Chemscore.DEClash>
0.0073

> <Gold.Chemscore.DEInternal>
3.2868

> <Gold.Chemscore.Rot>
3.0367

> <Gold.Chemscore.Internal.Correction>
   9.000000E+99

> <Gold.Chemscore.Hbonds>
donor molecule, donor type, donor heavy atom, donor atom, acceptor molecule, acceptor atom, score
      L1  H    21    23       P1  7957  0.89
      P1  H  7997  8009       L1    12  0.90
      P1  H  8011  8017       L1    20  0.35

> <Gold.Chemscore.Hbond.Weighted>
-7.6031

> <Gold.Chemscore.Metal.Weighted>
-0.0000

> <Gold.Chemscore.Lipo.Weighted>
-10.4727

> <Gold.Chemscore.Internal_Hbond.Weighted>
0.0000

> <Gold.Chemscore.DEClash.Weighted>
0.0073

> <Gold.Chemscore.DEInternal.Weighted>
3.2868

> <Gold.Chemscore.Rot.Weighted>
7.7739

> <Gold.Chemscore.Internal.Correction.Weighted>
   9.000000E+99

> <Gold.Protein.RotatedTorsions>
[ 6907 6896 6895 6894 ] final -132.67 input  -60.11 | X-H torsion
[ 7974 7965 7964 7962 ] final -139.56 input  175.53 | X-H torsion
[ 8008 7997 7996 7995 ] final -169.30 input   59.86 | X-H torsion
[ 10167 10162 10161 10158 ] final  122.34 input  -65.29 | X-H torsion
[ 10718 10713 10712 10709 ] final  169.33 input   66.30 | X-H torsion
[ 10763 10752 10751 10750 ] final -145.46 input  -60.55 | X-H torsion
[ 11005 11000 10999 10996 ] final -169.39 input  -57.11 | X-H torsion

> <Gold.Protein.ActiveResidues>
 VAL166  LYS551  ARG553  GLY616  TRP617  ASP618  TYR619  PRO620  LYS621  CYS622 
 ASP623  PHE694  ASN695  SER759  ASP760  ASP761  ALA762  ILE779  LEU786  VAL792 
 PHE793  MET794  SER795  GLU796  ALA797  LYS798  CYS799  TRP800  GLU811  SER814 

> <Gold.Protein.RotatedAtoms>
  150.9650  133.6404  159.2747 H   0  0  0  0  0  0  0  0  0  0  0  0  # atno 6907 bound_to 6896
  151.3713  135.0922  159.9476 H   0  0  0  0  0  0  0  0  0  0  0  0  # atno 6908 bound_to 6896
  152.5162  133.9204  159.7586 H   0  0  0  0  0  0  0  0  0  0  0  0  # atno 6909 bound_to 6896
  144.8667  140.6304  143.5293 H   0  0  0  0  0  0  0  0  0  0  0  0  # atno 7974 bound_to 7965
  155.9032  140.1044  157.1335 H   0  0  0  0  0  0  0  0  0  0  0  0  # atno 8008 bound_to 7997
  154.4029  140.1288  156.4526 H   0  0  0  0  0  0  0  0  0  0  0  0  # atno 8009 bound_to 7997
  155.7399  140.3467  155.5101 H   0  0  0  0  0  0  0  0  0  0  0  0  # atno 8010 bound_to 7997
  139.5865  144.7008  151.3397 H   0  0  0  0  0  0  0  0  0  0  0  0  # atno 10167 bound_to 10162
  157.0242  131.0241  151.2765 H   0  0  0  0  0  0  0  0  0  0  0  0  # atno 10718 bound_to 10713
  154.8382  135.3412  154.6508 H   0  0  0  0  0  0  0  0  0  0  0  0  # atno 10763 bound_to 10752
  153.7121  135.6963  153.5039 H   0  0  0  0  0  0  0  0  0  0  0  0  # atno 10764 bound_to 10752
  153.2444  135.4374  155.0685 H   0  0  0  0  0  0  0  0  0  0  0  0  # atno 10765 bound_to 10752
  140.5312  134.5614  157.5075 H   0  0  0  0  0  0  0  0  0  0  0  0  # atno 11005 bound_to 11000
  145.4208  139.1564  143.4075 LP  0  0  0  0  0  0  0  0  0  0  0  0  # atno 17320 bound_to 7965
  146.2901  140.4318  142.8743 LP  0  0  0  0  0  0  0  0  0  0  0  0  # atno 17321 bound_to 7965
  140.7135  143.7327  150.7612 LP  0  0  0  0  0  0  0  0  0  0  0  0  # atno 17342 bound_to 10162
  140.0872  143.4912  152.2498 LP  0  0  0  0  0  0  0  0  0  0  0  0  # atno 17343 bound_to 10162
  157.5226  130.8008  149.7826 LP  0  0  0  0  0  0  0  0  0  0  0  0  # atno 17370 bound_to 10713
  156.0091  130.3841  150.2325 LP  0  0  0  0  0  0  0  0  0  0  0  0  # atno 17371 bound_to 10713
  139.9553  134.7546  156.0356 LP  0  0  0  0  0  0  0  0  0  0  0  0  # atno 17394 bound_to 11000
  141.1280  133.6594  156.3388 LP  0  0  0  0  0  0  0  0  0  0  0  0  # atno 17395 bound_to 11000

$$$$
