#       Name:                AV-unprocessed.smi:72
#       Creating user name   scv26
#       Creation time:       Thu Mar 26 17:04:03 2020


#       File generated by GOLD software.
#

@<TRIPOS>MOLECULE
AV-unprocessed.smi:72
    41    42     1
SMALL
NO_CHARGES


@<TRIPOS>ATOM
      1 ****         1.2356   4.6063  -1.1836 N.2            1 S1                 0.0000
      2 ****         0.6343   3.5622  -0.8132 C.2            1 S1                 0.0000
      3 ****         0.8132   3.0578   0.5297 N.2            1 S1                 0.0000
      4 ****         0.2274   1.9420   0.8385 C.2            1 S1                 0.0000
      5 ****        -0.5506   1.1789  -0.1340 N.am           1 S1                 0.0000
      6 ****        -1.2552  -0.1191   0.2463 C.3            1 S1                 0.0000
      7 ****        -0.7962  -0.5584   1.4974 O.3            1 S1                 0.0000
      8 ****         0.0831  -1.6764   1.3784 C.3            1 S1                 0.0000
      9 ****         1.5476  -1.2129   1.1999 C.3            1 S1                 0.0000
     10 ****         2.0580  -0.7474   2.4311 O.3            1 S1                 0.0000
     11 ****        -0.5202  -2.4039   0.1730 C.3            1 S1                 0.0000
     12 ****         0.3909  -3.2740  -0.4696 O.3            1 S1                 0.0000
     13 ****        -0.9639  -1.2727  -0.7447 C.3            1 S1                 0.0000
     14 ****        -2.1245  -1.6730  -1.4457 O.3            1 S1                 0.0000
     15 ****        -0.8048   1.7672  -1.4049 C.2            1 S1                 0.0000
     16 ****        -1.5852   1.1981  -2.1675 O.2            1 S1                 0.0000
     17 ****        -0.1900   2.9404  -1.7233 N.pl3          1 S1                -1.0000
     18 ****        -2.3090   0.1551   0.3179 H              1 S1                 0.0000
     19 ****         0.0092  -2.3052   2.2666 H              1 S1                 0.0000
     20 ****        -1.3849  -2.9776   0.5118 H              1 S1                 0.0000
     21 ****        -0.1624  -0.9916  -1.4300 H              1 S1                 0.0000
     22 ****         1.0209   4.8543  -2.1385 H              1 S1                 0.0000
     23 ****         0.2866   1.5143   1.8392 H              1 S1                 0.0000
     24 ****         2.1805  -2.0493   0.9046 H              1 S1                 0.0000
     25 ****         1.6558  -0.4544   0.4262 H              1 S1                 0.0000
     26 ****         2.9514  -0.4691   2.2991 H              1 S1                 0.0000
     27 ****        -0.0385  -3.6448  -1.2257 H              1 S1                 0.0000
     28 ****        -2.4104  -0.9460  -1.9790 H              1 S1                 0.0000
     29 ****         1.8548   5.1296  -0.5981 LP             1 S1                 0.0000
     30 ****         1.3694   3.5520   1.1979 LP             1 S1                 0.0000
     31 ****        -1.5825  -0.8233   2.0556 LP             1 S1                 0.0000
     32 ****        -0.3077   0.1912   1.9441 LP             1 S1                 0.0000
     33 ****         2.0303  -1.4833   3.1077 LP             1 S1                 0.0000
     34 ****         1.5088   0.0233   2.7543 LP             1 S1                 0.0000
     35 ****         0.6618  -4.0040   0.1579 LP             1 S1                 0.0000
     36 ****         1.2013  -2.7635  -0.7569 LP             1 S1                 0.0000
     37 ****        -2.8439  -1.9211  -0.7969 LP             1 S1                 0.0000
     38 ****        -1.9151  -2.4587  -2.0277 LP             1 S1                 0.0000
     39 ****        -2.0233   0.3436  -1.8884 LP             1 S1                 0.0000
     40 ****        -1.7813   1.5902  -3.0663 LP             1 S1                 0.0000
     41 ****        -0.3383   3.3519  -2.6226 LP             1 S1                 0.0000
@<TRIPOS>BOND
    1    1    2 2     
    2    1   22 1     
    3    2   17 1     
    4    2    3 1     
    5    3    4 2     
    6    4    5 1     
    7    4   23 1     
    8    5    6 1     
    9    5   15 am    
   10    6   18 1     
   11    6   13 1     
   12    6    7 1     
   13    7    8 1     
   14    8   19 1     
   15    8    9 1     
   16    8   11 1     
   17    9   10 1     
   18    9   24 1     
   19    9   25 1     
   20   10   26 1     
   21   11   20 1     
   22   11   12 1     
   23   11   13 1     
   24   12   27 1     
   25   13   21 1     
   26   13   14 1     
   27   14   28 1     
   28   15   16 2     
   29   15   17 1     
   30    1   29 1     
   31    3   30 1     
   32    7   31 1     
   33    7   32 1     
   34   10   33 1     
   35   10   34 1     
   36   12   35 1     
   37   12   36 1     
   38   14   37 1     
   39   14   38 1     
   40   16   39 1     
   41   16   40 1     
   42   17   41 1     
@<TRIPOS>SUBSTRUCTURE
      1 S1             1
@<TRIPOS>SET
LONE_PAIRS      STATIC     ATOMS    <user>   **** ""
13 29 30 31 32 33 34 35 36 37 38 39 40 41
DONOR_HYDROGENS      STATIC     ATOMS    <user>   **** ""
4 22 26 27 28
ATOM$BLUE        STATIC     ATOMS    COLORGROUP SYSTEM
13 29 30 31 32 33 34 35 36 37 38 39 40 41
ATOM$RED        STATIC     ATOMS    COLORGROUP SYSTEM
4 22 26 27 28
