AV-unprocessed.smi:2083|AV-procd|sdf|8490|dock6
  -GOLD-   2272011193D 1   1.00000     0.00000
 Structure written by MMmdl.
 45 46  0  0  0  0  0  0  0  0  2 V2000
  153.8663  141.4784  160.4770 C   0  0  0  0  0  0  0  0  0  0  0  0
  153.0130  141.2757  159.2721 C   0  0  0  0  0  0  0  0  0  0  0  0
  152.0133  142.0150  158.7053 C   0  0  0  0  0  0  0  0  0  0  0  0
  151.6342  141.2325  157.5828 C   0  0  0  0  0  0  0  0  0  0  0  0
  150.5972  141.6605  156.7152 N   0  0  0  0  0  0  0  0  0  0  0  0
  150.2170  141.0999  155.5549 C   0  0  0  0  0  0  0  0  0  0  0  0
  150.7354  140.1090  155.0395 O   0  0  0  0  0  0  0  0  0  0  0  0
  149.1863  141.7610  155.0086 N   0  0  0  0  0  0  0  0  0  0  0  0
  148.5301  141.3976  153.7557 C   0  0  0  0  0  0  0  0  0  0  0  0
  147.1453  140.7206  153.9629 C   0  0  2  0  0  0  0  0  0  0  0  0
  146.8223  139.7894  152.7723 C   0  0  0  0  0  0  0  0  0  0  0  0
  146.0139  141.6831  154.1780 N   0  3  1  0  0  0  0  0  0  0  0  0
  145.6315  141.7824  155.6158 C   0  0  0  0  0  0  0  0  0  0  0  0
  144.3476  142.6030  155.8045 C   0  0  0  0  0  0  0  0  0  0  0  0
  144.5163  144.0090  155.2224 C   0  0  0  0  0  0  0  0  0  0  0  0
  144.9268  143.9147  153.7460 C   0  0  1  0  0  0  0  0  0  0  0  0
  145.1248  145.3075  153.1306 C   0  0  0  0  0  0  0  0  0  0  0  0
  146.1897  143.0426  153.5857 C   0  0  0  0  0  0  0  0  0  0  0  0
  152.3401  140.1178  157.4716 N   0  0  0  0  0  0  0  0  0  0  0  0
  153.2272  140.1394  158.5545 O   0  0  0  0  0  0  0  0  0  0  0  0
  153.7139  142.4720  160.8992 H   0  0  0  0  0  0  0  0  0  0  0  0
  154.9222  141.3762  160.2262 H   0  0  0  0  0  0  0  0  0  0  0  0
  153.6277  140.7439  161.2462 H   0  0  0  0  0  0  0  0  0  0  0  0
  151.6185  142.9615  159.0435 H   0  0  0  0  0  0  0  0  0  0  0  0
  150.0838  142.4754  157.0166 H   0  0  0  0  0  0  0  0  0  0  0  0
  148.8210  142.5647  155.4989 H   0  0  0  0  0  0  0  0  0  0  0  0
  148.4437  142.3081  153.1608 H   0  0  0  0  0  0  0  0  0  0  0  0
  149.1986  140.7271  153.2143 H   0  0  0  0  0  0  0  0  0  0  0  0
  147.2226  140.1084  154.8628 H   0  0  0  0  0  0  0  0  0  0  0  0
  147.5926  139.0313  152.6312 H   0  0  0  0  0  0  0  0  0  0  0  0
  146.7443  140.3544  151.8430 H   0  0  0  0  0  0  0  0  0  0  0  0
  145.8880  139.2468  152.9047 H   0  0  0  0  0  0  0  0  0  0  0  0
  145.4736  140.7960  156.0480 H   0  0  0  0  0  0  0  0  0  0  0  0
  146.4486  142.2387  156.1775 H   0  0  0  0  0  0  0  0  0  0  0  0
  143.5115  142.0977  155.3191 H   0  0  0  0  0  0  0  0  0  0  0  0
  144.0981  142.6670  156.8640 H   0  0  0  0  0  0  0  0  0  0  0  0
  143.5853  144.5680  155.3238 H   0  0  0  0  0  0  0  0  0  0  0  0
  145.2733  144.5542  155.7881 H   0  0  0  0  0  0  0  0  0  0  0  0
  144.1139  143.4300  153.2025 H   0  0  0  0  0  0  0  0  0  0  0  0
  145.9326  145.8484  153.6247 H   0  0  0  0  0  0  0  0  0  0  0  0
  144.2193  145.9085  153.2188 H   0  0  0  0  0  0  0  0  0  0  0  0
  145.3704  145.2385  152.0703 H   0  0  0  0  0  0  0  0  0  0  0  0
  147.0526  143.5303  154.0426 H   0  0  0  0  0  0  0  0  0  0  0  0
  146.3841  142.9695  152.5164 H   0  0  0  0  0  0  0  0  0  0  0  0
  145.2219  141.2837  153.6952 H   0  0  0  0  0  0  0  0  0  0  0  0
  1  2  1  0  0  0  0
  1 21  1  0  0  0  0
  1 22  1  0  0  0  0
  1 23  1  0  0  0  0
  2 20  1  0  0  0  0
  2  3  2  0  0  0  0
  3  4  1  0  0  0  0
  3 24  1  0  0  0  0
  4  5  1  0  0  0  0
  4 19  2  0  0  0  0
  5  6  1  0  0  0  0
  5 25  1  0  0  0  0
  6  7  2  0  0  0  0
  6  8  1  0  0  0  0
  8  9  1  0  0  0  0
  8 26  1  0  0  0  0
  9 10  1  0  0  0  0
  9 27  1  0  0  0  0
  9 28  1  0  0  0  0
 10 11  1  0  0  0  0
 10 12  1  0  0  0  0
 10 29  1  0  0  0  0
 11 30  1  0  0  0  0
 11 31  1  0  0  0  0
 11 32  1  0  0  0  0
 12 18  1  0  0  0  0
 12 13  1  0  0  0  0
 12 45  1  0  0  0  0
 13 14  1  0  0  0  0
 13 33  1  0  0  0  0
 13 34  1  0  0  0  0
 14 15  1  0  0  0  0
 14 35  1  0  0  0  0
 14 36  1  0  0  0  0
 15 16  1  0  0  0  0
 15 37  1  0  0  0  0
 15 38  1  0  0  0  0
 16 17  1  0  0  0  0
 16 18  1  0  0  0  0
 16 39  1  0  0  0  0
 17 40  1  0  0  0  0
 17 41  1  0  0  0  0
 17 42  1  0  0  0  0
 18 43  1  0  0  0  0
 18 44  1  0  0  0  0
 19 20  1  0  0  0  0
M  CHG  1  12   1
M  END
> <s_m_source_file>
AV-unprocessed.smi

> <i_m_source_file_index>
2083

> <i_lp_mmshare_version>
43012

> <i_f3d_flags>
0

> <s_epik_input>
W0NIM11jMVtjSF1jKG5vMSlbTkhdQyg9TylbTkhdW0NIMl1bQ0BIXShbQ0gzXSlOMltDSDJdW0NIMl1bQ0gyXVtDQEBIXShbQ0gzXSlbQ0gyXTI=

> <s_epik_cmdline>
J2VwaWtfcHl0aG9uJywgJy1waCcsICc3LjAnLCAnLXRuJywgJzgnLCAnLW1hJywgJzIwMCcsICctbWV0YWxfYmluZGluZycsICctaW1hZScsICc8aW5maWxlLm1hZT4nLCAnLW9tYWUnLCAnPG91dGZpbGUubWFlPic=

> <r_epik_Ionization_Penalty>
0.00216453

> <r_epik_Ionization_Penalty_Charging>
0.00212879

> <r_epik_Ionization_Penalty_Neutral>
3.57418e-05

> <r_epik_State_Penalty>
0.00146033

> <r_epik_Charging_Adjusted_Penalty>
0.00358912

> <i_epik_Tot_Q>
1

> <i_epik_Tot_abs_Q>
1

> <r_epik_Metal_State_Penalty>
0.0215827

> <b_epik_Metal_Only>
0

> <s_lp_Force_Field>
OPLS_2005

> <r_lp_Energy>
19.0311

> <b_lp_Chiralities_Consistent>
1

> <s_lp_Variant>
AV-unprocessed.smi:2083-1

> <Gold.Version>
5.8.1

> <Gold.Id.Protein>
6NUR|6NUR_protein|mol2

> <Gold.PLP.Fitness>
44.7675

> <Gold.PLP.PLP>
-36.4131

> <Gold.PLP.part.hbond>
-3.5671

> <Gold.PLP.part.metal>
0.0000

> <Gold.PLP.part.buried>
-2.6484

> <Gold.PLP.part.nonpolar>
-31.0367

> <Gold.PLP.part.repulsive>
0.3028

> <Gold.PLP.ligand.clash>
0.0000

> <Gold.PLP.ligand.torsion>
1.5008

> <Gold.PLP.Chemscore.Hbond>
3.7650

> <Gold.PLP.Chemscore.CHOScore>
0.0000

> <Gold.PLP.Chemscore.Metal>
0.0000

> <Gold.Chemscore.Hbonds>
donor molecule, donor type, donor heavy atom, donor atom, acceptor molecule, acceptor atom, score
      L1  H     8    26       P1  8028  0.61
      L1  H    12    45       P1 10175  1.62
      P1  H  7989  7998       L1     7  1.00

> <Gold.PLP.Chemscore.Internal.Correction>
0.0610

> <Gold.Rescore>
     Score         DG    S(hbond)    S(metal)    S(lipo)     H(rot)  DE(clash)    DE(int)     intcor
     16.51     -21.44       2.77        0.00      91.26       1.55       2.28       2.66       ----

> <Gold.Chemscore.Fitness>
16.5110

> <Gold.Chemscore.DG>
-21.4423

> <Gold.Chemscore.ZeroCoef>
-5.4800

> <Gold.Chemscore.Hbond>
2.7683

> <Gold.Chemscore.Metal>
0.0000

> <Gold.Chemscore.Lipo>
91.2596

> <Gold.Chemscore.Internal_Hbond>
0.0000

> <Gold.Chemscore.DEClash>
2.2756

> <Gold.Chemscore.DEInternal>
2.6557

> <Gold.Chemscore.Rot>
1.5474

> <Gold.Chemscore.Internal.Correction>
   9.000000E+99

> <Gold.Chemscore.Hbonds>
donor molecule, donor type, donor heavy atom, donor atom, acceptor molecule, acceptor atom, score
      L1  H     8    26       P1  8028  0.61
      L1  H    12    45       P1 10175  0.32
      P1  H  7989  7998       L1     7  0.34

> <Gold.Chemscore.Hbond.Weighted>
-9.2462

> <Gold.Chemscore.Metal.Weighted>
-0.0000

> <Gold.Chemscore.Lipo.Weighted>
-10.6774

> <Gold.Chemscore.Internal_Hbond.Weighted>
0.0000

> <Gold.Chemscore.DEClash.Weighted>
2.2756

> <Gold.Chemscore.DEInternal.Weighted>
2.6557

> <Gold.Chemscore.Rot.Weighted>
3.9612

> <Gold.Chemscore.Internal.Correction.Weighted>
   9.000000E+99

> <Gold.Protein.RotatedTorsions>
[ 6907 6896 6895 6894 ] final   73.16 input  -60.11 | X-H torsion
[ 7974 7965 7964 7962 ] final  -22.97 input  175.53 | X-H torsion
[ 8008 7997 7996 7995 ] final  179.77 input   59.86 | X-H torsion
[ 10167 10162 10161 10158 ] final  152.53 input  -65.29 | X-H torsion
[ 10718 10713 10712 10709 ] final   30.39 input   66.30 | X-H torsion
[ 10763 10752 10751 10750 ] final  141.76 input  -60.55 | X-H torsion
[ 11005 11000 10999 10996 ] final   34.27 input  -57.11 | X-H torsion

> <Gold.Protein.ActiveResidues>
 VAL166  LYS551  ARG553  GLY616  TRP617  ASP618  TYR619  PRO620  LYS621  CYS622 
 ASP623  PHE694  ASN695  SER759  ASP760  ASP761  ALA762  ILE779  LEU786  VAL792 
 PHE793  MET794  SER795  GLU796  ALA797  LYS798  CYS799  TRP800  GLU811  SER814 

> <Gold.Protein.RotatedAtoms>
  152.4908  134.4463  159.9559 H   0  0  0  0  0  0  0  0  0  0  0  0  # atno 6907 bound_to 6896
  151.4451  133.3626  159.2795 H   0  0  0  0  0  0  0  0  0  0  0  0  # atno 6908 bound_to 6896
  150.9060  134.8499  159.7453 H   0  0  0  0  0  0  0  0  0  0  0  0  # atno 6909 bound_to 6896
  146.1644  140.4552  142.8558 H   0  0  0  0  0  0  0  0  0  0  0  0  # atno 7974 bound_to 7965
  156.0396  140.1300  157.0170 H   0  0  0  0  0  0  0  0  0  0  0  0  # atno 8008 bound_to 7997
  154.4385  140.1033  156.6288 H   0  0  0  0  0  0  0  0  0  0  0  0  # atno 8009 bound_to 7997
  155.5686  140.3466  155.4512 H   0  0  0  0  0  0  0  0  0  0  0  0  # atno 8010 bound_to 7997
  139.4832  144.5350  151.7660 H   0  0  0  0  0  0  0  0  0  0  0  0  # atno 10167 bound_to 10162
  157.2589  130.7151  149.6443 H   0  0  0  0  0  0  0  0  0  0  0  0  # atno 10718 bound_to 10713
  153.9445  135.2976  155.3441 H   0  0  0  0  0  0  0  0  0  0  0  0  # atno 10763 bound_to 10752
  154.7459  135.5003  153.9207 H   0  0  0  0  0  0  0  0  0  0  0  0  # atno 10764 bound_to 10752
  153.1025  135.6738  153.9753 H   0  0  0  0  0  0  0  0  0  0  0  0  # atno 10765 bound_to 10752
  140.2546  134.3264  155.7878 H   0  0  0  0  0  0  0  0  0  0  0  0  # atno 11005 bound_to 11000
  144.8071  140.6320  143.6439 LP  0  0  0  0  0  0  0  0  0  0  0  0  # atno 17320 bound_to 7965
  145.4506  139.1524  143.3920 LP  0  0  0  0  0  0  0  0  0  0  0  0  # atno 17321 bound_to 7965
  140.4881  144.1351  150.5945 LP  0  0  0  0  0  0  0  0  0  0  0  0  # atno 17342 bound_to 10162
  140.4202  143.2615  151.9725 LP  0  0  0  0  0  0  0  0  0  0  0  0  # atno 17343 bound_to 10162
  155.9664  130.4404  150.5297 LP  0  0  0  0  0  0  0  0  0  0  0  0  # atno 17370 bound_to 10713
  157.3197  131.0679  151.1941 LP  0  0  0  0  0  0  0  0  0  0  0  0  # atno 17371 bound_to 10713
  141.2197  133.7373  156.9090 LP  0  0  0  0  0  0  0  0  0  0  0  0  # atno 17394 bound_to 11000
  140.1525  134.9221  157.2610 LP  0  0  0  0  0  0  0  0  0  0  0  0  # atno 17395 bound_to 11000

$$$$
