AV-unprocessed.smi:669|AV-procd|sdf|3263|dock5
  -GOLD-   22720 0213D 1   1.00000     0.00000
 Structure written by MMmdl.
 37 38  0  0  0  0  0  0  0  0  1 V2000
  147.4351  141.5466  154.3593 C   0  0  0  0  0  0  0  0  0  0  0  0
  148.7558  141.0329  154.8500 C   0  0  0  0  0  0  0  0  0  0  0  0
  149.1979  139.6677  154.6436 C   0  0  0  0  0  0  0  0  0  0  0  0
  150.4133  139.2919  155.0950 C   0  0  0  0  0  0  0  0  0  0  0  0
  151.2955  140.2228  155.7956 C   0  0  0  0  0  0  0  0  0  0  0  0
  152.4241  139.9170  156.1785 O   0  0  0  0  0  0  0  0  0  0  0  0
  150.7535  141.4639  155.9773 N   0  0  0  0  0  0  0  0  0  0  0  0
  151.4884  142.5241  156.6873 C   0  0  0  0  0  0  0  0  0  0  0  0
  150.9591  142.8428  158.1193 C   0  0  1  0  0  0  0  0  0  0  0  0
  149.6543  143.3706  157.9771 O   0  0  0  0  0  0  0  0  0  0  0  0
  150.7766  141.5487  158.9487 C   0  0  0  0  0  0  0  0  0  0  0  0
  152.1084  140.9612  159.4511 C   0  0  0  0  0  0  0  0  0  0  0  0
  152.9231  141.9980  160.2461 C   0  0  1  0  0  0  0  0  0  0  0  0
  154.2556  141.4116  160.7328 C   0  0  0  0  0  0  0  0  0  0  0  0
  153.1384  143.2697  159.4054 C   0  0  0  0  0  0  0  0  0  0  0  0
  151.8000  143.8613  158.9287 C   0  0  0  0  0  0  0  0  0  0  0  0
  149.5206  141.8598  155.4832 N   0  0  0  0  0  0  0  0  0  0  0  0
  146.9208  140.7991  153.7549 H   0  0  0  0  0  0  0  0  0  0  0  0
  147.5679  142.4378  153.7450 H   0  0  0  0  0  0  0  0  0  0  0  0
  146.7859  141.8060  155.1959 H   0  0  0  0  0  0  0  0  0  0  0  0
  148.5579  138.9668  154.1283 H   0  0  0  0  0  0  0  0  0  0  0  0
  150.7437  138.2757  154.9373 H   0  0  0  0  0  0  0  0  0  0  0  0
  152.5547  142.2922  156.7214 H   0  0  0  0  0  0  0  0  0  0  0  0
  151.4333  143.4251  156.0753 H   0  0  0  0  0  0  0  0  0  0  0  0
  149.5670  143.7277  157.1069 H   0  0  0  0  0  0  0  0  0  0  0  0
  150.1531  141.7580  159.8197 H   0  0  0  0  0  0  0  0  0  0  0  0
  150.2377  140.7989  158.3679 H   0  0  0  0  0  0  0  0  0  0  0  0
  151.9037  140.0937  160.0796 H   0  0  0  0  0  0  0  0  0  0  0  0
  152.6973  140.5907  158.6121 H   0  0  0  0  0  0  0  0  0  0  0  0
  152.3449  142.2736  161.1293 H   0  0  0  0  0  0  0  0  0  0  0  0
  154.8861  141.1105  159.8957 H   0  0  0  0  0  0  0  0  0  0  0  0
  154.0918  140.5342  161.3592 H   0  0  0  0  0  0  0  0  0  0  0  0
  154.8117  142.1387  161.3251 H   0  0  0  0  0  0  0  0  0  0  0  0
  153.6745  144.0160  159.9928 H   0  0  0  0  0  0  0  0  0  0  0  0
  153.7737  143.0417  158.5500 H   0  0  0  0  0  0  0  0  0  0  0  0
  151.9720  144.7751  158.3596 H   0  0  0  0  0  0  0  0  0  0  0  0
  151.2366  144.1726  159.8098 H   0  0  0  0  0  0  0  0  0  0  0  0
  1  2  1  0  0  0  0
  1 18  1  0  0  0  0
  1 19  1  0  0  0  0
  1 20  1  0  0  0  0
  2 17  2  0  0  0  0
  2  3  1  0  0  0  0
  3  4  2  0  0  0  0
  3 21  1  0  0  0  0
  4  5  1  0  0  0  0
  4 22  1  0  0  0  0
  5  6  2  0  0  0  0
  5  7  1  0  0  0  0
  7  8  1  0  0  0  0
  7 17  1  0  0  0  0
  8  9  1  0  0  0  0
  8 23  1  0  0  0  0
  8 24  1  0  0  0  0
  9 16  1  0  0  0  0
  9 10  1  0  0  0  0
  9 11  1  0  0  0  0
 10 25  1  0  0  0  0
 11 12  1  0  0  0  0
 11 26  1  0  0  0  0
 11 27  1  0  0  0  0
 12 13  1  0  0  0  0
 12 28  1  0  0  0  0
 12 29  1  0  0  0  0
 13 14  1  0  0  0  0
 13 15  1  0  0  0  0
 13 30  1  0  0  0  0
 14 31  1  0  0  0  0
 14 32  1  0  0  0  0
 14 33  1  0  0  0  0
 15 16  1  0  0  0  0
 15 34  1  0  0  0  0
 15 35  1  0  0  0  0
 16 36  1  0  0  0  0
 16 37  1  0  0  0  0
M  END
> <s_m_source_file>
AV-unprocessed.smi

> <i_m_source_file_index>
669

> <i_lp_mmshare_version>
43012

> <i_f3d_flags>
0

> <s_epik_input>
W0NIM11jMVtjSF1bY0hdYyg9TyluKG4xKVtDSDJdW0NAQF0yKFtPSF0pW0NIMl1bQ0gyXVtDQEBIXShbQ0gzXSlbQ0gyXVtDSDJdMg==

> <s_epik_cmdline>
J2VwaWtfcHl0aG9uJywgJy1waCcsICc3LjAnLCAnLXRuJywgJzgnLCAnLW1hJywgJzIwMCcsICctbWV0YWxfYmluZGluZycsICctaW1hZScsICc8aW5maWxlLm1hZT4nLCAnLW9tYWUnLCAnPG91dGZpbGUubWFlPic=

> <r_lp_tautomer_probability>
1

> <r_epik_Ionization_Penalty>
1.6993e-05

> <r_epik_Ionization_Penalty_Charging>
1.61671e-05

> <r_epik_Ionization_Penalty_Neutral>
8.25878e-07

> <r_epik_State_Penalty>
-0

> <r_epik_Charging_Adjusted_Penalty>
1.61671e-05

> <i_epik_Tot_Q>
0

> <i_epik_Tot_abs_Q>
0

> <r_epik_Metal_State_Penalty>
-0

> <b_epik_Metal_Only>
0

> <s_lp_Force_Field>
OPLS_2005

> <r_lp_Energy>
31.4403

> <b_lp_Chiralities_Consistent>
1

> <s_lp_Variant>
AV-unprocessed.smi:669-1

> <Gold.Version>
5.8.1

> <Gold.Id.Protein>
6NUR|6NUR_protein|mol2

> <Gold.PLP.Fitness>
43.7413

> <Gold.PLP.PLP>
-38.1681

> <Gold.PLP.part.hbond>
-2.5992

> <Gold.PLP.part.metal>
0.0000

> <Gold.PLP.part.buried>
-3.1399

> <Gold.PLP.part.nonpolar>
-32.5464

> <Gold.PLP.part.repulsive>
1.2114

> <Gold.PLP.ligand.clash>
0.0000

> <Gold.PLP.ligand.torsion>
0.2207

> <Gold.PLP.Chemscore.Hbond>
2.0000

> <Gold.PLP.Chemscore.CHOScore>
0.0000

> <Gold.PLP.Chemscore.Metal>
0.0000

> <Gold.Chemscore.Hbonds>
donor molecule, donor type, donor heavy atom, donor atom, acceptor molecule, acceptor atom, score
      L1  H    10    25       P1  8028  1.00
      P1  H  7997  8009       L1     6  1.00

> <Gold.PLP.Chemscore.Internal.Correction>
0.0146

> <Gold.Rescore>
     Score         DG    S(hbond)    S(metal)    S(lipo)     H(rot)  DE(clash)    DE(int)     intcor
     16.54     -19.57       1.90        0.00     101.46       1.62       1.59       1.43       ----

> <Gold.Chemscore.Fitness>
16.5442

> <Gold.Chemscore.DG>
-19.5713

> <Gold.Chemscore.ZeroCoef>
-5.4800

> <Gold.Chemscore.Hbond>
1.9039

> <Gold.Chemscore.Metal>
0.0000

> <Gold.Chemscore.Lipo>
101.4640

> <Gold.Chemscore.Internal_Hbond>
0.0000

> <Gold.Chemscore.DEClash>
1.5938

> <Gold.Chemscore.DEInternal>
1.4332

> <Gold.Chemscore.Rot>
1.6168

> <Gold.Chemscore.Internal.Correction>
   9.000000E+99

> <Gold.Chemscore.Hbonds>
donor molecule, donor type, donor heavy atom, donor atom, acceptor molecule, acceptor atom, score
      L1  H    10    25       P1  8028  0.82
      P1  H  7997  8009       L1     6  0.95

> <Gold.Chemscore.Hbond.Weighted>
-6.3591

> <Gold.Chemscore.Metal.Weighted>
-0.0000

> <Gold.Chemscore.Lipo.Weighted>
-11.8713

> <Gold.Chemscore.Internal_Hbond.Weighted>
0.0000

> <Gold.Chemscore.DEClash.Weighted>
1.5938

> <Gold.Chemscore.DEInternal.Weighted>
1.4332

> <Gold.Chemscore.Rot.Weighted>
4.1391

> <Gold.Chemscore.Internal.Correction.Weighted>
   9.000000E+99

> <Gold.Protein.RotatedTorsions>
[ 6907 6896 6895 6894 ] final -111.62 input  -60.11 | X-H torsion
[ 7974 7965 7964 7962 ] final  -26.14 input  175.53 | X-H torsion
[ 8008 7997 7996 7995 ] final -144.82 input   59.86 | X-H torsion
[ 10167 10162 10161 10158 ] final  101.36 input  -65.29 | X-H torsion
[ 10718 10713 10712 10709 ] final -149.10 input   66.30 | X-H torsion
[ 10763 10752 10751 10750 ] final   77.78 input  -60.55 | X-H torsion
[ 11005 11000 10999 10996 ] final -131.31 input  -57.11 | X-H torsion

> <Gold.Protein.ActiveResidues>
 VAL166  LYS551  ARG553  GLY616  TRP617  ASP618  TYR619  PRO620  LYS621  CYS622 
 ASP623  PHE694  ASN695  SER759  ASP760  ASP761  ALA762  ILE779  LEU786  VAL792 
 PHE793  MET794  SER795  GLU796  ALA797  LYS798  CYS799  TRP800  GLU811  SER814 

> <Gold.Protein.RotatedAtoms>
  150.7702  133.9209  159.3397 H   0  0  0  0  0  0  0  0  0  0  0  0  # atno 6907 bound_to 6896
  151.7097  135.0913  160.0275 H   0  0  0  0  0  0  0  0  0  0  0  0  # atno 6908 bound_to 6896
  152.3717  133.6389  159.6128 H   0  0  0  0  0  0  0  0  0  0  0  0  # atno 6909 bound_to 6896
  146.1445  140.4980  142.8638 H   0  0  0  0  0  0  0  0  0  0  0  0  # atno 7974 bound_to 7965
  155.5332  140.0601  157.2885 H   0  0  0  0  0  0  0  0  0  0  0  0  # atno 8008 bound_to 7997
  154.4477  140.1932  156.0560 H   0  0  0  0  0  0  0  0  0  0  0  0  # atno 8009 bound_to 7997
  156.0637  140.3269  155.7496 H   0  0  0  0  0  0  0  0  0  0  0  0  # atno 8010 bound_to 7997
  139.7444  144.7002  151.0526 H   0  0  0  0  0  0  0  0  0  0  0  0  # atno 10167 bound_to 10162
  156.4288  130.8065  151.2291 H   0  0  0  0  0  0  0  0  0  0  0  0  # atno 10718 bound_to 10713
  153.0824  135.4901  154.8530 H   0  0  0  0  0  0  0  0  0  0  0  0  # atno 10763 bound_to 10752
  154.7168  135.3031  154.9113 H   0  0  0  0  0  0  0  0  0  0  0  0  # atno 10764 bound_to 10752
  153.9790  135.6792  153.4802 H   0  0  0  0  0  0  0  0  0  0  0  0  # atno 10765 bound_to 10752
  140.9269  134.1370  157.4267 H   0  0  0  0  0  0  0  0  0  0  0  0  # atno 11005 bound_to 11000
  144.7830  140.5880  143.6592 LP  0  0  0  0  0  0  0  0  0  0  0  0  # atno 17320 bound_to 7965
  145.4970  139.1485  143.3678 LP  0  0  0  0  0  0  0  0  0  0  0  0  # atno 17321 bound_to 7965
  140.7790  143.4884  150.9925 LP  0  0  0  0  0  0  0  0  0  0  0  0  # atno 17342 bound_to 10162
  139.8572  143.7361  152.3175 LP  0  0  0  0  0  0  0  0  0  0  0  0  # atno 17343 bound_to 10162
  157.7508  131.0205  150.3711 LP  0  0  0  0  0  0  0  0  0  0  0  0  # atno 17370 bound_to 10713
  156.4043  130.3922  149.6937 LP  0  0  0  0  0  0  0  0  0  0  0  0  # atno 17371 bound_to 10713
  139.8787  134.9991  156.5939 LP  0  0  0  0  0  0  0  0  0  0  0  0  # atno 17394 bound_to 11000
  140.7913  133.8579  155.8649 LP  0  0  0  0  0  0  0  0  0  0  0  0  # atno 17395 bound_to 11000

$$$$
