#       Name:                AV-unprocessed.smi:2032
#       Creating user name   scv26
#       Creation time:       Fri Mar 27 10:52:18 2020


#       File generated by GOLD software.
#

@<TRIPOS>MOLECULE
AV-unprocessed.smi:2032
    48    49     1
SMALL
NO_CHARGES


@<TRIPOS>ATOM
      1 ****        -3.9930  -1.4200  -1.3460 C.3            1 S1                 0.0000
      2 ****        -3.3774  -0.4272  -0.3536 C.3            1 S1                 0.0000
      3 ****        -1.8460  -0.5523  -0.2878 C.3            1 S1                 0.0000
      4 ****        -1.2794   0.3724   0.7289 N.4            1 S1                 1.0000
      5 ****         0.2189   0.3956   0.7038 C.3            1 S1                 0.0000
      6 ****         0.8597   0.8710   2.0305 C.3            1 S1                 0.0000
      7 ****         0.7124   1.2753  -0.4744 C.3            1 S1                 0.0000
      8 ****         2.1648   1.2689  -0.6181 N.am           1 S1                 0.0000
      9 ****         2.8927   0.2666  -1.1303 C.2            1 S1                 0.0000
     10 ****         2.3310  -0.7496  -1.5464 O.2            1 S1                 0.0000
     11 ****         4.2236   0.5020  -1.1210 N.pl3          1 S1                -1.0000
     12 ****         5.0728  -0.4250  -1.5931 C.2            1 S1                 0.0000
     13 ****         5.6072  -0.3680  -2.8183 N.2            1 S1                 0.0000
     14 ****         6.4673  -1.4313  -3.0990 C.2            1 S1                 0.0000
     15 ****         6.5975  -2.3140  -2.0598 C.2            1 S1                 0.0000
     16 ****         5.6380  -1.8332  -0.6895 S.3            1 S1                 0.0000
     17 ****        -1.9063   0.0950   2.0502 C.3            1 S1                 0.0000
     18 ****        -3.4459   0.1481   1.9721 C.3            1 S1                 0.0000
     19 ****        -4.0063   1.5776   1.8614 C.3            1 S1                 0.0000
     20 ****        -3.9257  -0.6999   0.9312 O.3            1 S1                 0.0000
     21 ****        -3.6102  -1.2563  -2.3537 H              1 S1                 0.0000
     22 ****        -5.0776  -1.3136  -1.3819 H              1 S1                 0.0000
     23 ****        -3.7685  -2.4497  -1.0659 H              1 S1                 0.0000
     24 ****        -3.6513   0.5794  -0.6700 H              1 S1                 0.0000
     25 ****        -1.5642  -1.5774  -0.0407 H              1 S1                 0.0000
     26 ****        -1.4348  -0.3466  -1.2746 H              1 S1                 0.0000
     27 ****         0.5580  -0.6298   0.5474 H              1 S1                 0.0000
     28 ****         1.9476   0.8920   1.9660 H              1 S1                 0.0000
     29 ****         0.6278   0.2022   2.8593 H              1 S1                 0.0000
     30 ****         0.5304   1.8760   2.2962 H              1 S1                 0.0000
     31 ****         0.2752   0.9717  -1.4250 H              1 S1                 0.0000
     32 ****         0.3985   2.3076  -0.3177 H              1 S1                 0.0000
     33 ****         2.6632   2.0850  -0.2939 H              1 S1                 0.0000
     34 ****         6.9458  -1.4796  -4.0658 H              1 S1                 0.0000
     35 ****         7.1960  -3.2113  -2.0158 H              1 S1                 0.0000
     36 ****        -1.5883  -0.8906   2.3939 H              1 S1                 0.0000
     37 ****        -1.5858   0.8174   2.8004 H              1 S1                 0.0000
     38 ****        -3.8373  -0.2689   2.9005 H              1 S1                 0.0000
     39 ****        -3.7455   2.1638   2.7430 H              1 S1                 0.0000
     40 ****        -5.0939   1.5639   1.7864 H              1 S1                 0.0000
     41 ****        -3.6171   2.1097   0.9938 H              1 S1                 0.0000
     42 ****        -1.5742   1.3048   0.4763 H              1 S1                 0.0000
     43 ****         1.3348  -0.8244  -1.5012 LP             1 S1                 0.0000
     44 ****         2.8718  -1.4988  -1.9289 LP             1 S1                 0.0000
     45 ****         4.5759   1.3665  -0.7625 LP             1 S1                 0.0000
     46 ****         5.4098   0.3647  -3.4695 LP             1 S1                 0.0000
     47 ****        -3.7036  -1.6450   1.1712 LP             1 S1                 0.0000
     48 ****        -4.9186  -0.5947   0.8756 LP             1 S1                 0.0000
@<TRIPOS>BOND
    1    1    2 1     
    2    1   21 1     
    3    1   22 1     
    4    1   23 1     
    5    2   20 1     
    6    2    3 1     
    7    2   24 1     
    8    3    4 1     
    9    3   25 1     
   10    3   26 1     
   11    4    5 1     
   12    4   17 1     
   13    4   42 1     
   14    5    6 1     
   15    5    7 1     
   16    5   27 1     
   17    6   28 1     
   18    6   29 1     
   19    6   30 1     
   20    7    8 1     
   21    7   31 1     
   22    7   32 1     
   23    8    9 am    
   24    8   33 1     
   25    9   10 2     
   26    9   11 1     
   27   11   12 1     
   28   12   16 1     
   29   12   13 2     
   30   13   14 1     
   31   14   15 2     
   32   14   34 1     
   33   15   16 1     
   34   15   35 1     
   35   17   18 1     
   36   17   36 1     
   37   17   37 1     
   38   18   19 1     
   39   18   20 1     
   40   18   38 1     
   41   19   39 1     
   42   19   40 1     
   43   19   41 1     
   44   10   43 1     
   45   10   44 1     
   46   11   45 1     
   47   13   46 1     
   48   20   47 1     
   49   20   48 1     
@<TRIPOS>SUBSTRUCTURE
      1 S1             1
@<TRIPOS>SET
LONE_PAIRS      STATIC     ATOMS    <user>   **** ""
6 43 44 45 46 47 48
DONOR_HYDROGENS      STATIC     ATOMS    <user>   **** ""
2 42 33
ATOM$BLUE        STATIC     ATOMS    COLORGROUP SYSTEM
6 43 44 45 46 47 48
ATOM$RED        STATIC     ATOMS    COLORGROUP SYSTEM
2 42 33
