AV-unprocessed.smi:1466|AV-procd|sdf|5953|dock10
  -GOLD-   22720 6 43D 1   1.00000     0.00000
 Structure written by MMmdl.
 49 50  0  0  0  0  0  0  0  0  2 V2000
  147.6282  128.6067  152.6836 C   0  0  0  0  0  0  0  0  0  0  0  0
  148.4322  129.0987  153.7944 N   0  0  0  0  0  0  0  0  0  0  0  0
  148.9881  128.1678  154.7702 C   0  0  0  0  0  0  0  0  0  0  0  0
  148.6809  130.4823  153.9230 C   0  0  0  0  0  0  0  0  0  0  0  0
  149.3919  131.0442  155.0118 C   0  0  0  0  0  0  0  0  0  0  0  0
  149.6002  132.4375  155.0737 C   0  0  0  0  0  0  0  0  0  0  0  0
  149.0863  133.2676  154.0479 C   0  0  0  0  0  0  0  0  0  0  0  0
  149.2516  134.6785  154.0080 N   0  0  0  0  0  0  0  0  0  0  0  0
  149.6932  135.4945  154.9807 C   0  0  0  0  0  0  0  0  0  0  0  0
  150.0288  135.1371  156.1096 O   0  0  0  0  0  0  0  0  0  0  0  0
  149.7052  136.7724  154.5761 N   0  0  0  0  0  0  0  0  0  0  0  0
  150.1097  137.9040  155.4020 C   0  0  0  0  0  0  0  0  0  0  0  0
  150.4021  139.1504  154.5461 C   0  0  0  0  0  0  0  0  0  0  0  0
  150.4329  140.3681  155.3643 N   0  0  0  0  0  0  0  0  0  0  0  0
  149.3581  141.3413  155.1150 C   0  0  0  0  0  0  0  0  0  0  0  0
  148.3242  141.4343  156.2608 C   0  0  0  0  0  0  0  0  0  0  0  0
  148.8538  141.1485  157.6801 C   0  0  0  0  0  0  0  0  0  0  0  0
  150.1068  141.9532  158.0855 C   0  0  0  0  0  0  0  0  0  0  0  0
  151.3266  141.8612  157.1372 C   0  0  0  0  0  0  0  0  0  0  0  0
  151.3902  140.5716  156.3024 C   0  0  0  0  0  0  0  0  0  0  0  0
  152.3031  139.7726  156.5134 O   0  0  0  0  0  0  0  0  0  0  0  0
  148.4005  132.6573  152.9787 C   0  0  0  0  0  0  0  0  0  0  0  0
  148.2236  131.3188  152.9593 N   0  3  0  0  0  0  0  0  0  0  0  0
  148.0687  128.9008  151.7304 H   0  0  0  0  0  0  0  0  0  0  0  0
  146.6151  129.0060  152.7386 H   0  0  0  0  0  0  0  0  0  0  0  0
  147.5590  127.5189  152.6956 H   0  0  0  0  0  0  0  0  0  0  0  0
  150.0779  128.1989  154.7505 H   0  0  0  0  0  0  0  0  0  0  0  0
  148.6790  127.1433  154.5621 H   0  0  0  0  0  0  0  0  0  0  0  0
  148.6509  128.4189  155.7765 H   0  0  0  0  0  0  0  0  0  0  0  0
  149.7890  130.4277  155.8039 H   0  0  0  0  0  0  0  0  0  0  0  0
  150.1628  132.8380  155.9028 H   0  0  0  0  0  0  0  0  0  0  0  0
  148.9365  135.1291  153.1613 H   0  0  0  0  0  0  0  0  0  0  0  0
  149.4100  136.9800  153.6330 H   0  0  0  0  0  0  0  0  0  0  0  0
  149.3404  138.1136  156.1474 H   0  0  0  0  0  0  0  0  0  0  0  0
  151.0044  137.6160  155.9545 H   0  0  0  0  0  0  0  0  0  0  0  0
  151.3487  139.0256  154.0185 H   0  0  0  0  0  0  0  0  0  0  0  0
  149.6515  139.2542  153.7603 H   0  0  0  0  0  0  0  0  0  0  0  0
  149.7989  142.3224  154.9376 H   0  0  0  0  0  0  0  0  0  0  0  0
  148.8391  141.1163  154.1824 H   0  0  0  0  0  0  0  0  0  0  0  0
  147.8600  142.4207  156.2358 H   0  0  0  0  0  0  0  0  0  0  0  0
  147.5197  140.7262  156.0592 H   0  0  0  0  0  0  0  0  0  0  0  0
  148.0586  141.3508  158.3981 H   0  0  0  0  0  0  0  0  0  0  0  0
  149.0587  140.0817  157.7811 H   0  0  0  0  0  0  0  0  0  0  0  0
  149.8318  143.0025  158.1955 H   0  0  0  0  0  0  0  0  0  0  0  0
  150.4127  141.6273  159.0803 H   0  0  0  0  0  0  0  0  0  0  0  0
  151.3428  142.7175  156.4638 H   0  0  0  0  0  0  0  0  0  0  0  0
  152.2421  141.9521  157.7233 H   0  0  0  0  0  0  0  0  0  0  0  0
  147.9816  133.1973  152.1416 H   0  0  0  0  0  0  0  0  0  0  0  0
  147.7152  130.9142  152.1729 H   0  0  0  0  0  0  0  0  0  0  0  0
  1  2  1  0  0  0  0
  1 24  1  0  0  0  0
  1 25  1  0  0  0  0
  1 26  1  0  0  0  0
  2  3  1  0  0  0  0
  2  4  1  0  0  0  0
  3 27  1  0  0  0  0
  3 28  1  0  0  0  0
  3 29  1  0  0  0  0
  4 23  1  0  0  0  0
  4  5  2  0  0  0  0
  5  6  1  0  0  0  0
  5 30  1  0  0  0  0
  6  7  2  0  0  0  0
  6 31  1  0  0  0  0
  7  8  1  0  0  0  0
  7 22  1  0  0  0  0
  8  9  1  0  0  0  0
  8 32  1  0  0  0  0
  9 10  2  0  0  0  0
  9 11  1  0  0  0  0
 11 12  1  0  0  0  0
 11 33  1  0  0  0  0
 12 13  1  0  0  0  0
 12 34  1  0  0  0  0
 12 35  1  0  0  0  0
 13 14  1  0  0  0  0
 13 36  1  0  0  0  0
 13 37  1  0  0  0  0
 14 20  1  0  0  0  0
 14 15  1  0  0  0  0
 15 16  1  0  0  0  0
 15 38  1  0  0  0  0
 15 39  1  0  0  0  0
 16 17  1  0  0  0  0
 16 40  1  0  0  0  0
 16 41  1  0  0  0  0
 17 18  1  0  0  0  0
 17 42  1  0  0  0  0
 17 43  1  0  0  0  0
 18 19  1  0  0  0  0
 18 44  1  0  0  0  0
 18 45  1  0  0  0  0
 19 20  1  0  0  0  0
 19 46  1  0  0  0  0
 19 47  1  0  0  0  0
 20 21  2  0  0  0  0
 22 23  2  0  0  0  0
 22 48  1  0  0  0  0
 23 49  1  0  0  0  0
M  CHG  1  23   1
M  END
> <s_m_source_file>
AV-unprocessed.smi

> <i_m_source_file_index>
1466

> <i_lp_mmshare_version>
43012

> <i_f3d_flags>
0

> <s_epik_input>
W0NIM11OKFtDSDNdKWMxW2NIXVtjSF1jKFtjSF1uMSlbTkhdQyg9TylbTkhdW0NIMl1bQ0gyXU4yW0NIMl1bQ0gyXVtDSDJdW0NIMl1bQ0gyXUMyPU8=

> <s_epik_cmdline>
J2VwaWtfcHl0aG9uJywgJy1waCcsICc3LjAnLCAnLXRuJywgJzgnLCAnLW1hJywgJzIwMCcsICctbWV0YWxfYmluZGluZycsICctaW1hZScsICc8aW5maWxlLm1hZT4nLCAnLW9tYWUnLCAnPG91dGZpbGUubWFlPic=

> <r_lp_tautomer_probability>
0.999994

> <r_epik_Ionization_Penalty>
0.269687

> <r_epik_Ionization_Penalty_Charging>
0.269668

> <r_epik_Ionization_Penalty_Neutral>
1.89217e-05

> <r_epik_State_Penalty>
0.261755

> <r_epik_Charging_Adjusted_Penalty>
0.531423

> <i_epik_Tot_Q>
1

> <i_epik_Tot_abs_Q>
1

> <r_epik_Metal_State_Penalty>
0.546954

> <b_epik_Metal_Only>
0

> <s_lp_Force_Field>
OPLS_2005

> <r_lp_Energy>
31.5815

> <b_lp_Chiralities_Consistent>
1

> <s_lp_Variant>
AV-unprocessed.smi:1466-1

> <Gold.Version>
5.8.1

> <Gold.Id.Protein>
6NUR|6NUR_protein|mol2

> <Gold.PLP.Fitness>
47.6075

> <Gold.PLP.PLP>
-38.8280

> <Gold.PLP.part.hbond>
-4.2556

> <Gold.PLP.part.metal>
0.0000

> <Gold.PLP.part.buried>
-2.6048

> <Gold.PLP.part.nonpolar>
-32.6336

> <Gold.PLP.part.repulsive>
0.1176

> <Gold.PLP.ligand.clash>
0.0000

> <Gold.PLP.ligand.torsion>
0.2495

> <Gold.PLP.Chemscore.Hbond>
3.0891

> <Gold.PLP.Chemscore.CHOScore>
0.0000

> <Gold.PLP.Chemscore.Metal>
0.0000

> <Gold.Chemscore.Hbonds>
donor molecule, donor type, donor heavy atom, donor atom, acceptor molecule, acceptor atom, score
      L1  H     8    32       P1  7948  1.00
      L1  H    11    33       P1  7948  0.91
      L1  H    23    49       P1 10747  0.10
      P1  H  7997  8009       L1    21  0.89

> <Gold.PLP.Chemscore.Internal.Correction>
0.0112

> <Gold.Rescore>
     Score         DG    S(hbond)    S(metal)    S(lipo)     H(rot)  DE(clash)    DE(int)     intcor
     15.95     -17.53       2.40        0.00      67.32       1.50       0.05       1.52       ----

> <Gold.Chemscore.Fitness>
15.9511

> <Gold.Chemscore.DG>
-17.5259

> <Gold.Chemscore.ZeroCoef>
-5.4800

> <Gold.Chemscore.Hbond>
2.4015

> <Gold.Chemscore.Metal>
0.0000

> <Gold.Chemscore.Lipo>
67.3243

> <Gold.Chemscore.Internal_Hbond>
0.0000

> <Gold.Chemscore.DEClash>
0.0545

> <Gold.Chemscore.DEInternal>
1.5203

> <Gold.Chemscore.Rot>
1.5047

> <Gold.Chemscore.Internal.Correction>
   9.000000E+99

> <Gold.Chemscore.Hbonds>
donor molecule, donor type, donor heavy atom, donor atom, acceptor molecule, acceptor atom, score
      L1  H     8    32       P1  7948  0.34
      L1  H    11    33       P1  7948  0.84
      L1  H    23    49       P1 10747  0.10
      P1  H  7997  8009       L1    21  0.85

> <Gold.Chemscore.Hbond.Weighted>
-8.0211

> <Gold.Chemscore.Metal.Weighted>
-0.0000

> <Gold.Chemscore.Lipo.Weighted>
-7.8769

> <Gold.Chemscore.Internal_Hbond.Weighted>
0.0000

> <Gold.Chemscore.DEClash.Weighted>
0.0545

> <Gold.Chemscore.DEInternal.Weighted>
1.5203

> <Gold.Chemscore.Rot.Weighted>
3.8522

> <Gold.Chemscore.Internal.Correction.Weighted>
   9.000000E+99

> <Gold.Protein.RotatedTorsions>
[ 6907 6896 6895 6894 ] final -107.23 input  -60.11 | X-H torsion
[ 7974 7965 7964 7962 ] final   21.61 input  175.53 | X-H torsion
[ 8008 7997 7996 7995 ] final -159.35 input   59.86 | X-H torsion
[ 10167 10162 10161 10158 ] final  153.15 input  -65.29 | X-H torsion
[ 10718 10713 10712 10709 ] final  113.91 input   66.30 | X-H torsion
[ 10763 10752 10751 10750 ] final   93.69 input  -60.55 | X-H torsion
[ 11005 11000 10999 10996 ] final -111.62 input  -57.11 | X-H torsion

> <Gold.Protein.ActiveResidues>
 VAL166  LYS551  ARG553  GLY616  TRP617  ASP618  TYR619  PRO620  LYS621  CYS622 
 ASP623  PHE694  ASN695  SER759  ASP760  ASP761  ALA762  ILE779  LEU786  VAL792 
 PHE793  MET794  SER795  GLU796  ALA797  LYS798  CYS799  TRP800  GLU811  SER814 

> <Gold.Protein.RotatedAtoms>
  150.7433  133.9857  159.3590 H   0  0  0  0  0  0  0  0  0  0  0  0  # atno 6907 bound_to 6896
  151.7801  135.0761  160.0382 H   0  0  0  0  0  0  0  0  0  0  0  0  # atno 6908 bound_to 6896
  152.3279  133.5889  159.5826 H   0  0  0  0  0  0  0  0  0  0  0  0  # atno 6909 bound_to 6896
  146.2064  139.8003  142.8723 H   0  0  0  0  0  0  0  0  0  0  0  0  # atno 7974 bound_to 7965
  155.7613  140.0839  157.2154 H   0  0  0  0  0  0  0  0  0  0  0  0  # atno 8008 bound_to 7997
  154.4003  140.1542  156.2892 H   0  0  0  0  0  0  0  0  0  0  0  0  # atno 8009 bound_to 7997
  155.8837  140.3419  155.5908 H   0  0  0  0  0  0  0  0  0  0  0  0  # atno 8010 bound_to 7997
  139.4828  144.5297  151.7742 H   0  0  0  0  0  0  0  0  0  0  0  0  # atno 10167 bound_to 10162
  157.6312  131.0991  150.7109 H   0  0  0  0  0  0  0  0  0  0  0  0  # atno 10718 bound_to 10713
  153.2331  135.4316  155.0617 H   0  0  0  0  0  0  0  0  0  0  0  0  # atno 10763 bound_to 10752
  154.8306  135.3384  154.6758 H   0  0  0  0  0  0  0  0  0  0  0  0  # atno 10764 bound_to 10752
  153.7184  135.7018  153.5075 H   0  0  0  0  0  0  0  0  0  0  0  0  # atno 10765 bound_to 10752
  141.0724  133.9358  157.2459 H   0  0  0  0  0  0  0  0  0  0  0  0  # atno 11005 bound_to 11000
  145.3304  141.0265  143.3450 LP  0  0  0  0  0  0  0  0  0  0  0  0  # atno 17320 bound_to 7965
  144.8803  139.4913  143.6726 LP  0  0  0  0  0  0  0  0  0  0  0  0  # atno 17321 bound_to 7965
  140.4822  144.1433  150.5934 LP  0  0  0  0  0  0  0  0  0  0  0  0  # atno 17342 bound_to 10162
  140.4265  143.2587  151.9650 LP  0  0  0  0  0  0  0  0  0  0  0  0  # atno 17343 bound_to 10162
  156.7448  130.4750  149.5469 LP  0  0  0  0  0  0  0  0  0  0  0  0  # atno 17370 bound_to 10713
  156.1516  130.6314  151.0603 LP  0  0  0  0  0  0  0  0  0  0  0  0  # atno 17371 bound_to 10713
  139.9536  135.0170  156.9066 LP  0  0  0  0  0  0  0  0  0  0  0  0  # atno 17394 bound_to 11000
  140.5646  134.0502  155.7410 LP  0  0  0  0  0  0  0  0  0  0  0  0  # atno 17395 bound_to 11000

$$$$
