AV-unprocessed.smi:21|AV-procd|sdf|147|dock2
  -GOLD-   2262015363D 1   1.00000     0.00000
 Structure written by MMmdl.
 62 65  0  0  0  0  0  0  0  0  2 V2000
  143.9452  134.6517  151.7814 C   0  0  0  0  0  0  0  0  0  0  0  0
  144.2841  133.2861  151.6012 O   0  0  0  0  0  0  0  0  0  0  0  0
  145.4434  133.0888  150.8036 C   0  0  1  0  0  0  0  0  0  0  0  0
  146.6472  133.5988  151.5833 C   0  0  0  0  0  0  0  0  0  0  0  0
  147.0850  132.4015  152.4325 C   0  0  2  0  0  0  0  0  0  0  0  0
  148.5636  132.4547  152.8866 C   0  0  0  0  0  0  0  0  0  0  0  0
  148.7764  131.9395  154.2406 N   0  0  0  0  0  0  0  0  0  0  0  0
  147.7392  131.1064  154.8350 C   0  0  0  0  0  0  0  0  0  0  0  0
  149.5730  132.6737  155.0585 C   0  0  0  0  0  0  0  0  0  0  0  0
  150.4871  132.0070  155.8102 N   0  0  0  0  0  0  0  0  0  0  0  0
  151.3509  132.6769  156.5774 C   0  0  0  0  0  0  0  0  0  0  0  0
  151.4914  133.9954  156.7174 N   0  0  0  0  0  0  0  0  0  0  0  0
  150.5800  134.6727  155.9631 C   0  0  0  0  0  0  0  0  0  0  0  0
  149.5755  134.0984  155.1327 C   0  0  0  0  0  0  0  0  0  0  0  0
  148.8403  135.1098  154.5233 N   0  0  0  0  0  0  0  0  0  0  0  0
  149.3872  136.2131  154.9536 C   0  0  0  0  0  0  0  0  0  0  0  0
  150.4674  136.0405  155.7880 N   0  0  0  0  0  0  0  0  0  0  0  0
  151.2956  137.0848  156.3624 C   0  0  0  0  0  0  0  0  0  0  0  0
  150.9519  138.5181  155.8717 C   0  0  2  0  0  0  0  0  0  0  0  0
  151.1762  138.5998  154.3440 C   0  0  0  0  0  0  0  0  0  0  0  0
  150.4402  139.6576  153.7633 O   0  0  0  0  0  0  0  0  0  0  0  0
  151.6698  139.6659  156.6458 C   0  0  1  0  0  0  0  0  0  0  0  0
  151.1637  141.0633  156.3212 C   0  0  0  0  0  0  0  0  0  0  0  0
  151.6757  141.8773  157.5008 C   0  0  0  0  0  0  0  0  0  0  0  0
  151.5208  141.0154  158.6170 O   0  0  0  0  0  0  0  0  0  0  0  0
  151.4955  139.6615  158.1748 C   0  0  0  0  0  0  0  0  0  0  0  0
  146.8196  131.2309  151.5662 N   0  3  1  0  0  0  0  0  0  0  0  0
  146.5773  129.9686  152.2986 C   0  0  0  0  0  0  0  0  0  0  0  0
  145.7319  131.5894  150.6234 C   0  0  0  0  0  0  0  0  0  0  0  0
  145.3528  133.6157  149.8520 H   0  0  0  0  0  0  0  0  0  0  0  0
  146.4268  132.3380  153.3010 H   0  0  0  0  0  0  0  0  0  0  0  0
  143.0389  134.7258  152.3823 H   0  0  0  0  0  0  0  0  0  0  0  0
  143.7593  135.1507  150.8299 H   0  0  0  0  0  0  0  0  0  0  0  0
  144.7378  135.1863  152.3067 H   0  0  0  0  0  0  0  0  0  0  0  0
  147.4396  133.8750  150.8864 H   0  0  0  0  0  0  0  0  0  0  0  0
  146.4058  134.4777  152.1790 H   0  0  0  0  0  0  0  0  0  0  0  0
  149.1725  131.8497  152.2148 H   0  0  0  0  0  0  0  0  0  0  0  0
  148.9507  133.4698  152.7914 H   0  0  0  0  0  0  0  0  0  0  0  0
  148.1026  130.6124  155.7367 H   0  0  0  0  0  0  0  0  0  0  0  0
  147.4313  130.3306  154.1340 H   0  0  0  0  0  0  0  0  0  0  0  0
  146.8601  131.6980  155.0906 H   0  0  0  0  0  0  0  0  0  0  0  0
  152.0394  132.0700  157.1470 H   0  0  0  0  0  0  0  0  0  0  0  0
  149.0382  137.1871  154.6423 H   0  0  0  0  0  0  0  0  0  0  0  0
  151.2113  137.0294  157.4484 H   0  0  0  0  0  0  0  0  0  0  0  0
  152.3325  136.8462  156.1226 H   0  0  0  0  0  0  0  0  0  0  0  0
  149.8803  138.6614  156.0152 H   0  0  0  0  0  0  0  0  0  0  0  0
  152.2335  138.7492  154.1229 H   0  0  0  0  0  0  0  0  0  0  0  0
  150.8957  137.6671  153.8550 H   0  0  0  0  0  0  0  0  0  0  0  0
  149.5657  139.6478  154.1211 H   0  0  0  0  0  0  0  0  0  0  0  0
  152.7371  139.6367  156.4205 H   0  0  0  0  0  0  0  0  0  0  0  0
  151.5303  141.4430  155.3669 H   0  0  0  0  0  0  0  0  0  0  0  0
  150.0729  141.0815  156.3026 H   0  0  0  0  0  0  0  0  0  0  0  0
  152.7341  142.1100  157.3752 H   0  0  0  0  0  0  0  0  0  0  0  0
  151.1327  142.8127  157.6375 H   0  0  0  0  0  0  0  0  0  0  0  0
  150.5338  139.2371  158.4638 H   0  0  0  0  0  0  0  0  0  0  0  0
  152.2809  139.0971  158.6755 H   0  0  0  0  0  0  0  0  0  0  0  0
  145.6917  130.0445  152.9309 H   0  0  0  0  0  0  0  0  0  0  0  0
  147.4282  129.7147  152.9305 H   0  0  0  0  0  0  0  0  0  0  0  0
  146.4271  129.1471  151.5973 H   0  0  0  0  0  0  0  0  0  0  0  0
  144.8367  130.9866  150.7831 H   0  0  0  0  0  0  0  0  0  0  0  0
  146.0806  131.3853  149.6109 H   0  0  0  0  0  0  0  0  0  0  0  0
  147.6472  131.1012  151.0019 H   0  0  0  0  0  0  0  0  0  0  0  0
  1  2  1  0  0  0  0
  1 32  1  0  0  0  0
  1 33  1  0  0  0  0
  1 34  1  0  0  0  0
  2  3  1  0  0  0  0
  3 30  1  0  0  0  0
  3 29  1  0  0  0  0
  3  4  1  0  0  0  0
  4  5  1  0  0  0  0
  4 35  1  0  0  0  0
  4 36  1  0  0  0  0
  5 31  1  0  0  0  0
  5  6  1  0  0  0  0
  5 27  1  0  0  0  0
  6  7  1  0  0  0  0
  6 37  1  0  0  0  0
  6 38  1  0  0  0  0
  7  8  1  0  0  0  0
  7  9  1  0  0  0  0
  8 39  1  0  0  0  0
  8 40  1  0  0  0  0
  8 41  1  0  0  0  0
  9 14  1  0  0  0  0
  9 10  2  0  0  0  0
 10 11  1  0  0  0  0
 11 12  2  0  0  0  0
 11 42  1  0  0  0  0
 12 13  1  0  0  0  0
 13 17  1  0  0  0  0
 13 14  2  0  0  0  0
 14 15  1  0  0  0  0
 15 16  2  0  0  0  0
 16 17  1  0  0  0  0
 16 43  1  0  0  0  0
 17 18  1  0  0  0  0
 18 19  1  0  0  0  0
 18 44  1  0  0  0  0
 18 45  1  0  0  0  0
 19 20  1  0  0  0  0
 19 22  1  0  0  0  0
 19 46  1  0  0  0  0
 20 21  1  0  0  0  0
 20 47  1  0  0  0  0
 20 48  1  0  0  0  0
 21 49  1  0  0  0  0
 22 26  1  0  0  0  0
 22 23  1  0  0  0  0
 22 50  1  0  0  0  0
 23 24  1  0  0  0  0
 23 51  1  0  0  0  0
 23 52  1  0  0  0  0
 24 25  1  0  0  0  0
 24 53  1  0  0  0  0
 24 54  1  0  0  0  0
 25 26  1  0  0  0  0
 26 55  1  0  0  0  0
 26 56  1  0  0  0  0
 27 28  1  0  0  0  0
 27 29  1  0  0  0  0
 27 62  1  0  0  0  0
 28 57  1  0  0  0  0
 28 58  1  0  0  0  0
 28 59  1  0  0  0  0
 29 60  1  0  0  0  0
 29 61  1  0  0  0  0
M  CHG  1  27   1
M  END
> <s_m_source_file>
AV-unprocessed.smi

> <i_m_source_file_index>
21

> <i_lp_mmshare_version>
43012

> <i_f3d_flags>
0

> <s_epik_input>
W0NIM11PW0NASF0xW0NIMl1bQ0BIXShOKFtDSDNdKVtDSDJdMSlbQ0gyXU4oW0NIM10pYyhuW2NIXW4yKWMoYzIzKW5bY0hdbjNbQ0gyXVtDQEhdKFtDSDJdW09IXSlbQ0BASF00W0NIMl1bQ0gyXU9bQ0gyXTQ=

> <s_epik_cmdline>
J2VwaWtfcHl0aG9uJywgJy1waCcsICc3LjAnLCAnLXRuJywgJzgnLCAnLW1hJywgJzIwMCcsICctbWV0YWxfYmluZGluZycsICctaW1hZScsICc8aW5maWxlLm1hZT4nLCAnLW9tYWUnLCAnPG91dGZpbGUubWFlPic=

> <r_lp_tautomer_probability>
1

> <r_epik_Ionization_Penalty>
0.0157465

> <r_epik_Ionization_Penalty_Charging>
0.015354

> <r_epik_Ionization_Penalty_Neutral>
0.000392529

> <r_epik_State_Penalty>
0.0120612

> <r_epik_Charging_Adjusted_Penalty>
0.0274152

> <i_epik_Tot_Q>
1

> <i_epik_Tot_abs_Q>
1

> <r_epik_Metal_State_Penalty>
0.0121253

> <b_epik_Metal_Only>
0

> <s_lp_Force_Field>
OPLS_2005

> <r_lp_Energy>
57.9391

> <b_lp_Chiralities_Consistent>
1

> <s_lp_Variant>
AV-unprocessed.smi:21-27

> <Gold.Version>
5.8.1

> <Gold.Id.Protein>
6NUR|6NUR_protein|mol2

> <Gold.PLP.Fitness>
48.4216

> <Gold.PLP.PLP>
-45.1250

> <Gold.PLP.part.hbond>
-3.7432

> <Gold.PLP.part.metal>
0.0000

> <Gold.PLP.part.buried>
-7.4266

> <Gold.PLP.part.nonpolar>
-34.8114

> <Gold.PLP.part.repulsive>
0.8128

> <Gold.PLP.ligand.clash>
0.0000

> <Gold.PLP.ligand.torsion>
1.9860

> <Gold.PLP.Chemscore.Hbond>
2.0000

> <Gold.PLP.Chemscore.CHOScore>
0.0000

> <Gold.PLP.Chemscore.Metal>
0.0000

> <Gold.Chemscore.Hbonds>
donor molecule, donor type, donor heavy atom, donor atom, acceptor molecule, acceptor atom, score
      L1  H    27    62       P1 10747  1.00
      P1  H  7989  7998       L1    21  0.98

> <Gold.PLP.Chemscore.Internal.Correction>
1.2687

> <Gold.Rescore>
     Score         DG    S(hbond)    S(metal)    S(lipo)     H(rot)  DE(clash)    DE(int)     intcor
     12.76     -15.21       2.01        0.00      93.14       3.08       0.05       2.40       ----

> <Gold.Chemscore.Fitness>
12.7599

> <Gold.Chemscore.DG>
-15.2093

> <Gold.Chemscore.ZeroCoef>
-5.4800

> <Gold.Chemscore.Hbond>
2.0079

> <Gold.Chemscore.Metal>
0.0000

> <Gold.Chemscore.Lipo>
93.1383

> <Gold.Chemscore.Internal_Hbond>
0.0000

> <Gold.Chemscore.DEClash>
0.0471

> <Gold.Chemscore.DEInternal>
2.4024

> <Gold.Chemscore.Rot>
3.0758

> <Gold.Chemscore.Internal.Correction>
   9.000000E+99

> <Gold.Chemscore.Hbonds>
donor molecule, donor type, donor heavy atom, donor atom, acceptor molecule, acceptor atom, score
      L1  H    27    62       P1 10747  0.93
      P1  H  7989  7998       L1    21  0.42

> <Gold.Chemscore.Hbond.Weighted>
-6.7063

> <Gold.Chemscore.Metal.Weighted>
-0.0000

> <Gold.Chemscore.Lipo.Weighted>
-10.8972

> <Gold.Chemscore.Internal_Hbond.Weighted>
0.0000

> <Gold.Chemscore.DEClash.Weighted>
0.0471

> <Gold.Chemscore.DEInternal.Weighted>
2.4024

> <Gold.Chemscore.Rot.Weighted>
7.8741

> <Gold.Chemscore.Internal.Correction.Weighted>
   9.000000E+99

> <Gold.Protein.RotatedTorsions>
[ 6907 6896 6895 6894 ] final   91.72 input  -60.11 | X-H torsion
[ 7974 7965 7964 7962 ] final  -55.21 input  175.53 | X-H torsion
[ 8008 7997 7996 7995 ] final  136.02 input   59.86 | X-H torsion
[ 10167 10162 10161 10158 ] final -133.28 input  -65.29 | X-H torsion
[ 10718 10713 10712 10709 ] final -131.99 input   66.30 | X-H torsion
[ 10763 10752 10751 10750 ] final   18.91 input  -60.55 | X-H torsion
[ 11005 11000 10999 10996 ] final   67.63 input  -57.11 | X-H torsion

> <Gold.Protein.ActiveResidues>
 VAL166  LYS551  ARG553  GLY616  TRP617  ASP618  TYR619  PRO620  LYS621  CYS622 
 ASP623  PHE694  ASN695  SER759  ASP760  ASP761  ALA762  ILE779  LEU786  VAL792 
 PHE793  MET794  SER795  GLU796  ALA797  LYS798  CYS799  TRP800  GLU811  SER814 

> <Gold.Protein.RotatedAtoms>
  152.5451  134.1613  159.8558 H   0  0  0  0  0  0  0  0  0  0  0  0  # atno 6907 bound_to 6896
  151.1631  133.4825  159.2601 H   0  0  0  0  0  0  0  0  0  0  0  0  # atno 6908 bound_to 6896
  151.1352  135.0162  159.8656 H   0  0  0  0  0  0  0  0  0  0  0  0  # atno 6909 bound_to 6896
  145.8768  140.8174  142.9860 H   0  0  0  0  0  0  0  0  0  0  0  0  # atno 7974 bound_to 7965
  156.3004  140.2456  156.3677 H   0  0  0  0  0  0  0  0  0  0  0  0  # atno 8008 bound_to 7997
  154.8817  140.0412  157.1806 H   0  0  0  0  0  0  0  0  0  0  0  0  # atno 8009 bound_to 7997
  154.8688  140.2932  155.5497 H   0  0  0  0  0  0  0  0  0  0  0  0  # atno 8010 bound_to 7997
  139.8999  143.6621  152.2597 H   0  0  0  0  0  0  0  0  0  0  0  0  # atno 10167 bound_to 10162
  156.2300  130.7031  151.0848 H   0  0  0  0  0  0  0  0  0  0  0  0  # atno 10718 bound_to 10713
  153.1207  135.6718  153.9340 H   0  0  0  0  0  0  0  0  0  0  0  0  # atno 10763 bound_to 10752
  153.8856  135.3053  155.3447 H   0  0  0  0  0  0  0  0  0  0  0  0  # atno 10764 bound_to 10752
  154.7619  135.4983  153.9560 H   0  0  0  0  0  0  0  0  0  0  0  0  # atno 10765 bound_to 10752
  139.9759  134.6823  156.0355 H   0  0  0  0  0  0  0  0  0  0  0  0  # atno 11005 bound_to 11000
  144.6726  140.1323  143.7443 LP  0  0  0  0  0  0  0  0  0  0  0  0  # atno 17320 bound_to 7965
  145.9071  139.2465  143.1459 LP  0  0  0  0  0  0  0  0  0  0  0  0  # atno 17321 bound_to 7965
  139.7035  144.7631  151.1233 LP  0  0  0  0  0  0  0  0  0  0  0  0  # atno 17342 bound_to 10162
  140.7709  143.5426  150.9295 LP  0  0  0  0  0  0  0  0  0  0  0  0  # atno 17343 bound_to 10162
  157.7128  131.0725  150.6437 LP  0  0  0  0  0  0  0  0  0  0  0  0  # atno 17370 bound_to 10713
  156.6504  130.4483  149.5721 LP  0  0  0  0  0  0  0  0  0  0  0  0  # atno 17371 bound_to 10713
  141.1436  133.6560  156.3801 LP  0  0  0  0  0  0  0  0  0  0  0  0  # atno 17394 bound_to 11000
  140.5196  134.6317  157.5313 LP  0  0  0  0  0  0  0  0  0  0  0  0  # atno 17395 bound_to 11000

$$$$
