AV-unprocessed.smi:1634|AV-procd|sdf|6537|dock10
  -GOLD-   22720 7223D 1   1.00000     0.00000
 Structure written by MMmdl.
 38 38  0  0  0  0  0  0  0  0  1 V2000
  150.3784  144.8002  160.0449 C   0  0  0  0  0  0  0  0  0  0  0  0
  151.8744  144.5538  159.7935 C   0  0  0  0  0  0  0  0  0  0  0  0
  152.2214  144.7724  158.3135 C   0  0  0  0  0  0  0  0  0  0  0  0
  152.3007  143.1520  160.2585 C   0  0  0  0  0  0  0  0  0  0  0  0
  151.3560  142.1950  159.7904 O   0  0  0  0  0  0  0  0  0  0  0  0
  151.4467  141.8689  158.4061 C   0  0  1  0  0  0  0  0  0  0  0  0
  152.1613  140.5140  158.2934 C   0  0  0  0  0  0  0  0  0  0  0  0
  150.0445  141.8160  157.7781 C   0  0  0  0  0  0  0  0  0  0  0  0
  149.0632  142.0871  158.4694 O   0  0  0  0  0  0  0  0  0  0  0  0
  150.0131  141.4962  156.4691 N   0  0  0  0  0  0  0  0  0  0  0  0
  148.9188  141.3762  155.5952 C   0  0  0  0  0  0  0  0  0  0  0  0
  147.6624  141.8307  155.8444 C   0  0  0  0  0  0  0  0  0  0  0  0
  146.5792  141.6682  154.8891 C   0  0  0  0  0  0  0  0  0  0  0  0
  145.1650  142.1310  155.2043 C   0  0  0  0  0  0  0  0  0  0  0  0
  144.3215  141.1003  155.2742 F   0  0  0  0  0  0  0  0  0  0  0  0
  145.1238  142.7848  156.3655 F   0  0  0  0  0  0  0  0  0  0  0  0
  144.7356  142.9550  154.2496 F   0  0  0  0  0  0  0  0  0  0  0  0
  146.8760  141.0173  153.7495 C   0  0  0  0  0  0  0  0  0  0  0  0
  148.1647  140.5494  153.4839 N   0  0  0  0  0  0  0  0  0  0  0  0
  149.2107  140.6818  154.3298 C   0  0  0  0  0  0  0  0  0  0  0  0
  150.3165  140.2374  154.0236 O   0  0  0  0  0  0  0  0  0  0  0  0
  148.3100  140.0804  152.6015 H   0  0  0  0  0  0  0  0  0  0  0  0
  149.7614  144.0892  159.4943 H   0  0  0  0  0  0  0  0  0  0  0  0
  150.0879  145.8040  159.7341 H   0  0  0  0  0  0  0  0  0  0  0  0
  150.1333  144.7027  161.1029 H   0  0  0  0  0  0  0  0  0  0  0  0
  152.4383  145.2852  160.3740 H   0  0  0  0  0  0  0  0  0  0  0  0
  151.6904  144.0671  157.6734 H   0  0  0  0  0  0  0  0  0  0  0  0
  153.2896  144.6436  158.1365 H   0  0  0  0  0  0  0  0  0  0  0  0
  151.9548  145.7796  157.9920 H   0  0  0  0  0  0  0  0  0  0  0  0
  153.3052  142.9337  159.8944 H   0  0  0  0  0  0  0  0  0  0  0  0
  152.3363  143.1157  161.3483 H   0  0  0  0  0  0  0  0  0  0  0  0
  152.0553  142.6190  157.8971 H   0  0  0  0  0  0  0  0  0  0  0  0
  152.2398  140.1932  157.2539 H   0  0  0  0  0  0  0  0  0  0  0  0
  151.6357  139.7347  158.8467 H   0  0  0  0  0  0  0  0  0  0  0  0
  153.1728  140.5765  158.6953 H   0  0  0  0  0  0  0  0  0  0  0  0
  150.9113  141.3498  156.0311 H   0  0  0  0  0  0  0  0  0  0  0  0
  147.4199  142.3263  156.7691 H   0  0  0  0  0  0  0  0  0  0  0  0
  146.1630  140.8037  152.9667 H   0  0  0  0  0  0  0  0  0  0  0  0
  1  2  1  0  0  0  0
  1 23  1  0  0  0  0
  1 24  1  0  0  0  0
  1 25  1  0  0  0  0
  2  3  1  0  0  0  0
  2  4  1  0  0  0  0
  2 26  1  0  0  0  0
  3 27  1  0  0  0  0
  3 28  1  0  0  0  0
  3 29  1  0  0  0  0
  4  5  1  0  0  0  0
  4 30  1  0  0  0  0
  4 31  1  0  0  0  0
  5  6  1  0  0  0  0
  6  7  1  0  0  0  0
  6  8  1  0  0  0  0
  6 32  1  0  0  0  0
  7 33  1  0  0  0  0
  7 34  1  0  0  0  0
  7 35  1  0  0  0  0
  8  9  2  0  0  0  0
  8 10  1  0  0  0  0
 10 11  1  0  0  0  0
 10 36  1  0  0  0  0
 11 20  1  0  0  0  0
 11 12  2  0  0  0  0
 12 13  1  0  0  0  0
 12 37  1  0  0  0  0
 13 14  1  0  0  0  0
 13 18  2  0  0  0  0
 14 15  1  0  0  0  0
 14 16  1  0  0  0  0
 14 17  1  0  0  0  0
 18 19  1  0  0  0  0
 18 38  1  0  0  0  0
 19 22  1  0  0  0  0
 19 20  1  0  0  0  0
 20 21  2  0  0  0  0
M  END
> <s_m_source_file>
AV-unprocessed.smi

> <i_m_source_file_index>
1634

> <i_lp_mmshare_version>
43012

> <i_f3d_flags>
0

> <s_epik_input>
W0NIM11bQ0hdKFtDSDNdKVtDSDJdT1tDQEhdKFtDSDNdKUMoPU8pW05IXWMxW2NIXWMoQyhGKShGKUYpW2NIXVtuSF1jMT1P

> <s_epik_cmdline>
J2VwaWtfcHl0aG9uJywgJy1waCcsICc3LjAnLCAnLXRuJywgJzgnLCAnLW1hJywgJzIwMCcsICctbWV0YWxfYmluZGluZycsICctaW1hZScsICc8aW5maWxlLm1hZT4nLCAnLW9tYWUnLCAnPG91dGZpbGUubWFlPic=

> <r_lp_tautomer_probability>
0.999

> <r_epik_Ionization_Penalty>
0.00884964

> <r_epik_Ionization_Penalty_Charging>
0.00884955

> <r_epik_Ionization_Penalty_Neutral>
9.33956e-08

> <r_epik_State_Penalty>
0.00669049

> <r_epik_Charging_Adjusted_Penalty>
0.01554

> <i_epik_Tot_Q>
0

> <i_epik_Tot_abs_Q>
0

> <r_epik_Metal_State_Penalty>
0.320763

> <b_epik_Metal_Only>
0

> <s_lp_Force_Field>
OPLS_2005

> <r_lp_Energy>
19.8034

> <b_lp_Chiralities_Consistent>
1

> <s_lp_Variant>
AV-unprocessed.smi:1634-2

> <Gold.Version>
5.8.1

> <Gold.Id.Protein>
6NUR|6NUR_protein|mol2

> <Gold.PLP.Fitness>
47.0235

> <Gold.PLP.PLP>
-41.4302

> <Gold.PLP.part.hbond>
-2.7971

> <Gold.PLP.part.metal>
0.0000

> <Gold.PLP.part.buried>
-3.6121

> <Gold.PLP.part.nonpolar>
-37.0015

> <Gold.PLP.part.repulsive>
0.9953

> <Gold.PLP.ligand.clash>
0.0000

> <Gold.PLP.ligand.torsion>
0.8861

> <Gold.PLP.Chemscore.Hbond>
1.7408

> <Gold.PLP.Chemscore.CHOScore>
0.6989

> <Gold.PLP.Chemscore.Metal>
0.0000

> <Gold.Chemscore.Hbonds>
donor molecule, donor type, donor heavy atom, donor atom, acceptor molecule, acceptor atom, score
      L1  H    19    22       P1  7957  0.80
      P1  H  7989  7998       L1    21  0.94
      L1  C    18    38       P1 10175  0.98

> <Gold.PLP.Chemscore.Internal.Correction>
0.0462

> <Gold.Rescore>
     Score         DG    S(hbond)    S(metal)    S(lipo)     H(rot)  DE(clash)    DE(int)     intcor
     13.16     -17.09       1.78        0.00      87.36       1.79       1.67       2.26       ----

> <Gold.Chemscore.Fitness>
13.1595

> <Gold.Chemscore.DG>
-17.0865

> <Gold.Chemscore.ZeroCoef>
-5.4800

> <Gold.Chemscore.Hbond>
1.7848

> <Gold.Chemscore.Metal>
0.0000

> <Gold.Chemscore.Lipo>
87.3575

> <Gold.Chemscore.Internal_Hbond>
0.0000

> <Gold.Chemscore.DEClash>
1.6657

> <Gold.Chemscore.DEInternal>
2.2613

> <Gold.Chemscore.Rot>
1.7873

> <Gold.Chemscore.Internal.Correction>
   9.000000E+99

> <Gold.Chemscore.Hbonds>
donor molecule, donor type, donor heavy atom, donor atom, acceptor molecule, acceptor atom, score
      L1  H    19    22       P1  7957  0.79
      P1  H  7989  7998       L1    21  0.86

> <Gold.Chemscore.Hbond.Weighted>
-5.9611

> <Gold.Chemscore.Metal.Weighted>
-0.0000

> <Gold.Chemscore.Lipo.Weighted>
-10.2208

> <Gold.Chemscore.Internal_Hbond.Weighted>
0.0000

> <Gold.Chemscore.DEClash.Weighted>
1.6657

> <Gold.Chemscore.DEInternal.Weighted>
2.2613

> <Gold.Chemscore.Rot.Weighted>
4.5755

> <Gold.Chemscore.Internal.Correction.Weighted>
   9.000000E+99

> <Gold.Protein.RotatedTorsions>
[ 6907 6896 6895 6894 ] final  -88.24 input  -60.11 | X-H torsion
[ 7974 7965 7964 7962 ] final  -97.91 input  175.53 | X-H torsion
[ 8008 7997 7996 7995 ] final   -3.40 input   59.86 | X-H torsion
[ 10167 10162 10161 10158 ] final  124.28 input  -65.29 | X-H torsion
[ 10718 10713 10712 10709 ] final   -4.04 input   66.30 | X-H torsion
[ 10763 10752 10751 10750 ] final -170.68 input  -60.55 | X-H torsion
[ 11005 11000 10999 10996 ] final  168.35 input  -57.11 | X-H torsion

> <Gold.Protein.ActiveResidues>
 VAL166  LYS551  ARG553  GLY616  TRP617  ASP618  TYR619  PRO620  LYS621  CYS622 
 ASP623  PHE694  ASN695  SER759  ASP760  ASP761  ALA762  ILE779  LEU786  VAL792 
 PHE793  MET794  SER795  GLU796  ALA797  LYS798  CYS799  TRP800  GLU811  SER814 

> <Gold.Protein.RotatedAtoms>
  150.6868  134.2772  159.4612 H   0  0  0  0  0  0  0  0  0  0  0  0  # atno 6907 bound_to 6896
  152.0689  134.9544  160.0584 H   0  0  0  0  0  0  0  0  0  0  0  0  # atno 6908 bound_to 6896
  152.0941  133.4181  159.4594 H   0  0  0  0  0  0  0  0  0  0  0  0  # atno 6909 bound_to 6896
  145.3275  140.9435  143.2680 H   0  0  0  0  0  0  0  0  0  0  0  0  # atno 7974 bound_to 7965
  154.6254  140.2510  155.7499 H   0  0  0  0  0  0  0  0  0  0  0  0  # atno 8008 bound_to 7997
  156.2450  140.2918  156.0500 H   0  0  0  0  0  0  0  0  0  0  0  0  # atno 8009 bound_to 7997
  155.1830  140.0389  157.2876 H   0  0  0  0  0  0  0  0  0  0  0  0  # atno 8010 bound_to 7997
  139.5750  144.6959  151.3676 H   0  0  0  0  0  0  0  0  0  0  0  0  # atno 10167 bound_to 10162
  156.7672  130.5288  149.5774 H   0  0  0  0  0  0  0  0  0  0  0  0  # atno 10718 bound_to 10713
  154.6388  135.2896  155.0129 H   0  0  0  0  0  0  0  0  0  0  0  0  # atno 10763 bound_to 10752
  154.1263  135.6540  153.4917 H   0  0  0  0  0  0  0  0  0  0  0  0  # atno 10764 bound_to 10752
  153.0316  135.5299  154.7246 H   0  0  0  0  0  0  0  0  0  0  0  0  # atno 10765 bound_to 10752
  140.2863  134.7709  157.3801 H   0  0  0  0  0  0  0  0  0  0  0  0  # atno 11005 bound_to 11000
  144.8890  139.4800  143.6687 LP  0  0  0  0  0  0  0  0  0  0  0  0  # atno 17320 bound_to 7965
  146.3058  139.7576  142.9057 LP  0  0  0  0  0  0  0  0  0  0  0  0  # atno 17321 bound_to 7965
  140.7033  143.7576  150.7440 LP  0  0  0  0  0  0  0  0  0  0  0  0  # atno 17342 bound_to 10162
  140.1094  143.4714  152.2379 LP  0  0  0  0  0  0  0  0  0  0  0  0  # atno 17343 bound_to 10162
  156.1301  130.6172  151.0321 LP  0  0  0  0  0  0  0  0  0  0  0  0  # atno 17370 bound_to 10713
  157.6707  131.0862  150.7618 LP  0  0  0  0  0  0  0  0  0  0  0  0  # atno 17371 bound_to 10713
  140.1236  134.5187  155.8163 LP  0  0  0  0  0  0  0  0  0  0  0  0  # atno 17394 bound_to 11000
  141.2154  133.6765  156.6911 LP  0  0  0  0  0  0  0  0  0  0  0  0  # atno 17395 bound_to 11000

$$$$
