AV-unprocessed.smi:1283|AV-procd|sdf|5362|dock2
  -GOLD-   22720 4503D 1   1.00000     0.00000
 Structure written by MMmdl.
 30 31  0  0  0  0  0  0  0  0  1 V2000
  148.0563  141.5895  154.7246 C   0  0  0  0  0  0  0  0  0  0  0  0
  149.1966  141.3511  155.6108 N   0  0  0  0  0  0  0  0  0  0  0  0
  149.0893  142.0006  156.8229 N   0  0  0  0  0  0  0  0  0  0  0  0
  150.0289  141.8779  157.6956 C   0  0  0  0  0  0  0  0  0  0  0  0
  151.2183  141.0741  157.4639 C   0  0  0  0  0  0  0  0  0  0  0  0
  152.2292  140.9476  158.4067 N   0  0  0  0  0  0  0  0  0  0  0  0
  152.3031  141.5504  159.7284 C   0  0  0  0  0  0  0  0  0  0  0  0
  152.6912  143.0362  159.6695 C   0  0  1  0  0  0  0  0  0  0  0  0
  152.2158  143.7993  158.4309 C   0  0  0  0  0  0  0  0  0  0  0  0
  152.1937  145.2197  158.9490 C   0  0  0  0  0  0  0  0  0  0  0  0
  151.6864  145.0216  160.3751 C   0  0  0  0  0  0  0  0  0  0  0  0
  152.1788  143.7504  160.7918 O   0  0  0  0  0  0  0  0  0  0  0  0
  151.2985  140.4417  156.2628 C   0  0  0  0  0  0  0  0  0  0  0  0
  152.6723  139.4555  155.8866 Cl  0  0  0  0  0  0  0  0  0  0  0  0
  150.2459  140.5572  155.2423 C   0  0  0  0  0  0  0  0  0  0  0  0
  150.2996  139.9907  154.1500 O   0  0  0  0  0  0  0  0  0  0  0  0
  148.1273  141.0842  153.7608 H   0  0  0  0  0  0  0  0  0  0  0  0
  147.9555  142.6570  154.5241 H   0  0  0  0  0  0  0  0  0  0  0  0
  147.1356  141.2512  155.2014 H   0  0  0  0  0  0  0  0  0  0  0  0
  149.9712  142.3808  158.6606 H   0  0  0  0  0  0  0  0  0  0  0  0
  153.0179  140.3662  158.1599 H   0  0  0  0  0  0  0  0  0  0  0  0
  151.3369  141.4414  160.2215 H   0  0  0  0  0  0  0  0  0  0  0  0
  153.0329  141.0045  160.3272 H   0  0  0  0  0  0  0  0  0  0  0  0
  153.7780  143.1154  159.7212 H   0  0  0  0  0  0  0  0  0  0  0  0
  152.8728  143.6664  157.5710 H   0  0  0  0  0  0  0  0  0  0  0  0
  151.2082  143.5001  158.1394 H   0  0  0  0  0  0  0  0  0  0  0  0
  153.2044  145.6301  158.9626 H   0  0  0  0  0  0  0  0  0  0  0  0
  151.5615  145.8838  158.3590 H   0  0  0  0  0  0  0  0  0  0  0  0
  152.0111  145.8163  161.0470 H   0  0  0  0  0  0  0  0  0  0  0  0
  150.5962  144.9907  160.3884 H   0  0  0  0  0  0  0  0  0  0  0  0
  1  2  1  0  0  0  0
  1 17  1  0  0  0  0
  1 18  1  0  0  0  0
  1 19  1  0  0  0  0
  2 15  1  0  0  0  0
  2  3  1  0  0  0  0
  3  4  2  0  0  0  0
  4  5  1  0  0  0  0
  4 20  1  0  0  0  0
  5  6  1  0  0  0  0
  5 13  2  0  0  0  0
  6  7  1  0  0  0  0
  6 21  1  0  0  0  0
  7  8  1  0  0  0  0
  7 22  1  0  0  0  0
  7 23  1  0  0  0  0
  8 12  1  0  0  0  0
  8  9  1  0  0  0  0
  8 24  1  0  0  0  0
  9 10  1  0  0  0  0
  9 25  1  0  0  0  0
  9 26  1  0  0  0  0
 10 11  1  0  0  0  0
 10 27  1  0  0  0  0
 10 28  1  0  0  0  0
 11 12  1  0  0  0  0
 11 29  1  0  0  0  0
 11 30  1  0  0  0  0
 13 14  1  0  0  0  0
 13 15  1  0  0  0  0
 15 16  2  0  0  0  0
M  END
> <s_m_source_file>
AV-unprocessed.smi

> <i_m_source_file_index>
1283

> <i_lp_mmshare_version>
43012

> <i_f3d_flags>
0

> <s_epik_input>
W0NIM11uMW5bY0hdYyhjKENsKWMxPU8pW05IXVtDSDJdW0NAQEhdMltDSDJdW0NIMl1bQ0gyXU8y

> <s_epik_cmdline>
J2VwaWtfcHl0aG9uJywgJy1waCcsICc3LjAnLCAnLXRuJywgJzgnLCAnLW1hJywgJzIwMCcsICctbWV0YWxfYmluZGluZycsICctaW1hZScsICc8aW5maWxlLm1hZT4nLCAnLW9tYWUnLCAnPG91dGZpbGUubWFlPic=

> <r_lp_tautomer_probability>
1

> <r_epik_Ionization_Penalty>
2.40876e-05

> <r_epik_Ionization_Penalty_Charging>
4.17655e-09

> <r_epik_Ionization_Penalty_Neutral>
2.40834e-05

> <r_epik_State_Penalty>
-0

> <r_epik_Charging_Adjusted_Penalty>
4.17655e-09

> <i_epik_Tot_Q>
0

> <i_epik_Tot_abs_Q>
0

> <r_epik_Metal_State_Penalty>
-0

> <b_epik_Metal_Only>
0

> <s_lp_Force_Field>
OPLS_2005

> <r_lp_Energy>
41.0811

> <b_lp_Chiralities_Consistent>
1

> <s_lp_Variant>
AV-unprocessed.smi:1283-2

> <Gold.Version>
5.8.1

> <Gold.Id.Protein>
6NUR|6NUR_protein|mol2

> <Gold.PLP.Fitness>
37.8183

> <Gold.PLP.PLP>
-35.8592

> <Gold.PLP.part.hbond>
-1.0000

> <Gold.PLP.part.metal>
0.0000

> <Gold.PLP.part.buried>
-2.8845

> <Gold.PLP.part.nonpolar>
-33.6996

> <Gold.PLP.part.repulsive>
1.9379

> <Gold.PLP.ligand.clash>
0.0000

> <Gold.PLP.ligand.torsion>
0.4457

> <Gold.PLP.Chemscore.Hbond>
0.9500

> <Gold.PLP.Chemscore.CHOScore>
0.0000

> <Gold.PLP.Chemscore.Metal>
0.0000

> <Gold.Chemscore.Hbonds>
donor molecule, donor type, donor heavy atom, donor atom, acceptor molecule, acceptor atom, score
      P1  H  7989  7998       L1    16  0.90

> <Gold.PLP.Chemscore.Internal.Correction>
0.0004

> <Gold.Rescore>
     Score         DG    S(hbond)    S(metal)    S(lipo)     H(rot)  DE(clash)    DE(int)     intcor
     13.27     -15.52       0.78        0.00      90.19       1.22       1.79       0.45       ----

> <Gold.Chemscore.Fitness>
13.2730

> <Gold.Chemscore.DG>
-15.5187

> <Gold.Chemscore.ZeroCoef>
-5.4800

> <Gold.Chemscore.Hbond>
0.7820

> <Gold.Chemscore.Metal>
0.0000

> <Gold.Chemscore.Lipo>
90.1887

> <Gold.Chemscore.Internal_Hbond>
0.0000

> <Gold.Chemscore.DEClash>
1.7907

> <Gold.Chemscore.DEInternal>
0.4550

> <Gold.Chemscore.Rot>
1.2208

> <Gold.Chemscore.Internal.Correction>
   9.000000E+99

> <Gold.Chemscore.Hbonds>
donor molecule, donor type, donor heavy atom, donor atom, acceptor molecule, acceptor atom, score
      P1  H  7989  7998       L1    16  0.17

> <Gold.Chemscore.Hbond.Weighted>
-2.6119

> <Gold.Chemscore.Metal.Weighted>
-0.0000

> <Gold.Chemscore.Lipo.Weighted>
-10.5521

> <Gold.Chemscore.Internal_Hbond.Weighted>
0.0000

> <Gold.Chemscore.DEClash.Weighted>
1.7907

> <Gold.Chemscore.DEInternal.Weighted>
0.4550

> <Gold.Chemscore.Rot.Weighted>
3.1253

> <Gold.Chemscore.Internal.Correction.Weighted>
   9.000000E+99

> <Gold.Protein.RotatedTorsions>
[ 6907 6896 6895 6894 ] final  -83.61 input  -60.11 | X-H torsion
[ 7974 7965 7964 7962 ] final  -73.13 input  175.53 | X-H torsion
[ 8008 7997 7996 7995 ] final -104.81 input   59.86 | X-H torsion
[ 10167 10162 10161 10158 ] final   29.82 input  -65.29 | X-H torsion
[ 10718 10713 10712 10709 ] final  -45.13 input   66.30 | X-H torsion
[ 10763 10752 10751 10750 ] final   30.61 input  -60.55 | X-H torsion
[ 11005 11000 10999 10996 ] final  -98.01 input  -57.11 | X-H torsion

> <Gold.Protein.ActiveResidues>
 VAL166  LYS551  ARG553  GLY616  TRP617  ASP618  TYR619  PRO620  LYS621  CYS622 
 ASP623  PHE694  ASN695  SER759  ASP760  ASP761  ALA762  ILE779  LEU786  VAL792 
 PHE793  MET794  SER795  GLU796  ALA797  LYS798  CYS799  TRP800  GLU811  SER814 

> <Gold.Protein.RotatedAtoms>
  150.6884  134.3485  159.4898 H   0  0  0  0  0  0  0  0  0  0  0  0  # atno 6907 bound_to 6896
  152.1329  134.9118  160.0567 H   0  0  0  0  0  0  0  0  0  0  0  0  # atno 6908 bound_to 6896
  152.0281  133.3891  159.4323 H   0  0  0  0  0  0  0  0  0  0  0  0  # atno 6909 bound_to 6896
  145.6562  140.9267  143.0958 H   0  0  0  0  0  0  0  0  0  0  0  0  # atno 7974 bound_to 7965
  154.8907  140.0416  157.1837 H   0  0  0  0  0  0  0  0  0  0  0  0  # atno 8008 bound_to 7997
  154.8543  140.2934  155.5557 H   0  0  0  0  0  0  0  0  0  0  0  0  # atno 8009 bound_to 7997
  156.2997  140.2459  156.3507 H   0  0  0  0  0  0  0  0  0  0  0  0  # atno 8010 bound_to 7997
  140.4732  144.0731  150.6243 H   0  0  0  0  0  0  0  0  0  0  0  0  # atno 10167 bound_to 10162
  156.2314  130.4173  149.8870 H   0  0  0  0  0  0  0  0  0  0  0  0  # atno 10718 bound_to 10713
  153.0362  135.6460  154.1071 H   0  0  0  0  0  0  0  0  0  0  0  0  # atno 10763 bound_to 10752
  154.0785  135.2875  155.3296 H   0  0  0  0  0  0  0  0  0  0  0  0  # atno 10764 bound_to 10752
  154.6546  135.5414  153.8007 H   0  0  0  0  0  0  0  0  0  0  0  0  # atno 10765 bound_to 10752
  141.1359  133.8213  157.0782 H   0  0  0  0  0  0  0  0  0  0  0  0  # atno 11005 bound_to 11000
  144.7105  139.8390  143.7416 LP  0  0  0  0  0  0  0  0  0  0  0  0  # atno 17320 bound_to 7965
  146.1163  139.4174  143.0256 LP  0  0  0  0  0  0  0  0  0  0  0  0  # atno 17321 bound_to 7965
  140.3951  143.2732  152.0014 LP  0  0  0  0  0  0  0  0  0  0  0  0  # atno 17342 bound_to 10162
  139.4821  144.6044  151.7547 LP  0  0  0  0  0  0  0  0  0  0  0  0  # atno 17343 bound_to 10162
  156.6483  130.8733  151.3526 LP  0  0  0  0  0  0  0  0  0  0  0  0  # atno 17370 bound_to 10713
  157.7135  130.9468  150.1171 LP  0  0  0  0  0  0  0  0  0  0  0  0  # atno 17371 bound_to 10713
  140.0468  134.9826  157.1063 LP  0  0  0  0  0  0  0  0  0  0  0  0  # atno 17394 bound_to 11000
  140.4051  134.2041  155.7163 LP  0  0  0  0  0  0  0  0  0  0  0  0  # atno 17395 bound_to 11000

$$$$
