AV-unprocessed.smi:1933|AV-procd|sdf|7821|dock1
  -GOLD-   22720 9563D 1   1.00000     0.00000
 Structure written by MMmdl.
 48 50  0  0  0  0  0  0  0  0  2 V2000
  144.5387  136.1059  153.1393 O   0  0  0  0  0  0  0  0  0  0  0  0
  145.6875  136.2514  152.7212 C   0  0  0  0  0  0  0  0  0  0  0  0
  146.4981  137.2394  153.1239 N   0  0  0  0  0  0  0  0  0  0  0  0
  146.1441  138.2571  154.1055 C   0  0  0  0  0  0  0  0  0  0  0  0
  146.9203  139.5840  153.8935 C   0  0  2  0  0  0  0  0  0  0  0  0
  148.2947  139.6365  154.6207 C   0  0  1  0  0  0  0  0  0  0  0  0
  149.2680  138.5113  154.3062 C   0  0  0  0  0  0  0  0  0  0  0  0
  150.6084  139.0982  154.7374 C   0  0  0  0  0  0  0  0  0  0  0  0
  150.4959  140.5044  154.5549 O   0  0  0  0  0  0  0  0  0  0  0  0
  149.1545  140.8434  154.2266 C   0  0  0  0  0  0  0  0  0  0  0  0
  146.1026  140.7722  154.2840 N   0  3  0  0  0  0  0  0  0  0  0  0
  145.9380  140.9391  155.7485 C   0  0  0  0  0  0  0  0  0  0  0  0
  144.9254  142.0595  156.0401 C   0  0  0  0  0  0  0  0  0  0  0  0
  145.3524  143.2664  155.4193 O   0  0  0  0  0  0  0  0  0  0  0  0
  145.4388  143.1403  154.0046 C   0  0  0  0  0  0  0  0  0  0  0  0
  146.4744  142.0616  153.6470 C   0  0  0  0  0  0  0  0  0  0  0  0
  146.2949  135.4627  151.8174 N   0  0  0  0  0  0  0  0  0  0  0  0
  145.7775  134.3080  151.1718 C   0  0  0  0  0  0  0  0  0  0  0  0
  144.3672  134.2320  151.1207 C   0  0  0  0  0  0  0  0  0  0  0  0
  143.7554  133.1256  150.5001 C   0  0  0  0  0  0  0  0  0  0  0  0
  144.5707  132.1230  149.9455 C   0  0  0  0  0  0  0  0  0  0  0  0
  145.9660  132.2763  150.0383 C   0  0  0  0  0  0  0  0  0  0  0  0
  146.5545  133.3357  150.6327 N   0  0  0  0  0  0  0  0  0  0  0  0
  147.4245  137.2888  152.7257 H   0  0  0  0  0  0  0  0  0  0  0  0
  145.0692  138.4206  154.0275 H   0  0  0  0  0  0  0  0  0  0  0  0
  146.3338  137.8737  155.1093 H   0  0  0  0  0  0  0  0  0  0  0  0
  147.1262  139.6816  152.8264 H   0  0  0  0  0  0  0  0  0  0  0  0
  148.1437  139.6557  155.7009 H   0  0  0  0  0  0  0  0  0  0  0  0
  149.0469  137.5841  154.8351 H   0  0  0  0  0  0  0  0  0  0  0  0
  149.2791  138.3024  153.2356 H   0  0  0  0  0  0  0  0  0  0  0  0
  150.7886  138.9003  155.7947 H   0  0  0  0  0  0  0  0  0  0  0  0
  151.4435  138.6876  154.1691 H   0  0  0  0  0  0  0  0  0  0  0  0
  149.1008  141.0208  153.1515 H   0  0  0  0  0  0  0  0  0  0  0  0
  148.8493  141.7590  154.7338 H   0  0  0  0  0  0  0  0  0  0  0  0
  145.5879  140.0080  156.1950 H   0  0  0  0  0  0  0  0  0  0  0  0
  146.8960  141.1775  156.2113 H   0  0  0  0  0  0  0  0  0  0  0  0
  143.9304  141.7866  155.6845 H   0  0  0  0  0  0  0  0  0  0  0  0
  144.8455  142.2236  157.1148 H   0  0  0  0  0  0  0  0  0  0  0  0
  144.4605  142.8959  153.5872 H   0  0  0  0  0  0  0  0  0  0  0  0
  145.7351  144.1004  153.5818 H   0  0  0  0  0  0  0  0  0  0  0  0
  147.4587  142.3844  153.9882 H   0  0  0  0  0  0  0  0  0  0  0  0
  146.5270  141.9532  152.5642 H   0  0  0  0  0  0  0  0  0  0  0  0
  147.2381  135.7146  151.5621 H   0  0  0  0  0  0  0  0  0  0  0  0
  143.7555  135.0108  151.5522 H   0  0  0  0  0  0  0  0  0  0  0  0
  142.6793  133.0483  150.4511 H   0  0  0  0  0  0  0  0  0  0  0  0
  144.1384  131.2596  149.4616 H   0  0  0  0  0  0  0  0  0  0  0  0
  146.6275  131.5296  149.6245 H   0  0  0  0  0  0  0  0  0  0  0  0
  145.1739  140.5634  153.9461 H   0  0  0  0  0  0  0  0  0  0  0  0
  1  2  2  0  0  0  0
  2  3  1  0  0  0  0
  2 17  1  0  0  0  0
  3  4  1  0  0  0  0
  3 24  1  0  0  0  0
  4  5  1  0  0  0  0
  4 25  1  0  0  0  0
  4 26  1  0  0  0  0
  5  6  1  0  0  0  0
  5 11  1  0  0  0  0
  5 27  1  0  0  0  0
  6 10  1  0  0  0  0
  6  7  1  0  0  0  0
  6 28  1  0  0  0  0
  7  8  1  0  0  0  0
  7 29  1  0  0  0  0
  7 30  1  0  0  0  0
  8  9  1  0  0  0  0
  8 31  1  0  0  0  0
  8 32  1  0  0  0  0
  9 10  1  0  0  0  0
 10 33  1  0  0  0  0
 10 34  1  0  0  0  0
 11 16  1  0  0  0  0
 11 12  1  0  0  0  0
 11 48  1  0  0  0  0
 12 13  1  0  0  0  0
 12 35  1  0  0  0  0
 12 36  1  0  0  0  0
 13 14  1  0  0  0  0
 13 37  1  0  0  0  0
 13 38  1  0  0  0  0
 14 15  1  0  0  0  0
 15 16  1  0  0  0  0
 15 39  1  0  0  0  0
 15 40  1  0  0  0  0
 16 41  1  0  0  0  0
 16 42  1  0  0  0  0
 17 18  1  0  0  0  0
 17 43  1  0  0  0  0
 18 23  1  0  0  0  0
 18 19  2  0  0  0  0
 19 20  1  0  0  0  0
 19 44  1  0  0  0  0
 20 21  2  0  0  0  0
 20 45  1  0  0  0  0
 21 22  1  0  0  0  0
 21 46  1  0  0  0  0
 22 23  2  0  0  0  0
 22 47  1  0  0  0  0
M  CHG  1  11   1
M  END
> <s_m_source_file>
AV-unprocessed.smi

> <i_m_source_file_index>
1933

> <i_lp_mmshare_version>
43012

> <i_f3d_flags>
0

> <s_epik_input>
bjFbY0hdW2NIXVtjSF1bY0hdYzFbTkhdQyg9TylbTkhdW0NIMl1bQ0BIXShbQ0BASF0yW0NIMl1bQ0gyXU9bQ0gyXTIpTjNbQ0gyXVtDSDJdT1tDSDJdW0NIMl0z

> <s_epik_cmdline>
J2VwaWtfcHl0aG9uJywgJy1waCcsICc3LjAnLCAnLXRuJywgJzgnLCAnLW1hJywgJzIwMCcsICctbWV0YWxfYmluZGluZycsICctaW1hZScsICc8aW5maWxlLm1hZT4nLCAnLW9tYWUnLCAnPG91dGZpbGUubWFlPic=

> <r_epik_Ionization_Penalty>
0.983294

> <r_epik_Ionization_Penalty_Charging>
0.98326

> <r_epik_Ionization_Penalty_Neutral>
3.39688e-05

> <r_epik_State_Penalty>
1.0303

> <r_epik_Charging_Adjusted_Penalty>
2.01356

> <i_epik_Tot_Q>
1

> <i_epik_Tot_abs_Q>
1

> <r_epik_Metal_State_Penalty>
1.0303

> <b_epik_Metal_Only>
0

> <s_lp_Force_Field>
OPLS_2005

> <r_lp_Energy>
40.8927

> <b_lp_Chiralities_Consistent>
1

> <s_lp_Variant>
AV-unprocessed.smi:1933-7

> <Gold.Version>
5.8.1

> <Gold.Id.Protein>
6NUR|6NUR_protein|mol2

> <Gold.PLP.Fitness>
53.7990

> <Gold.PLP.PLP>
-37.5004

> <Gold.PLP.part.hbond>
-4.0000

> <Gold.PLP.part.metal>
0.0000

> <Gold.PLP.part.buried>
-6.7654

> <Gold.PLP.part.nonpolar>
-28.7494

> <Gold.PLP.part.repulsive>
0.6896

> <Gold.PLP.ligand.clash>
0.0000

> <Gold.PLP.ligand.torsion>
0.9508

> <Gold.PLP.Chemscore.Hbond>
4.9440

> <Gold.PLP.Chemscore.CHOScore>
1.0000

> <Gold.PLP.Chemscore.Metal>
0.0000

> <Gold.Chemscore.Hbonds>
donor molecule, donor type, donor heavy atom, donor atom, acceptor molecule, acceptor atom, score
      L1  H     3    24       P1  7948  0.90
      L1  H    11    48       P1 10175  1.69
      L1  H    17    43       P1  7948  1.00
      P1  H  7989  7998       L1     9  1.00
      L1  C    22    47       P1 10747  1.00

> <Gold.PLP.Chemscore.Internal.Correction>
0.3683

> <Gold.Rescore>
     Score         DG    S(hbond)    S(metal)    S(lipo)     H(rot)  DE(clash)    DE(int)     intcor
     19.16     -23.30       3.60        0.00      88.08       1.77       0.56       3.58       ----

> <Gold.Chemscore.Fitness>
19.1593

> <Gold.Chemscore.DG>
-23.2967

> <Gold.Chemscore.ZeroCoef>
-5.4800

> <Gold.Chemscore.Hbond>
3.6033

> <Gold.Chemscore.Metal>
0.0000

> <Gold.Chemscore.Lipo>
88.0804

> <Gold.Chemscore.Internal_Hbond>
0.0000

> <Gold.Chemscore.DEClash>
0.5575

> <Gold.Chemscore.DEInternal>
3.5798

> <Gold.Chemscore.Rot>
1.7671

> <Gold.Chemscore.Internal.Correction>
   9.000000E+99

> <Gold.Chemscore.Hbonds>
donor molecule, donor type, donor heavy atom, donor atom, acceptor molecule, acceptor atom, score
      L1  H     3    24       P1  7948  0.82
      L1  H    11    48       P1 10175  0.81
      L1  H    17    43       P1  7948  0.99
      P1  H  7989  7998       L1     9  0.48

> <Gold.Chemscore.Hbond.Weighted>
-12.0351

> <Gold.Chemscore.Metal.Weighted>
-0.0000

> <Gold.Chemscore.Lipo.Weighted>
-10.3054

> <Gold.Chemscore.Internal_Hbond.Weighted>
0.0000

> <Gold.Chemscore.DEClash.Weighted>
0.5575

> <Gold.Chemscore.DEInternal.Weighted>
3.5798

> <Gold.Chemscore.Rot.Weighted>
4.5238

> <Gold.Chemscore.Internal.Correction.Weighted>
   9.000000E+99

> <Gold.Protein.RotatedTorsions>
[ 6907 6896 6895 6894 ] final  167.66 input  -60.11 | X-H torsion
[ 7974 7965 7964 7962 ] final  -12.65 input  175.53 | X-H torsion
[ 8008 7997 7996 7995 ] final -163.72 input   59.86 | X-H torsion
[ 10167 10162 10161 10158 ] final   78.86 input  -65.29 | X-H torsion
[ 10718 10713 10712 10709 ] final   50.39 input   66.30 | X-H torsion
[ 10763 10752 10751 10750 ] final   20.37 input  -60.55 | X-H torsion
[ 11005 11000 10999 10996 ] final -144.70 input  -57.11 | X-H torsion

> <Gold.Protein.ActiveResidues>
 VAL166  LYS551  ARG553  GLY616  TRP617  ASP618  TYR619  PRO620  LYS621  CYS622 
 ASP623  PHE694  ASN695  SER759  ASP760  ASP761  ALA762  ILE779  LEU786  VAL792 
 PHE793  MET794  SER795  GLU796  ALA797  LYS798  CYS799  TRP800  GLU811  SER814 

> <Gold.Protein.RotatedAtoms>
  151.8598  133.3455  159.3699 H   0  0  0  0  0  0  0  0  0  0  0  0  # atno 6907 bound_to 6896
  150.7182  134.5217  159.5666 H   0  0  0  0  0  0  0  0  0  0  0  0  # atno 6908 bound_to 6896
  152.2728  134.7914  160.0462 H   0  0  0  0  0  0  0  0  0  0  0  0  # atno 6909 bound_to 6896
  146.2144  140.3088  142.8381 H   0  0  0  0  0  0  0  0  0  0  0  0  # atno 7974 bound_to 7965
  155.8253  140.0925  157.1825 H   0  0  0  0  0  0  0  0  0  0  0  0  # atno 8008 bound_to 7997
  154.3979  140.1429  156.3609 H   0  0  0  0  0  0  0  0  0  0  0  0  # atno 8009 bound_to 7997
  155.8223  140.3446  155.5524 H   0  0  0  0  0  0  0  0  0  0  0  0  # atno 8010 bound_to 7997
  139.9664  144.5925  150.8025 H   0  0  0  0  0  0  0  0  0  0  0  0  # atno 10167 bound_to 10162
  157.4879  130.8357  149.8169 H   0  0  0  0  0  0  0  0  0  0  0  0  # atno 10718 bound_to 10713
  153.1083  135.6690  153.9547 H   0  0  0  0  0  0  0  0  0  0  0  0  # atno 10763 bound_to 10752
  153.9097  135.3026  155.3450 H   0  0  0  0  0  0  0  0  0  0  0  0  # atno 10764 bound_to 10752
  154.7503  135.5038  153.9354 H   0  0  0  0  0  0  0  0  0  0  0  0  # atno 10765 bound_to 10752
  140.7998  134.2870  157.4983 H   0  0  0  0  0  0  0  0  0  0  0  0  # atno 11005 bound_to 11000
  144.9003  140.7634  143.5871 LP  0  0  0  0  0  0  0  0  0  0  0  0  # atno 17320 bound_to 7965
  145.3014  139.1849  143.4687 LP  0  0  0  0  0  0  0  0  0  0  0  0  # atno 17321 bound_to 7965
  140.7536  143.3012  151.3076 LP  0  0  0  0  0  0  0  0  0  0  0  0  # atno 17342 bound_to 10162
  139.6514  144.0355  152.2629 LP  0  0  0  0  0  0  0  0  0  0  0  0  # atno 17343 bound_to 10162
  156.0157  130.3814  150.2118 LP  0  0  0  0  0  0  0  0  0  0  0  0  # atno 17370 bound_to 10713
  157.0306  131.0006  151.3313 LP  0  0  0  0  0  0  0  0  0  0  0  0  # atno 17371 bound_to 10713
  139.8723  134.9423  156.3820 LP  0  0  0  0  0  0  0  0  0  0  0  0  # atno 17394 bound_to 11000
  140.9306  133.7582  156.0020 LP  0  0  0  0  0  0  0  0  0  0  0  0  # atno 17395 bound_to 11000

$$$$
