AV-unprocessed.smi:1672|AV-procd|sdf|6701|dock7
  -GOLD-   22720 7433D 1   1.00000     0.00000
 Structure written by MMmdl.
 48 50  0  0  0  0  0  0  0  0  2 V2000
  146.3008  131.6572  152.0343 C   0  0  0  0  0  0  0  0  0  0  0  0
  145.8100  133.1084  152.1330 C   0  0  2  0  0  0  0  0  0  0  0  0
  146.0913  133.8928  150.8406 C   0  0  0  0  0  0  0  0  0  0  0  0
  145.6206  135.3512  150.9608 C   0  0  0  0  0  0  0  0  0  0  0  0
  146.2584  136.0269  152.1221 N   0  3  1  0  0  0  0  0  0  0  0  0
  145.9351  137.4741  152.2028 C   0  0  0  0  0  0  0  0  0  0  0  0
  146.7782  138.1999  153.2749 C   0  0  2  0  0  0  0  0  0  0  0  0
  145.9610  138.4569  154.3987 O   0  0  0  0  0  0  0  0  0  0  0  0
  147.3698  139.5450  152.8058 C   0  0  0  0  0  0  0  0  0  0  0  0
  148.1902  140.1980  153.8181 N   0  0  0  0  0  0  0  0  0  0  0  0
  147.9347  141.3415  154.5054 C   0  0  0  0  0  0  0  0  0  0  0  0
  146.6824  142.1420  154.3155 C   0  0  0  0  0  0  0  0  0  0  0  0
  146.5628  143.1903  155.2533 O   0  0  0  0  0  0  0  0  0  0  0  0
  148.8682  141.7107  155.3826 N   0  0  0  0  0  0  0  0  0  0  0  0
  149.8209  140.7205  155.2513 C   0  0  0  0  0  0  0  0  0  0  0  0
  151.0568  140.5430  155.9127 C   0  0  0  0  0  0  0  0  0  0  0  0
  151.8748  139.4347  155.6115 C   0  0  0  0  0  0  0  0  0  0  0  0
  151.4690  138.4895  154.6474 C   0  0  0  0  0  0  0  0  0  0  0  0
  150.2408  138.6474  153.9768 C   0  0  0  0  0  0  0  0  0  0  0  0
  149.4283  139.7572  154.2794 C   0  0  0  0  0  0  0  0  0  0  0  0
  145.9743  135.3098  153.3913 C   0  0  0  0  0  0  0  0  0  0  0  0
  146.4474  133.8476  153.3219 C   0  0  0  0  0  0  0  0  0  0  0  0
  147.3805  131.6117  151.8884 H   0  0  0  0  0  0  0  0  0  0  0  0
  145.8298  131.1393  151.1981 H   0  0  0  0  0  0  0  0  0  0  0  0
  146.0637  131.1002  152.9413 H   0  0  0  0  0  0  0  0  0  0  0  0
  144.7301  133.0833  152.2872 H   0  0  0  0  0  0  0  0  0  0  0  0
  147.1592  133.8715  150.6173 H   0  0  0  0  0  0  0  0  0  0  0  0
  145.5905  133.4153  149.9976 H   0  0  0  0  0  0  0  0  0  0  0  0
  145.8580  135.8758  150.0362 H   0  0  0  0  0  0  0  0  0  0  0  0
  144.5353  135.3851  151.0696 H   0  0  0  0  0  0  0  0  0  0  0  0
  146.0810  137.9131  151.2153 H   0  0  0  0  0  0  0  0  0  0  0  0
  144.8792  137.6142  152.4399 H   0  0  0  0  0  0  0  0  0  0  0  0
  147.5936  137.5615  153.6076 H   0  0  0  0  0  0  0  0  0  0  0  0
  146.0103  139.3782  154.6053 H   0  0  0  0  0  0  0  0  0  0  0  0
  147.9836  139.3884  151.9183 H   0  0  0  0  0  0  0  0  0  0  0  0
  146.5777  140.2284  152.4985 H   0  0  0  0  0  0  0  0  0  0  0  0
  146.6873  142.5735  153.3140 H   0  0  0  0  0  0  0  0  0  0  0  0
  145.8025  141.5026  154.3718 H   0  0  0  0  0  0  0  0  0  0  0  0
  147.4300  143.4373  155.5368 H   0  0  0  0  0  0  0  0  0  0  0  0
  151.3765  141.2612  156.6532 H   0  0  0  0  0  0  0  0  0  0  0  0
  152.8184  139.3096  156.1225 H   0  0  0  0  0  0  0  0  0  0  0  0
  152.1023  137.6436  154.4225 H   0  0  0  0  0  0  0  0  0  0  0  0
  149.9316  137.9226  153.2387 H   0  0  0  0  0  0  0  0  0  0  0  0
  146.4822  135.8091  154.2175 H   0  0  0  0  0  0  0  0  0  0  0  0
  144.9048  135.3518  153.6032 H   0  0  0  0  0  0  0  0  0  0  0  0
  146.2013  133.3381  154.2543 H   0  0  0  0  0  0  0  0  0  0  0  0
  147.5346  133.8209  153.2339 H   0  0  0  0  0  0  0  0  0  0  0  0
  147.2580  135.9704  151.9857 H   0  0  0  0  0  0  0  0  0  0  0  0
  1  2  1  0  0  0  0
  1 23  1  0  0  0  0
  1 24  1  0  0  0  0
  1 25  1  0  0  0  0
  2 22  1  0  0  0  0
  2  3  1  0  0  0  0
  2 26  1  0  0  0  0
  3  4  1  0  0  0  0
  3 27  1  0  0  0  0
  3 28  1  0  0  0  0
  4  5  1  0  0  0  0
  4 29  1  0  0  0  0
  4 30  1  0  0  0  0
  5  6  1  0  0  0  0
  5 21  1  0  0  0  0
  5 48  1  0  0  0  0
  6  7  1  0  0  0  0
  6 31  1  0  0  0  0
  6 32  1  0  0  0  0
  7  8  1  0  0  0  0
  7  9  1  0  0  0  0
  7 33  1  0  0  0  0
  8 34  1  0  0  0  0
  9 10  1  0  0  0  0
  9 35  1  0  0  0  0
  9 36  1  0  0  0  0
 10 20  1  0  0  0  0
 10 11  1  0  0  0  0
 11 12  1  0  0  0  0
 11 14  2  0  0  0  0
 12 13  1  0  0  0  0
 12 37  1  0  0  0  0
 12 38  1  0  0  0  0
 13 39  1  0  0  0  0
 14 15  1  0  0  0  0
 15 20  2  0  0  0  0
 15 16  1  0  0  0  0
 16 17  2  0  0  0  0
 16 40  1  0  0  0  0
 17 18  1  0  0  0  0
 17 41  1  0  0  0  0
 18 19  2  0  0  0  0
 18 42  1  0  0  0  0
 19 20  1  0  0  0  0
 19 43  1  0  0  0  0
 21 22  1  0  0  0  0
 21 44  1  0  0  0  0
 21 45  1  0  0  0  0
 22 46  1  0  0  0  0
 22 47  1  0  0  0  0
M  CHG  1   5   1
M  END
> <s_m_source_file>
AV-unprocessed.smi

> <i_m_source_file_index>
1672

> <i_lp_mmshare_version>
43012

> <i_f3d_flags>
0

> <s_epik_input>
W0NIM11bQ0hdMVtDSDJdW0NIMl1OKFtDSDJdW0NIMl0xKVtDSDJdW0NASF0oW09IXSlbQ0gyXW4oYyhuMilbQ0gyXVtPSF0pYyhjMjMpW2NIXVtjSF1bY0hdW2NIXTM=

> <s_epik_cmdline>
J2VwaWtfcHl0aG9uJywgJy1waCcsICc3LjAnLCAnLXRuJywgJzgnLCAnLW1hJywgJzIwMCcsICctbWV0YWxfYmluZGluZycsICctaW1hZScsICc8aW5maWxlLm1hZT4nLCAnLW9tYWUnLCAnPG91dGZpbGUubWFlPic=

> <r_epik_Ionization_Penalty>
0.0498263

> <r_epik_Ionization_Penalty_Charging>
0.00181365

> <r_epik_Ionization_Penalty_Neutral>
0.0480127

> <r_epik_State_Penalty>
0.0408546

> <r_epik_Charging_Adjusted_Penalty>
0.0426682

> <i_epik_Tot_Q>
1

> <i_epik_Tot_abs_Q>
1

> <r_epik_Metal_State_Penalty>
4.22946e-05

> <b_epik_Metal_Only>
0

> <s_lp_Force_Field>
OPLS_2005

> <r_lp_Energy>
22.4872

> <b_lp_Chiralities_Consistent>
1

> <s_lp_Variant>
AV-unprocessed.smi:1672-1

> <Gold.Version>
5.8.1

> <Gold.Id.Protein>
6NUR|6NUR_protein|mol2

> <Gold.PLP.Fitness>
44.9747

> <Gold.PLP.PLP>
-39.0212

> <Gold.PLP.part.hbond>
-2.0000

> <Gold.PLP.part.metal>
0.0000

> <Gold.PLP.part.buried>
0.5053

> <Gold.PLP.part.nonpolar>
-38.5020

> <Gold.PLP.part.repulsive>
0.8797

> <Gold.PLP.ligand.clash>
0.0000

> <Gold.PLP.ligand.torsion>
0.7840

> <Gold.PLP.Chemscore.Hbond>
2.5000

> <Gold.PLP.Chemscore.CHOScore>
0.0000

> <Gold.PLP.Chemscore.Metal>
0.0000

> <Gold.Chemscore.Hbonds>
donor molecule, donor type, donor heavy atom, donor atom, acceptor molecule, acceptor atom, score
      L1  H     5    48       P1  7948  2.00
      L1  H    13    39       P1  8028  0.60

> <Gold.PLP.Chemscore.Internal.Correction>
0.0216

> <Gold.Rescore>
     Score         DG    S(hbond)    S(metal)    S(lipo)     H(rot)  DE(clash)    DE(int)     intcor
     11.54     -12.89       1.01        0.00      97.35       2.88       0.59       0.76       ----

> <Gold.Chemscore.Fitness>
11.5364

> <Gold.Chemscore.DG>
-12.8888

> <Gold.Chemscore.ZeroCoef>
-5.4800

> <Gold.Chemscore.Hbond>
1.0137

> <Gold.Chemscore.Metal>
0.0000

> <Gold.Chemscore.Lipo>
97.3509

> <Gold.Chemscore.Internal_Hbond>
0.0000

> <Gold.Chemscore.DEClash>
0.5914

> <Gold.Chemscore.DEInternal>
0.7611

> <Gold.Chemscore.Rot>
2.8778

> <Gold.Chemscore.Internal.Correction>
   9.000000E+99

> <Gold.Chemscore.Hbonds>
donor molecule, donor type, donor heavy atom, donor atom, acceptor molecule, acceptor atom, score
      L1  H     5    48       P1  7948  1.00
      L1  H    13    39       P1  8028  0.04

> <Gold.Chemscore.Hbond.Weighted>
-3.3859

> <Gold.Chemscore.Metal.Weighted>
-0.0000

> <Gold.Chemscore.Lipo.Weighted>
-11.3901

> <Gold.Chemscore.Internal_Hbond.Weighted>
0.0000

> <Gold.Chemscore.DEClash.Weighted>
0.5914

> <Gold.Chemscore.DEInternal.Weighted>
0.7611

> <Gold.Chemscore.Rot.Weighted>
7.3671

> <Gold.Chemscore.Internal.Correction.Weighted>
   9.000000E+99

> <Gold.Protein.RotatedTorsions>
[ 6907 6896 6895 6894 ] final -110.39 input  -60.11 | X-H torsion
[ 7974 7965 7964 7962 ] final  -74.30 input  175.53 | X-H torsion
[ 8008 7997 7996 7995 ] final -174.02 input   59.86 | X-H torsion
[ 10167 10162 10161 10158 ] final   38.68 input  -65.29 | X-H torsion
[ 10718 10713 10712 10709 ] final   74.16 input   66.30 | X-H torsion
[ 10763 10752 10751 10750 ] final  149.69 input  -60.55 | X-H torsion
[ 11005 11000 10999 10996 ] final  122.18 input  -57.11 | X-H torsion

> <Gold.Protein.ActiveResidues>
 VAL166  LYS551  ARG553  GLY616  TRP617  ASP618  TYR619  PRO620  LYS621  CYS622 
 ASP623  PHE694  ASN695  SER759  ASP760  ASP761  ALA762  ILE779  LEU786  VAL792 
 PHE793  MET794  SER795  GLU796  ALA797  LYS798  CYS799  TRP800  GLU811  SER814 

> <Gold.Protein.RotatedAtoms>
  150.7622  133.9389  159.3449 H   0  0  0  0  0  0  0  0  0  0  0  0  # atno 6907 bound_to 6896
  151.7295  135.0876  160.0307 H   0  0  0  0  0  0  0  0  0  0  0  0  # atno 6908 bound_to 6896
  152.3599  133.6246  159.6043 H   0  0  0  0  0  0  0  0  0  0  0  0  # atno 6909 bound_to 6896
  145.6408  140.9311  143.1036 H   0  0  0  0  0  0  0  0  0  0  0  0  # atno 7974 bound_to 7965
  155.9648  140.1151  157.0864 H   0  0  0  0  0  0  0  0  0  0  0  0  # atno 8008 bound_to 7997
  154.4141  140.1175  156.5294 H   0  0  0  0  0  0  0  0  0  0  0  0  # atno 8009 bound_to 7997
  155.6674  140.3473  155.4807 H   0  0  0  0  0  0  0  0  0  0  0  0  # atno 8010 bound_to 7997
  140.3913  144.1849  150.6131 H   0  0  0  0  0  0  0  0  0  0  0  0  # atno 10167 bound_to 10162
  157.6580  130.9664  150.1171 H   0  0  0  0  0  0  0  0  0  0  0  0  # atno 10718 bound_to 10713
  154.0753  135.2863  155.3300 H   0  0  0  0  0  0  0  0  0  0  0  0  # atno 10763 bound_to 10752
  154.6720  135.5296  153.8153 H   0  0  0  0  0  0  0  0  0  0  0  0  # atno 10764 bound_to 10752
  153.0469  135.6560  154.0931 H   0  0  0  0  0  0  0  0  0  0  0  0  # atno 10765 bound_to 10752
  139.9257  134.9640  156.8070 H   0  0  0  0  0  0  0  0  0  0  0  0  # atno 11005 bound_to 11000
  144.7158  139.8203  143.7399 LP  0  0  0  0  0  0  0  0  0  0  0  0  # atno 17320 bound_to 7965
  146.1282  139.4312  143.0185 LP  0  0  0  0  0  0  0  0  0  0  0  0  # atno 17321 bound_to 7965
  140.4837  143.2370  151.8919 LP  0  0  0  0  0  0  0  0  0  0  0  0  # atno 17342 bound_to 10162
  139.4789  144.5242  151.8759 LP  0  0  0  0  0  0  0  0  0  0  0  0  # atno 17343 bound_to 10162
  156.2052  130.3663  149.8738 LP  0  0  0  0  0  0  0  0  0  0  0  0  # atno 17370 bound_to 10713
  156.6631  130.8790  151.3550 LP  0  0  0  0  0  0  0  0  0  0  0  0  # atno 17371 bound_to 10713
  140.6343  133.9877  155.7677 LP  0  0  0  0  0  0  0  0  0  0  0  0  # atno 17394 bound_to 11000
  141.0813  134.0058  157.3382 LP  0  0  0  0  0  0  0  0  0  0  0  0  # atno 17395 bound_to 11000

$$$$
