#       Name:                AV-unprocessed.smi:1803
#       Creating user name   scv26
#       Creation time:       Fri Mar 27 08:54:02 2020


#       File generated by GOLD software.
#

@<TRIPOS>MOLECULE
AV-unprocessed.smi:1803
    40    42     1
SMALL
NO_CHARGES


@<TRIPOS>ATOM
      1 ****        -1.7007  -2.4502   0.1112 O.2            1 S1                 0.0000
      2 ****        -0.5613  -2.4529  -0.3510 C.2            1 S1                 0.0000
      3 ****         0.1625  -3.5915  -0.4099 N.am           1 S1                 0.0000
      4 ****        -0.1352  -4.9269  -0.0088 C.2            1 S1                 0.0000
      5 ****        -1.3283  -5.3361   0.4532 N.2            1 S1                 0.0000
      6 ****        -1.3354  -6.6904   0.7573 N.2            1 S1                 0.0000
      7 ****        -0.1506  -7.2546   0.5072 C.2            1 S1                 0.0000
      8 ****         1.0882  -6.1848  -0.1249 S.3            1 S1                 0.0000
      9 ****         0.0302  -1.3442  -0.8253 N.am           1 S1                 0.0000
     10 ****        -0.5594  -0.0099  -0.8537 C.3            1 S1                 0.0000
     11 ****        -0.0322   0.8504  -1.9960 C.3            1 S1                 0.0000
     12 ****        -0.3797   2.2627  -1.5233 C.3            1 S1                 0.0000
     13 ****        -0.2523   2.2412  -0.0479 N.4            1 S1                 1.0000
     14 ****        -1.2258   3.1017   0.6681 C.3            1 S1                 0.0000
     15 ****        -1.0054   3.0246   2.1903 C.3            1 S1                 0.0000
     16 ****        -0.9201   1.5767   2.7174 C.3            1 S1                 0.0000
     17 ****        -1.1229   0.5351   1.6063 C.3            1 S1                 0.0000
     18 ****        -0.2071   0.8181   0.3937 C.3            1 S1                 0.0000
     19 ****         1.0729  -3.4818  -0.8331 H              1 S1                 0.0000
     20 ****        -0.0055  -8.3083   0.6947 H              1 S1                 0.0000
     21 ****         0.9676  -1.4359  -1.1915 H              1 S1                 0.0000
     22 ****        -1.6444  -0.0766  -0.9602 H              1 S1                 0.0000
     23 ****         1.0499   0.7430  -2.0887 H              1 S1                 0.0000
     24 ****        -0.4821   0.6038  -2.9583 H              1 S1                 0.0000
     25 ****         0.2632   3.0227  -1.9679 H              1 S1                 0.0000
     26 ****        -1.4091   2.4912  -1.8043 H              1 S1                 0.0000
     27 ****        -1.1194   4.1321   0.3273 H              1 S1                 0.0000
     28 ****        -2.2426   2.7927   0.4201 H              1 S1                 0.0000
     29 ****        -0.0855   3.5511   2.4477 H              1 S1                 0.0000
     30 ****        -1.8080   3.5586   2.7001 H              1 S1                 0.0000
     31 ****         0.0569   1.4213   3.1769 H              1 S1                 0.0000
     32 ****        -1.6534   1.4209   3.5093 H              1 S1                 0.0000
     33 ****        -0.9308  -0.4642   1.9977 H              1 S1                 0.0000
     34 ****        -2.1686   0.5401   1.2957 H              1 S1                 0.0000
     35 ****         0.8290   0.6244   0.6772 H              1 S1                 0.0000
     36 ****         0.6618   2.6144   0.1653 H              1 S1                 0.0000
     37 ****        -2.1046  -3.2997   0.4506 LP             1 S1                 0.0000
     38 ****        -2.2235  -1.5985   0.1476 LP             1 S1                 0.0000
     39 ****        -2.1195  -4.7349   0.5651 LP             1 S1                 0.0000
     40 ****        -2.1279  -7.1820   1.1183 LP             1 S1                 0.0000
@<TRIPOS>BOND
    1    1    2 2     
    2    2    3 am    
    3    2    9 am    
    4    3    4 1     
    5    3   19 1     
    6    4    8 1     
    7    4    5 2     
    8    5    6 1     
    9    6    7 2     
   10    7    8 1     
   11    7   20 1     
   12    9   10 1     
   13    9   21 1     
   14   10   18 1     
   15   10   11 1     
   16   10   22 1     
   17   11   12 1     
   18   11   23 1     
   19   11   24 1     
   20   12   13 1     
   21   12   25 1     
   22   12   26 1     
   23   13   18 1     
   24   13   14 1     
   25   13   36 1     
   26   14   15 1     
   27   14   27 1     
   28   14   28 1     
   29   15   16 1     
   30   15   29 1     
   31   15   30 1     
   32   16   17 1     
   33   16   31 1     
   34   16   32 1     
   35   17   18 1     
   36   17   33 1     
   37   17   34 1     
   38   18   35 1     
   39    1   37 1     
   40    1   38 1     
   41    5   39 1     
   42    6   40 1     
@<TRIPOS>SUBSTRUCTURE
      1 S1             1
@<TRIPOS>SET
LONE_PAIRS      STATIC     ATOMS    <user>   **** ""
4 37 38 39 40
DONOR_HYDROGENS      STATIC     ATOMS    <user>   **** ""
3 19 21 36
ATOM$BLUE        STATIC     ATOMS    COLORGROUP SYSTEM
4 37 38 39 40
ATOM$RED        STATIC     ATOMS    COLORGROUP SYSTEM
3 19 21 36
