AV-unprocessed.smi:2695|AV-procd|sdf|10410|dock3
  -GOLD-   2272014443D 1   1.00000     0.00000
 Structure written by MMmdl.
 42 43  0  0  0  0  0  0  0  0  1 V2000
  151.5472  137.8215  156.3329 C   0  0  0  0  0  0  0  0  0  0  0  0
  150.5731  138.9707  156.1029 C   0  0  0  0  0  0  0  0  0  0  0  0
  150.3689  139.4722  154.8710 C   0  0  0  0  0  0  0  0  0  0  0  0
  149.4673  140.5830  154.6895 C   0  0  0  0  0  0  0  0  0  0  0  0
  149.2533  141.0795  153.4648 O   0  0  0  0  0  0  0  0  0  0  0  0
  148.8509  141.1210  155.7579 C   0  0  0  0  0  0  0  0  0  0  0  0
  149.0587  140.6052  157.1130 C   0  0  0  0  0  0  0  0  0  0  0  0
  148.5008  141.1171  158.0849 O   0  0  0  0  0  0  0  0  0  0  0  0
  149.8997  139.5270  157.2302 N   0  0  0  0  0  0  0  0  0  0  0  0
  150.1054  138.9384  158.5743 C   0  0  0  0  0  0  0  0  0  0  0  0
  149.6302  137.4817  158.6902 C   0  0  0  0  0  0  0  0  0  0  0  0
  150.4183  136.5444  158.5580 O   0  0  0  0  0  0  0  0  0  0  0  0
  148.3217  137.3170  158.9361 N   0  0  0  0  0  0  0  0  0  0  0  0
  147.6248  136.0369  159.0780 C   0  0  1  0  0  0  0  0  0  0  0  0
  147.0150  135.9383  160.4998 C   0  0  0  0  0  0  0  0  0  0  0  0
  147.9784  136.3317  161.6275 C   0  0  0  0  0  0  0  0  0  0  0  0
  147.3483  135.7590  162.8975 C   0  0  0  0  0  0  0  0  0  0  0  0
  146.5588  134.5217  162.4514 C   0  0  0  0  0  0  0  0  0  0  0  0
  146.5645  134.5313  160.9168 C   0  0  0  0  0  0  0  0  0  0  0  0
  146.5870  135.9072  157.9396 C   0  0  0  0  0  0  0  0  0  0  0  0
  145.6396  136.8349  158.0840 F   0  0  0  0  0  0  0  0  0  0  0  0
  147.1559  136.0908  156.7489 F   0  0  0  0  0  0  0  0  0  0  0  0
  146.0125  134.7039  157.9638 F   0  0  0  0  0  0  0  0  0  0  0  0
  152.1710  137.6649  155.4522 H   0  0  0  0  0  0  0  0  0  0  0  0
  151.0077  136.8935  156.5235 H   0  0  0  0  0  0  0  0  0  0  0  0
  152.2231  138.0186  157.1645 H   0  0  0  0  0  0  0  0  0  0  0  0
  150.8873  139.0560  154.0191 H   0  0  0  0  0  0  0  0  0  0  0  0
  149.2735  140.3566  152.8568 H   0  0  0  0  0  0  0  0  0  0  0  0
  148.1795  141.9563  155.6197 H   0  0  0  0  0  0  0  0  0  0  0  0
  151.1607  138.9704  158.8514 H   0  0  0  0  0  0  0  0  0  0  0  0
  149.6281  139.5331  159.3519 H   0  0  0  0  0  0  0  0  0  0  0  0
  147.7534  138.1468  159.0248 H   0  0  0  0  0  0  0  0  0  0  0  0
  148.3365  135.2174  158.9629 H   0  0  0  0  0  0  0  0  0  0  0  0
  146.1494  136.6002  160.5597 H   0  0  0  0  0  0  0  0  0  0  0  0
  148.9526  135.8687  161.4630 H   0  0  0  0  0  0  0  0  0  0  0  0
  148.1322  137.4092  161.6959 H   0  0  0  0  0  0  0  0  0  0  0  0
  148.0970  135.5229  163.6545 H   0  0  0  0  0  0  0  0  0  0  0  0
  146.6652  136.4910  163.3303 H   0  0  0  0  0  0  0  0  0  0  0  0
  147.0105  133.6046  162.8310 H   0  0  0  0  0  0  0  0  0  0  0  0
  145.5398  134.5661  162.8376 H   0  0  0  0  0  0  0  0  0  0  0  0
  145.5877  134.2706  160.5084 H   0  0  0  0  0  0  0  0  0  0  0  0
  147.2792  133.7897  160.5567 H   0  0  0  0  0  0  0  0  0  0  0  0
  1  2  1  0  0  0  0
  1 24  1  0  0  0  0
  1 25  1  0  0  0  0
  1 26  1  0  0  0  0
  2  9  1  0  0  0  0
  2  3  2  0  0  0  0
  3  4  1  0  0  0  0
  3 27  1  0  0  0  0
  4  5  1  0  0  0  0
  4  6  2  0  0  0  0
  5 28  1  0  0  0  0
  6  7  1  0  0  0  0
  6 29  1  0  0  0  0
  7  8  2  0  0  0  0
  7  9  1  0  0  0  0
  9 10  1  0  0  0  0
 10 11  1  0  0  0  0
 10 30  1  0  0  0  0
 10 31  1  0  0  0  0
 11 12  2  0  0  0  0
 11 13  1  0  0  0  0
 13 14  1  0  0  0  0
 13 32  1  0  0  0  0
 14 15  1  0  0  0  0
 14 20  1  0  0  0  0
 14 33  1  0  0  0  0
 15 19  1  0  0  0  0
 15 16  1  0  0  0  0
 15 34  1  0  0  0  0
 16 17  1  0  0  0  0
 16 35  1  0  0  0  0
 16 36  1  0  0  0  0
 17 18  1  0  0  0  0
 17 37  1  0  0  0  0
 17 38  1  0  0  0  0
 18 19  1  0  0  0  0
 18 39  1  0  0  0  0
 18 40  1  0  0  0  0
 19 41  1  0  0  0  0
 19 42  1  0  0  0  0
 20 21  1  0  0  0  0
 20 22  1  0  0  0  0
 20 23  1  0  0  0  0
M  END
> <s_m_source_file>
AV-unprocessed.smi

> <i_m_source_file_index>
2695

> <i_lp_mmshare_version>
43012

> <i_f3d_flags>
0

> <s_epik_input>
W0NIM11jMVtjSF1jKFtPSF0pW2NIXWMoPU8pbjFbQ0gyXUMoPU8pW05IXVtDQEBIXShDKEYpKEYpRilbQ0hdMltDSDJdW0NIMl1bQ0gyXVtDSDJdMg==

> <s_epik_cmdline>
J2VwaWtfcHl0aG9uJywgJy1waCcsICc3LjAnLCAnLXRuJywgJzgnLCAnLW1hJywgJzIwMCcsICctbWV0YWxfYmluZGluZycsICctaW1hZScsICc8aW5maWxlLm1hZT4nLCAnLW9tYWUnLCAnPG91dGZpbGUubWFlPic=

> <r_lp_tautomer_probability>
0.999984

> <r_epik_Ionization_Penalty>
0.843628

> <r_epik_Ionization_Penalty_Charging>
1.18449e-07

> <r_epik_Ionization_Penalty_Neutral>
0.843628

> <r_epik_State_Penalty>
0.886913

> <r_epik_Charging_Adjusted_Penalty>
0.886913

> <i_epik_Tot_Q>
0

> <i_epik_Tot_abs_Q>
0

> <r_epik_Metal_State_Penalty>
0.886913

> <b_epik_Metal_Only>
0

> <s_lp_Force_Field>
OPLS_2005

> <r_lp_Energy>
35.4527

> <b_lp_Chiralities_Consistent>
1

> <s_lp_Variant>
AV-unprocessed.smi:2695-4

> <Gold.Version>
5.8.1

> <Gold.Id.Protein>
6NUR|6NUR_protein|mol2

> <Gold.PLP.Fitness>
39.9568

> <Gold.PLP.PLP>
-32.4466

> <Gold.PLP.part.hbond>
-4.1948

> <Gold.PLP.part.metal>
0.0000

> <Gold.PLP.part.buried>
-5.1620

> <Gold.PLP.part.nonpolar>
-24.1585

> <Gold.PLP.part.repulsive>
0.1973

> <Gold.PLP.ligand.clash>
0.0000

> <Gold.PLP.ligand.torsion>
0.5494

> <Gold.PLP.Chemscore.Hbond>
2.7600

> <Gold.PLP.Chemscore.CHOScore>
0.0000

> <Gold.PLP.Chemscore.Metal>
0.0000

> <Gold.Chemscore.Hbonds>
donor molecule, donor type, donor heavy atom, donor atom, acceptor molecule, acceptor atom, score
      L1  H     5    28       P1  7957  0.78
      P1  H  6896  6907       L1    12  0.96
      P1  H  8011  8017       L1     5  0.95

> <Gold.PLP.Chemscore.Internal.Correction>
0.3291

> <Gold.Rescore>
     Score         DG    S(hbond)    S(metal)    S(lipo)     H(rot)  DE(clash)    DE(int)     intcor
     13.82     -15.84       2.19        0.00      77.62       2.36       0.10       1.93       ----

> <Gold.Chemscore.Fitness>
13.8223

> <Gold.Chemscore.DG>
-15.8434

> <Gold.Chemscore.ZeroCoef>
-5.4800

> <Gold.Chemscore.Hbond>
2.1927

> <Gold.Chemscore.Metal>
0.0000

> <Gold.Chemscore.Lipo>
77.6162

> <Gold.Chemscore.Internal_Hbond>
0.0000

> <Gold.Chemscore.DEClash>
0.0953

> <Gold.Chemscore.DEInternal>
1.9258

> <Gold.Chemscore.Rot>
2.3599

> <Gold.Chemscore.Internal.Correction>
   9.000000E+99

> <Gold.Chemscore.Hbonds>
donor molecule, donor type, donor heavy atom, donor atom, acceptor molecule, acceptor atom, score
      L1  H     5    28       P1  7957  0.78
      P1  H  6896  6907       L1    12  0.87
      P1  H  8011  8017       L1     5  0.21

> <Gold.Chemscore.Hbond.Weighted>
-7.3236

> <Gold.Chemscore.Metal.Weighted>
-0.0000

> <Gold.Chemscore.Lipo.Weighted>
-9.0811

> <Gold.Chemscore.Internal_Hbond.Weighted>
0.0000

> <Gold.Chemscore.DEClash.Weighted>
0.0953

> <Gold.Chemscore.DEInternal.Weighted>
1.9258

> <Gold.Chemscore.Rot.Weighted>
6.0413

> <Gold.Chemscore.Internal.Correction.Weighted>
   9.000000E+99

> <Gold.Protein.RotatedTorsions>
[ 6907 6896 6895 6894 ] final  -43.38 input  -60.11 | X-H torsion
[ 7974 7965 7964 7962 ] final -152.82 input  175.53 | X-H torsion
[ 8008 7997 7996 7995 ] final   42.96 input   59.86 | X-H torsion
[ 10167 10162 10161 10158 ] final  160.82 input  -65.29 | X-H torsion
[ 10718 10713 10712 10709 ] final   -0.49 input   66.30 | X-H torsion
[ 10763 10752 10751 10750 ] final  151.83 input  -60.55 | X-H torsion
[ 11005 11000 10999 10996 ] final   32.76 input  -57.11 | X-H torsion

> <Gold.Protein.ActiveResidues>
 VAL166  LYS551  ARG553  GLY616  TRP617  ASP618  TYR619  PRO620  LYS621  CYS622 
 ASP623  PHE694  ASN695  SER759  ASP760  ASP761  ALA762  ILE779  LEU786  VAL792 
 PHE793  MET794  SER795  GLU796  ALA797  LYS798  CYS799  TRP800  GLU811  SER814 

> <Gold.Protein.RotatedAtoms>
  150.9446  134.8852  159.7633 H   0  0  0  0  0  0  0  0  0  0  0  0  # atno 6907 bound_to 6896
  152.5094  134.3893  159.9388 H   0  0  0  0  0  0  0  0  0  0  0  0  # atno 6908 bound_to 6896
  151.3912  133.3748  159.2756 H   0  0  0  0  0  0  0  0  0  0  0  0  # atno 6909 bound_to 6896
  144.7773  140.4610  143.5864 H   0  0  0  0  0  0  0  0  0  0  0  0  # atno 7974 bound_to 7965
  155.2948  140.3381  155.4250 H   0  0  0  0  0  0  0  0  0  0  0  0  # atno 8008 bound_to 7997
  156.2029  140.1740  156.7900 H   0  0  0  0  0  0  0  0  0  0  0  0  # atno 8009 bound_to 7997
  154.5583  140.0692  156.8762 H   0  0  0  0  0  0  0  0  0  0  0  0  # atno 8010 bound_to 7997
  139.4843  144.4597  151.8721 H   0  0  0  0  0  0  0  0  0  0  0  0  # atno 10167 bound_to 10162
  156.8196  130.5452  149.5699 H   0  0  0  0  0  0  0  0  0  0  0  0  # atno 10718 bound_to 10713
  154.1101  135.2839  155.3232 H   0  0  0  0  0  0  0  0  0  0  0  0  # atno 10763 bound_to 10752
  154.6496  135.5374  153.7888 H   0  0  0  0  0  0  0  0  0  0  0  0  # atno 10764 bound_to 10752
  153.0348  135.6506  154.1260 H   0  0  0  0  0  0  0  0  0  0  0  0  # atno 10765 bound_to 10752
  140.2701  134.3092  155.7830 H   0  0  0  0  0  0  0  0  0  0  0  0  # atno 11005 bound_to 11000
  145.6149  139.1517  143.3055 LP  0  0  0  0  0  0  0  0  0  0  0  0  # atno 17320 bound_to 7965
  146.1961  140.6262  142.9123 LP  0  0  0  0  0  0  0  0  0  0  0  0  # atno 17321 bound_to 7965
  140.4058  144.2433  150.5891 LP  0  0  0  0  0  0  0  0  0  0  0  0  # atno 17342 bound_to 10162
  140.5013  143.2317  151.8674 LP  0  0  0  0  0  0  0  0  0  0  0  0  # atno 17343 bound_to 10162
  156.0996  130.5959  150.9872 LP  0  0  0  0  0  0  0  0  0  0  0  0  # atno 17370 bound_to 10713
  157.6463  131.0903  150.8145 LP  0  0  0  0  0  0  0  0  0  0  0  0  # atno 17371 bound_to 10713
  141.2178  133.7462  156.9321 LP  0  0  0  0  0  0  0  0  0  0  0  0  # atno 17394 bound_to 11000
  140.1381  134.9312  157.2429 LP  0  0  0  0  0  0  0  0  0  0  0  0  # atno 17395 bound_to 11000

$$$$
