AV-unprocessed.smi:117|AV-procd|sdf|1130|dock8
  -GOLD-   2262018263D 1   1.00000     0.00000
 Structure written by MMmdl.
 53 55  0  0  0  0  0  0  0  0  1 V2000
  152.9829  142.7366  160.5326 C   0  0  0  0  0  0  0  0  0  0  0  0
  152.2600  142.5391  159.2111 C   0  0  0  0  0  0  0  0  0  0  0  0
  151.6801  143.6585  158.5801 C   0  0  0  0  0  0  0  0  0  0  0  0
  151.0179  143.5163  157.3495 C   0  0  0  0  0  0  0  0  0  0  0  0
  150.9302  142.2522  156.7425 C   0  0  0  0  0  0  0  0  0  0  0  0
  151.4934  141.1152  157.3675 C   0  0  0  0  0  0  0  0  0  0  0  0
  151.4615  139.8484  156.7265 N   0  0  0  0  0  0  0  0  0  0  0  0
  151.1514  139.5686  155.4453 C   0  0  0  0  0  0  0  0  0  0  0  0
  150.7860  140.4151  154.6305 O   0  0  0  0  0  0  0  0  0  0  0  0
  151.2562  138.1026  154.9916 C   0  0  0  0  0  0  0  0  0  0  0  0
  150.2032  137.2449  155.5333 N   0  0  0  0  0  0  0  0  0  0  0  0
  150.3482  135.9698  155.9339 C   0  0  0  0  0  0  0  0  0  0  0  0
  151.4402  135.4058  155.9837 O   0  0  0  0  0  0  0  0  0  0  0  0
  149.0754  135.1775  156.2848 C   0  0  0  0  0  0  0  0  0  0  0  0
  148.8026  134.0242  155.3935 N   0  0  0  0  0  0  0  0  0  0  0  0
  149.5563  132.8354  155.5535 C   0  0  0  0  0  0  0  0  0  0  0  0
  150.4277  132.7421  156.4186 O   0  0  0  0  0  0  0  0  0  0  0  0
  149.2209  131.7503  154.6382 C   0  0  0  0  0  0  0  0  0  0  0  0
  149.9054  130.5954  154.6956 F   0  0  0  0  0  0  0  0  0  0  0  0
  148.2282  131.8850  153.7346 C   0  0  0  0  0  0  0  0  0  0  0  0
  147.4690  133.0328  153.6188 N   0  0  0  0  0  0  0  0  0  0  0  0
  146.3687  133.0855  152.5809 C   0  0  1  0  0  0  0  0  0  0  0  0
  146.8812  132.9264  151.1422 C   0  0  0  0  0  0  0  0  0  0  0  0
  145.7361  132.1714  150.5046 C   0  0  0  0  0  0  0  0  0  0  0  0
  145.2717  131.2772  151.6490 C   0  0  0  0  0  0  0  0  0  0  0  0
  145.4469  132.0623  152.8271 O   0  0  0  0  0  0  0  0  0  0  0  0
  147.7691  134.1487  154.4329 C   0  0  0  0  0  0  0  0  0  0  0  0
  147.1436  135.2030  154.3225 O   0  0  0  0  0  0  0  0  0  0  0  0
  152.1701  141.2577  158.6091 C   0  0  0  0  0  0  0  0  0  0  0  0
  152.7927  140.0571  159.3179 C   0  0  0  0  0  0  0  0  0  0  0  0
  152.9767  143.7834  160.8369 H   0  0  0  0  0  0  0  0  0  0  0  0
  154.0232  142.4209  160.4502 H   0  0  0  0  0  0  0  0  0  0  0  0
  152.5041  142.1575  161.3224 H   0  0  0  0  0  0  0  0  0  0  0  0
  151.7469  144.6361  159.0347 H   0  0  0  0  0  0  0  0  0  0  0  0
  150.5849  144.3791  156.8655 H   0  0  0  0  0  0  0  0  0  0  0  0
  150.4414  142.1720  155.7831 H   0  0  0  0  0  0  0  0  0  0  0  0
  151.6159  139.0520  157.3280 H   0  0  0  0  0  0  0  0  0  0  0  0
  151.2653  138.0650  153.9012 H   0  0  0  0  0  0  0  0  0  0  0  0
  152.2163  137.7056  155.3226 H   0  0  0  0  0  0  0  0  0  0  0  0
  149.2694  137.6285  155.5325 H   0  0  0  0  0  0  0  0  0  0  0  0
  149.1600  134.8341  157.3176 H   0  0  0  0  0  0  0  0  0  0  0  0
  148.2414  135.8799  156.3103 H   0  0  0  0  0  0  0  0  0  0  0  0
  148.0188  131.0495  153.0823 H   0  0  0  0  0  0  0  0  0  0  0  0
  145.8605  134.0392  152.7278 H   0  0  0  0  0  0  0  0  0  0  0  0
  147.0750  133.8967  150.6846 H   0  0  0  0  0  0  0  0  0  0  0  0
  147.7948  132.3357  151.1086 H   0  0  0  0  0  0  0  0  0  0  0  0
  144.9411  132.8636  150.2242 H   0  0  0  0  0  0  0  0  0  0  0  0
  146.0320  131.6117  149.6175 H   0  0  0  0  0  0  0  0  0  0  0  0
  144.2360  130.9573  151.5349 H   0  0  0  0  0  0  0  0  0  0  0  0
  145.8931  130.3839  151.7102 H   0  0  0  0  0  0  0  0  0  0  0  0
  152.3688  139.9496  160.3165 H   0  0  0  0  0  0  0  0  0  0  0  0
  153.8688  140.1955  159.4198 H   0  0  0  0  0  0  0  0  0  0  0  0
  152.6341  139.1100  158.8044 H   0  0  0  0  0  0  0  0  0  0  0  0
  1  2  1  0  0  0  0
  1 31  1  0  0  0  0
  1 32  1  0  0  0  0
  1 33  1  0  0  0  0
  2 29  1  0  0  0  0
  2  3  2  0  0  0  0
  3  4  1  0  0  0  0
  3 34  1  0  0  0  0
  4  5  2  0  0  0  0
  4 35  1  0  0  0  0
  5  6  1  0  0  0  0
  5 36  1  0  0  0  0
  6  7  1  0  0  0  0
  6 29  2  0  0  0  0
  7  8  1  0  0  0  0
  7 37  1  0  0  0  0
  8  9  2  0  0  0  0
  8 10  1  0  0  0  0
 10 11  1  0  0  0  0
 10 38  1  0  0  0  0
 10 39  1  0  0  0  0
 11 12  1  0  0  0  0
 11 40  1  0  0  0  0
 12 13  2  0  0  0  0
 12 14  1  0  0  0  0
 14 15  1  0  0  0  0
 14 41  1  0  0  0  0
 14 42  1  0  0  0  0
 15 27  1  0  0  0  0
 15 16  1  0  0  0  0
 16 17  2  0  0  0  0
 16 18  1  0  0  0  0
 18 19  1  0  0  0  0
 18 20  2  0  0  0  0
 20 21  1  0  0  0  0
 20 43  1  0  0  0  0
 21 22  1  0  0  0  0
 21 27  1  0  0  0  0
 22 26  1  0  0  0  0
 22 23  1  0  0  0  0
 22 44  1  0  0  0  0
 23 24  1  0  0  0  0
 23 45  1  0  0  0  0
 23 46  1  0  0  0  0
 24 25  1  0  0  0  0
 24 47  1  0  0  0  0
 24 48  1  0  0  0  0
 25 26  1  0  0  0  0
 25 49  1  0  0  0  0
 25 50  1  0  0  0  0
 27 28  2  0  0  0  0
 29 30  1  0  0  0  0
 30 51  1  0  0  0  0
 30 52  1  0  0  0  0
 30 53  1  0  0  0  0
M  END
> <s_m_source_file>
AV-unprocessed.smi

> <i_m_source_file_index>
117

> <i_lp_mmshare_version>
43012

> <i_f3d_flags>
0

> <s_epik_input>
W0NIM11jMVtjSF1bY0hdW2NIXWMoYzFbQ0gzXSlbTkhdQyg9TylbQ0gyXVtOSF1DKD1PKVtDSDJdbjJjKD1PKWMoRilbY0hdbihjMj1PKVtDQEBIXTNbQ0gyXVtDSDJdW0NIMl1PMw==

> <s_epik_cmdline>
J2VwaWtfcHl0aG9uJywgJy1waCcsICc3LjAnLCAnLXRuJywgJzgnLCAnLW1hJywgJzIwMCcsICctbWV0YWxfYmluZGluZycsICctaW1hZScsICc8aW5maWxlLm1hZT4nLCAnLW9tYWUnLCAnPG91dGZpbGUubWFlPic=

> <r_lp_tautomer_probability>
1

> <r_epik_Ionization_Penalty>
1.58439e-06

> <r_epik_Ionization_Penalty_Charging>
4.14583e-09

> <r_epik_Ionization_Penalty_Neutral>
1.58025e-06

> <r_epik_State_Penalty>
-0

> <r_epik_Charging_Adjusted_Penalty>
4.14583e-09

> <i_epik_Tot_Q>
0

> <i_epik_Tot_abs_Q>
0

> <r_epik_Metal_State_Penalty>
-0

> <b_epik_Metal_Only>
0

> <s_epik_Chemistry_Notes>
This compound contains an acetal/aminal-like group ( X-CH(R)-Y where X, Y are N, S, or O) that may be acid/base labile, releasing an aldehyde.

> <s_lp_Force_Field>
OPLS_2005

> <r_lp_Energy>
23.1061

> <b_lp_Chiralities_Consistent>
1

> <s_lp_Variant>
AV-unprocessed.smi:117-2

> <Gold.Version>
5.8.1

> <Gold.Id.Protein>
6NUR|6NUR_protein|mol2

> <Gold.PLP.Fitness>
61.2842

> <Gold.PLP.PLP>
-53.5060

> <Gold.PLP.part.hbond>
-1.8429

> <Gold.PLP.part.metal>
0.0000

> <Gold.PLP.part.buried>
-6.2184

> <Gold.PLP.part.nonpolar>
-45.6864

> <Gold.PLP.part.repulsive>
1.1260

> <Gold.PLP.ligand.clash>
0.0000

> <Gold.PLP.ligand.torsion>
0.5735

> <Gold.PLP.Chemscore.Hbond>
2.0000

> <Gold.PLP.Chemscore.CHOScore>
0.9608

> <Gold.PLP.Chemscore.Metal>
0.0000

> <Gold.Chemscore.Hbonds>
donor molecule, donor type, donor heavy atom, donor atom, acceptor molecule, acceptor atom, score
      P1  H  7989  7998       L1     9  0.88
      P1  H 10752 10763       L1    13  1.00

> <Gold.PLP.Chemscore.Internal.Correction>
0.0429

> <Gold.Rescore>
     Score         DG    S(hbond)    S(metal)    S(lipo)     H(rot)  DE(clash)    DE(int)     intcor
     17.10     -20.12       1.98        0.00     119.38       2.32       0.01       3.01       ----

> <Gold.Chemscore.Fitness>
17.1045

> <Gold.Chemscore.DG>
-20.1228

> <Gold.Chemscore.ZeroCoef>
-5.4800

> <Gold.Chemscore.Hbond>
1.9777

> <Gold.Chemscore.Metal>
0.0000

> <Gold.Chemscore.Lipo>
119.3819

> <Gold.Chemscore.Internal_Hbond>
0.0000

> <Gold.Chemscore.DEClash>
0.0121

> <Gold.Chemscore.DEInternal>
3.0061

> <Gold.Chemscore.Rot>
2.3166

> <Gold.Chemscore.Internal.Correction>
   9.000000E+99

> <Gold.Chemscore.Hbonds>
donor molecule, donor type, donor heavy atom, donor atom, acceptor molecule, acceptor atom, score
      P1  H  7989  7998       L1     9  0.84
      P1  H 10752 10763       L1    13  0.99

> <Gold.Chemscore.Hbond.Weighted>
-6.6057

> <Gold.Chemscore.Metal.Weighted>
-0.0000

> <Gold.Chemscore.Lipo.Weighted>
-13.9677

> <Gold.Chemscore.Internal_Hbond.Weighted>
0.0000

> <Gold.Chemscore.DEClash.Weighted>
0.0121

> <Gold.Chemscore.DEInternal.Weighted>
3.0061

> <Gold.Chemscore.Rot.Weighted>
5.9306

> <Gold.Chemscore.Internal.Correction.Weighted>
   9.000000E+99

> <Gold.Protein.RotatedTorsions>
[ 6907 6896 6895 6894 ] final   52.26 input  -60.11 | X-H torsion
[ 7974 7965 7964 7962 ] final  -42.09 input  175.53 | X-H torsion
[ 8008 7997 7996 7995 ] final  159.84 input   59.86 | X-H torsion
[ 10167 10162 10161 10158 ] final  -58.75 input  -65.29 | X-H torsion
[ 10718 10713 10712 10709 ] final -105.19 input   66.30 | X-H torsion
[ 10763 10752 10751 10750 ] final   85.26 input  -60.55 | X-H torsion
[ 11005 11000 10999 10996 ] final  156.40 input  -57.11 | X-H torsion

> <Gold.Protein.ActiveResidues>
 VAL166  LYS551  ARG553  GLY616  TRP617  ASP618  TYR619  PRO620  LYS621  CYS622 
 ASP623  PHE694  ASN695  SER759  ASP760  ASP761  ALA762  ILE779  LEU786  VAL792 
 PHE793  MET794  SER795  GLU796  ALA797  LYS798  CYS799  TRP800  GLU811  SER814 

> <Gold.Protein.RotatedAtoms>
  152.3214  134.7375  160.0312 H   0  0  0  0  0  0  0  0  0  0  0  0  # atno 6907 bound_to 6896
  151.7822  133.3345  159.3483 H   0  0  0  0  0  0  0  0  0  0  0  0  # atno 6908 bound_to 6896
  150.7372  134.5851  159.6003 H   0  0  0  0  0  0  0  0  0  0  0  0  # atno 6909 bound_to 6896
  146.0149  140.6920  142.9206 H   0  0  0  0  0  0  0  0  0  0  0  0  # atno 7974 bound_to 7965
  156.2212  140.1820  156.7471 H   0  0  0  0  0  0  0  0  0  0  0  0  # atno 8008 bound_to 7997
  154.5869  140.0657  156.9212 H   0  0  0  0  0  0  0  0  0  0  0  0  # atno 8009 bound_to 7997
  155.2404  140.3321  155.4295 H   0  0  0  0  0  0  0  0  0  0  0  0  # atno 8010 bound_to 7997
  140.6178  143.2408  151.5556 H   0  0  0  0  0  0  0  0  0  0  0  0  # atno 10167 bound_to 10162
  156.0335  130.5551  150.7504 H   0  0  0  0  0  0  0  0  0  0  0  0  # atno 10718 bound_to 10713
  153.1458  135.4624  154.9564 H   0  0  0  0  0  0  0  0  0  0  0  0  # atno 10763 bound_to 10752
  154.7785  135.3181  154.8044 H   0  0  0  0  0  0  0  0  0  0  0  0  # atno 10764 bound_to 10752
  153.8558  135.6917  153.4842 H   0  0  0  0  0  0  0  0  0  0  0  0  # atno 10765 bound_to 10752
  140.1671  134.8569  157.2645 H   0  0  0  0  0  0  0  0  0  0  0  0  # atno 11005 bound_to 11000
  144.6967  140.3464  143.7190 LP  0  0  0  0  0  0  0  0  0  0  0  0  # atno 17320 bound_to 7965
  145.7284  139.1729  143.2444 LP  0  0  0  0  0  0  0  0  0  0  0  0  # atno 17321 bound_to 7965
  139.5413  144.2641  152.1355 LP  0  0  0  0  0  0  0  0  0  0  0  0  # atno 17342 bound_to 10162
  140.1854  144.4804  150.6506 LP  0  0  0  0  0  0  0  0  0  0  0  0  # atno 17343 bound_to 10162
  157.5050  131.0921  151.0269 LP  0  0  0  0  0  0  0  0  0  0  0  0  # atno 17370 bound_to 10713
  157.0639  130.5837  149.5390 LP  0  0  0  0  0  0  0  0  0  0  0  0  # atno 17371 bound_to 10713
  140.2421  134.3783  155.7476 LP  0  0  0  0  0  0  0  0  0  0  0  0  # atno 17394 bound_to 11000
  141.2214  133.7271  156.8805 LP  0  0  0  0  0  0  0  0  0  0  0  0  # atno 17395 bound_to 11000

$$$$
