AV-unprocessed.smi:2178|AV-procd|sdf|8855|dock6
  -GOLD-   2272012 53D 1   1.00000     0.00000
 Structure written by MMmdl.
 47 49  0  0  0  0  0  0  0  0  2 V2000
  153.0546  140.4498  159.5886 C   0  0  0  0  0  0  0  0  0  0  0  0
  152.8515  141.7144  160.4022 C   0  0  0  0  0  0  0  0  0  0  0  0
  153.3337  141.7723  161.7260 C   0  0  0  0  0  0  0  0  0  0  0  0
  153.1432  142.9319  162.5000 C   0  0  0  0  0  0  0  0  0  0  0  0
  152.4642  144.0376  161.9558 C   0  0  0  0  0  0  0  0  0  0  0  0
  151.9775  143.9912  160.6331 C   0  0  0  0  0  0  0  0  0  0  0  0
  151.2368  145.1874  160.0642 C   0  0  0  0  0  0  0  0  0  0  0  0
  152.1838  142.8323  159.8481 C   0  0  0  0  0  0  0  0  0  0  0  0
  151.7105  142.7859  158.5627 O   0  0  0  0  0  0  0  0  0  0  0  0
  150.3257  142.4803  158.4741 C   0  0  0  0  0  0  0  0  0  0  0  0
  150.0728  141.5330  157.2914 C   0  0  1  0  0  0  0  0  0  0  0  0
  151.1178  140.5834  157.2232 O   0  0  0  0  0  0  0  0  0  0  0  0
  148.6853  140.8603  157.3291 C   0  0  0  0  0  0  0  0  0  0  0  0
  147.9129  141.0754  156.0946 N   0  0  0  0  0  0  0  0  0  0  0  0
  148.0190  140.4749  154.8738 C   0  0  0  0  0  0  0  0  0  0  0  0
  148.9801  139.4025  154.4790 C   0  0  0  0  0  0  0  0  0  0  0  0
  150.0526  139.9010  153.7109 O   0  0  0  0  0  0  0  0  0  0  0  0
  147.0682  141.0268  154.0685 N   0  3  0  0  0  0  0  0  0  0  0  0
  146.3484  141.9894  154.7769 C   0  0  0  0  0  0  0  0  0  0  0  0
  145.2937  142.8085  154.3858 C   0  0  0  0  0  0  0  0  0  0  0  0
  144.7779  143.6859  155.3620 C   0  0  0  0  0  0  0  0  0  0  0  0
  145.3081  143.7240  156.6679 C   0  0  0  0  0  0  0  0  0  0  0  0
  146.3770  142.8883  157.0530 C   0  0  0  0  0  0  0  0  0  0  0  0
  146.8842  142.0259  156.0807 C   0  0  0  0  0  0  0  0  0  0  0  0
  153.2206  139.5892  160.2375 H   0  0  0  0  0  0  0  0  0  0  0  0
  153.9209  140.5557  158.9358 H   0  0  0  0  0  0  0  0  0  0  0  0
  152.1810  140.2377  158.9716 H   0  0  0  0  0  0  0  0  0  0  0  0
  153.8499  140.9252  162.1536 H   0  0  0  0  0  0  0  0  0  0  0  0
  153.5136  142.9707  163.5138 H   0  0  0  0  0  0  0  0  0  0  0  0
  152.3170  144.9214  162.5591 H   0  0  0  0  0  0  0  0  0  0  0  0
  150.3737  144.8666  159.4802 H   0  0  0  0  0  0  0  0  0  0  0  0
  151.8948  145.7671  159.4167 H   0  0  0  0  0  0  0  0  0  0  0  0
  150.8772  145.8421  160.8586 H   0  0  0  0  0  0  0  0  0  0  0  0
  150.0073  141.9896  159.3950 H   0  0  0  0  0  0  0  0  0  0  0  0
  149.7270  143.3872  158.3782 H   0  0  0  0  0  0  0  0  0  0  0  0
  150.1466  142.1225  156.3772 H   0  0  0  0  0  0  0  0  0  0  0  0
  150.7477  139.7500  156.9761 H   0  0  0  0  0  0  0  0  0  0  0  0
  148.7644  139.7894  157.5164 H   0  0  0  0  0  0  0  0  0  0  0  0
  148.1020  141.2631  158.1573 H   0  0  0  0  0  0  0  0  0  0  0  0
  149.3775  138.9246  155.3749 H   0  0  0  0  0  0  0  0  0  0  0  0
  148.4595  138.6315  153.9113 H   0  0  0  0  0  0  0  0  0  0  0  0
  149.8420  139.7966  152.7954 H   0  0  0  0  0  0  0  0  0  0  0  0
  144.8840  142.7794  153.3867 H   0  0  0  0  0  0  0  0  0  0  0  0
  143.9587  144.3415  155.1046 H   0  0  0  0  0  0  0  0  0  0  0  0
  144.8859  144.4072  157.3906 H   0  0  0  0  0  0  0  0  0  0  0  0
  146.7694  142.9230  158.0587 H   0  0  0  0  0  0  0  0  0  0  0  0
  146.9221  140.7580  153.1039 H   0  0  0  0  0  0  0  0  0  0  0  0
  1  2  1  0  0  0  0
  1 25  1  0  0  0  0
  1 26  1  0  0  0  0
  1 27  1  0  0  0  0
  2  8  1  0  0  0  0
  2  3  2  0  0  0  0
  3  4  1  0  0  0  0
  3 28  1  0  0  0  0
  4  5  2  0  0  0  0
  4 29  1  0  0  0  0
  5  6  1  0  0  0  0
  5 30  1  0  0  0  0
  6  7  1  0  0  0  0
  6  8  2  0  0  0  0
  7 31  1  0  0  0  0
  7 32  1  0  0  0  0
  7 33  1  0  0  0  0
  8  9  1  0  0  0  0
  9 10  1  0  0  0  0
 10 11  1  0  0  0  0
 10 34  1  0  0  0  0
 10 35  1  0  0  0  0
 11 12  1  0  0  0  0
 11 13  1  0  0  0  0
 11 36  1  0  0  0  0
 12 37  1  0  0  0  0
 13 14  1  0  0  0  0
 13 38  1  0  0  0  0
 13 39  1  0  0  0  0
 14 24  1  0  0  0  0
 14 15  1  0  0  0  0
 15 16  1  0  0  0  0
 15 18  2  0  0  0  0
 16 17  1  0  0  0  0
 16 40  1  0  0  0  0
 16 41  1  0  0  0  0
 17 42  1  0  0  0  0
 18 19  1  0  0  0  0
 18 47  1  0  0  0  0
 19 24  2  0  0  0  0
 19 20  1  0  0  0  0
 20 21  2  0  0  0  0
 20 43  1  0  0  0  0
 21 22  1  0  0  0  0
 21 44  1  0  0  0  0
 22 23  2  0  0  0  0
 22 45  1  0  0  0  0
 23 24  1  0  0  0  0
 23 46  1  0  0  0  0
M  CHG  1  18   1
M  END
> <s_m_source_file>
AV-unprocessed.smi

> <i_m_source_file_index>
2178

> <i_lp_mmshare_version>
43012

> <i_f3d_flags>
0

> <s_epik_input>
W0NIM11jMVtjSF1bY0hdW2NIXWMoW0NIM10pYzFPW0NIMl1bQ0BIXShbT0hdKVtDSDJdbihjKG4yKVtDSDJdW09IXSljKGMyMylbY0hdW2NIXVtjSF1bY0hdMw==

> <s_epik_cmdline>
J2VwaWtfcHl0aG9uJywgJy1waCcsICc3LjAnLCAnLXRuJywgJzgnLCAnLW1hJywgJzIwMCcsICctbWV0YWxfYmluZGluZycsICctaW1hZScsICc8aW5maWxlLm1hZT4nLCAnLW9tYWUnLCAnPG91dGZpbGUubWFlPic=

> <r_lp_tautomer_probability>
1

> <r_epik_Ionization_Penalty>
1.43125

> <r_epik_Ionization_Penalty_Charging>
1.43039

> <r_epik_Ionization_Penalty_Neutral>
0.000858184

> <r_epik_State_Penalty>
1.51493

> <r_epik_Charging_Adjusted_Penalty>
2.94531

> <i_epik_Tot_Q>
1

> <i_epik_Tot_abs_Q>
1

> <r_epik_Metal_State_Penalty>
5.5599

> <b_epik_Metal_Only>
0

> <s_lp_Force_Field>
OPLS_2005

> <r_lp_Energy>
23.7174

> <b_lp_Chiralities_Consistent>
1

> <s_lp_Variant>
AV-unprocessed.smi:2178-4

> <Gold.Version>
5.8.1

> <Gold.Id.Protein>
6NUR|6NUR_protein|mol2

> <Gold.PLP.Fitness>
51.1526

> <Gold.PLP.PLP>
-49.8339

> <Gold.PLP.part.hbond>
-1.6681

> <Gold.PLP.part.metal>
0.0000

> <Gold.PLP.part.buried>
-7.0981

> <Gold.PLP.part.nonpolar>
-40.3133

> <Gold.PLP.part.repulsive>
0.0893

> <Gold.PLP.ligand.clash>
0.0000

> <Gold.PLP.ligand.torsion>
1.9270

> <Gold.PLP.Chemscore.Hbond>
1.6688

> <Gold.PLP.Chemscore.CHOScore>
0.0000

> <Gold.PLP.Chemscore.Metal>
0.0000

> <Gold.Chemscore.Hbonds>
donor molecule, donor type, donor heavy atom, donor atom, acceptor molecule, acceptor atom, score
      L1  H    17    42       P1  7957  1.00
      P1  H  7989  7998       L1    17  0.65

> <Gold.PLP.Chemscore.Internal.Correction>
0.1662

> <Gold.Rescore>
     Score         DG    S(hbond)    S(metal)    S(lipo)     H(rot)  DE(clash)    DE(int)     intcor
     14.68     -17.07       1.27        0.00     129.59       3.05       0.42       1.98       ----

> <Gold.Chemscore.Fitness>
14.6765

> <Gold.Chemscore.DG>
-17.0679

> <Gold.Chemscore.ZeroCoef>
-5.4800

> <Gold.Chemscore.Hbond>
1.2659

> <Gold.Chemscore.Metal>
0.0000

> <Gold.Chemscore.Lipo>
129.5858

> <Gold.Chemscore.Internal_Hbond>
0.0000

> <Gold.Chemscore.DEClash>
0.4162

> <Gold.Chemscore.DEInternal>
1.9752

> <Gold.Chemscore.Rot>
3.0476

> <Gold.Chemscore.Internal.Correction>
   9.000000E+99

> <Gold.Chemscore.Hbonds>
donor molecule, donor type, donor heavy atom, donor atom, acceptor molecule, acceptor atom, score
      L1  H    17    42       P1  7957  1.00
      P1  H  7989  7998       L1    17  0.10

> <Gold.Chemscore.Hbond.Weighted>
-4.2282

> <Gold.Chemscore.Metal.Weighted>
-0.0000

> <Gold.Chemscore.Lipo.Weighted>
-15.1615

> <Gold.Chemscore.Internal_Hbond.Weighted>
0.0000

> <Gold.Chemscore.DEClash.Weighted>
0.4162

> <Gold.Chemscore.DEInternal.Weighted>
1.9752

> <Gold.Chemscore.Rot.Weighted>
7.8018

> <Gold.Chemscore.Internal.Correction.Weighted>
   9.000000E+99

> <Gold.Protein.RotatedTorsions>
[ 6907 6896 6895 6894 ] final   16.06 input  -60.11 | X-H torsion
[ 7974 7965 7964 7962 ] final -161.17 input  175.53 | X-H torsion
[ 8008 7997 7996 7995 ] final   74.23 input   59.86 | X-H torsion
[ 10167 10162 10161 10158 ] final  127.48 input  -65.29 | X-H torsion
[ 10718 10713 10712 10709 ] final  158.82 input   66.30 | X-H torsion
[ 10763 10752 10751 10750 ] final  160.49 input  -60.55 | X-H torsion
[ 11005 11000 10999 10996 ] final  178.54 input  -57.11 | X-H torsion

> <Gold.Protein.ActiveResidues>
 VAL166  LYS551  ARG553  GLY616  TRP617  ASP618  TYR619  PRO620  LYS621  CYS622 
 ASP623  PHE694  ASN695  SER759  ASP760  ASP761  ALA762  ILE779  LEU786  VAL792 
 PHE793  MET794  SER795  GLU796  ALA797  LYS798  CYS799  TRP800  GLU811  SER814 

> <Gold.Protein.RotatedAtoms>
  151.8279  135.0631  160.0432 H   0  0  0  0  0  0  0  0  0  0  0  0  # atno 6907 bound_to 6896
  152.2902  133.5550  159.5561 H   0  0  0  0  0  0  0  0  0  0  0  0  # atno 6908 bound_to 6896
  150.7227  134.0355  159.3790 H   0  0  0  0  0  0  0  0  0  0  0  0  # atno 6909 bound_to 6896
  144.7400  140.3436  143.6130 H   0  0  0  0  0  0  0  0  0  0  0  0  # atno 7974 bound_to 7965
  155.7952  140.3478  155.5372 H   0  0  0  0  0  0  0  0  0  0  0  0  # atno 8008 bound_to 7997
  155.8593  140.0969  157.1644 H   0  0  0  0  0  0  0  0  0  0  0  0  # atno 8009 bound_to 7997
  154.4011  140.1361  156.3928 H   0  0  0  0  0  0  0  0  0  0  0  0  # atno 8010 bound_to 7997
  139.5576  144.6859  151.4137 H   0  0  0  0  0  0  0  0  0  0  0  0  # atno 10167 bound_to 10162
  157.1727  131.0614  151.2174 H   0  0  0  0  0  0  0  0  0  0  0  0  # atno 10718 bound_to 10713
  154.2483  135.2772  155.2827 H   0  0  0  0  0  0  0  0  0  0  0  0  # atno 10763 bound_to 10752
  154.5487  135.5681  153.6906 H   0  0  0  0  0  0  0  0  0  0  0  0  # atno 10764 bound_to 10752
  152.9986  135.6269  154.2629 H   0  0  0  0  0  0  0  0  0  0  0  0  # atno 10765 bound_to 10752
  140.3962  134.6818  157.4536 H   0  0  0  0  0  0  0  0  0  0  0  0  # atno 11005 bound_to 11000
  145.7349  139.1747  143.2409 LP  0  0  0  0  0  0  0  0  0  0  0  0  # atno 17320 bound_to 7965
  146.1178  140.7347  142.9472 LP  0  0  0  0  0  0  0  0  0  0  0  0  # atno 17321 bound_to 7965
  140.6851  143.7992  150.7175 LP  0  0  0  0  0  0  0  0  0  0  0  0  # atno 17342 bound_to 10162
  140.1457  143.4402  152.2164 LP  0  0  0  0  0  0  0  0  0  0  0  0  # atno 17343 bound_to 10162
  157.4028  130.7342  149.6780 LP  0  0  0  0  0  0  0  0  0  0  0  0  # atno 17370 bound_to 10713
  155.9736  130.4116  150.3990 LP  0  0  0  0  0  0  0  0  0  0  0  0  # atno 17371 bound_to 10713
  140.0370  134.6323  155.9030 LP  0  0  0  0  0  0  0  0  0  0  0  0  # atno 17394 bound_to 11000
  141.1873  133.6559  156.5276 LP  0  0  0  0  0  0  0  0  0  0  0  0  # atno 17395 bound_to 11000

$$$$
