AV-unprocessed.smi:2159|AV-procd|sdf|8795|dock10
  -GOLD-   2272011573D 1   1.00000     0.00000
 Structure written by MMmdl.
 48 50  0  0  0  0  0  0  0  0  2 V2000
  155.0882  137.9901  163.1215 O   0  0  0  0  0  0  0  0  0  0  0  0
  154.4299  137.2448  162.3964 C   0  0  0  0  0  0  0  0  0  0  0  0
  153.5704  137.8253  161.2729 C   0  0  0  0  0  0  0  0  0  0  0  0
  154.4166  138.6195  160.2577 C   0  0  0  0  0  0  0  0  0  0  0  0
  154.0200  140.0300  160.2158 N   0  0  0  0  0  0  0  0  0  0  0  0
  154.2388  140.8962  161.2149 C   0  0  0  0  0  0  0  0  0  0  0  0
  154.7776  140.6397  162.2926 O   0  0  0  0  0  0  0  0  0  0  0  0
  153.7406  142.2924  160.8511 C   0  0  2  0  0  0  0  0  0  0  0  0
  152.7213  142.8354  161.8746 C   0  0  0  0  0  0  0  0  0  0  0  0
  151.9798  144.0641  161.3206 C   0  0  0  0  0  0  0  0  0  0  0  0
  151.3505  143.8280  159.9293 C   0  0  0  0  0  0  0  0  0  0  0  0
  151.6490  142.4358  159.3446 C   0  0  0  0  0  0  0  0  0  0  0  0
  153.1500  142.0896  159.4388 C   0  0  2  0  0  0  0  0  0  0  0  0
  153.4113  140.6091  159.1718 C   0  0  0  0  0  0  0  0  0  0  0  0
  153.0936  140.0565  158.1187 O   0  0  0  0  0  0  0  0  0  0  0  0
  154.4405  135.9079  162.5084 N   0  0  0  0  0  0  0  0  0  0  0  0
  155.2809  135.1462  163.4277 C   0  0  0  0  0  0  0  0  0  0  0  0
  154.4791  134.4920  164.5733 C   0  0  0  0  0  0  0  0  0  0  0  0
  153.9156  133.1255  164.2203 C   0  0  0  0  0  0  0  0  0  0  0  0
  153.1372  132.3774  165.1309 C   0  0  0  0  0  0  0  0  0  0  0  0
  152.6656  131.1038  164.7521 C   0  0  0  0  0  0  0  0  0  0  0  0
  152.9770  130.6072  163.4696 C   0  0  0  0  0  0  0  0  0  0  0  0
  153.7533  131.3980  162.5979 C   0  0  0  0  0  0  0  0  0  0  0  0
  154.1897  132.6123  162.9992 N   0  3  0  0  0  0  0  0  0  0  0  0
  153.0532  137.0072  160.7681 H   0  0  0  0  0  0  0  0  0  0  0  0
  152.7962  138.4630  161.7009 H   0  0  0  0  0  0  0  0  0  0  0  0
  155.4756  138.5291  160.5058 H   0  0  0  0  0  0  0  0  0  0  0  0
  154.3185  138.1920  159.2578 H   0  0  0  0  0  0  0  0  0  0  0  0
  154.5968  142.9661  160.7950 H   0  0  0  0  0  0  0  0  0  0  0  0
  151.9947  142.0636  162.1348 H   0  0  0  0  0  0  0  0  0  0  0  0
  153.2282  143.1000  162.8032 H   0  0  0  0  0  0  0  0  0  0  0  0
  151.2108  144.3773  162.0271 H   0  0  0  0  0  0  0  0  0  0  0  0
  152.6803  144.8975  161.2539 H   0  0  0  0  0  0  0  0  0  0  0  0
  150.2711  143.9732  159.9823 H   0  0  0  0  0  0  0  0  0  0  0  0
  151.7194  144.5899  159.2415 H   0  0  0  0  0  0  0  0  0  0  0  0
  151.0572  141.6902  159.8785 H   0  0  0  0  0  0  0  0  0  0  0  0
  151.3182  142.3953  158.3061 H   0  0  0  0  0  0  0  0  0  0  0  0
  153.7108  142.6840  158.7161 H   0  0  0  0  0  0  0  0  0  0  0  0
  153.8580  135.3773  161.8767 H   0  0  0  0  0  0  0  0  0  0  0  0
  155.8541  134.3943  162.8832 H   0  0  0  0  0  0  0  0  0  0  0  0
  156.0074  135.8421  163.8480 H   0  0  0  0  0  0  0  0  0  0  0  0
  155.1161  134.3883  165.4526 H   0  0  0  0  0  0  0  0  0  0  0  0
  153.6626  135.1494  164.8736 H   0  0  0  0  0  0  0  0  0  0  0  0
  152.9126  132.7690  166.1125 H   0  0  0  0  0  0  0  0  0  0  0  0
  152.0750  130.5146  165.4384 H   0  0  0  0  0  0  0  0  0  0  0  0
  152.6258  129.6336  163.1602 H   0  0  0  0  0  0  0  0  0  0  0  0
  154.0386  131.0971  161.6003 H   0  0  0  0  0  0  0  0  0  0  0  0
  154.7529  133.1656  162.3528 H   0  0  0  0  0  0  0  0  0  0  0  0
  1  2  2  0  0  0  0
  2  3  1  0  0  0  0
  2 16  1  0  0  0  0
  3  4  1  0  0  0  0
  3 25  1  0  0  0  0
  3 26  1  0  0  0  0
  4  5  1  0  0  0  0
  4 27  1  0  0  0  0
  4 28  1  0  0  0  0
  5 14  1  0  0  0  0
  5  6  1  0  0  0  0
  6  7  2  0  0  0  0
  6  8  1  0  0  0  0
  8 13  1  0  0  0  0
  8  9  1  0  0  0  0
  8 29  1  0  0  0  0
  9 10  1  0  0  0  0
  9 30  1  0  0  0  0
  9 31  1  0  0  0  0
 10 11  1  0  0  0  0
 10 32  1  0  0  0  0
 10 33  1  0  0  0  0
 11 12  1  0  0  0  0
 11 34  1  0  0  0  0
 11 35  1  0  0  0  0
 12 13  1  0  0  0  0
 12 36  1  0  0  0  0
 12 37  1  0  0  0  0
 13 14  1  0  0  0  0
 13 38  1  0  0  0  0
 14 15  2  0  0  0  0
 16 17  1  0  0  0  0
 16 39  1  0  0  0  0
 17 18  1  0  0  0  0
 17 40  1  0  0  0  0
 17 41  1  0  0  0  0
 18 19  1  0  0  0  0
 18 42  1  0  0  0  0
 18 43  1  0  0  0  0
 19 24  1  0  0  0  0
 19 20  2  0  0  0  0
 20 21  1  0  0  0  0
 20 44  1  0  0  0  0
 21 22  2  0  0  0  0
 21 45  1  0  0  0  0
 22 23  1  0  0  0  0
 22 46  1  0  0  0  0
 23 24  2  0  0  0  0
 23 47  1  0  0  0  0
 24 48  1  0  0  0  0
M  CHG  1  24   1
M  END
> <s_m_source_file>
AV-unprocessed.smi

> <i_m_source_file_index>
2159

> <i_lp_mmshare_version>
43012

> <i_f3d_flags>
0

> <s_epik_input>
bjFbY0hdW2NIXVtjSF1bY0hdYzFbQ0gyXVtDSDJdW05IXUMoPU8pW0NIMl1bQ0gyXU4oQzI9TylDKD1PKVtDQEhdKFtDQEBIXTIzKVtDSDJdW0NIMl1bQ0gyXVtDSDJdMw==

> <s_epik_cmdline>
J2VwaWtfcHl0aG9uJywgJy1waCcsICc3LjAnLCAnLXRuJywgJzgnLCAnLW1hJywgJzIwMCcsICctbWV0YWxfYmluZGluZycsICctaW1hZScsICc8aW5maWxlLm1hZT4nLCAnLW9tYWUnLCAnPG91dGZpbGUubWFlPic=

> <r_lp_tautomer_probability>
1

> <r_epik_Ionization_Penalty>
1.85146

> <r_epik_Ionization_Penalty_Charging>
1.85146

> <r_epik_Ionization_Penalty_Neutral>
2.95922e-08

> <r_epik_State_Penalty>
1.96899

> <r_epik_Charging_Adjusted_Penalty>
3.82044

> <i_epik_Tot_Q>
1

> <i_epik_Tot_abs_Q>
1

> <r_epik_Metal_State_Penalty>
1.99467

> <b_epik_Metal_Only>
0

> <s_lp_Force_Field>
OPLS_2005

> <r_lp_Energy>
31.2596

> <b_lp_Chiralities_Consistent>
1

> <s_lp_Variant>
AV-unprocessed.smi:2159-5

> <Gold.Version>
5.8.1

> <Gold.Id.Protein>
6NUR|6NUR_protein|mol2

> <Gold.PLP.Fitness>
50.3254

> <Gold.PLP.PLP>
-48.5296

> <Gold.PLP.part.hbond>
-1.7526

> <Gold.PLP.part.metal>
0.0000

> <Gold.PLP.part.buried>
-5.5898

> <Gold.PLP.part.nonpolar>
-40.9945

> <Gold.PLP.part.repulsive>
0.0745

> <Gold.PLP.ligand.clash>
0.0000

> <Gold.PLP.ligand.torsion>
0.6574

> <Gold.PLP.Chemscore.Hbond>
1.0000

> <Gold.PLP.Chemscore.CHOScore>
0.0000

> <Gold.PLP.Chemscore.Metal>
0.0000

> <Gold.Chemscore.Hbonds>
donor molecule, donor type, donor heavy atom, donor atom, acceptor molecule, acceptor atom, score
      P1  H  7997  8010       L1    15  1.00

> <Gold.PLP.Chemscore.Internal.Correction>
0.1107

> <Gold.Rescore>
     Score         DG    S(hbond)    S(metal)    S(lipo)     H(rot)  DE(clash)    DE(int)     intcor
     16.60     -18.64       0.93        0.00     131.71       2.10       0.08       1.95       ----

> <Gold.Chemscore.Fitness>
16.6044

> <Gold.Chemscore.DG>
-18.6378

> <Gold.Chemscore.ZeroCoef>
-5.4800

> <Gold.Chemscore.Hbond>
0.9321

> <Gold.Chemscore.Metal>
0.0000

> <Gold.Chemscore.Lipo>
131.7088

> <Gold.Chemscore.Internal_Hbond>
0.0000

> <Gold.Chemscore.DEClash>
0.0828

> <Gold.Chemscore.DEInternal>
1.9506

> <Gold.Chemscore.Rot>
2.0959

> <Gold.Chemscore.Internal.Correction>
   9.000000E+99

> <Gold.Chemscore.Hbonds>
donor molecule, donor type, donor heavy atom, donor atom, acceptor molecule, acceptor atom, score
      P1  H  7997  8010       L1    15  0.75

> <Gold.Chemscore.Hbond.Weighted>
-3.1133

> <Gold.Chemscore.Metal.Weighted>
-0.0000

> <Gold.Chemscore.Lipo.Weighted>
-15.4099

> <Gold.Chemscore.Internal_Hbond.Weighted>
0.0000

> <Gold.Chemscore.DEClash.Weighted>
0.0828

> <Gold.Chemscore.DEInternal.Weighted>
1.9506

> <Gold.Chemscore.Rot.Weighted>
5.3655

> <Gold.Chemscore.Internal.Correction.Weighted>
   9.000000E+99

> <Gold.Protein.RotatedTorsions>
[ 6907 6896 6895 6894 ] final    1.30 input  -60.11 | X-H torsion
[ 7974 7965 7964 7962 ] final  131.32 input  175.53 | X-H torsion
[ 8008 7997 7996 7995 ] final   42.88 input   59.86 | X-H torsion
[ 10167 10162 10161 10158 ] final  -17.01 input  -65.29 | X-H torsion
[ 10718 10713 10712 10709 ] final -144.69 input   66.30 | X-H torsion
[ 10763 10752 10751 10750 ] final   44.48 input  -60.55 | X-H torsion
[ 11005 11000 10999 10996 ] final  178.88 input  -57.11 | X-H torsion

> <Gold.Protein.ActiveResidues>
 VAL166  LYS551  ARG553  GLY616  TRP617  ASP618  TYR619  PRO620  LYS621  CYS622 
 ASP623  PHE694  ASN695  SER759  ASP760  ASP761  ALA762  ILE779  LEU786  VAL792 
 PHE793  MET794  SER795  GLU796  ALA797  LYS798  CYS799  TRP800  GLU811  SER814 

> <Gold.Protein.RotatedAtoms>
  151.5904  135.1053  160.0037 H   0  0  0  0  0  0  0  0  0  0  0  0  # atno 6907 bound_to 6896
  152.4309  133.7272  159.6577 H   0  0  0  0  0  0  0  0  0  0  0  0  # atno 6908 bound_to 6896
  150.8202  133.8196  159.3165 H   0  0  0  0  0  0  0  0  0  0  0  0  # atno 6909 bound_to 6896
  145.0085  139.4243  143.5256 H   0  0  0  0  0  0  0  0  0  0  0  0  # atno 7974 bound_to 7965
  155.2935  140.3380  155.4251 H   0  0  0  0  0  0  0  0  0  0  0  0  # atno 8008 bound_to 7997
  156.2035  140.1742  156.7889 H   0  0  0  0  0  0  0  0  0  0  0  0  # atno 8009 bound_to 7997
  154.5590  140.0691  156.8773 H   0  0  0  0  0  0  0  0  0  0  0  0  # atno 8010 bound_to 7997
  140.7241  143.5059  150.9811 H   0  0  0  0  0  0  0  0  0  0  0  0  # atno 10167 bound_to 10162
  156.3733  130.7799  151.1982 H   0  0  0  0  0  0  0  0  0  0  0  0  # atno 10718 bound_to 10713
  152.9840  135.6069  154.3281 H   0  0  0  0  0  0  0  0  0  0  0  0  # atno 10763 bound_to 10752
  154.2986  135.2773  155.2623 H   0  0  0  0  0  0  0  0  0  0  0  0  # atno 10764 bound_to 10752
  154.4886  135.5898  153.6498 H   0  0  0  0  0  0  0  0  0  0  0  0  # atno 10765 bound_to 10752
  140.3999  134.6786  157.4556 H   0  0  0  0  0  0  0  0  0  0  0  0  # atno 11005 bound_to 11000
  146.3465  139.9515  142.8728 LP  0  0  0  0  0  0  0  0  0  0  0  0  # atno 17320 bound_to 7965
  145.2055  140.9873  143.4131 LP  0  0  0  0  0  0  0  0  0  0  0  0  # atno 17321 bound_to 7965
  139.8770  143.7119  152.3161 LP  0  0  0  0  0  0  0  0  0  0  0  0  # atno 17342 bound_to 10162
  139.7388  144.7564  151.0684 LP  0  0  0  0  0  0  0  0  0  0  0  0  # atno 17343 bound_to 10162
  157.7486  131.0366  150.4416 LP  0  0  0  0  0  0  0  0  0  0  0  0  # atno 17370 bound_to 10713
  156.4647  130.4039  149.6554 LP  0  0  0  0  0  0  0  0  0  0  0  0  # atno 17371 bound_to 10713
  140.0344  134.6359  155.9064 LP  0  0  0  0  0  0  0  0  0  0  0  0  # atno 17394 bound_to 11000
  141.1860  133.6556  156.5222 LP  0  0  0  0  0  0  0  0  0  0  0  0  # atno 17395 bound_to 11000

$$$$
