AV-unprocessed.smi:1224|AV-procd|sdf|5128|dock2
  -GOLD-   22720 4183D 1   1.00000     0.00000
 Structure written by MMmdl.
 44 46  0  0  0  0  0  0  0  0  2 V2000
  152.7739  143.5752  160.8086 C   0  0  0  0  0  0  0  0  0  0  0  0
  152.1373  142.8863  159.6144 C   0  0  0  0  0  0  0  0  0  0  0  0
  152.7518  141.7317  159.0794 C   0  0  0  0  0  0  0  0  0  0  0  0
  152.1883  141.0579  157.9739 C   0  0  0  0  0  0  0  0  0  0  0  0
  152.6113  139.9256  157.2993 N   0  0  0  0  0  0  0  0  0  0  0  0
  151.6656  139.7949  156.3739 C   0  0  0  0  0  0  0  0  0  0  0  0
  150.6736  140.7066  156.3739 N   0  0  0  0  0  0  0  0  0  0  0  0
  149.5327  140.7627  155.4775 C   0  0  0  0  0  0  0  0  0  0  0  0
  149.3513  139.4571  154.6794 C   0  0  2  0  0  0  0  0  0  0  0  0
  150.3252  139.3963  153.6544 O   0  0  0  0  0  0  0  0  0  0  0  0
  147.9586  139.3616  154.0372 C   0  0  0  0  0  0  0  0  0  0  0  0
  148.0430  138.8240  152.6624 N   0  3  0  0  0  0  0  0  0  0  0  0
  146.7645  138.7935  151.9232 C   0  0  0  0  0  0  0  0  0  0  0  0
  145.8617  137.7003  152.3958 C   0  0  0  0  0  0  0  0  0  0  0  0
  145.2146  137.6066  153.6022 C   0  0  0  0  0  0  0  0  0  0  0  0
  144.4133  136.4330  153.7183 C   0  0  0  0  0  0  0  0  0  0  0  0
  144.4593  135.6459  152.5984 C   0  0  0  0  0  0  0  0  0  0  0  0
  145.4928  136.3320  151.3757 S   0  0  0  0  0  0  0  0  0  0  0  0
  150.9825  141.5741  157.4155 C   0  0  0  0  0  0  0  0  0  0  0  0
  150.3645  142.7251  157.9352 C   0  0  0  0  0  0  0  0  0  0  0  0
  150.9412  143.3864  159.0394 C   0  0  0  0  0  0  0  0  0  0  0  0
  150.2654  144.6274  159.5953 C   0  0  0  0  0  0  0  0  0  0  0  0
  153.7082  143.0918  161.0955 H   0  0  0  0  0  0  0  0  0  0  0  0
  152.1033  143.5445  161.6675 H   0  0  0  0  0  0  0  0  0  0  0  0
  152.9947  144.6176  160.5784 H   0  0  0  0  0  0  0  0  0  0  0  0
  153.6633  141.3513  159.5166 H   0  0  0  0  0  0  0  0  0  0  0  0
  151.6901  138.9844  155.6601 H   0  0  0  0  0  0  0  0  0  0  0  0
  148.6428  140.9693  156.0736 H   0  0  0  0  0  0  0  0  0  0  0  0
  149.6600  141.6098  154.8016 H   0  0  0  0  0  0  0  0  0  0  0  0
  149.5027  138.6070  155.3462 H   0  0  0  0  0  0  0  0  0  0  0  0
  149.8825  139.4013  152.8185 H   0  0  0  0  0  0  0  0  0  0  0  0
  147.3225  138.6993  154.6262 H   0  0  0  0  0  0  0  0  0  0  0  0
  147.4814  140.3426  154.0351 H   0  0  0  0  0  0  0  0  0  0  0  0
  148.6993  139.3881  152.1410 H   0  0  0  0  0  0  0  0  0  0  0  0
  146.2696  139.7554  152.0595 H   0  0  0  0  0  0  0  0  0  0  0  0
  146.9619  138.6943  150.8549 H   0  0  0  0  0  0  0  0  0  0  0  0
  145.2853  138.3336  154.3979 H   0  0  0  0  0  0  0  0  0  0  0  0
  143.8394  136.2105  154.6059 H   0  0  0  0  0  0  0  0  0  0  0  0
  143.9521  134.7091  152.4181 H   0  0  0  0  0  0  0  0  0  0  0  0
  149.4536  143.0950  157.4887 H   0  0  0  0  0  0  0  0  0  0  0  0
  149.3526  144.8632  159.0474 H   0  0  0  0  0  0  0  0  0  0  0  0
  150.9302  145.4884  159.5232 H   0  0  0  0  0  0  0  0  0  0  0  0
  149.9991  144.4816  160.6424 H   0  0  0  0  0  0  0  0  0  0  0  0
  148.4024  137.8818  152.7164 H   0  0  0  0  0  0  0  0  0  0  0  0
  1  2  1  0  0  0  0
  1 23  1  0  0  0  0
  1 24  1  0  0  0  0
  1 25  1  0  0  0  0
  2 21  1  0  0  0  0
  2  3  2  0  0  0  0
  3  4  1  0  0  0  0
  3 26  1  0  0  0  0
  4 19  2  0  0  0  0
  4  5  1  0  0  0  0
  5  6  2  0  0  0  0
  6  7  1  0  0  0  0
  6 27  1  0  0  0  0
  7  8  1  0  0  0  0
  7 19  1  0  0  0  0
  8  9  1  0  0  0  0
  8 28  1  0  0  0  0
  8 29  1  0  0  0  0
  9 10  1  0  0  0  0
  9 11  1  0  0  0  0
  9 30  1  0  0  0  0
 10 31  1  0  0  0  0
 11 12  1  0  0  0  0
 11 32  1  0  0  0  0
 11 33  1  0  0  0  0
 12 13  1  0  0  0  0
 12 34  1  0  0  0  0
 12 44  1  0  0  0  0
 13 14  1  0  0  0  0
 13 35  1  0  0  0  0
 13 36  1  0  0  0  0
 14 18  1  0  0  0  0
 14 15  2  0  0  0  0
 15 16  1  0  0  0  0
 15 37  1  0  0  0  0
 16 17  2  0  0  0  0
 16 38  1  0  0  0  0
 17 18  1  0  0  0  0
 17 39  1  0  0  0  0
 19 20  1  0  0  0  0
 20 21  2  0  0  0  0
 20 40  1  0  0  0  0
 21 22  1  0  0  0  0
 22 41  1  0  0  0  0
 22 42  1  0  0  0  0
 22 43  1  0  0  0  0
M  CHG  1  12   1
M  END
> <s_m_source_file>
AV-unprocessed.smi

> <i_m_source_file_index>
1224

> <i_lp_mmshare_version>
43012

> <i_f3d_flags>
0

> <s_epik_input>
W0NIM11jKFtjSF0xKWMoW0NIM10pW2NIXWMoYzEyKW4oW2NIXW4yKVtDSDJdW0NASF0oW09IXSlbQ0gyXVtOSF1bQ0gyXWMzW2NIXVtjSF1bY0hdczM=

> <s_epik_cmdline>
J2VwaWtfcHl0aG9uJywgJy1waCcsICc3LjAnLCAnLXRuJywgJzgnLCAnLW1hJywgJzIwMCcsICctbWV0YWxfYmluZGluZycsICctaW1hZScsICc8aW5maWxlLm1hZT4nLCAnLW9tYWUnLCAnPG91dGZpbGUubWFlPic=

> <r_epik_Ionization_Penalty>
0.145091

> <r_epik_Ionization_Penalty_Charging>
0.0551904

> <r_epik_Ionization_Penalty_Neutral>
0.0899003

> <r_epik_State_Penalty>
0.131364

> <r_epik_Charging_Adjusted_Penalty>
0.186554

> <i_epik_Tot_Q>
1

> <i_epik_Tot_abs_Q>
1

> <r_epik_Metal_State_Penalty>
0.0472291

> <b_epik_Metal_Only>
0

> <s_lp_Force_Field>
OPLS_2005

> <r_lp_Energy>
7.24279

> <b_lp_Chiralities_Consistent>
1

> <s_lp_Variant>
AV-unprocessed.smi:1224-1

> <Gold.Version>
5.8.1

> <Gold.Id.Protein>
6NUR|6NUR_protein|mol2

> <Gold.PLP.Fitness>
58.6169

> <Gold.PLP.PLP>
-43.1945

> <Gold.PLP.part.hbond>
-4.8014

> <Gold.PLP.part.metal>
0.0000

> <Gold.PLP.part.buried>
-4.5136

> <Gold.PLP.part.nonpolar>
-34.5754

> <Gold.PLP.part.repulsive>
0.0734

> <Gold.PLP.ligand.clash>
0.0000

> <Gold.PLP.ligand.torsion>
1.0017

> <Gold.PLP.Chemscore.Hbond>
5.7733

> <Gold.PLP.Chemscore.CHOScore>
0.0000

> <Gold.PLP.Chemscore.Metal>
0.0000

> <Gold.Chemscore.Hbonds>
donor molecule, donor type, donor heavy atom, donor atom, acceptor molecule, acceptor atom, score
      L1  H    10    31       P1  7957  1.00
      L1  H    12    34       P1  7957  0.86
      L1  H    12    44       P1  7948  1.98
      P1  H  7989  7998       L1    10  0.91
      P1  H  7997  8010       L1     5  1.00

> <Gold.PLP.Chemscore.Internal.Correction>
0.1061

> <Gold.Rescore>
     Score         DG    S(hbond)    S(metal)    S(lipo)     H(rot)  DE(clash)    DE(int)     intcor
     25.21     -27.04       4.24        0.00     116.21       2.42       0.65       1.18       ----

> <Gold.Chemscore.Fitness>
25.2112

> <Gold.Chemscore.DG>
-27.0428

> <Gold.Chemscore.ZeroCoef>
-5.4800

> <Gold.Chemscore.Hbond>
4.2431

> <Gold.Chemscore.Metal>
0.0000

> <Gold.Chemscore.Lipo>
116.2079

> <Gold.Chemscore.Internal_Hbond>
0.0000

> <Gold.Chemscore.DEClash>
0.6492

> <Gold.Chemscore.DEInternal>
1.1824

> <Gold.Chemscore.Rot>
2.4240

> <Gold.Chemscore.Internal.Correction>
   9.000000E+99

> <Gold.Chemscore.Hbonds>
donor molecule, donor type, donor heavy atom, donor atom, acceptor molecule, acceptor atom, score
      L1  H    10    31       P1  7957  0.95
      L1  H    12    34       P1  7957  0.84
      L1  H    12    44       P1  7948  0.94
      P1  H  7989  7998       L1    10  0.29
      P1  H  7997  8010       L1     5  0.78

> <Gold.Chemscore.Hbond.Weighted>
-14.1719

> <Gold.Chemscore.Metal.Weighted>
-0.0000

> <Gold.Chemscore.Lipo.Weighted>
-13.5963

> <Gold.Chemscore.Internal_Hbond.Weighted>
0.0000

> <Gold.Chemscore.DEClash.Weighted>
0.6492

> <Gold.Chemscore.DEInternal.Weighted>
1.1824

> <Gold.Chemscore.Rot.Weighted>
6.2055

> <Gold.Chemscore.Internal.Correction.Weighted>
   9.000000E+99

> <Gold.Protein.RotatedTorsions>
[ 6907 6896 6895 6894 ] final -167.97 input  -60.11 | X-H torsion
[ 7974 7965 7964 7962 ] final   20.70 input  175.53 | X-H torsion
[ 8008 7997 7996 7995 ] final   54.10 input   59.86 | X-H torsion
[ 10167 10162 10161 10158 ] final  131.44 input  -65.29 | X-H torsion
[ 10718 10713 10712 10709 ] final   -6.58 input   66.30 | X-H torsion
[ 10763 10752 10751 10750 ] final   -5.83 input  -60.55 | X-H torsion
[ 11005 11000 10999 10996 ] final   88.56 input  -57.11 | X-H torsion

> <Gold.Protein.ActiveResidues>
 VAL166  LYS551  ARG553  GLY616  TRP617  ASP618  TYR619  PRO620  LYS621  CYS622 
 ASP623  PHE694  ASN695  SER759  ASP760  ASP761  ALA762  ILE779  LEU786  VAL792 
 PHE793  MET794  SER795  GLU796  ALA797  LYS798  CYS799  TRP800  GLU811  SER814 

> <Gold.Protein.RotatedAtoms>
  151.4680  133.3576  159.2818 H   0  0  0  0  0  0  0  0  0  0  0  0  # atno 6907 bound_to 6896
  150.8980  134.8392  159.7351 H   0  0  0  0  0  0  0  0  0  0  0  0  # atno 6908 bound_to 6896
  152.4863  134.4597  159.9653 H   0  0  0  0  0  0  0  0  0  0  0  0  # atno 6909 bound_to 6896
  146.2101  139.8132  142.8695 H   0  0  0  0  0  0  0  0  0  0  0  0  # atno 7974 bound_to 7965
  155.4791  140.3468  155.4337 H   0  0  0  0  0  0  0  0  0  0  0  0  # atno 8008 bound_to 7997
  156.1051  140.1445  156.9444 H   0  0  0  0  0  0  0  0  0  0  0  0  # atno 8009 bound_to 7997
  154.4719  140.0898  156.7143 H   0  0  0  0  0  0  0  0  0  0  0  0  # atno 8010 bound_to 7997
  139.5384  144.6706  151.4707 H   0  0  0  0  0  0  0  0  0  0  0  0  # atno 10167 bound_to 10162
  156.7298  130.5176  149.5848 H   0  0  0  0  0  0  0  0  0  0  0  0  # atno 10718 bound_to 10713
  153.4040  135.7006  153.6406 H   0  0  0  0  0  0  0  0  0  0  0  0  # atno 10763 bound_to 10752
  153.4928  135.3669  155.2501 H   0  0  0  0  0  0  0  0  0  0  0  0  # atno 10764 bound_to 10752
  154.8712  135.4093  154.3380 H   0  0  0  0  0  0  0  0  0  0  0  0  # atno 10765 bound_to 10752
  139.8894  134.8495  156.3017 H   0  0  0  0  0  0  0  0  0  0  0  0  # atno 11005 bound_to 11000
  145.3174  141.0235  143.3520 LP  0  0  0  0  0  0  0  0  0  0  0  0  # atno 17320 bound_to 7965
  144.8891  139.4798  143.6686 LP  0  0  0  0  0  0  0  0  0  0  0  0  # atno 17321 bound_to 7965
  140.6602  143.8514  150.6879 LP  0  0  0  0  0  0  0  0  0  0  0  0  # atno 17342 bound_to 10162
  140.1906  143.4039  152.1866 LP  0  0  0  0  0  0  0  0  0  0  0  0  # atno 17343 bound_to 10162
  156.1537  130.6327  151.0629 LP  0  0  0  0  0  0  0  0  0  0  0  0  # atno 17370 bound_to 10713
  157.6863  131.0823  150.7232 LP  0  0  0  0  0  0  0  0  0  0  0  0  # atno 17371 bound_to 10713
  140.9909  133.7209  156.0812 LP  0  0  0  0  0  0  0  0  0  0  0  0  # atno 17394 bound_to 11000
  140.7627  134.3921  157.5523 LP  0  0  0  0  0  0  0  0  0  0  0  0  # atno 17395 bound_to 11000

$$$$
