AV-unprocessed.smi:1032|AV-procd|sdf|4482|dock9
  -GOLD-   22720 2463D 1   1.00000     0.00000
 Structure written by MMmdl.
 46 47  0  0  0  0  0  0  0  0  2 V2000
  151.2462  141.7424  157.8041 C   0  0  0  0  0  0  0  0  0  0  0  0
  150.1599  141.8599  156.7256 C   0  0  2  0  0  0  0  0  0  0  0  0
  148.7578  141.6002  157.3018 C   0  0  0  0  0  0  0  0  0  0  0  0
  147.6781  141.6808  156.2094 C   0  0  0  0  0  0  0  0  0  0  0  0
  147.9669  140.7319  155.1014 N   0  3  1  0  0  0  0  0  0  0  0  0
  146.8861  140.6669  154.0841 C   0  0  0  0  0  0  0  0  0  0  0  0
  147.0816  139.5055  153.0880 C   0  0  2  0  0  0  0  0  0  0  0  0
  146.8090  140.0021  151.7923 O   0  0  0  0  0  0  0  0  0  0  0  0
  146.1046  138.3456  153.3719 C   0  0  0  0  0  0  0  0  0  0  0  0
  146.4293  137.1494  152.6001 N   0  0  0  0  0  0  0  0  0  0  0  0
  145.5462  136.2107  152.2283 C   0  0  0  0  0  0  0  0  0  0  0  0
  144.3534  136.2515  152.5300 O   0  0  0  0  0  0  0  0  0  0  0  0
  146.1412  135.2370  151.5171 N   0  0  0  0  0  0  0  0  0  0  0  0
  145.5635  134.0751  150.9353 C   0  0  0  0  0  0  0  0  0  0  0  0
  146.4386  133.0593  150.4975 C   0  0  0  0  0  0  0  0  0  0  0  0
  145.8952  131.9031  149.9025 C   0  0  0  0  0  0  0  0  0  0  0  0
  144.5714  131.7157  149.7192 N   0  0  0  0  0  0  0  0  0  0  0  0
  143.7356  132.6941  150.1263 C   0  0  0  0  0  0  0  0  0  0  0  0
  144.1743  133.8884  150.7329 C   0  0  0  0  0  0  0  0  0  0  0  0
  149.2990  140.9928  154.4980 C   0  0  0  0  0  0  0  0  0  0  0  0
  150.4135  140.8963  155.5538 C   0  0  0  0  0  0  0  0  0  0  0  0
  151.2769  140.7390  158.2300 H   0  0  0  0  0  0  0  0  0  0  0  0
  151.0668  142.4439  158.6196 H   0  0  0  0  0  0  0  0  0  0  0  0
  152.2328  141.9601  157.3942 H   0  0  0  0  0  0  0  0  0  0  0  0
  150.1852  142.8800  156.3391 H   0  0  0  0  0  0  0  0  0  0  0  0
  148.7264  140.6159  157.7713 H   0  0  0  0  0  0  0  0  0  0  0  0
  148.5377  142.3238  158.0874 H   0  0  0  0  0  0  0  0  0  0  0  0
  146.7091  141.4629  156.6566 H   0  0  0  0  0  0  0  0  0  0  0  0
  147.6196  142.6964  155.8150 H   0  0  0  0  0  0  0  0  0  0  0  0
  145.9246  140.5805  154.5924 H   0  0  0  0  0  0  0  0  0  0  0  0
  146.8466  141.6014  153.5217 H   0  0  0  0  0  0  0  0  0  0  0  0
  148.1092  139.1461  153.1236 H   0  0  0  0  0  0  0  0  0  0  0  0
  147.6156  140.0101  151.2989 H   0  0  0  0  0  0  0  0  0  0  0  0
  146.1331  138.0842  154.4312 H   0  0  0  0  0  0  0  0  0  0  0  0
  145.0755  138.6421  153.1646 H   0  0  0  0  0  0  0  0  0  0  0  0
  147.3913  137.0390  152.3139 H   0  0  0  0  0  0  0  0  0  0  0  0
  147.1425  135.3139  151.4151 H   0  0  0  0  0  0  0  0  0  0  0  0
  147.5079  133.1566  150.6167 H   0  0  0  0  0  0  0  0  0  0  0  0
  146.5429  131.1087  149.5622 H   0  0  0  0  0  0  0  0  0  0  0  0
  142.6825  132.5231  149.9577 H   0  0  0  0  0  0  0  0  0  0  0  0
  143.4435  134.6306  151.0132 H   0  0  0  0  0  0  0  0  0  0  0  0
  149.4953  140.2674  153.7075 H   0  0  0  0  0  0  0  0  0  0  0  0
  149.3034  141.9794  154.0317 H   0  0  0  0  0  0  0  0  0  0  0  0
  151.3766  141.1156  155.0914 H   0  0  0  0  0  0  0  0  0  0  0  0
  150.4751  139.8716  155.9235 H   0  0  0  0  0  0  0  0  0  0  0  0
  148.0207  139.8085  155.5079 H   0  0  0  0  0  0  0  0  0  0  0  0
  1  2  1  0  0  0  0
  1 22  1  0  0  0  0
  1 23  1  0  0  0  0
  1 24  1  0  0  0  0
  2 21  1  0  0  0  0
  2  3  1  0  0  0  0
  2 25  1  0  0  0  0
  3  4  1  0  0  0  0
  3 26  1  0  0  0  0
  3 27  1  0  0  0  0
  4  5  1  0  0  0  0
  4 28  1  0  0  0  0
  4 29  1  0  0  0  0
  5  6  1  0  0  0  0
  5 20  1  0  0  0  0
  5 46  1  0  0  0  0
  6  7  1  0  0  0  0
  6 30  1  0  0  0  0
  6 31  1  0  0  0  0
  7  8  1  0  0  0  0
  7  9  1  0  0  0  0
  7 32  1  0  0  0  0
  8 33  1  0  0  0  0
  9 10  1  0  0  0  0
  9 34  1  0  0  0  0
  9 35  1  0  0  0  0
 10 11  1  0  0  0  0
 10 36  1  0  0  0  0
 11 12  2  0  0  0  0
 11 13  1  0  0  0  0
 13 14  1  0  0  0  0
 13 37  1  0  0  0  0
 14 19  1  0  0  0  0
 14 15  2  0  0  0  0
 15 16  1  0  0  0  0
 15 38  1  0  0  0  0
 16 17  2  0  0  0  0
 16 39  1  0  0  0  0
 17 18  1  0  0  0  0
 18 19  2  0  0  0  0
 18 40  1  0  0  0  0
 19 41  1  0  0  0  0
 20 21  1  0  0  0  0
 20 42  1  0  0  0  0
 20 43  1  0  0  0  0
 21 44  1  0  0  0  0
 21 45  1  0  0  0  0
M  CHG  1   5   1
M  END
> <s_m_source_file>
AV-unprocessed.smi

> <i_m_source_file_index>
1032

> <i_lp_mmshare_version>
43012

> <i_f3d_flags>
0

> <s_epik_input>
W0NIM11bQ0hdMVtDSDJdW0NIMl1OKFtDSDJdW0NIMl0xKVtDSDJdW0NASF0oW09IXSlbQ0gyXVtOSF1DKD1PKVtOSF1jMltjSF1bY0hdbltjSF1bY0hdMg==

> <s_epik_cmdline>
J2VwaWtfcHl0aG9uJywgJy1waCcsICc3LjAnLCAnLXRuJywgJzgnLCAnLW1hJywgJzIwMCcsICctbWV0YWxfYmluZGluZycsICctaW1hZScsICc8aW5maWxlLm1hZT4nLCAnLW9tYWUnLCAnPG91dGZpbGUubWFlPic=

> <r_epik_Ionization_Penalty>
0.11743

> <r_epik_Ionization_Penalty_Charging>
0.00147689

> <r_epik_Ionization_Penalty_Neutral>
0.115954

> <r_epik_State_Penalty>
0.105552

> <r_epik_Charging_Adjusted_Penalty>
0.107029

> <i_epik_Tot_Q>
1

> <i_epik_Tot_abs_Q>
1

> <r_epik_Metal_State_Penalty>
0.0881315

> <b_epik_Metal_Only>
0

> <s_lp_Force_Field>
OPLS_2005

> <r_lp_Energy>
24.9442

> <b_lp_Chiralities_Consistent>
1

> <s_lp_Variant>
AV-unprocessed.smi:1032-1

> <Gold.Version>
5.8.1

> <Gold.Id.Protein>
6NUR|6NUR_protein|mol2

> <Gold.PLP.Fitness>
51.6423

> <Gold.PLP.PLP>
-38.4066

> <Gold.PLP.part.hbond>
-4.2131

> <Gold.PLP.part.metal>
0.0000

> <Gold.PLP.part.buried>
-5.4123

> <Gold.PLP.part.nonpolar>
-30.1705

> <Gold.PLP.part.repulsive>
0.4280

> <Gold.PLP.ligand.clash>
0.0000

> <Gold.PLP.ligand.torsion>
0.9573

> <Gold.PLP.Chemscore.Hbond>
3.1716

> <Gold.PLP.Chemscore.CHOScore>
1.8684

> <Gold.PLP.Chemscore.Metal>
0.0000

> <Gold.Chemscore.Hbonds>
donor molecule, donor type, donor heavy atom, donor atom, acceptor molecule, acceptor atom, score
      L1  H     8    33       P1  7957  1.00
      L1  H    10    36       P1  7948  1.00
      L1  H    13    37       P1  7948  1.00
      P1  H 10785 10796       L1    17  0.16
      L1  C    16    39       P1 10747  0.90
      L1  C    18    40       P1 10186  0.81
      L1  C    18    40       P1 10952  0.12

> <Gold.PLP.Chemscore.Internal.Correction>
0.0302

> <Gold.Rescore>
     Score         DG    S(hbond)    S(metal)    S(lipo)     H(rot)  DE(clash)    DE(int)     intcor
     18.26     -20.43       2.98        0.00      92.84       2.29       0.09       2.08       ----

> <Gold.Chemscore.Fitness>
18.2626

> <Gold.Chemscore.DG>
-20.4280

> <Gold.Chemscore.ZeroCoef>
-5.4800

> <Gold.Chemscore.Hbond>
2.9758

> <Gold.Chemscore.Metal>
0.0000

> <Gold.Chemscore.Lipo>
92.8413

> <Gold.Chemscore.Internal_Hbond>
0.0000

> <Gold.Chemscore.DEClash>
0.0897

> <Gold.Chemscore.DEInternal>
2.0758

> <Gold.Chemscore.Rot>
2.2865

> <Gold.Chemscore.Internal.Correction>
   9.000000E+99

> <Gold.Chemscore.Hbonds>
donor molecule, donor type, donor heavy atom, donor atom, acceptor molecule, acceptor atom, score
      L1  H     8    33       P1  7957  0.96
      L1  H    10    36       P1  7948  1.00
      L1  H    13    37       P1  7948  0.82
      P1  H 10785 10796       L1    17  0.09

> <Gold.Chemscore.Hbond.Weighted>
-9.9392

> <Gold.Chemscore.Metal.Weighted>
-0.0000

> <Gold.Chemscore.Lipo.Weighted>
-10.8624

> <Gold.Chemscore.Internal_Hbond.Weighted>
0.0000

> <Gold.Chemscore.DEClash.Weighted>
0.0897

> <Gold.Chemscore.DEInternal.Weighted>
2.0758

> <Gold.Chemscore.Rot.Weighted>
5.8536

> <Gold.Chemscore.Internal.Correction.Weighted>
   9.000000E+99

> <Gold.Protein.RotatedTorsions>
[ 6907 6896 6895 6894 ] final   16.82 input  -60.11 | X-H torsion
[ 7974 7965 7964 7962 ] final  111.30 input  175.53 | X-H torsion
[ 8008 7997 7996 7995 ] final  157.80 input   59.86 | X-H torsion
[ 10167 10162 10161 10158 ] final  139.01 input  -65.29 | X-H torsion
[ 10718 10713 10712 10709 ] final  167.34 input   66.30 | X-H torsion
[ 10763 10752 10751 10750 ] final  -67.91 input  -60.55 | X-H torsion
[ 11005 11000 10999 10996 ] final   88.00 input  -57.11 | X-H torsion

> <Gold.Protein.ActiveResidues>
 VAL166  LYS551  ARG553  GLY616  TRP617  ASP618  TYR619  PRO620  LYS621  CYS622 
 ASP623  PHE694  ASN695  SER759  ASP760  ASP761  ALA762  ILE779  LEU786  VAL792 
 PHE793  MET794  SER795  GLU796  ALA797  LYS798  CYS799  TRP800  GLU811  SER814 

> <Gold.Protein.RotatedAtoms>
  151.8399  135.0594  160.0446 H   0  0  0  0  0  0  0  0  0  0  0  0  # atno 6907 bound_to 6896
  152.2817  133.5472  159.5510 H   0  0  0  0  0  0  0  0  0  0  0  0  # atno 6908 bound_to 6896
  150.7192  134.0471  159.3827 H   0  0  0  0  0  0  0  0  0  0  0  0  # atno 6909 bound_to 6896
  145.2439  139.2767  143.4103 H   0  0  0  0  0  0  0  0  0  0  0  0  # atno 7974 bound_to 7965
  156.2342  140.1875  156.7163 H   0  0  0  0  0  0  0  0  0  0  0  0  # atno 8008 bound_to 7997
  154.6076  140.0626  156.9479 H   0  0  0  0  0  0  0  0  0  0  0  0  # atno 8009 bound_to 7997
  155.2069  140.3297  155.4337 H   0  0  0  0  0  0  0  0  0  0  0  0  # atno 8010 bound_to 7997
  139.5092  144.6320  151.5794 H   0  0  0  0  0  0  0  0  0  0  0  0  # atno 10167 bound_to 10162
  157.0530  131.0318  151.2674 H   0  0  0  0  0  0  0  0  0  0  0  0  # atno 10718 bound_to 10713
  154.3814  135.6073  153.5793 H   0  0  0  0  0  0  0  0  0  0  0  0  # atno 10763 bound_to 10752
  152.9788  135.5861  154.4406 H   0  0  0  0  0  0  0  0  0  0  0  0  # atno 10764 bound_to 10752
  154.4175  135.2845  155.1974 H   0  0  0  0  0  0  0  0  0  0  0  0  # atno 10765 bound_to 10752
  139.8906  134.8459  156.2939 H   0  0  0  0  0  0  0  0  0  0  0  0  # atno 11005 bound_to 11000
  146.3321  140.2811  142.8610 LP  0  0  0  0  0  0  0  0  0  0  0  0  # atno 17320 bound_to 7965
  144.9564  140.8230  143.5540 LP  0  0  0  0  0  0  0  0  0  0  0  0  # atno 17321 bound_to 7965
  140.6056  143.9531  150.6416 LP  0  0  0  0  0  0  0  0  0  0  0  0  # atno 17342 bound_to 10162
  140.2757  143.3425  152.1197 LP  0  0  0  0  0  0  0  0  0  0  0  0  # atno 17343 bound_to 10162
  157.5015  130.7883  149.7610 LP  0  0  0  0  0  0  0  0  0  0  0  0  # atno 17370 bound_to 10713
  156.0002  130.3885  150.2637 LP  0  0  0  0  0  0  0  0  0  0  0  0  # atno 17371 bound_to 10713
  140.9958  133.7181  156.0883 LP  0  0  0  0  0  0  0  0  0  0  0  0  # atno 17394 bound_to 11000
  140.7564  134.3987  157.5533 LP  0  0  0  0  0  0  0  0  0  0  0  0  # atno 17395 bound_to 11000

$$$$
