AV-unprocessed.smi:754|AV-procd|sdf|3609|dock6
  -GOLD-   22720 1 03D 1   1.00000     0.00000
 Structure written by MMmdl.
 37 38  0  0  0  0  0  0  0  0  1 V2000
  151.8935  145.1674  160.3644 C   0  0  0  0  0  0  0  0  0  0  0  0
  152.4923  144.9087  158.9804 C   0  0  0  0  0  0  0  0  0  0  0  0
  153.0308  143.5977  158.9526 O   0  0  0  0  0  0  0  0  0  0  0  0
  152.0485  142.5928  159.1486 C   0  0  2  0  0  0  0  0  0  0  0  0
  152.4266  141.2157  158.5945 C   0  0  0  0  0  0  0  0  0  0  0  0
  150.9606  141.1033  158.1739 C   0  0  2  0  0  0  0  0  0  0  0  0
  150.7961  140.4450  156.8841 N   0  0  0  0  0  0  0  0  0  0  0  0
  149.7324  140.6039  156.0826 C   0  0  0  0  0  0  0  0  0  0  0  0
  148.7326  141.2464  156.4014 O   0  0  0  0  0  0  0  0  0  0  0  0
  149.8231  139.9639  154.6976 C   0  0  0  0  0  0  0  0  0  0  0  0
  150.8367  138.9252  154.6794 N   0  0  0  0  0  0  0  0  0  0  0  0
  150.7597  137.6298  154.3670 C   0  0  0  0  0  0  0  0  0  0  0  0
  151.9264  137.0211  154.5133 N   0  0  0  0  0  0  0  0  0  0  0  0
  152.7601  138.0392  154.9453 N   0  0  0  0  0  0  0  0  0  0  0  0
  152.1193  139.1712  155.0459 N   0  0  0  0  0  0  0  0  0  0  0  0
  150.8991  142.6540  158.1128 C   0  0  0  0  0  0  0  0  0  0  0  0
  149.5989  143.2886  158.6053 C   0  0  0  0  0  0  0  0  0  0  0  0
  151.2377  143.3186  156.7655 C   0  0  0  0  0  0  0  0  0  0  0  0
  151.4706  146.1702  160.4248 H   0  0  0  0  0  0  0  0  0  0  0  0
  152.6524  145.0763  161.1418 H   0  0  0  0  0  0  0  0  0  0  0  0
  151.0987  144.4547  160.5860 H   0  0  0  0  0  0  0  0  0  0  0  0
  151.7220  145.0203  158.2163 H   0  0  0  0  0  0  0  0  0  0  0  0
  153.2741  145.6399  158.7709 H   0  0  0  0  0  0  0  0  0  0  0  0
  151.6775  142.5475  160.1754 H   0  0  0  0  0  0  0  0  0  0  0  0
  153.1277  141.2652  157.7593 H   0  0  0  0  0  0  0  0  0  0  0  0
  152.7432  140.4937  159.3476 H   0  0  0  0  0  0  0  0  0  0  0  0
  150.3437  140.6839  158.9725 H   0  0  0  0  0  0  0  0  0  0  0  0
  151.5718  139.8920  156.5496 H   0  0  0  0  0  0  0  0  0  0  0  0
  148.8616  139.5283  154.4226 H   0  0  0  0  0  0  0  0  0  0  0  0
  150.0664  140.7167  153.9463 H   0  0  0  0  0  0  0  0  0  0  0  0
  149.8551  137.1353  154.0452 H   0  0  0  0  0  0  0  0  0  0  0  0
  148.7839  143.1305  157.8983 H   0  0  0  0  0  0  0  0  0  0  0  0
  149.7085  144.3639  158.7488 H   0  0  0  0  0  0  0  0  0  0  0  0
  149.2831  142.8659  159.5595 H   0  0  0  0  0  0  0  0  0  0  0  0
  150.4401  143.1777  156.0349 H   0  0  0  0  0  0  0  0  0  0  0  0
  152.1499  142.9158  156.3252 H   0  0  0  0  0  0  0  0  0  0  0  0
  151.3866  144.3927  156.8784 H   0  0  0  0  0  0  0  0  0  0  0  0
  1  2  1  0  0  0  0
  1 19  1  0  0  0  0
  1 20  1  0  0  0  0
  1 21  1  0  0  0  0
  2  3  1  0  0  0  0
  2 22  1  0  0  0  0
  2 23  1  0  0  0  0
  3  4  1  0  0  0  0
  4 16  1  0  0  0  0
  4  5  1  0  0  0  0
  4 24  1  0  0  0  0
  5  6  1  0  0  0  0
  5 25  1  0  0  0  0
  5 26  1  0  0  0  0
  6  7  1  0  0  0  0
  6 16  1  0  0  0  0
  6 27  1  0  0  0  0
  7  8  1  0  0  0  0
  7 28  1  0  0  0  0
  8  9  2  0  0  0  0
  8 10  1  0  0  0  0
 10 11  1  0  0  0  0
 10 29  1  0  0  0  0
 10 30  1  0  0  0  0
 11 15  1  0  0  0  0
 11 12  1  0  0  0  0
 12 13  2  0  0  0  0
 12 31  1  0  0  0  0
 13 14  1  0  0  0  0
 14 15  2  0  0  0  0
 16 17  1  0  0  0  0
 16 18  1  0  0  0  0
 17 32  1  0  0  0  0
 17 33  1  0  0  0  0
 17 34  1  0  0  0  0
 18 35  1  0  0  0  0
 18 36  1  0  0  0  0
 18 37  1  0  0  0  0
M  END
> <s_m_source_file>
AV-unprocessed.smi

> <i_m_source_file_index>
754

> <i_lp_mmshare_version>
43012

> <i_f3d_flags>
0

> <s_epik_input>
W0NIM11bQ0gyXU9bQ0BASF0oQzEoW0NIM10pW0NIM10pW0NIMl1bQ0BIXTFbTkhdQyg9TylbQ0gyXW4yW2NIXW5ubjI=

> <s_epik_cmdline>
J2VwaWtfcHl0aG9uJywgJy1waCcsICc3LjAnLCAnLXRuJywgJzgnLCAnLW1hJywgJzIwMCcsICctbWV0YWxfYmluZGluZycsICctaW1hZScsICc8aW5maWxlLm1hZT4nLCAnLW9tYWUnLCAnPG91dGZpbGUubWFlPic=

> <r_lp_tautomer_probability>
1

> <r_epik_Ionization_Penalty>
8.28422e-07

> <r_epik_Ionization_Penalty_Charging>
0

> <r_epik_Ionization_Penalty_Neutral>
8.28422e-07

> <r_epik_State_Penalty>
-0

> <r_epik_Charging_Adjusted_Penalty>
0

> <i_epik_Tot_Q>
0

> <i_epik_Tot_abs_Q>
0

> <r_epik_Metal_State_Penalty>
-0

> <b_epik_Metal_Only>
0

> <s_lp_Force_Field>
OPLS_2005

> <r_lp_Energy>
20.4803

> <b_lp_Chiralities_Consistent>
1

> <s_lp_Variant>
AV-unprocessed.smi:754-3

> <Gold.Version>
5.8.1

> <Gold.Id.Protein>
6NUR|6NUR_protein|mol2

> <Gold.PLP.Fitness>
38.7059

> <Gold.PLP.PLP>
-33.6592

> <Gold.PLP.part.hbond>
-2.2980

> <Gold.PLP.part.metal>
0.0000

> <Gold.PLP.part.buried>
-5.3227

> <Gold.PLP.part.nonpolar>
-26.5739

> <Gold.PLP.part.repulsive>
0.3208

> <Gold.PLP.ligand.clash>
0.0000

> <Gold.PLP.ligand.torsion>
0.5766

> <Gold.PLP.Chemscore.Hbond>
0.9600

> <Gold.PLP.Chemscore.CHOScore>
0.9980

> <Gold.PLP.Chemscore.Metal>
0.0000

> <Gold.Chemscore.Hbonds>
donor molecule, donor type, donor heavy atom, donor atom, acceptor molecule, acceptor atom, score
      P1  H 10752 10764       L1    13  1.00
      L1  C    12    31       P1  7948  1.00

> <Gold.PLP.Chemscore.Internal.Correction>
0.3257

> <Gold.Rescore>
     Score         DG    S(hbond)    S(metal)    S(lipo)     H(rot)  DE(clash)    DE(int)     intcor
      7.60     -11.27       0.78        0.00      81.03       2.46       0.32       3.36       ----

> <Gold.Chemscore.Fitness>
7.5987

> <Gold.Chemscore.DG>
-11.2719

> <Gold.Chemscore.ZeroCoef>
-5.4800

> <Gold.Chemscore.Hbond>
0.7823

> <Gold.Chemscore.Metal>
0.0000

> <Gold.Chemscore.Lipo>
81.0317

> <Gold.Chemscore.Internal_Hbond>
0.0000

> <Gold.Chemscore.DEClash>
0.3161

> <Gold.Chemscore.DEInternal>
3.3571

> <Gold.Chemscore.Rot>
2.4616

> <Gold.Chemscore.Internal.Correction>
   9.000000E+99

> <Gold.Chemscore.Hbonds>
donor molecule, donor type, donor heavy atom, donor atom, acceptor molecule, acceptor atom, score
      P1  H 10752 10764       L1    13  0.48

> <Gold.Chemscore.Hbond.Weighted>
-2.6128

> <Gold.Chemscore.Metal.Weighted>
-0.0000

> <Gold.Chemscore.Lipo.Weighted>
-9.4807

> <Gold.Chemscore.Internal_Hbond.Weighted>
0.0000

> <Gold.Chemscore.DEClash.Weighted>
0.3161

> <Gold.Chemscore.DEInternal.Weighted>
3.3571

> <Gold.Chemscore.Rot.Weighted>
6.3016

> <Gold.Chemscore.Internal.Correction.Weighted>
   9.000000E+99

> <Gold.Protein.RotatedTorsions>
[ 6907 6896 6895 6894 ] final -167.89 input  -60.11 | X-H torsion
[ 7974 7965 7964 7962 ] final  -25.39 input  175.53 | X-H torsion
[ 8008 7997 7996 7995 ] final   93.96 input   59.86 | X-H torsion
[ 10167 10162 10161 10158 ] final -119.28 input  -65.29 | X-H torsion
[ 10718 10713 10712 10709 ] final  -72.46 input   66.30 | X-H torsion
[ 10763 10752 10751 10750 ] final  -73.50 input  -60.55 | X-H torsion
[ 11005 11000 10999 10996 ] final   17.70 input  -57.11 | X-H torsion

> <Gold.Protein.ActiveResidues>
 VAL166  LYS551  ARG553  GLY616  TRP617  ASP618  TYR619  PRO620  LYS621  CYS622 
 ASP623  PHE694  ASN695  SER759  ASP760  ASP761  ALA762  ILE779  LEU786  VAL792 
 PHE793  MET794  SER795  GLU796  ALA797  LYS798  CYS799  TRP800  GLU811  SER814 

> <Gold.Protein.RotatedAtoms>
  151.4667  133.3579  159.2817 H   0  0  0  0  0  0  0  0  0  0  0  0  # atno 6907 bound_to 6896
  150.8988  134.8401  159.7356 H   0  0  0  0  0  0  0  0  0  0  0  0  # atno 6908 bound_to 6896
  152.4867  134.4585  159.9649 H   0  0  0  0  0  0  0  0  0  0  0  0  # atno 6909 bound_to 6896
  146.1494  140.4879  142.8618 H   0  0  0  0  0  0  0  0  0  0  0  0  # atno 7974 bound_to 7965
  156.0526  140.3306  155.7369 H   0  0  0  0  0  0  0  0  0  0  0  0  # atno 8008 bound_to 7997
  155.5577  140.0616  157.2853 H   0  0  0  0  0  0  0  0  0  0  0  0  # atno 8009 bound_to 7997
  154.4443  140.1883  156.0739 H   0  0  0  0  0  0  0  0  0  0  0  0  # atno 8010 bound_to 7997
  140.0484  143.5084  152.2095 H   0  0  0  0  0  0  0  0  0  0  0  0  # atno 10167 bound_to 10162
  156.0319  130.4373  150.2596 H   0  0  0  0  0  0  0  0  0  0  0  0  # atno 10718 bound_to 10713
  154.4603  135.5895  153.6251 H   0  0  0  0  0  0  0  0  0  0  0  0  # atno 10763 bound_to 10752
  152.9822  135.6042  154.3495 H   0  0  0  0  0  0  0  0  0  0  0  0  # atno 10764 bound_to 10752
  154.3366  135.2842  155.2423 H   0  0  0  0  0  0  0  0  0  0  0  0  # atno 10765 bound_to 10752
  140.4331  134.1399  155.7682 H   0  0  0  0  0  0  0  0  0  0  0  0  # atno 11005 bound_to 11000
  144.7886  140.5986  143.6557 LP  0  0  0  0  0  0  0  0  0  0  0  0  # atno 17320 bound_to 7965
  145.4859  139.1492  143.3736 LP  0  0  0  0  0  0  0  0  0  0  0  0  # atno 17321 bound_to 7965
  139.5969  144.7570  151.3265 LP  0  0  0  0  0  0  0  0  0  0  0  0  # atno 17342 bound_to 10162
  140.7228  143.7088  150.7786 LP  0  0  0  0  0  0  0  0  0  0  0  0  # atno 17343 bound_to 10162
  157.0698  131.0113  151.3194 LP  0  0  0  0  0  0  0  0  0  0  0  0  # atno 17370 bound_to 10713
  157.5008  130.7879  149.7603 LP  0  0  0  0  0  0  0  0  0  0  0  0  # atno 17371 bound_to 10713
  141.1737  133.8557  157.1489 LP  0  0  0  0  0  0  0  0  0  0  0  0  # atno 17394 bound_to 11000
  140.0121  134.9983  157.0416 LP  0  0  0  0  0  0  0  0  0  0  0  0  # atno 17395 bound_to 11000

$$$$
