#       Name:                AV-unprocessed.smi:1986
#       Creating user name   scv26
#       Creation time:       Fri Mar 27 10:24:44 2020


#       File generated by GOLD software.
#

@<TRIPOS>MOLECULE
AV-unprocessed.smi:1986
    56    57     1
SMALL
NO_CHARGES


@<TRIPOS>ATOM
      1 ****        -1.3366  -2.3966  -0.8857 C.3            1 S1                 0.0000
      2 ****        -1.9672  -0.9964  -0.7915 C.3            1 S1                 0.0000
      3 ****        -1.6387  -0.2011   0.5142 C.3            1 S1                 0.0000
      4 ****        -2.3511   1.1721   0.3925 C.3            1 S1                 0.0000
      5 ****        -0.0989   0.0665   0.5559 C.3            1 S1                 0.0000
      6 ****         0.4337   0.6517  -0.6715 N.am           1 S1                 0.0000
      7 ****         1.7211   0.9664  -0.8706 C.2            1 S1                 0.0000
      8 ****         2.5921   0.7996  -0.0151 O.2            1 S1                 0.0000
      9 ****         2.0529   1.5701  -2.2447 C.3            1 S1                 0.0000
     10 ****         3.4914   1.6443  -2.5404 N.am           1 S1                 0.0000
     11 ****         4.0474   2.9908  -2.4342 N.pl3          1 S1                -1.0000
     12 ****         5.3718   3.1814  -2.6748 C.2            1 S1                 0.0000
     13 ****         5.9127   4.2816  -2.5903 O.2            1 S1                 0.0000
     14 ****         6.1719   2.0278  -3.0516 C.2            1 S1                 0.0000
     15 ****         5.6273   0.8003  -3.1646 C.2            1 S1                 0.0000
     16 ****         4.2133   0.5489  -2.9135 C.2            1 S1                 0.0000
     17 ****         3.7063  -0.5674  -3.0272 O.2            1 S1                 0.0000
     18 ****        -2.0731  -0.9555   1.7291 N.3            1 S1                 0.0000
     19 ****        -1.7246  -0.3288   3.0118 C.3            1 S1                 0.0000
     20 ****        -2.0936  -1.2136   4.2149 C.3            1 S1                 0.0000
     21 ****        -3.4797  -1.5263   4.1748 O.3            1 S1                 0.0000
     22 ****        -3.8442  -2.2004   2.9776 C.3            1 S1                 0.0000
     23 ****        -3.4956  -1.3236   1.7631 C.3            1 S1                 0.0000
     24 ****        -1.6505  -2.8953  -1.8027 H              1 S1                 0.0000
     25 ****        -1.6349  -3.0302  -0.0505 H              1 S1                 0.0000
     26 ****        -0.2480  -2.3491  -0.9005 H              1 S1                 0.0000
     27 ****        -1.6588  -0.4298  -1.6704 H              1 S1                 0.0000
     28 ****        -3.0446  -1.0878  -0.9227 H              1 S1                 0.0000
     29 ****        -2.0438   1.7054  -0.5075 H              1 S1                 0.0000
     30 ****        -2.1272   1.8269   1.2343 H              1 S1                 0.0000
     31 ****        -3.4342   1.0708   0.3314 H              1 S1                 0.0000
     32 ****         0.1491   0.7630   1.3574 H              1 S1                 0.0000
     33 ****         0.4415  -0.8569   0.7703 H              1 S1                 0.0000
     34 ****        -0.2206   0.8218  -1.4213 H              1 S1                 0.0000
     35 ****         1.5544   0.9857  -3.0202 H              1 S1                 0.0000
     36 ****         1.6026   2.5632  -2.2931 H              1 S1                 0.0000
     37 ****         7.2260   2.1585  -3.2474 H              1 S1                 0.0000
     38 ****         6.2596  -0.0277  -3.4490 H              1 S1                 0.0000
     39 ****        -0.6563  -0.1335   3.0759 H              1 S1                 0.0000
     40 ****        -2.2313   0.6310   3.1131 H              1 S1                 0.0000
     41 ****        -1.5049  -2.1325   4.2134 H              1 S1                 0.0000
     42 ****        -1.8732  -0.6947   5.1478 H              1 S1                 0.0000
     43 ****        -3.3320  -3.1622   2.9203 H              1 S1                 0.0000
     44 ****        -4.9142  -2.4081   2.9987 H              1 S1                 0.0000
     45 ****        -4.1174  -0.4288   1.7910 H              1 S1                 0.0000
     46 ****        -3.7790  -1.8802   0.8727 H              1 S1                 0.0000
     47 ****         2.3510   0.4135   0.8753 LP             1 S1                 0.0000
     48 ****         3.5401   1.0503  -0.2112 LP             1 S1                 0.0000
     49 ****         3.4613   3.7626  -2.1876 LP             1 S1                 0.0000
     50 ****         5.3747   5.0850  -2.3351 LP             1 S1                 0.0000
     51 ****         6.8908   4.3735  -2.7767 LP             1 S1                 0.0000
     52 ****         2.7316  -0.6950  -2.8436 LP             1 S1                 0.0000
     53 ****         4.2692  -1.3465  -3.3032 LP             1 S1                 0.0000
     54 ****        -1.5331  -1.7910   1.6271 LP             1 S1                 0.0000
     55 ****        -4.0034  -0.6768   4.2381 LP             1 S1                 0.0000
     56 ****        -3.7002  -2.1126   4.9543 LP             1 S1                 0.0000
@<TRIPOS>BOND
    1    1    2 1     
    2    1   24 1     
    3    1   25 1     
    4    1   26 1     
    5    2    3 1     
    6    2   27 1     
    7    2   28 1     
    8    3    4 1     
    9    3    5 1     
   10    3   18 1     
   11    4   29 1     
   12    4   30 1     
   13    4   31 1     
   14    5    6 1     
   15    5   32 1     
   16    5   33 1     
   17    6    7 am    
   18    6   34 1     
   19    7    8 2     
   20    7    9 1     
   21    9   35 1     
   22    9   36 1     
   23    9   10 1     
   24   10   11 1     
   25   10   16 am    
   26   11   12 1     
   27   12   13 2     
   28   12   14 1     
   29   14   37 1     
   30   14   15 2     
   31   15   38 1     
   32   15   16 1     
   33   16   17 2     
   34   18   23 1     
   35   18   19 1     
   36   19   20 1     
   37   19   39 1     
   38   19   40 1     
   39   20   21 1     
   40   20   41 1     
   41   20   42 1     
   42   21   22 1     
   43   22   23 1     
   44   22   43 1     
   45   22   44 1     
   46   23   45 1     
   47   23   46 1     
   48    8   47 1     
   49    8   48 1     
   50   11   49 1     
   51   13   50 1     
   52   13   51 1     
   53   17   52 1     
   54   17   53 1     
   55   18   54 1     
   56   21   55 1     
   57   21   56 1     
@<TRIPOS>SUBSTRUCTURE
      1 S1             1
@<TRIPOS>SET
LONE_PAIRS      STATIC     ATOMS    <user>   **** ""
10 47 48 49 50 51 52 53 54 55 56
DONOR_HYDROGENS      STATIC     ATOMS    <user>   **** ""
1 34
ATOM$BLUE        STATIC     ATOMS    COLORGROUP SYSTEM
10 47 48 49 50 51 52 53 54 55 56
ATOM$RED        STATIC     ATOMS    COLORGROUP SYSTEM
1 34
