AV-unprocessed.smi:2867|AV-procd|sdf|11024|dock5
  -GOLD-   2272015483D 1   1.00000     0.00000
 Structure written by MMmdl.
 41 43  0  0  0  0  0  0  0  0  2 V2000
  153.8977  137.6175  158.4620 C   0  0  0  0  0  0  0  0  0  0  0  0
  153.9377  138.2940  157.2184 O   0  0  0  0  0  0  0  0  0  0  0  0
  152.6479  138.4925  156.6620 C   0  0  0  0  0  0  0  0  0  0  0  0
  151.7732  139.2583  157.6639 C   0  0  0  0  0  0  0  0  0  0  0  0
  150.8634  140.2010  156.9937 N   0  0  0  0  0  0  0  0  0  0  0  0
  150.7185  141.5515  157.1117 C   0  0  0  0  0  0  0  0  0  0  0  0
  151.4753  142.4431  158.0036 C   0  0  0  0  0  0  0  0  0  0  0  0
  151.5907  143.8177  157.7029 C   0  0  0  0  0  0  0  0  0  0  0  0
  152.3147  144.6813  158.5479 C   0  0  0  0  0  0  0  0  0  0  0  0
  152.9282  144.1774  159.7097 C   0  0  0  0  0  0  0  0  0  0  0  0
  152.8143  142.8106  160.0241 C   0  0  0  0  0  0  0  0  0  0  0  0
  153.3996  142.3217  161.1429 F   0  0  0  0  0  0  0  0  0  0  0  0
  152.0899  141.9511  159.1758 C   0  0  0  0  0  0  0  0  0  0  0  0
  149.7696  141.9652  156.2296 N   0  3  0  0  0  0  0  0  0  0  0  0
  149.2866  140.8565  155.5319 C   0  0  0  0  0  0  0  0  0  0  0  0
  148.3181  140.7624  154.5376 C   0  0  0  0  0  0  0  0  0  0  0  0
  148.0694  139.4714  154.0254 C   0  0  0  0  0  0  0  0  0  0  0  0
  146.8311  139.2645  152.7508 S   0  0  0  0  0  0  0  0  0  0  0  0
  147.6969  138.3912  151.5480 N   0  0  0  0  0  0  0  0  0  0  0  0
  145.7725  138.3822  153.2648 O   0  0  0  0  0  0  0  0  0  0  0  0
  146.5043  140.5853  152.1917 O   0  0  0  0  0  0  0  0  0  0  0  0
  148.7667  138.3376  154.4930 C   0  0  0  0  0  0  0  0  0  0  0  0
  149.7466  138.4481  155.5015 C   0  0  0  0  0  0  0  0  0  0  0  0
  149.9863  139.7246  156.0113 C   0  0  0  0  0  0  0  0  0  0  0  0
  154.9105  137.5040  158.8488 H   0  0  0  0  0  0  0  0  0  0  0  0
  153.4642  136.6224  158.3550 H   0  0  0  0  0  0  0  0  0  0  0  0
  153.3172  138.1761  159.1972 H   0  0  0  0  0  0  0  0  0  0  0  0
  152.7257  139.0526  155.7288 H   0  0  0  0  0  0  0  0  0  0  0  0
  152.1883  137.5310  156.4291 H   0  0  0  0  0  0  0  0  0  0  0  0
  151.1900  138.5741  158.2801 H   0  0  0  0  0  0  0  0  0  0  0  0
  152.4041  139.8200  158.3505 H   0  0  0  0  0  0  0  0  0  0  0  0
  151.1275  144.2156  156.8117 H   0  0  0  0  0  0  0  0  0  0  0  0
  152.3999  145.7300  158.3038 H   0  0  0  0  0  0  0  0  0  0  0  0
  153.4838  144.8380  160.3588 H   0  0  0  0  0  0  0  0  0  0  0  0
  152.0043  140.9052  159.4317 H   0  0  0  0  0  0  0  0  0  0  0  0
  147.7849  141.6290  154.1750 H   0  0  0  0  0  0  0  0  0  0  0  0
  148.0317  137.4887  151.8845 H   0  0  0  0  0  0  0  0  0  0  0  0
  148.4206  138.9536  151.1011 H   0  0  0  0  0  0  0  0  0  0  0  0
  148.5505  137.3652  154.0744 H   0  0  0  0  0  0  0  0  0  0  0  0
  150.2779  137.5760  155.8528 H   0  0  0  0  0  0  0  0  0  0  0  0
  149.4781  142.9276  156.1172 H   0  0  0  0  0  0  0  0  0  0  0  0
  1  2  1  0  0  0  0
  1 25  1  0  0  0  0
  1 26  1  0  0  0  0
  1 27  1  0  0  0  0
  2  3  1  0  0  0  0
  3  4  1  0  0  0  0
  3 28  1  0  0  0  0
  3 29  1  0  0  0  0
  4  5  1  0  0  0  0
  4 30  1  0  0  0  0
  4 31  1  0  0  0  0
  5 24  1  0  0  0  0
  5  6  1  0  0  0  0
  6  7  1  0  0  0  0
  6 14  2  0  0  0  0
  7 13  1  0  0  0  0
  7  8  2  0  0  0  0
  8  9  1  0  0  0  0
  8 32  1  0  0  0  0
  9 10  2  0  0  0  0
  9 33  1  0  0  0  0
 10 11  1  0  0  0  0
 10 34  1  0  0  0  0
 11 12  1  0  0  0  0
 11 13  2  0  0  0  0
 13 35  1  0  0  0  0
 14 15  1  0  0  0  0
 14 41  1  0  0  0  0
 15 24  2  0  0  0  0
 15 16  1  0  0  0  0
 16 17  2  0  0  0  0
 16 36  1  0  0  0  0
 17 18  1  0  0  0  0
 17 22  1  0  0  0  0
 18 19  1  0  0  0  0
 18 20  2  0  0  0  0
 18 21  2  0  0  0  0
 19 37  1  0  0  0  0
 19 38  1  0  0  0  0
 22 23  2  0  0  0  0
 22 39  1  0  0  0  0
 23 24  1  0  0  0  0
 23 40  1  0  0  0  0
M  CHG  1  14   1
M  END
> <s_m_source_file>
AV-unprocessed.smi

> <i_m_source_file_index>
2867

> <i_lp_mmshare_version>
43012

> <i_f3d_flags>
0

> <s_epik_input>
W05IMl1TKD1PKSg9TyljKFtjSF0xKVtjSF1bY0hdYyhjMTIpbihbQ0gyXVtDSDJdT1tDSDNdKWMobjIpLWMzW2NIXVtjSF1bY0hdYyhGKVtjSF0z

> <s_epik_cmdline>
J2VwaWtfcHl0aG9uJywgJy1waCcsICc3LjAnLCAnLXRuJywgJzgnLCAnLW1hJywgJzIwMCcsICctbWV0YWxfYmluZGluZycsICctaW1hZScsICc8aW5maWxlLm1hZT4nLCAnLW9tYWUnLCAnPG91dGZpbGUubWFlPic=

> <r_epik_Ionization_Penalty>
1.25825

> <r_epik_Ionization_Penalty_Charging>
1.24336

> <r_epik_Ionization_Penalty_Neutral>
0.014884

> <r_epik_State_Penalty>
1.4115

> <r_epik_Charging_Adjusted_Penalty>
2.65486

> <i_epik_Tot_Q>
1

> <i_epik_Tot_abs_Q>
1

> <r_epik_Metal_State_Penalty>
3.65574

> <b_epik_Metal_Only>
0

> <s_lp_Force_Field>
OPLS_2005

> <r_lp_Energy>
21.7235

> <b_lp_Chiralities_Consistent>
1

> <s_lp_Variant>
AV-unprocessed.smi:2867-2

> <Gold.Version>
5.8.1

> <Gold.Id.Protein>
6NUR|6NUR_protein|mol2

> <Gold.PLP.Fitness>
52.9208

> <Gold.PLP.PLP>
-40.2053

> <Gold.PLP.part.hbond>
-4.7716

> <Gold.PLP.part.metal>
0.0000

> <Gold.PLP.part.buried>
-4.4681

> <Gold.PLP.part.nonpolar>
-34.7622

> <Gold.PLP.part.repulsive>
2.9983

> <Gold.PLP.ligand.clash>
0.0000

> <Gold.PLP.ligand.torsion>
1.5703

> <Gold.PLP.Chemscore.Hbond>
4.6180

> <Gold.PLP.Chemscore.CHOScore>
0.0000

> <Gold.PLP.Chemscore.Metal>
0.0000

> <Gold.Chemscore.Hbonds>
donor molecule, donor type, donor heavy atom, donor atom, acceptor molecule, acceptor atom, score
      L1  H    14    41       P1  8028  2.00
      L1  H    19    37       P1  7948  0.99
      L1  H    19    38       P1  7957  0.80
      P1  H  7997  8008       L1     2  0.75

> <Gold.PLP.Chemscore.Internal.Correction>
2.0022

> <Gold.Rescore>
     Score         DG    S(hbond)    S(metal)    S(lipo)     H(rot)  DE(clash)    DE(int)     intcor
     20.50     -23.66       2.67        0.00     111.41       1.47       1.47       1.69       ----

> <Gold.Chemscore.Fitness>
20.4963

> <Gold.Chemscore.DG>
-23.6562

> <Gold.Chemscore.ZeroCoef>
-5.4800

> <Gold.Chemscore.Hbond>
2.6690

> <Gold.Chemscore.Metal>
0.0000

> <Gold.Chemscore.Lipo>
111.4080

> <Gold.Chemscore.Internal_Hbond>
0.0000

> <Gold.Chemscore.DEClash>
1.4745

> <Gold.Chemscore.DEInternal>
1.6854

> <Gold.Chemscore.Rot>
1.4738

> <Gold.Chemscore.Internal.Correction>
   9.000000E+99

> <Gold.Chemscore.Hbonds>
donor molecule, donor type, donor heavy atom, donor atom, acceptor molecule, acceptor atom, score
      L1  H    14    41       P1  8028  0.99
      L1  H    19    37       P1  7948  0.90
      L1  H    19    38       P1  7957  0.11
      P1  H  7997  8008       L1     2  0.19

> <Gold.Chemscore.Hbond.Weighted>
-8.9145

> <Gold.Chemscore.Metal.Weighted>
-0.0000

> <Gold.Chemscore.Lipo.Weighted>
-13.0347

> <Gold.Chemscore.Internal_Hbond.Weighted>
0.0000

> <Gold.Chemscore.DEClash.Weighted>
1.4745

> <Gold.Chemscore.DEInternal.Weighted>
1.6854

> <Gold.Chemscore.Rot.Weighted>
3.7730

> <Gold.Chemscore.Internal.Correction.Weighted>
   9.000000E+99

> <Gold.Protein.RotatedTorsions>
[ 6907 6896 6895 6894 ] final    6.70 input  -60.11 | X-H torsion
[ 7974 7965 7964 7962 ] final  171.41 input  175.53 | X-H torsion
[ 8008 7997 7996 7995 ] final  -87.90 input   59.86 | X-H torsion
[ 10167 10162 10161 10158 ] final -132.52 input  -65.29 | X-H torsion
[ 10718 10713 10712 10709 ] final   84.59 input   66.30 | X-H torsion
[ 10763 10752 10751 10750 ] final  112.10 input  -60.55 | X-H torsion
[ 11005 11000 10999 10996 ] final  164.67 input  -57.11 | X-H torsion

> <Gold.Protein.ActiveResidues>
 VAL166  LYS551  ARG553  GLY616  TRP617  ASP618  TYR619  PRO620  LYS621  CYS622 
 ASP623  PHE694  ASN695  SER759  ASP760  ASP761  ALA762  ILE779  LEU786  VAL792 
 PHE793  MET794  SER795  GLU796  ALA797  LYS798  CYS799  TRP800  GLU811  SER814 

> <Gold.Protein.RotatedAtoms>
  151.6779  135.0966  160.0210 H   0  0  0  0  0  0  0  0  0  0  0  0  # atno 6907 bound_to 6896
  152.3853  133.6598  159.6202 H   0  0  0  0  0  0  0  0  0  0  0  0  # atno 6908 bound_to 6896
  150.7780  133.8963  159.3369 H   0  0  0  0  0  0  0  0  0  0  0  0  # atno 6909 bound_to 6896
  144.7295  139.9346  143.6426 H   0  0  0  0  0  0  0  0  0  0  0  0  # atno 7974 bound_to 7965
  154.6686  140.0560  157.0140 H   0  0  0  0  0  0  0  0  0  0  0  0  # atno 8008 bound_to 7997
  155.1123  140.3239  155.4500 H   0  0  0  0  0  0  0  0  0  0  0  0  # atno 8009 bound_to 7997
  156.2648  140.2012  156.6247 H   0  0  0  0  0  0  0  0  0  0  0  0  # atno 8010 bound_to 7997
  139.9077  143.6531  152.2582 H   0  0  0  0  0  0  0  0  0  0  0  0  # atno 10167 bound_to 10162
  157.6900  131.0139  150.2695 H   0  0  0  0  0  0  0  0  0  0  0  0  # atno 10718 bound_to 10713
  153.4729  135.3696  155.2401 H   0  0  0  0  0  0  0  0  0  0  0  0  # atno 10763 bound_to 10752
  154.8756  135.3936  154.3790 H   0  0  0  0  0  0  0  0  0  0  0  0  # atno 10764 bound_to 10752
  153.4381  135.7083  153.6251 H   0  0  0  0  0  0  0  0  0  0  0  0  # atno 10765 bound_to 10752
  140.2482  134.7997  157.3477 H   0  0  0  0  0  0  0  0  0  0  0  0  # atno 11005 bound_to 11000
  146.0831  139.3819  143.0452 LP  0  0  0  0  0  0  0  0  0  0  0  0  # atno 17320 bound_to 7965
  145.7813  140.9855  143.1097 LP  0  0  0  0  0  0  0  0  0  0  0  0  # atno 17321 bound_to 7965
  139.6970  144.7640  151.1340 LP  0  0  0  0  0  0  0  0  0  0  0  0  # atno 17342 bound_to 10162
  140.7692  143.5510  150.9204 LP  0  0  0  0  0  0  0  0  0  0  0  0  # atno 17343 bound_to 10162
  156.3260  130.3793  149.7533 LP  0  0  0  0  0  0  0  0  0  0  0  0  # atno 17370 bound_to 10713
  156.5088  130.8162  151.3161 LP  0  0  0  0  0  0  0  0  0  0  0  0  # atno 17371 bound_to 10713
  140.1584  134.4760  155.7911 LP  0  0  0  0  0  0  0  0  0  0  0  0  # atno 17394 bound_to 11000
  141.2204  133.6891  156.7501 LP  0  0  0  0  0  0  0  0  0  0  0  0  # atno 17395 bound_to 11000

$$$$
