#       Name:                AV-unprocessed.smi:281
#       Creating user name   scv26
#       Creation time:       Thu Mar 26 21:41:22 2020


#       File generated by GOLD software.
#

@<TRIPOS>MOLECULE
AV-unprocessed.smi:281
    67    71     1
SMALL
NO_CHARGES


@<TRIPOS>ATOM
      1 ****        -4.1500  -2.1313  -0.8457 C.3            1 S1                 0.0000
      2 ****        -3.4961  -1.3394   0.2908 C.3            1 S1                 0.0000
      3 ****        -1.9783  -1.1985   0.0974 C.3            1 S1                 0.0000
      4 ****        -1.4328  -0.3589   1.1529 N.3            1 S1                 0.0000
      5 ****        -0.0863  -0.3167   1.2240 C.ar           1 S1                 0.0000
      6 ****         0.4733  -0.6119   2.4224 N.ar           1 S1                 0.0000
      7 ****         1.8017  -0.5783   2.5650 C.ar           1 S1                 0.0000
      8 ****         2.7318  -0.2755   1.6568 N.ar           1 S1                 0.0000
      9 ****         2.1697   0.0280   0.4513 C.ar           1 S1                 0.0000
     10 ****         0.7787   0.0368   0.1497 C.ar           1 S1                 0.0000
     11 ****         0.5838   0.4150  -1.1733 N.2            1 S1                 0.0000
     12 ****         1.7905   0.6116  -1.6293 C.2            1 S1                 0.0000
     13 ****         2.8045   0.3917  -0.7241 N.pl3          1 S1                 0.0000
     14 ****         4.2333   0.5366  -0.9590 C.3            1 S1                 0.0000
     15 ****         4.9281  -0.7697  -1.4159 C.3            1 S1                 0.0000
     16 ****         4.7760  -1.7512  -0.4071 O.3            1 S1                 0.0000
     17 ****         6.4192  -0.5670  -1.6932 C.3            1 S1                 0.0000
     18 ****         6.5136  -0.6369  -3.2122 C.3            1 S1                 0.0000
     19 ****         5.5361  -1.6091  -3.5357 O.3            1 S1                 0.0000
     20 ****         4.3877  -1.3242  -2.7499 C.3            1 S1                 0.0000
     21 ****        -2.0528   0.9569   1.2052 C.3            1 S1                 0.0000
     22 ****        -3.5893   0.8385   1.3384 C.3            1 S1                 0.0000
     23 ****        -4.0471   0.3719   2.7274 C.3            1 S1                 0.0000
     24 ****        -4.6351   1.6201   3.3710 C.3            1 S1                 0.0000
     25 ****        -5.2068   2.2930   2.2654 O.3            1 S1                 0.0000
     26 ****        -4.2578   2.2295   1.2109 C.3            1 S1                 0.0000
     27 ****        -4.9326   2.5312  -0.1350 C.3            1 S1                 0.0000
     28 ****        -4.0884  -0.0398   0.3202 O.3            1 S1                 0.0000
     29 ****        -3.7395  -3.1393  -0.9092 H              1 S1                 0.0000
     30 ****        -3.9920  -1.6432  -1.8080 H              1 S1                 0.0000
     31 ****        -5.2253  -2.2196  -0.6895 H              1 S1                 0.0000
     32 ****        -3.6949  -1.8582   1.2291 H              1 S1                 0.0000
     33 ****        -1.5010  -2.1792   0.1184 H              1 S1                 0.0000
     34 ****        -1.7728  -0.7559  -0.8776 H              1 S1                 0.0000
     35 ****         2.1724  -0.8289   3.5479 H              1 S1                 0.0000
     36 ****         1.9730   0.9255  -2.6468 H              1 S1                 0.0000
     37 ****         4.3765   1.3176  -1.7069 H              1 S1                 0.0000
     38 ****         4.6930   0.9068  -0.0414 H              1 S1                 0.0000
     39 ****         5.1976  -2.5459  -0.6965 H              1 S1                 0.0000
     40 ****         6.8137   0.3684  -1.2948 H              1 S1                 0.0000
     41 ****         7.0113  -1.3782  -1.2660 H              1 S1                 0.0000
     42 ****         6.2500   0.3191  -3.6675 H              1 S1                 0.0000
     43 ****         7.5048  -0.9272  -3.5612 H              1 S1                 0.0000
     44 ****         3.7566  -2.2063  -2.6338 H              1 S1                 0.0000
     45 ****         3.8065  -0.5717  -3.2832 H              1 S1                 0.0000
     46 ****        -1.6439   1.5304   2.0386 H              1 S1                 0.0000
     47 ****        -1.8033   1.5005   0.2926 H              1 S1                 0.0000
     48 ****        -4.8397  -0.3715   2.6342 H              1 S1                 0.0000
     49 ****        -3.2501  -0.0699   3.3265 H              1 S1                 0.0000
     50 ****        -5.3786   1.3910   4.1346 H              1 S1                 0.0000
     51 ****        -3.8551   2.2376   3.8190 H              1 S1                 0.0000
     52 ****        -3.5186   3.0081   1.4098 H              1 S1                 0.0000
     53 ****        -4.2166   2.4664  -0.9547 H              1 S1                 0.0000
     54 ****        -5.3533   3.5368  -0.1394 H              1 S1                 0.0000
     55 ****        -5.7456   1.8342  -0.3399 H              1 S1                 0.0000
     56 ****        -1.6933  -0.8322   1.9943 LP             1 S1                 0.0000
     57 ****        -0.1073  -0.8547   3.1995 LP             1 S1                 0.0000
     58 ****         3.7154  -0.2716   1.8370 LP             1 S1                 0.0000
     59 ****        -0.2823   0.5138  -1.6633 LP             1 S1                 0.0000
     60 ****         3.8039  -1.9236  -0.2479 LP             1 S1                 0.0000
     61 ****         5.2012  -1.4329   0.4401 LP             1 S1                 0.0000
     62 ****         5.8789  -2.5241  -3.3231 LP             1 S1                 0.0000
     63 ****         5.3082  -1.5561  -4.5080 LP             1 S1                 0.0000
     64 ****        -5.3950   3.2462   2.5022 LP             1 S1                 0.0000
     65 ****        -6.0570   1.8437   1.9909 LP             1 S1                 0.0000
     66 ****        -5.0717  -0.1516   0.4635 LP             1 S1                 0.0000
     67 ****        -3.9279   0.3930  -0.5670 LP             1 S1                 0.0000
@<TRIPOS>BOND
    1    1    2 1     
    2    1   29 1     
    3    1   30 1     
    4    1   31 1     
    5    2   28 1     
    6    2    3 1     
    7    2   32 1     
    8    3    4 1     
    9    3   33 1     
   10    3   34 1     
   11    4    5 1     
   12    4   21 1     
   13    5   10 ar    
   14    5    6 ar    
   15    6    7 ar    
   16    7    8 ar    
   17    7   35 1     
   18    8    9 ar    
   19    9   13 1     
   20    9   10 ar    
   21   10   11 1     
   22   11   12 2     
   23   12   13 1     
   24   12   36 1     
   25   13   14 1     
   26   14   15 1     
   27   14   37 1     
   28   14   38 1     
   29   15   20 1     
   30   15   16 1     
   31   15   17 1     
   32   16   39 1     
   33   17   18 1     
   34   17   40 1     
   35   17   41 1     
   36   18   19 1     
   37   18   42 1     
   38   18   43 1     
   39   19   20 1     
   40   20   44 1     
   41   20   45 1     
   42   21   22 1     
   43   21   46 1     
   44   21   47 1     
   45   22   26 1     
   46   22   23 1     
   47   22   28 1     
   48   23   24 1     
   49   23   48 1     
   50   23   49 1     
   51   24   25 1     
   52   24   50 1     
   53   24   51 1     
   54   25   26 1     
   55   26   27 1     
   56   26   52 1     
   57   27   53 1     
   58   27   54 1     
   59   27   55 1     
   60    4   56 1     
   61    6   57 1     
   62    8   58 1     
   63   11   59 1     
   64   16   60 1     
   65   16   61 1     
   66   19   62 1     
   67   19   63 1     
   68   25   64 1     
   69   25   65 1     
   70   28   66 1     
   71   28   67 1     
@<TRIPOS>SUBSTRUCTURE
      1 S1             1
@<TRIPOS>SET
LONE_PAIRS      STATIC     ATOMS    <user>   **** ""
12 56 57 58 59 60 61 62 63 64 65 66 67
DONOR_HYDROGENS      STATIC     ATOMS    <user>   **** ""
1 39
ATOM$BLUE        STATIC     ATOMS    COLORGROUP SYSTEM
12 56 57 58 59 60 61 62 63 64 65 66 67
ATOM$RED        STATIC     ATOMS    COLORGROUP SYSTEM
1 39
