AV-unprocessed.smi:3315|AV-procd|sdf|12751|dock2
  -GOLD-   2272019 93D 1   1.00000     0.00000
 Structure written by MMmdl.
 37 38  0  0  0  0  0  0  0  0  1 V2000
  142.2292  134.3929  153.7855 C   0  0  0  0  0  0  0  0  0  0  0  0
  143.5640  133.9095  153.8767 O   0  0  0  0  0  0  0  0  0  0  0  0
  144.4348  134.1634  152.7654 C   0  0  1  0  0  0  0  0  0  0  0  0
  143.9935  133.3516  151.5412 C   0  0  0  0  0  0  0  0  0  0  0  0
  144.6846  135.6767  152.6173 C   0  0  0  0  0  0  0  0  0  0  0  0
  145.7664  135.5283  153.6851 C   0  0  2  0  0  0  0  0  0  0  0  0
  146.9312  136.3679  153.4246 N   0  0  0  0  0  0  0  0  0  0  0  0
  147.2357  137.4744  154.1165 C   0  0  0  0  0  0  0  0  0  0  0  0
  146.5551  137.8997  155.0503 O   0  0  0  0  0  0  0  0  0  0  0  0
  148.3658  138.0406  153.6602 N   0  0  0  0  0  0  0  0  0  0  0  0
  149.0081  139.2054  154.1522 C   0  0  0  0  0  0  0  0  0  0  0  0
  148.2991  140.4295  154.2803 C   0  0  0  0  0  0  0  0  0  0  0  0
  149.2485  141.2795  154.7723 C   0  0  0  0  0  0  0  0  0  0  0  0
  150.4350  140.6350  154.9313 O   0  0  0  0  0  0  0  0  0  0  0  0
  150.2739  139.3029  154.5312 N   0  0  0  0  0  0  0  0  0  0  0  0
  145.9147  134.0447  153.2587 C   0  0  0  0  0  0  0  0  0  0  0  0
  146.1818  133.0463  154.3908 C   0  0  0  0  0  0  0  0  0  0  0  0
  146.9652  133.7372  152.1747 C   0  0  0  0  0  0  0  0  0  0  0  0
  141.7357  134.2541  154.7471 H   0  0  0  0  0  0  0  0  0  0  0  0
  141.6502  133.8407  153.0457 H   0  0  0  0  0  0  0  0  0  0  0  0
  142.1861  135.4542  153.5438 H   0  0  0  0  0  0  0  0  0  0  0  0
  144.7000  133.4437  150.7172 H   0  0  0  0  0  0  0  0  0  0  0  0
  143.0326  133.6882  151.1527 H   0  0  0  0  0  0  0  0  0  0  0  0
  143.9063  132.2914  151.7797 H   0  0  0  0  0  0  0  0  0  0  0  0
  145.0745  135.9461  151.6341 H   0  0  0  0  0  0  0  0  0  0  0  0
  143.8630  136.3320  152.9039 H   0  0  0  0  0  0  0  0  0  0  0  0
  145.3558  135.6421  154.6912 H   0  0  0  0  0  0  0  0  0  0  0  0
  147.5408  136.0863  152.6708 H   0  0  0  0  0  0  0  0  0  0  0  0
  148.8185  137.5868  152.8807 H   0  0  0  0  0  0  0  0  0  0  0  0
  147.2673  140.6508  154.0510 H   0  0  0  0  0  0  0  0  0  0  0  0
  149.2371  142.3238  155.0473 H   0  0  0  0  0  0  0  0  0  0  0  0
  147.2209  133.0807  154.7201 H   0  0  0  0  0  0  0  0  0  0  0  0
  145.9679  132.0238  154.0786 H   0  0  0  0  0  0  0  0  0  0  0  0
  145.5707  133.2521  155.2696 H   0  0  0  0  0  0  0  0  0  0  0  0
  147.9811  133.8486  152.5550 H   0  0  0  0  0  0  0  0  0  0  0  0
  146.8745  134.3986  151.3130 H   0  0  0  0  0  0  0  0  0  0  0  0
  146.8714  132.7149  151.8070 H   0  0  0  0  0  0  0  0  0  0  0  0
  1  2  1  0  0  0  0
  1 19  1  0  0  0  0
  1 20  1  0  0  0  0
  1 21  1  0  0  0  0
  2  3  1  0  0  0  0
  3 16  1  0  0  0  0
  3  4  1  0  0  0  0
  3  5  1  0  0  0  0
  4 22  1  0  0  0  0
  4 23  1  0  0  0  0
  4 24  1  0  0  0  0
  5  6  1  0  0  0  0
  5 25  1  0  0  0  0
  5 26  1  0  0  0  0
  6  7  1  0  0  0  0
  6 16  1  0  0  0  0
  6 27  1  0  0  0  0
  7  8  1  0  0  0  0
  7 28  1  0  0  0  0
  8  9  2  0  0  0  0
  8 10  1  0  0  0  0
 10 11  1  0  0  0  0
 10 29  1  0  0  0  0
 11 15  2  0  0  0  0
 11 12  1  0  0  0  0
 12 13  2  0  0  0  0
 12 30  1  0  0  0  0
 13 14  1  0  0  0  0
 13 31  1  0  0  0  0
 14 15  1  0  0  0  0
 16 17  1  0  0  0  0
 16 18  1  0  0  0  0
 17 32  1  0  0  0  0
 17 33  1  0  0  0  0
 17 34  1  0  0  0  0
 18 35  1  0  0  0  0
 18 36  1  0  0  0  0
 18 37  1  0  0  0  0
M  END
> <s_m_source_file>
AV-unprocessed.smi

> <i_m_source_file_index>
3315

> <i_lp_mmshare_version>
43012

> <i_f3d_flags>
0

> <s_epik_input>
W0NIM11PW0NAQF0xKFtDSDNdKVtDSDJdW0NASF0oQzEoW0NIM10pW0NIM10pW05IXUMoPU8pW05IXWMyW2NIXVtjSF1vbjI=

> <s_epik_cmdline>
J2VwaWtfcHl0aG9uJywgJy1waCcsICc3LjAnLCAnLXRuJywgJzgnLCAnLW1hJywgJzIwMCcsICctbWV0YWxfYmluZGluZycsICctaW1hZScsICc8aW5maWxlLm1hZT4nLCAnLW9tYWUnLCAnPG91dGZpbGUubWFlPic=

> <r_lp_tautomer_probability>
1

> <r_epik_Ionization_Penalty>
2.28875e-05

> <r_epik_Ionization_Penalty_Charging>
0

> <r_epik_Ionization_Penalty_Neutral>
2.28875e-05

> <r_epik_State_Penalty>
-0

> <r_epik_Charging_Adjusted_Penalty>
0

> <i_epik_Tot_Q>
0

> <i_epik_Tot_abs_Q>
0

> <r_epik_Metal_State_Penalty>
-0

> <b_epik_Metal_Only>
0

> <s_lp_Force_Field>
OPLS_2005

> <r_lp_Energy>
22.1239

> <b_lp_Chiralities_Consistent>
1

> <s_lp_Variant>
AV-unprocessed.smi:3315-3

> <Gold.Version>
5.8.1

> <Gold.Id.Protein>
6NUR|6NUR_protein|mol2

> <Gold.PLP.Fitness>
31.6135

> <Gold.PLP.PLP>
-22.2769

> <Gold.PLP.part.hbond>
-3.0339

> <Gold.PLP.part.metal>
0.0000

> <Gold.PLP.part.buried>
-2.2028

> <Gold.PLP.part.nonpolar>
-18.7112

> <Gold.PLP.part.repulsive>
1.1236

> <Gold.PLP.ligand.clash>
0.0000

> <Gold.PLP.ligand.torsion>
0.8698

> <Gold.PLP.Chemscore.Hbond>
2.5664

> <Gold.PLP.Chemscore.CHOScore>
1.0000

> <Gold.PLP.Chemscore.Metal>
0.0000

> <Gold.Chemscore.Hbonds>
donor molecule, donor type, donor heavy atom, donor atom, acceptor molecule, acceptor atom, score
      L1  H     7    28       P1  7948  1.00
      L1  H    10    29       P1  7948  1.00
      P1  H  7989  7998       L1    14  0.42
      L1  C    13    31       P1  8028  1.00

> <Gold.PLP.Chemscore.Internal.Correction>
0.3772

> <Gold.Rescore>
     Score         DG    S(hbond)    S(metal)    S(lipo)     H(rot)  DE(clash)    DE(int)     intcor
     13.27     -14.10       1.92        0.00      47.42       1.30       0.03       0.80       ----

> <Gold.Chemscore.Fitness>
13.2666

> <Gold.Chemscore.DG>
-14.0970

> <Gold.Chemscore.ZeroCoef>
-5.4800

> <Gold.Chemscore.Hbond>
1.9181

> <Gold.Chemscore.Metal>
0.0000

> <Gold.Chemscore.Lipo>
47.4197

> <Gold.Chemscore.Internal_Hbond>
0.0000

> <Gold.Chemscore.DEClash>
0.0337

> <Gold.Chemscore.DEInternal>
0.7967

> <Gold.Chemscore.Rot>
1.3038

> <Gold.Chemscore.Internal.Correction>
   9.000000E+99

> <Gold.Chemscore.Hbonds>
donor molecule, donor type, donor heavy atom, donor atom, acceptor molecule, acceptor atom, score
      L1  H     7    28       P1  7948  0.95
      L1  H    10    29       P1  7948  0.95
      P1  H  7989  7998       L1    14  0.01

> <Gold.Chemscore.Hbond.Weighted>
-6.4066

> <Gold.Chemscore.Metal.Weighted>
-0.0000

> <Gold.Chemscore.Lipo.Weighted>
-5.5481

> <Gold.Chemscore.Internal_Hbond.Weighted>
0.0000

> <Gold.Chemscore.DEClash.Weighted>
0.0337

> <Gold.Chemscore.DEInternal.Weighted>
0.7967

> <Gold.Chemscore.Rot.Weighted>
3.3377

> <Gold.Chemscore.Internal.Correction.Weighted>
   9.000000E+99

> <Gold.Protein.RotatedTorsions>
[ 6907 6896 6895 6894 ] final -125.16 input  -60.11 | X-H torsion
[ 7974 7965 7964 7962 ] final  146.66 input  175.53 | X-H torsion
[ 8008 7997 7996 7995 ] final  131.36 input   59.86 | X-H torsion
[ 10167 10162 10161 10158 ] final -118.69 input  -65.29 | X-H torsion
[ 10718 10713 10712 10709 ] final -152.95 input   66.30 | X-H torsion
[ 10763 10752 10751 10750 ] final   38.52 input  -60.55 | X-H torsion
[ 11005 11000 10999 10996 ] final   23.41 input  -57.11 | X-H torsion

> <Gold.Protein.ActiveResidues>
 VAL166  LYS551  ARG553  GLY616  TRP617  ASP618  TYR619  PRO620  LYS621  CYS622 
 ASP623  PHE694  ASN695  SER759  ASP760  ASP761  ALA762  ILE779  LEU786  VAL792 
 PHE793  MET794  SER795  GLU796  ALA797  LYS798  CYS799  TRP800  GLU811  SER814 

> <Gold.Protein.RotatedAtoms>
  150.8839  133.7334  159.2923 H   0  0  0  0  0  0  0  0  0  0  0  0  # atno 6907 bound_to 6896
  151.4906  135.1056  159.9812 H   0  0  0  0  0  0  0  0  0  0  0  0  # atno 6908 bound_to 6896
  152.4778  133.8133  159.7070 H   0  0  0  0  0  0  0  0  0  0  0  0  # atno 6909 bound_to 6896
  144.8653  139.5932  143.5911 H   0  0  0  0  0  0  0  0  0  0  0  0  # atno 7974 bound_to 7965
  156.2969  140.2573  156.2913 H   0  0  0  0  0  0  0  0  0  0  0  0  # atno 8008 bound_to 7997
  154.9507  140.0394  157.2161 H   0  0  0  0  0  0  0  0  0  0  0  0  # atno 8009 bound_to 7997
  154.8039  140.2833  155.5906 H   0  0  0  0  0  0  0  0  0  0  0  0  # atno 8010 bound_to 7997
  140.0548  143.5025  152.2063 H   0  0  0  0  0  0  0  0  0  0  0  0  # atno 10167 bound_to 10162
  156.4794  130.8296  151.2523 H   0  0  0  0  0  0  0  0  0  0  0  0  # atno 10718 bound_to 10713
  152.9998  135.6247  154.2317 H   0  0  0  0  0  0  0  0  0  0  0  0  # atno 10763 bound_to 10752
  154.2059  135.2802  155.2977 H   0  0  0  0  0  0  0  0  0  0  0  0  # atno 10764 bound_to 10752
  154.5646  135.5695  153.7097 H   0  0  0  0  0  0  0  0  0  0  0  0  # atno 10765 bound_to 10752
  140.3699  134.2034  155.7667 H   0  0  0  0  0  0  0  0  0  0  0  0  # atno 11005 bound_to 11000
  146.2891  139.7088  142.9174 LP  0  0  0  0  0  0  0  0  0  0  0  0  # atno 17320 bound_to 7965
  145.4233  141.0408  143.2952 LP  0  0  0  0  0  0  0  0  0  0  0  0  # atno 17321 bound_to 7965
  139.5930  144.7557  151.3353 LP  0  0  0  0  0  0  0  0  0  0  0  0  # atno 17342 bound_to 10162
  140.7200  143.7162  150.7731 LP  0  0  0  0  0  0  0  0  0  0  0  0  # atno 17343 bound_to 10162
  157.7484  131.0050  150.3097 LP  0  0  0  0  0  0  0  0  0  0  0  0  # atno 17370 bound_to 10713
  156.3537  130.3835  149.7308 LP  0  0  0  0  0  0  0  0  0  0  0  0  # atno 17371 bound_to 10713
  141.1958  133.8097  157.0700 LP  0  0  0  0  0  0  0  0  0  0  0  0  # atno 17394 bound_to 11000
  140.0560  134.9780  157.1221 LP  0  0  0  0  0  0  0  0  0  0  0  0  # atno 17395 bound_to 11000

$$$$
