#       Name:                AV-unprocessed.smi:50
#       Creating user name   scv26
#       Creation time:       Thu Mar 26 16:36:07 2020


#       File generated by GOLD software.
#

@<TRIPOS>MOLECULE
AV-unprocessed.smi:50
    52    53     1
SMALL
NO_CHARGES


@<TRIPOS>ATOM
      1 ****        -0.6188   0.4973   2.3490 C.3            1 S1                 0.0000
      2 ****        -1.6760   1.4019   1.6824 C.3            1 S1                 0.0000
      3 ****        -3.0404   0.6876   1.7278 C.3            1 S1                 0.0000
      4 ****        -1.3095   1.8457   0.2351 C.3            1 S1                 0.0000
      5 ****        -2.3083   2.7813  -0.2816 N.3            1 S1                 0.0000
      6 ****         0.1015   2.4531   0.1386 C.2            1 S1                 0.0000
      7 ****         0.3500   3.6547   0.2563 O.2            1 S1                 0.0000
      8 ****         1.0171   1.4917  -0.0655 O.3            1 S1                 0.0000
      9 ****         2.3939   1.8291  -0.0957 C.3            1 S1                 0.0000
     10 ****         3.2251   0.5749  -0.3817 C.3            1 S1                 0.0000
     11 ****         3.2688   0.3458  -1.7854 O.3            1 S1                 0.0000
     12 ****         2.8391  -0.9113  -2.2005 C.3            1 S1                 0.0000
     13 ****         1.3856  -0.9426  -2.1874 N.pl3          1 S1                 0.0000
     14 ****         0.5182  -0.3112  -3.0430 C.2            1 S1                 0.0000
     15 ****        -0.7396  -0.5401  -2.7879 N.2            1 S1                 0.0000
     16 ****        -0.7139  -1.3837  -1.6811 C.2            1 S1                 0.0000
     17 ****        -1.7949  -1.9765  -0.9466 C.2            1 S1                 0.0000
     18 ****        -3.0024  -1.8681  -1.1487 O.2            1 S1                 0.0000
     19 ****        -1.3402  -2.7592   0.1222 N.am           1 S1                 0.0000
     20 ****         0.0035  -2.9489   0.4361 C.2            1 S1                 0.0000
     21 ****         0.2723  -3.7236   1.4952 N.pl3          1 S1                 0.0000
     22 ****         0.9981  -2.4094  -0.2465 N.2            1 S1                 0.0000
     23 ****         0.5897  -1.6331  -1.2978 C.2            1 S1                 0.0000
     24 ****        -1.3372   0.9628  -0.4023 H              1 S1                 0.0000
     25 ****        -2.0434  -3.2067   0.6917 H              1 S1                 0.0000
     26 ****        -0.4089  -0.3796   1.7371 H              1 S1                 0.0000
     27 ****        -0.9597   0.1455   3.3232 H              1 S1                 0.0000
     28 ****         0.3217   1.0216   2.5188 H              1 S1                 0.0000
     29 ****        -1.7609   2.2986   2.2983 H              1 S1                 0.0000
     30 ****        -3.0322  -0.2199   1.1255 H              1 S1                 0.0000
     31 ****        -3.8458   1.3225   1.3593 H              1 S1                 0.0000
     32 ****        -3.3018   0.4034   2.7474 H              1 S1                 0.0000
     33 ****        -2.3324   3.6349   0.2574 H              1 S1                 0.0000
     34 ****        -2.1125   3.0443  -1.2368 H              1 S1                 0.0000
     35 ****         2.5945   2.6026  -0.8386 H              1 S1                 0.0000
     36 ****         2.6698   2.2323   0.8796 H              1 S1                 0.0000
     37 ****         4.2514   0.7436  -0.0556 H              1 S1                 0.0000
     38 ****         2.8556  -0.2749   0.1947 H              1 S1                 0.0000
     39 ****         3.1657  -1.0600  -3.2301 H              1 S1                 0.0000
     40 ****         3.2572  -1.7151  -1.5918 H              1 S1                 0.0000
     41 ****         0.8458   0.3186  -3.8572 H              1 S1                 0.0000
     42 ****        -0.4862  -4.1354   2.0197 H              1 S1                 0.0000
     43 ****         1.2281  -3.8961   1.7713 H              1 S1                 0.0000
     44 ****        -3.1841   2.3026  -0.2212 LP             1 S1                 0.0000
     45 ****        -0.3911   4.3043   0.4261 LP             1 S1                 0.0000
     46 ****         1.2927   3.9800   0.1819 LP             1 S1                 0.0000
     47 ****         4.2148   0.4635  -2.0876 LP             1 S1                 0.0000
     48 ****         2.6900   1.0310  -2.2277 LP             1 S1                 0.0000
     49 ****        -1.5393  -0.1899  -3.2756 LP             1 S1                 0.0000
     50 ****        -3.3340  -1.3080  -1.9079 LP             1 S1                 0.0000
     51 ****        -3.6532  -2.3399  -0.5540 LP             1 S1                 0.0000
     52 ****         1.9604  -2.5547  -0.0165 LP             1 S1                 0.0000
@<TRIPOS>BOND
    1    1    2 1     
    2    1   26 1     
    3    1   27 1     
    4    1   28 1     
    5    2    3 1     
    6    2    4 1     
    7    2   29 1     
    8    3   30 1     
    9    3   31 1     
   10    3   32 1     
   11    4   24 1     
   12    4    5 1     
   13    4    6 1     
   14    5   33 1     
   15    5   34 1     
   16    6    7 2     
   17    6    8 1     
   18    8    9 1     
   19    9   10 1     
   20    9   35 1     
   21    9   36 1     
   22   10   11 1     
   23   10   37 1     
   24   10   38 1     
   25   11   12 1     
   26   12   13 1     
   27   12   39 1     
   28   12   40 1     
   29   13   23 1     
   30   13   14 1     
   31   14   15 2     
   32   14   41 1     
   33   15   16 1     
   34   16   23 2     
   35   16   17 1     
   36   17   18 2     
   37   17   19 am    
   38   19   25 1     
   39   19   20 1     
   40   20   21 1     
   41   20   22 2     
   42   21   42 1     
   43   21   43 1     
   44   22   23 1     
   45    5   44 1     
   46    7   45 1     
   47    7   46 1     
   48   11   47 1     
   49   11   48 1     
   50   15   49 1     
   51   18   50 1     
   52   18   51 1     
   53   22   52 1     
@<TRIPOS>SUBSTRUCTURE
      1 S1             1
@<TRIPOS>SET
LONE_PAIRS      STATIC     ATOMS    <user>   **** ""
9 44 45 46 47 48 49 50 51 52
DONOR_HYDROGENS      STATIC     ATOMS    <user>   **** ""
5 33 34 25 42 43
ATOM$BLUE        STATIC     ATOMS    COLORGROUP SYSTEM
9 44 45 46 47 48 49 50 51 52
ATOM$RED        STATIC     ATOMS    COLORGROUP SYSTEM
5 33 34 25 42 43
