AV-unprocessed.smi:1744|AV-procd|sdf|7026|dock2
  -GOLD-   22720 8243D 1   1.00000     0.00000
 Structure written by MMmdl.
 44 45  0  0  0  0  0  0  0  0  2 V2000
  152.9618  142.9098  162.3077 C   0  0  0  0  0  0  0  0  0  0  0  0
  152.3261  143.9550  161.3824 C   0  0  0  0  0  0  0  0  0  0  0  0
  151.9638  143.3877  160.0979 N   0  0  0  0  0  0  0  0  0  0  0  0
  152.2256  142.1191  159.6201 C   0  0  0  0  0  0  0  0  0  0  0  0
  151.6822  142.0723  158.3716 C   0  0  0  0  0  0  0  0  0  0  0  0
  151.7227  140.9453  157.5134 N   0  0  0  0  0  0  0  0  0  0  0  0
  151.1768  140.8351  156.2917 C   0  0  0  0  0  0  0  0  0  0  0  0
  150.5321  141.7148  155.7216 O   0  0  0  0  0  0  0  0  0  0  0  0
  151.4168  139.6285  155.7582 N   0  0  0  0  0  0  0  0  0  0  0  0
  150.9713  139.1841  154.4378 C   0  0  2  0  0  0  0  0  0  0  0  0
  149.4337  139.1300  154.3387 C   0  0  0  0  0  0  0  0  0  0  0  0
  148.8427  137.9835  155.1775 C   0  0  0  0  0  0  0  0  0  0  0  0
  149.4380  136.6759  154.7925 N   0  3  2  0  0  0  0  0  0  0  0  0
  148.8019  135.5214  155.4783 C   0  0  0  0  0  0  0  0  0  0  0  0
  149.2743  134.1674  154.9382 C   0  0  0  0  0  0  0  0  0  0  0  0
  149.0899  133.9415  153.6356 N   0  0  0  0  0  0  0  0  0  0  0  0
  149.7825  133.3310  155.6828 O   0  0  0  0  0  0  0  0  0  0  0  0
  150.9153  136.6817  154.9459 C   0  0  0  0  0  0  0  0  0  0  0  0
  151.5603  137.8016  154.1083 C   0  0  0  0  0  0  0  0  0  0  0  0
  151.1053  143.3552  158.1506 C   0  0  0  0  0  0  0  0  0  0  0  0
  151.2816  144.1424  159.2013 N   0  0  0  0  0  0  0  0  0  0  0  0
  153.2390  143.3558  163.2628 H   0  0  0  0  0  0  0  0  0  0  0  0
  153.8632  142.4866  161.8631 H   0  0  0  0  0  0  0  0  0  0  0  0
  152.2716  142.0906  162.5122 H   0  0  0  0  0  0  0  0  0  0  0  0
  151.4328  144.3787  161.8435 H   0  0  0  0  0  0  0  0  0  0  0  0
  153.0193  144.7807  161.2164 H   0  0  0  0  0  0  0  0  0  0  0  0
  152.7607  141.3797  160.1979 H   0  0  0  0  0  0  0  0  0  0  0  0
  152.2181  140.1404  157.8677 H   0  0  0  0  0  0  0  0  0  0  0  0
  151.9618  138.9741  156.3001 H   0  0  0  0  0  0  0  0  0  0  0  0
  151.3469  139.8956  153.6999 H   0  0  0  0  0  0  0  0  0  0  0  0
  148.9939  140.0809  154.6416 H   0  0  0  0  0  0  0  0  0  0  0  0
  149.1487  138.9881  153.2953 H   0  0  0  0  0  0  0  0  0  0  0  0
  149.0134  138.1661  156.2396 H   0  0  0  0  0  0  0  0  0  0  0  0
  147.7620  137.9606  155.0349 H   0  0  0  0  0  0  0  0  0  0  0  0
  149.0567  135.5381  156.5388 H   0  0  0  0  0  0  0  0  0  0  0  0
  147.7150  135.6006  155.4164 H   0  0  0  0  0  0  0  0  0  0  0  0
  149.3869  133.0688  153.2233 H   0  0  0  0  0  0  0  0  0  0  0  0
  148.6563  134.6505  153.0609 H   0  0  0  0  0  0  0  0  0  0  0  0
  151.1727  136.7966  156.0000 H   0  0  0  0  0  0  0  0  0  0  0  0
  151.3216  135.7215  154.6254 H   0  0  0  0  0  0  0  0  0  0  0  0
  151.4005  137.5892  153.0503 H   0  0  0  0  0  0  0  0  0  0  0  0
  152.6412  137.8056  154.2548 H   0  0  0  0  0  0  0  0  0  0  0  0
  150.5783  143.7419  157.2911 H   0  0  0  0  0  0  0  0  0  0  0  0
  149.2557  136.5485  153.8068 H   0  0  0  0  0  0  0  0  0  0  0  0
  1  2  1  0  0  0  0
  1 22  1  0  0  0  0
  1 23  1  0  0  0  0
  1 24  1  0  0  0  0
  2  3  1  0  0  0  0
  2 25  1  0  0  0  0
  2 26  1  0  0  0  0
  3 21  1  0  0  0  0
  3  4  1  0  0  0  0
  4  5  2  0  0  0  0
  4 27  1  0  0  0  0
  5  6  1  0  0  0  0
  5 20  1  0  0  0  0
  6  7  1  0  0  0  0
  6 28  1  0  0  0  0
  7  8  2  0  0  0  0
  7  9  1  0  0  0  0
  9 10  1  0  0  0  0
  9 29  1  0  0  0  0
 10 19  1  0  0  0  0
 10 11  1  0  0  0  0
 10 30  1  0  0  0  0
 11 12  1  0  0  0  0
 11 31  1  0  0  0  0
 11 32  1  0  0  0  0
 12 13  1  0  0  0  0
 12 33  1  0  0  0  0
 12 34  1  0  0  0  0
 13 14  1  0  0  0  0
 13 18  1  0  0  0  0
 13 44  1  0  0  0  0
 14 15  1  0  0  0  0
 14 35  1  0  0  0  0
 14 36  1  0  0  0  0
 15 16  1  0  0  0  0
 15 17  2  0  0  0  0
 16 37  1  0  0  0  0
 16 38  1  0  0  0  0
 18 19  1  0  0  0  0
 18 39  1  0  0  0  0
 18 40  1  0  0  0  0
 19 41  1  0  0  0  0
 19 42  1  0  0  0  0
 20 21  2  0  0  0  0
 20 43  1  0  0  0  0
M  CHG  1  13   1
M  END
> <s_m_source_file>
AV-unprocessed.smi

> <i_m_source_file_index>
1744

> <i_lp_mmshare_version>
43012

> <i_f3d_flags>
0

> <s_epik_input>
W0NIM11bQ0gyXW4xW2NIXWMoW2NIXW4xKVtOSF1DKD1PKVtOSF1bQ0hdMltDSDJdW0NIMl1OKFtDSDJdW0NIMl0yKVtDSDJdQyg9TylbTkgyXQ==

> <s_epik_cmdline>
J2VwaWtfcHl0aG9uJywgJy1waCcsICc3LjAnLCAnLXRuJywgJzgnLCAnLW1hJywgJzIwMCcsICctbWV0YWxfYmluZGluZycsICctaW1hZScsICc8aW5maWxlLm1hZT4nLCAnLW9tYWUnLCAnPG91dGZpbGUubWFlPic=

> <r_lp_tautomer_probability>
1

> <r_epik_Ionization_Penalty>
0.839033

> <r_epik_Ionization_Penalty_Charging>
0.838844

> <r_epik_Ionization_Penalty_Neutral>
0.000189439

> <r_epik_State_Penalty>
0.8734

> <r_epik_Charging_Adjusted_Penalty>
1.71224

> <i_epik_Tot_Q>
1

> <i_epik_Tot_abs_Q>
1

> <r_epik_Metal_State_Penalty>
0.89072

> <b_epik_Metal_Only>
0

> <s_lp_Force_Field>
OPLS_2005

> <r_lp_Energy>
17.546

> <b_lp_Chiralities_Consistent>
1

> <s_lp_Variant>
AV-unprocessed.smi:1744-3

> <Gold.Version>
5.8.1

> <Gold.Id.Protein>
6NUR|6NUR_protein|mol2

> <Gold.PLP.Fitness>
49.4895

> <Gold.PLP.PLP>
-37.8655

> <Gold.PLP.part.hbond>
-2.2987

> <Gold.PLP.part.metal>
0.0000

> <Gold.PLP.part.buried>
-3.4151

> <Gold.PLP.part.nonpolar>
-31.7429

> <Gold.PLP.part.repulsive>
0.3962

> <Gold.PLP.ligand.clash>
0.0000

> <Gold.PLP.ligand.torsion>
0.0829

> <Gold.PLP.Chemscore.Hbond>
2.9120

> <Gold.PLP.Chemscore.CHOScore>
1.0000

> <Gold.PLP.Chemscore.Metal>
0.0000

> <Gold.Chemscore.Hbonds>
donor molecule, donor type, donor heavy atom, donor atom, acceptor molecule, acceptor atom, score
      L1  H    13    44       P1  7948  2.00
      L1  H    16    38       P1  7948  0.90
      L1  C    20    43       P1  8028  1.00

> <Gold.PLP.Chemscore.Internal.Correction>
0.0538

> <Gold.Rescore>
     Score         DG    S(hbond)    S(metal)    S(lipo)     H(rot)  DE(clash)    DE(int)     intcor
     13.66     -15.31       1.59        0.00      87.15       2.22       0.40       1.25       ----

> <Gold.Chemscore.Fitness>
13.6620

> <Gold.Chemscore.DG>
-15.3070

> <Gold.Chemscore.ZeroCoef>
-5.4800

> <Gold.Chemscore.Hbond>
1.5917

> <Gold.Chemscore.Metal>
0.0000

> <Gold.Chemscore.Lipo>
87.1513

> <Gold.Chemscore.Internal_Hbond>
0.0000

> <Gold.Chemscore.DEClash>
0.3951

> <Gold.Chemscore.DEInternal>
1.2499

> <Gold.Chemscore.Rot>
2.2211

> <Gold.Chemscore.Internal.Correction>
   9.000000E+99

> <Gold.Chemscore.Hbonds>
donor molecule, donor type, donor heavy atom, donor atom, acceptor molecule, acceptor atom, score
      L1  H    13    44       P1  7948  0.94
      L1  H    16    38       P1  7948  0.22

> <Gold.Chemscore.Hbond.Weighted>
-5.3163

> <Gold.Chemscore.Metal.Weighted>
-0.0000

> <Gold.Chemscore.Lipo.Weighted>
-10.1967

> <Gold.Chemscore.Internal_Hbond.Weighted>
0.0000

> <Gold.Chemscore.DEClash.Weighted>
0.3951

> <Gold.Chemscore.DEInternal.Weighted>
1.2499

> <Gold.Chemscore.Rot.Weighted>
5.6860

> <Gold.Chemscore.Internal.Correction.Weighted>
   9.000000E+99

> <Gold.Protein.RotatedTorsions>
[ 6907 6896 6895 6894 ] final  -26.68 input  -60.11 | X-H torsion
[ 7974 7965 7964 7962 ] final    0.03 input  175.53 | X-H torsion
[ 8008 7997 7996 7995 ] final  -35.39 input   59.86 | X-H torsion
[ 10167 10162 10161 10158 ] final   83.43 input  -65.29 | X-H torsion
[ 10718 10713 10712 10709 ] final -152.34 input   66.30 | X-H torsion
[ 10763 10752 10751 10750 ] final  -42.40 input  -60.55 | X-H torsion
[ 11005 11000 10999 10996 ] final  103.72 input  -57.11 | X-H torsion

> <Gold.Protein.ActiveResidues>
 VAL166  LYS551  ARG553  GLY616  TRP617  ASP618  TYR619  PRO620  LYS621  CYS622 
 ASP623  PHE694  ASN695  SER759  ASP760  ASP761  ALA762  ILE779  LEU786  VAL792 
 PHE793  MET794  SER795  GLU796  ALA797  LYS798  CYS799  TRP800  GLU811  SER814 

> <Gold.Protein.RotatedAtoms>
  151.1576  135.0258  159.8695 H   0  0  0  0  0  0  0  0  0  0  0  0  # atno 6907 bound_to 6896
  152.5452  134.1316  159.8452 H   0  0  0  0  0  0  0  0  0  0  0  0  # atno 6908 bound_to 6896
  151.1408  133.4926  159.2629 H   0  0  0  0  0  0  0  0  0  0  0  0  # atno 6909 bound_to 6896
  146.2431  140.1199  142.8341 H   0  0  0  0  0  0  0  0  0  0  0  0  # atno 7974 bound_to 7965
  154.4097  140.1658  156.2203 H   0  0  0  0  0  0  0  0  0  0  0  0  # atno 8008 bound_to 7997
  155.9369  140.3411  155.6272 H   0  0  0  0  0  0  0  0  0  0  0  0  # atno 8009 bound_to 7997
  155.7037  140.0748  157.2390 H   0  0  0  0  0  0  0  0  0  0  0  0  # atno 8010 bound_to 7997
  139.9185  144.6228  150.8464 H   0  0  0  0  0  0  0  0  0  0  0  0  # atno 10167 bound_to 10162
  156.4712  130.8259  151.2489 H   0  0  0  0  0  0  0  0  0  0  0  0  # atno 10718 bound_to 10713
  153.9784  135.6720  153.4749 H   0  0  0  0  0  0  0  0  0  0  0  0  # atno 10763 bound_to 10752
  153.0760  135.4948  154.8401 H   0  0  0  0  0  0  0  0  0  0  0  0  # atno 10764 bound_to 10752
  154.7178  135.3111  154.9056 H   0  0  0  0  0  0  0  0  0  0  0  0  # atno 10765 bound_to 10752
  139.8786  134.9274  156.5252 H   0  0  0  0  0  0  0  0  0  0  0  0  # atno 11005 bound_to 11000
  145.0415  140.8949  143.5049 LP  0  0  0  0  0  0  0  0  0  0  0  0  # atno 17320 bound_to 7965
  145.1280  139.2650  143.5554 LP  0  0  0  0  0  0  0  0  0  0  0  0  # atno 17321 bound_to 7965
  140.7668  143.3314  151.2402 LP  0  0  0  0  0  0  0  0  0  0  0  0  # atno 17342 bound_to 10162
  139.6882  143.9737  152.2845 LP  0  0  0  0  0  0  0  0  0  0  0  0  # atno 17343 bound_to 10162
  157.7491  131.0075  150.3194 LP  0  0  0  0  0  0  0  0  0  0  0  0  # atno 17370 bound_to 10713
  156.3616  130.3848  149.7247 LP  0  0  0  0  0  0  0  0  0  0  0  0  # atno 17371 bound_to 10713
  140.8421  133.8197  155.9085 LP  0  0  0  0  0  0  0  0  0  0  0  0  # atno 17394 bound_to 11000
  140.9227  134.2121  157.4916 LP  0  0  0  0  0  0  0  0  0  0  0  0  # atno 17395 bound_to 11000

$$$$
