AV-unprocessed.smi:921|AV-procd|sdf|4171|dock3
  -GOLD-   22720 2 83D 1   1.00000     0.00000
 Structure written by MMmdl.
 40 42  0  0  0  0  0  0  0  0  2 V2000
  147.7122  138.7494  152.8121 N   0  0  0  0  0  0  0  0  0  0  0  0
  146.7425  138.3002  152.0115 C   0  0  0  0  0  0  0  0  0  0  0  0
  146.7887  138.4376  150.7901 O   0  0  0  0  0  0  0  0  0  0  0  0
  145.5541  137.6030  152.6815 C   0  0  0  0  0  0  0  0  0  0  0  0
  145.3797  136.2087  152.1591 C   0  0  0  0  0  0  0  0  0  0  0  0
  146.3868  135.3926  151.7364 N   0  3  0  0  0  0  0  0  0  0  0  0
  145.8594  134.1854  151.2795 C   0  0  0  0  0  0  0  0  0  0  0  0
  146.4870  133.0609  150.7525 C   0  0  0  0  0  0  0  0  0  0  0  0
  145.6518  131.9913  150.3690 C   0  0  0  0  0  0  0  0  0  0  0  0
  144.2515  132.0667  150.5122 C   0  0  0  0  0  0  0  0  0  0  0  0
  143.6277  133.2126  151.0469 C   0  0  0  0  0  0  0  0  0  0  0  0
  144.4602  134.2642  151.4320 C   0  0  0  0  0  0  0  0  0  0  0  0
  144.2097  135.5197  152.0022 N   0  0  0  0  0  0  0  0  0  0  0  0
  142.8219  135.9133  152.3112 C   0  0  0  0  0  0  0  0  0  0  0  0
  142.2812  135.3385  153.6428 C   0  0  2  0  0  0  0  0  0  0  0  0
  141.8118  134.0179  153.4510 O   0  0  0  0  0  0  0  0  0  0  0  0
  141.2453  136.2424  154.3035 C   0  0  0  0  0  0  0  0  0  0  0  0
  139.9434  136.3650  153.7652 C   0  0  0  0  0  0  0  0  0  0  0  0
  138.9998  137.2187  154.3678 C   0  0  0  0  0  0  0  0  0  0  0  0
  137.7597  137.3373  153.8377 F   0  0  0  0  0  0  0  0  0  0  0  0
  139.3472  137.9521  155.5176 C   0  0  0  0  0  0  0  0  0  0  0  0
  140.6404  137.8348  156.0607 C   0  0  0  0  0  0  0  0  0  0  0  0
  141.5877  136.9856  155.4561 C   0  0  0  0  0  0  0  0  0  0  0  0
  142.8322  136.8961  155.9834 F   0  0  0  0  0  0  0  0  0  0  0  0
  148.5104  139.2224  152.4124 H   0  0  0  0  0  0  0  0  0  0  0  0
  147.6451  138.6245  153.8119 H   0  0  0  0  0  0  0  0  0  0  0  0
  145.6950  137.5630  153.7624 H   0  0  0  0  0  0  0  0  0  0  0  0
  144.6558  138.1911  152.5003 H   0  0  0  0  0  0  0  0  0  0  0  0
  147.5594  133.0023  150.6380 H   0  0  0  0  0  0  0  0  0  0  0  0
  146.0937  131.0967  149.9547 H   0  0  0  0  0  0  0  0  0  0  0  0
  143.6427  131.2286  150.2058 H   0  0  0  0  0  0  0  0  0  0  0  0
  142.5542  133.2553  151.1521 H   0  0  0  0  0  0  0  0  0  0  0  0
  142.8033  137.0029  152.3506 H   0  0  0  0  0  0  0  0  0  0  0  0
  142.1762  135.6410  151.4761 H   0  0  0  0  0  0  0  0  0  0  0  0
  143.1229  135.2494  154.3305 H   0  0  0  0  0  0  0  0  0  0  0  0
  142.2525  133.4518  154.0665 H   0  0  0  0  0  0  0  0  0  0  0  0
  139.6646  135.8169  152.8773 H   0  0  0  0  0  0  0  0  0  0  0  0
  138.6235  138.6062  155.9812 H   0  0  0  0  0  0  0  0  0  0  0  0
  140.9079  138.4000  156.9412 H   0  0  0  0  0  0  0  0  0  0  0  0
  147.3648  135.6519  151.7491 H   0  0  0  0  0  0  0  0  0  0  0  0
  1  2  1  0  0  0  0
  1 25  1  0  0  0  0
  1 26  1  0  0  0  0
  2  3  2  0  0  0  0
  2  4  1  0  0  0  0
  4  5  1  0  0  0  0
  4 27  1  0  0  0  0
  4 28  1  0  0  0  0
  5 13  1  0  0  0  0
  5  6  2  0  0  0  0
  6  7  1  0  0  0  0
  6 40  1  0  0  0  0
  7 12  2  0  0  0  0
  7  8  1  0  0  0  0
  8  9  2  0  0  0  0
  8 29  1  0  0  0  0
  9 10  1  0  0  0  0
  9 30  1  0  0  0  0
 10 11  2  0  0  0  0
 10 31  1  0  0  0  0
 11 12  1  0  0  0  0
 11 32  1  0  0  0  0
 12 13  1  0  0  0  0
 13 14  1  0  0  0  0
 14 15  1  0  0  0  0
 14 33  1  0  0  0  0
 14 34  1  0  0  0  0
 15 16  1  0  0  0  0
 15 17  1  0  0  0  0
 15 35  1  0  0  0  0
 16 36  1  0  0  0  0
 17 23  1  0  0  0  0
 17 18  2  0  0  0  0
 18 19  1  0  0  0  0
 18 37  1  0  0  0  0
 19 20  1  0  0  0  0
 19 21  2  0  0  0  0
 21 22  1  0  0  0  0
 21 38  1  0  0  0  0
 22 23  2  0  0  0  0
 22 39  1  0  0  0  0
 23 24  1  0  0  0  0
M  CHG  1   6   1
M  END
> <s_m_source_file>
AV-unprocessed.smi

> <i_m_source_file_index>
921

> <i_lp_mmshare_version>
43012

> <i_f3d_flags>
0

> <s_epik_input>
W2NIXTFbY0hdW2NIXVtjSF1jKGMxMiluKGMobjIpW0NIMl1DKD1PKVtOSDJdKVtDSDJdW0NASF0oW09IXSljM1tjSF1jKEYpW2NIXVtjSF1jM0Y=

> <s_epik_cmdline>
J2VwaWtfcHl0aG9uJywgJy1waCcsICc3LjAnLCAnLXRuJywgJzgnLCAnLW1hJywgJzIwMCcsICctbWV0YWxfYmluZGluZycsICctaW1hZScsICc8aW5maWxlLm1hZT4nLCAnLW9tYWUnLCAnPG91dGZpbGUubWFlPic=

> <r_epik_Ionization_Penalty>
1.66646

> <r_epik_Ionization_Penalty_Charging>
1.66645

> <r_epik_Ionization_Penalty_Neutral>
3.86504e-06

> <r_epik_State_Penalty>
1.76975

> <r_epik_Charging_Adjusted_Penalty>
3.43621

> <i_epik_Tot_Q>
1

> <i_epik_Tot_abs_Q>
1

> <r_epik_Metal_State_Penalty>
1.80493

> <b_epik_Metal_Only>
0

> <s_lp_Force_Field>
OPLS_2005

> <r_lp_Energy>
13.8702

> <b_lp_Chiralities_Consistent>
1

> <s_lp_Variant>
AV-unprocessed.smi:921-3

> <Gold.Version>
5.8.1

> <Gold.Id.Protein>
6NUR|6NUR_protein|mol2

> <Gold.PLP.Fitness>
56.1304

> <Gold.PLP.PLP>
-43.6236

> <Gold.PLP.part.hbond>
-5.0000

> <Gold.PLP.part.metal>
0.0000

> <Gold.PLP.part.buried>
-7.3679

> <Gold.PLP.part.nonpolar>
-34.0645

> <Gold.PLP.part.repulsive>
1.0933

> <Gold.PLP.ligand.clash>
0.0000

> <Gold.PLP.ligand.torsion>
1.1656

> <Gold.PLP.Chemscore.Hbond>
4.9200

> <Gold.PLP.Chemscore.CHOScore>
0.0000

> <Gold.PLP.Chemscore.Metal>
0.0000

> <Gold.Chemscore.Hbonds>
donor molecule, donor type, donor heavy atom, donor atom, acceptor molecule, acceptor atom, score
      L1  H     1    25       P1  7957  1.00
      L1  H     6    40       P1  7948  2.00
      L1  H    16    36       P1 10957  1.00
      P1  H  7954  7966       L1     3  0.99

> <Gold.PLP.Chemscore.Internal.Correction>
0.0780

> <Gold.Rescore>
     Score         DG    S(hbond)    S(metal)    S(lipo)     H(rot)  DE(clash)    DE(int)     intcor
     18.92     -20.59       3.92        0.00      86.76       3.17       0.44       1.24       ----

> <Gold.Chemscore.Fitness>
18.9207

> <Gold.Chemscore.DG>
-20.5927

> <Gold.Chemscore.ZeroCoef>
-5.4800

> <Gold.Chemscore.Hbond>
3.9168

> <Gold.Chemscore.Metal>
0.0000

> <Gold.Chemscore.Lipo>
86.7550

> <Gold.Chemscore.Internal_Hbond>
0.0000

> <Gold.Chemscore.DEClash>
0.4362

> <Gold.Chemscore.DEInternal>
1.2357

> <Gold.Chemscore.Rot>
3.1717

> <Gold.Chemscore.Internal.Correction>
   9.000000E+99

> <Gold.Chemscore.Hbonds>
donor molecule, donor type, donor heavy atom, donor atom, acceptor molecule, acceptor atom, score
      L1  H     1    25       P1  7957  0.99
      L1  H     6    40       P1  7948  1.00
      L1  H    16    36       P1 10957  0.96
      P1  H  7954  7966       L1     3  0.92

> <Gold.Chemscore.Hbond.Weighted>
-13.0820

> <Gold.Chemscore.Metal.Weighted>
-0.0000

> <Gold.Chemscore.Lipo.Weighted>
-10.1503

> <Gold.Chemscore.Internal_Hbond.Weighted>
0.0000

> <Gold.Chemscore.DEClash.Weighted>
0.4362

> <Gold.Chemscore.DEInternal.Weighted>
1.2357

> <Gold.Chemscore.Rot.Weighted>
8.1196

> <Gold.Chemscore.Internal.Correction.Weighted>
   9.000000E+99

> <Gold.Protein.RotatedTorsions>
[ 6907 6896 6895 6894 ] final   21.84 input  -60.11 | X-H torsion
[ 7974 7965 7964 7962 ] final -118.82 input  175.53 | X-H torsion
[ 8008 7997 7996 7995 ] final  174.41 input   59.86 | X-H torsion
[ 10167 10162 10161 10158 ] final  169.52 input  -65.29 | X-H torsion
[ 10718 10713 10712 10709 ] final  -56.26 input   66.30 | X-H torsion
[ 10763 10752 10751 10750 ] final -150.21 input  -60.55 | X-H torsion
[ 11005 11000 10999 10996 ] final -140.04 input  -57.11 | X-H torsion

> <Gold.Protein.ActiveResidues>
 VAL166  LYS551  ARG553  GLY616  TRP617  ASP618  TYR619  PRO620  LYS621  CYS622 
 ASP623  PHE694  ASN695  SER759  ASP760  ASP761  ALA762  ILE779  LEU786  VAL792 
 PHE793  MET794  SER795  GLU796  ALA797  LYS798  CYS799  TRP800  GLU811  SER814 

> <Gold.Protein.RotatedAtoms>
  151.9180  135.0310  160.0519 H   0  0  0  0  0  0  0  0  0  0  0  0  # atno 6907 bound_to 6896
  152.2224  133.4989  159.5178 H   0  0  0  0  0  0  0  0  0  0  0  0  # atno 6908 bound_to 6896
  150.7003  134.1242  159.4088 H   0  0  0  0  0  0  0  0  0  0  0  0  # atno 6909 bound_to 6896
  145.0694  140.8348  143.4104 H   0  0  0  0  0  0  0  0  0  0  0  0  # atno 7974 bound_to 7965
  156.0977  140.1435  156.9509 H   0  0  0  0  0  0  0  0  0  0  0  0  # atno 8008 bound_to 7997
  154.4682  140.0919  156.7122 H   0  0  0  0  0  0  0  0  0  0  0  0  # atno 8009 bound_to 7997
  155.4813  140.3445  155.4342 H   0  0  0  0  0  0  0  0  0  0  0  0  # atno 8010 bound_to 7997
  139.4994  144.3697  151.9738 H   0  0  0  0  0  0  0  0  0  0  0  0  # atno 10167 bound_to 10162
  156.1303  130.4160  150.0281 H   0  0  0  0  0  0  0  0  0  0  0  0  # atno 10718 bound_to 10713
  154.8132  135.3290  154.7248 H   0  0  0  0  0  0  0  0  0  0  0  0  # atno 10763 bound_to 10752
  153.7893  135.6912  153.4879 H   0  0  0  0  0  0  0  0  0  0  0  0  # atno 10764 bound_to 10752
  153.1927  135.4545  155.0116 H   0  0  0  0  0  0  0  0  0  0  0  0  # atno 10765 bound_to 10752
  140.8461  134.2343  157.4785 H   0  0  0  0  0  0  0  0  0  0  0  0  # atno 11005 bound_to 11000
  145.1310  139.2632  143.5539 LP  0  0  0  0  0  0  0  0  0  0  0  0  # atno 17320 bound_to 7965
  146.3528  140.0961  142.8610 LP  0  0  0  0  0  0  0  0  0  0  0  0  # atno 17321 bound_to 7965
  140.3133  144.3513  150.6028 LP  0  0  0  0  0  0  0  0  0  0  0  0  # atno 17342 bound_to 10162
  140.5782  143.2175  151.7477 LP  0  0  0  0  0  0  0  0  0  0  0  0  # atno 17343 bound_to 10162
  156.8195  130.9353  151.3641 LP  0  0  0  0  0  0  0  0  0  0  0  0  # atno 17370 bound_to 10713
  157.6481  130.8861  149.9579 LP  0  0  0  0  0  0  0  0  0  0  0  0  # atno 17371 bound_to 10713
  139.8703  134.9660  156.4547 LP  0  0  0  0  0  0  0  0  0  0  0  0  # atno 17394 bound_to 11000
  140.8842  133.7895  155.9500 LP  0  0  0  0  0  0  0  0  0  0  0  0  # atno 17395 bound_to 11000

$$$$
