AV-unprocessed.smi:655|AV-procd|sdf|3214|dock5
  -GOLD-   22720 0153D 1   1.00000     0.00000
 Structure written by MMmdl.
 35 36  0  0  0  0  0  0  0  0  1 V2000
  153.0796  142.6879  161.0762 C   0  0  0  0  0  0  0  0  0  0  0  0
  152.7713  142.3357  159.6141 C   0  0  2  0  0  0  0  0  0  0  0  0
  151.7709  143.3271  158.9950 C   0  0  0  0  0  0  0  0  0  0  0  0
  151.4591  142.9846  157.5274 C   0  0  0  0  0  0  0  0  0  0  0  0
  150.9613  141.5297  157.3332 C   0  0  1  0  0  0  0  0  0  0  0  0
  149.7085  141.3784  157.9762 O   0  0  0  0  0  0  0  0  0  0  0  0
  150.7778  141.1261  155.8412 C   0  0  0  0  0  0  0  0  0  0  0  0
  150.8924  139.7121  155.5553 N   0  0  0  0  0  0  0  0  0  0  0  0
  149.8587  138.8190  155.7983 C   0  0  0  0  0  0  0  0  0  0  0  0
  149.9506  137.4896  155.5538 C   0  0  0  0  0  0  0  0  0  0  0  0
  148.6196  136.4418  155.8925 Cl  0  0  0  0  0  0  0  0  0  0  0  0
  151.1839  136.9310  155.0022 C   0  0  0  0  0  0  0  0  0  0  0  0
  151.3749  135.7444  154.7430 O   0  0  0  0  0  0  0  0  0  0  0  0
  152.1963  137.8663  154.7684 N   0  0  0  0  0  0  0  0  0  0  0  0
  152.1111  139.2364  155.0179 C   0  0  0  0  0  0  0  0  0  0  0  0
  153.0720  139.9634  154.7663 O   0  0  0  0  0  0  0  0  0  0  0  0
  151.9336  140.5380  158.0167 C   0  0  0  0  0  0  0  0  0  0  0  0
  152.2408  140.8975  159.4816 C   0  0  0  0  0  0  0  0  0  0  0  0
  153.0641  137.5209  154.3843 H   0  0  0  0  0  0  0  0  0  0  0  0
  152.1802  142.6482  161.6916 H   0  0  0  0  0  0  0  0  0  0  0  0
  153.4953  143.6925  161.1587 H   0  0  0  0  0  0  0  0  0  0  0  0
  153.8056  141.9951  161.5026 H   0  0  0  0  0  0  0  0  0  0  0  0
  153.7053  142.4042  159.0543 H   0  0  0  0  0  0  0  0  0  0  0  0
  150.8467  143.3303  159.5745 H   0  0  0  0  0  0  0  0  0  0  0  0
  152.1692  144.3406  159.0519 H   0  0  0  0  0  0  0  0  0  0  0  0
  150.7234  143.6950  157.1480 H   0  0  0  0  0  0  0  0  0  0  0  0
  152.3627  143.1359  156.9361 H   0  0  0  0  0  0  0  0  0  0  0  0
  149.1281  140.9058  157.3994 H   0  0  0  0  0  0  0  0  0  0  0  0
  149.7710  141.3857  155.5100 H   0  0  0  0  0  0  0  0  0  0  0  0
  151.4417  141.6688  155.1640 H   0  0  0  0  0  0  0  0  0  0  0  0
  148.9338  139.1972  156.2105 H   0  0  0  0  0  0  0  0  0  0  0  0
  151.5376  139.5226  157.9642 H   0  0  0  0  0  0  0  0  0  0  0  0
  152.8752  140.5200  157.4661 H   0  0  0  0  0  0  0  0  0  0  0  0
  152.9732  140.1945  159.8798 H   0  0  0  0  0  0  0  0  0  0  0  0
  151.3423  140.7770  160.0884 H   0  0  0  0  0  0  0  0  0  0  0  0
  1  2  1  0  0  0  0
  1 20  1  0  0  0  0
  1 21  1  0  0  0  0
  1 22  1  0  0  0  0
  2 18  1  0  0  0  0
  2  3  1  0  0  0  0
  2 23  1  0  0  0  0
  3  4  1  0  0  0  0
  3 24  1  0  0  0  0
  3 25  1  0  0  0  0
  4  5  1  0  0  0  0
  4 26  1  0  0  0  0
  4 27  1  0  0  0  0
  5  6  1  0  0  0  0
  5  7  1  0  0  0  0
  5 17  1  0  0  0  0
  6 28  1  0  0  0  0
  7  8  1  0  0  0  0
  7 29  1  0  0  0  0
  7 30  1  0  0  0  0
  8 15  1  0  0  0  0
  8  9  1  0  0  0  0
  9 10  2  0  0  0  0
  9 31  1  0  0  0  0
 10 11  1  0  0  0  0
 10 12  1  0  0  0  0
 12 13  2  0  0  0  0
 12 14  1  0  0  0  0
 14 19  1  0  0  0  0
 14 15  1  0  0  0  0
 15 16  2  0  0  0  0
 17 18  1  0  0  0  0
 17 32  1  0  0  0  0
 17 33  1  0  0  0  0
 18 34  1  0  0  0  0
 18 35  1  0  0  0  0
M  END
> <s_m_source_file>
AV-unprocessed.smi

> <i_m_source_file_index>
655

> <i_lp_mmshare_version>
43012

> <i_f3d_flags>
0

> <s_epik_input>
W0NIMl0xW0NIMl1bQ0BIXShbQ0gzXSlbQ0gyXVtDSDJdW0NAQF0xKFtPSF0pW0NIMl1uMltjSF1jKENsKWMoPU8pW25IXWMyPU8=

> <s_epik_cmdline>
J2VwaWtfcHl0aG9uJywgJy1waCcsICc3LjAnLCAnLXRuJywgJzgnLCAnLW1hJywgJzIwMCcsICctbWV0YWxfYmluZGluZycsICctaW1hZScsICc8aW5maWxlLm1hZT4nLCAnLW9tYWUnLCAnPG91dGZpbGUubWFlPic=

> <r_lp_tautomer_probability>
0.999537

> <r_epik_Ionization_Penalty>
0.0114762

> <r_epik_Ionization_Penalty_Charging>
0.0114753

> <r_epik_Ionization_Penalty_Neutral>
8.25878e-07

> <r_epik_State_Penalty>
0.00883314

> <r_epik_Charging_Adjusted_Penalty>
0.0203085

> <i_epik_Tot_Q>
0

> <i_epik_Tot_abs_Q>
0

> <r_epik_Metal_State_Penalty>
1.64347

> <b_epik_Metal_Only>
0

> <s_lp_Force_Field>
OPLS_2005

> <r_lp_Energy>
18.0938

> <b_lp_Chiralities_Consistent>
1

> <s_lp_Variant>
AV-unprocessed.smi:655-1

> <Gold.Version>
5.8.1

> <Gold.Id.Protein>
6NUR|6NUR_protein|mol2

> <Gold.PLP.Fitness>
38.3407

> <Gold.PLP.PLP>
-33.2448

> <Gold.PLP.part.hbond>
-3.0000

> <Gold.PLP.part.metal>
0.0000

> <Gold.PLP.part.buried>
-3.4781

> <Gold.PLP.part.nonpolar>
-27.2657

> <Gold.PLP.part.repulsive>
0.3490

> <Gold.PLP.ligand.clash>
0.0000

> <Gold.PLP.ligand.torsion>
0.7359

> <Gold.PLP.Chemscore.Hbond>
2.1872

> <Gold.PLP.Chemscore.CHOScore>
0.0000

> <Gold.PLP.Chemscore.Metal>
0.0000

> <Gold.Chemscore.Hbonds>
donor molecule, donor type, donor heavy atom, donor atom, acceptor molecule, acceptor atom, score
      P1  H  7989  7998       L1    16  0.04
      P1  H  7997  8010       L1    16  1.00
      P1  H 10752 10765       L1    13  1.00

> <Gold.PLP.Chemscore.Internal.Correction>
0.0062

> <Gold.Rescore>
     Score         DG    S(hbond)    S(metal)    S(lipo)     H(rot)  DE(clash)    DE(int)     intcor
     14.59     -15.90       1.78        0.00      78.59       1.84       0.40       0.91       ----

> <Gold.Chemscore.Fitness>
14.5889

> <Gold.Chemscore.DG>
-15.9047

> <Gold.Chemscore.ZeroCoef>
-5.4800

> <Gold.Chemscore.Hbond>
1.7804

> <Gold.Chemscore.Metal>
0.0000

> <Gold.Chemscore.Lipo>
78.5864

> <Gold.Chemscore.Internal_Hbond>
0.0000

> <Gold.Chemscore.DEClash>
0.4043

> <Gold.Chemscore.DEInternal>
0.9115

> <Gold.Chemscore.Rot>
1.8424

> <Gold.Chemscore.Internal.Correction>
   9.000000E+99

> <Gold.Chemscore.Hbonds>
donor molecule, donor type, donor heavy atom, donor atom, acceptor molecule, acceptor atom, score
      P1  H  7997  8010       L1    16  0.94
      P1  H 10752 10765       L1    13  0.53

> <Gold.Chemscore.Hbond.Weighted>
-5.9465

> <Gold.Chemscore.Metal.Weighted>
-0.0000

> <Gold.Chemscore.Lipo.Weighted>
-9.1946

> <Gold.Chemscore.Internal_Hbond.Weighted>
0.0000

> <Gold.Chemscore.DEClash.Weighted>
0.4043

> <Gold.Chemscore.DEInternal.Weighted>
0.9115

> <Gold.Chemscore.Rot.Weighted>
4.7164

> <Gold.Chemscore.Internal.Correction.Weighted>
   9.000000E+99

> <Gold.Protein.RotatedTorsions>
[ 6907 6896 6895 6894 ] final  157.18 input  -60.11 | X-H torsion
[ 7974 7965 7964 7962 ] final  -86.32 input  175.53 | X-H torsion
[ 8008 7997 7996 7995 ] final   93.40 input   59.86 | X-H torsion
[ 10167 10162 10161 10158 ] final -120.29 input  -65.29 | X-H torsion
[ 10718 10713 10712 10709 ] final  -42.41 input   66.30 | X-H torsion
[ 10763 10752 10751 10750 ] final -171.12 input  -60.55 | X-H torsion
[ 11005 11000 10999 10996 ] final  110.40 input  -57.11 | X-H torsion

> <Gold.Protein.ActiveResidues>
 VAL166  LYS551  ARG553  GLY616  TRP617  ASP618  TYR619  PRO620  LYS621  CYS622 
 ASP623  PHE694  ASN695  SER759  ASP760  ASP761  ALA762  ILE779  LEU786  VAL792 
 PHE793  MET794  SER795  GLU796  ALA797  LYS798  CYS799  TRP800  GLU811  SER814 

> <Gold.Protein.RotatedAtoms>
  152.0188  133.3890  159.4249 H   0  0  0  0  0  0  0  0  0  0  0  0  # atno 6907 bound_to 6896
  150.6892  134.3649  159.4976 H   0  0  0  0  0  0  0  0  0  0  0  0  # atno 6908 bound_to 6896
  152.1420  134.9055  160.0604 H   0  0  0  0  0  0  0  0  0  0  0  0  # atno 6909 bound_to 6896
  145.4815  140.9557  143.1862 H   0  0  0  0  0  0  0  0  0  0  0  0  # atno 7974 bound_to 7965
  156.0463  140.3313  155.7300 H   0  0  0  0  0  0  0  0  0  0  0  0  # atno 8008 bound_to 7997
  155.5668  140.0624  157.2833 H   0  0  0  0  0  0  0  0  0  0  0  0  # atno 8009 bound_to 7997
  154.4415  140.1867  156.0827 H   0  0  0  0  0  0  0  0  0  0  0  0  # atno 8010 bound_to 7997
  140.0374  143.5187  152.2147 H   0  0  0  0  0  0  0  0  0  0  0  0  # atno 10167 bound_to 10162
  156.2599  130.4196  149.8554 H   0  0  0  0  0  0  0  0  0  0  0  0  # atno 10718 bound_to 10713
  154.6340  135.2890  155.0183 H   0  0  0  0  0  0  0  0  0  0  0  0  # atno 10763 bound_to 10752
  154.1333  135.6530  153.4930 H   0  0  0  0  0  0  0  0  0  0  0  0  # atno 10764 bound_to 10752
  153.0293  135.5315  154.7179 H   0  0  0  0  0  0  0  0  0  0  0  0  # atno 10765 bound_to 10752
  139.8881  134.9483  156.6272 H   0  0  0  0  0  0  0  0  0  0  0  0  # atno 11005 bound_to 11000
  144.7886  139.6375  143.7123 LP  0  0  0  0  0  0  0  0  0  0  0  0  # atno 17320 bound_to 7965
  146.2338  139.5865  142.9537 LP  0  0  0  0  0  0  0  0  0  0  0  0  # atno 17321 bound_to 7965
  139.6036  144.7590  151.3115 LP  0  0  0  0  0  0  0  0  0  0  0  0  # atno 17342 bound_to 10162
  140.7275  143.6961  150.7882 LP  0  0  0  0  0  0  0  0  0  0  0  0  # atno 17343 bound_to 10162
  156.6073  130.8572  151.3446 LP  0  0  0  0  0  0  0  0  0  0  0  0  # atno 17370 bound_to 10713
  157.7246  130.9605  150.1582 LP  0  0  0  0  0  0  0  0  0  0  0  0  # atno 17371 bound_to 10713
  140.7694  133.8751  155.8480 LP  0  0  0  0  0  0  0  0  0  0  0  0  # atno 17394 bound_to 11000
  140.9855  134.1349  157.4456 LP  0  0  0  0  0  0  0  0  0  0  0  0  # atno 17395 bound_to 11000

$$$$
