AV-unprocessed.smi:21|AV-procd|sdf|131|dock8
  -GOLD-   2262015323D 1   1.00000     0.00000
 Structure written by MMmdl.
 62 65  0  0  0  0  0  0  0  0  2 V2000
  148.9160  132.7371  154.2057 C   0  0  0  0  0  0  0  0  0  0  0  0
  148.4414  133.4297  153.0618 O   0  0  0  0  0  0  0  0  0  0  0  0
  147.0750  133.1743  152.7625 C   0  0  1  0  0  0  0  0  0  0  0  0
  146.2035  133.9441  153.7466 C   0  0  0  0  0  0  0  0  0  0  0  0
  146.1753  135.3685  153.1795 C   0  0  2  0  0  0  0  0  0  0  0  0
  144.9556  136.2056  153.6434 C   0  0  0  0  0  0  0  0  0  0  0  0
  144.9470  136.4575  155.0843 N   0  0  0  0  0  0  0  0  0  0  0  0
  144.3056  135.4669  155.9486 C   0  0  0  0  0  0  0  0  0  0  0  0
  145.7722  137.3915  155.6468 C   0  0  0  0  0  0  0  0  0  0  0  0
  145.8688  137.4240  157.0043 N   0  0  0  0  0  0  0  0  0  0  0  0
  146.6662  138.2993  157.6202 C   0  0  0  0  0  0  0  0  0  0  0  0
  147.4526  139.2289  157.0810 N   0  0  0  0  0  0  0  0  0  0  0  0
  147.3638  139.2198  155.7216 C   0  0  0  0  0  0  0  0  0  0  0  0
  146.5579  138.3488  154.9287 C   0  0  0  0  0  0  0  0  0  0  0  0
  146.7441  138.6580  153.5835 N   0  0  0  0  0  0  0  0  0  0  0  0
  147.6040  139.6381  153.5832 C   0  0  0  0  0  0  0  0  0  0  0  0
  148.0190  140.0485  154.8274 N   0  0  0  0  0  0  0  0  0  0  0  0
  148.9792  141.0996  155.1194 C   0  0  0  0  0  0  0  0  0  0  0  0
  149.9904  140.7563  156.2446 C   0  0  2  0  0  0  0  0  0  0  0  0
  150.8007  142.0359  156.5681 C   0  0  0  0  0  0  0  0  0  0  0  0
  150.0236  142.9925  157.2583 O   0  0  0  0  0  0  0  0  0  0  0  0
  150.9132  139.5525  155.8813 C   0  0  1  0  0  0  0  0  0  0  0  0
  151.7915  139.7479  154.6552 C   0  0  0  0  0  0  0  0  0  0  0  0
  152.8353  138.6545  154.8266 C   0  0  0  0  0  0  0  0  0  0  0  0
  153.0868  138.6218  156.2227 O   0  0  0  0  0  0  0  0  0  0  0  0
  151.9807  139.1826  156.9242 C   0  0  0  0  0  0  0  0  0  0  0  0
  146.3403  135.2183  151.7045 N   0  3  2  0  0  0  0  0  0  0  0  0
  145.2624  135.7434  150.8332 C   0  0  0  0  0  0  0  0  0  0  0  0
  146.6801  133.8037  151.4225 C   0  0  0  0  0  0  0  0  0  0  0  0
  146.8616  132.1047  152.8041 H   0  0  0  0  0  0  0  0  0  0  0  0
  147.0880  135.8653  153.5094 H   0  0  0  0  0  0  0  0  0  0  0  0
  149.9701  132.9677  154.3586 H   0  0  0  0  0  0  0  0  0  0  0  0
  148.8235  131.6568  154.0949 H   0  0  0  0  0  0  0  0  0  0  0  0
  148.3744  133.0431  155.1014 H   0  0  0  0  0  0  0  0  0  0  0  0
  145.1975  133.5219  153.7451 H   0  0  0  0  0  0  0  0  0  0  0  0
  146.5799  133.9017  154.7693 H   0  0  0  0  0  0  0  0  0  0  0  0
  144.8946  137.1561  153.1176 H   0  0  0  0  0  0  0  0  0  0  0  0
  144.0370  135.6811  153.3794 H   0  0  0  0  0  0  0  0  0  0  0  0
  143.6975  135.9563  156.7103 H   0  0  0  0  0  0  0  0  0  0  0  0
  145.0518  134.8466  156.4464 H   0  0  0  0  0  0  0  0  0  0  0  0
  143.6496  134.8064  155.3816 H   0  0  0  0  0  0  0  0  0  0  0  0
  146.6761  138.2459  158.6990 H   0  0  0  0  0  0  0  0  0  0  0  0
  147.9571  140.0951  152.6701 H   0  0  0  0  0  0  0  0  0  0  0  0
  149.5128  141.3621  154.2054 H   0  0  0  0  0  0  0  0  0  0  0  0
  148.3969  141.9804  155.3920 H   0  0  0  0  0  0  0  0  0  0  0  0
  149.4173  140.5003  157.1372 H   0  0  0  0  0  0  0  0  0  0  0  0
  151.6936  141.7968  157.1468 H   0  0  0  0  0  0  0  0  0  0  0  0
  151.1417  142.5226  155.6541 H   0  0  0  0  0  0  0  0  0  0  0  0
  149.4689  143.4361  156.6348 H   0  0  0  0  0  0  0  0  0  0  0  0
  150.2912  138.6733  155.7045 H   0  0  0  0  0  0  0  0  0  0  0  0
  151.2475  139.6540  153.7150 H   0  0  0  0  0  0  0  0  0  0  0  0
  152.2730  140.7265  154.6803 H   0  0  0  0  0  0  0  0  0  0  0  0
  152.4328  137.6895  154.5156 H   0  0  0  0  0  0  0  0  0  0  0  0
  153.7456  138.8456  154.2580 H   0  0  0  0  0  0  0  0  0  0  0  0
  152.3350  140.0652  157.4574 H   0  0  0  0  0  0  0  0  0  0  0  0
  151.6084  138.4686  157.6576 H   0  0  0  0  0  0  0  0  0  0  0  0
  144.3087  135.2570  151.0408 H   0  0  0  0  0  0  0  0  0  0  0  0
  145.5086  135.5647  149.7862 H   0  0  0  0  0  0  0  0  0  0  0  0
  145.1446  136.8200  150.9561 H   0  0  0  0  0  0  0  0  0  0  0  0
  147.4526  133.7258  150.6580 H   0  0  0  0  0  0  0  0  0  0  0  0
  145.7962  133.2873  151.0435 H   0  0  0  0  0  0  0  0  0  0  0  0
  147.1657  135.7548  151.4772 H   0  0  0  0  0  0  0  0  0  0  0  0
  1  2  1  0  0  0  0
  1 32  1  0  0  0  0
  1 33  1  0  0  0  0
  1 34  1  0  0  0  0
  2  3  1  0  0  0  0
  3 30  1  0  0  0  0
  3 29  1  0  0  0  0
  3  4  1  0  0  0  0
  4  5  1  0  0  0  0
  4 35  1  0  0  0  0
  4 36  1  0  0  0  0
  5 31  1  0  0  0  0
  5  6  1  0  0  0  0
  5 27  1  0  0  0  0
  6  7  1  0  0  0  0
  6 37  1  0  0  0  0
  6 38  1  0  0  0  0
  7  8  1  0  0  0  0
  7  9  1  0  0  0  0
  8 39  1  0  0  0  0
  8 40  1  0  0  0  0
  8 41  1  0  0  0  0
  9 14  1  0  0  0  0
  9 10  2  0  0  0  0
 10 11  1  0  0  0  0
 11 12  2  0  0  0  0
 11 42  1  0  0  0  0
 12 13  1  0  0  0  0
 13 17  1  0  0  0  0
 13 14  2  0  0  0  0
 14 15  1  0  0  0  0
 15 16  2  0  0  0  0
 16 17  1  0  0  0  0
 16 43  1  0  0  0  0
 17 18  1  0  0  0  0
 18 19  1  0  0  0  0
 18 44  1  0  0  0  0
 18 45  1  0  0  0  0
 19 20  1  0  0  0  0
 19 22  1  0  0  0  0
 19 46  1  0  0  0  0
 20 21  1  0  0  0  0
 20 47  1  0  0  0  0
 20 48  1  0  0  0  0
 21 49  1  0  0  0  0
 22 26  1  0  0  0  0
 22 23  1  0  0  0  0
 22 50  1  0  0  0  0
 23 24  1  0  0  0  0
 23 51  1  0  0  0  0
 23 52  1  0  0  0  0
 24 25  1  0  0  0  0
 24 53  1  0  0  0  0
 24 54  1  0  0  0  0
 25 26  1  0  0  0  0
 26 55  1  0  0  0  0
 26 56  1  0  0  0  0
 27 28  1  0  0  0  0
 27 29  1  0  0  0  0
 27 62  1  0  0  0  0
 28 57  1  0  0  0  0
 28 58  1  0  0  0  0
 28 59  1  0  0  0  0
 29 60  1  0  0  0  0
 29 61  1  0  0  0  0
M  CHG  1  27   1
M  END
> <s_m_source_file>
AV-unprocessed.smi

> <i_m_source_file_index>
21

> <i_lp_mmshare_version>
43012

> <i_f3d_flags>
0

> <s_epik_input>
W0NIM11PW0NASF0xW0NIMl1bQ0BIXShOKFtDSDNdKVtDSDJdMSlbQ0gyXU4oW0NIM10pYyhuW2NIXW4yKWMoYzIzKW5bY0hdbjNbQ0gyXVtDQEhdKFtDSDJdW09IXSlbQ0BASF00W0NIMl1bQ0gyXU9bQ0gyXTQ=

> <s_epik_cmdline>
J2VwaWtfcHl0aG9uJywgJy1waCcsICc3LjAnLCAnLXRuJywgJzgnLCAnLW1hJywgJzIwMCcsICctbWV0YWxfYmluZGluZycsICctaW1hZScsICc8aW5maWxlLm1hZT4nLCAnLW9tYWUnLCAnPG91dGZpbGUubWFlPic=

> <r_lp_tautomer_probability>
1

> <r_epik_Ionization_Penalty>
0.0157465

> <r_epik_Ionization_Penalty_Charging>
0.015354

> <r_epik_Ionization_Penalty_Neutral>
0.000392529

> <r_epik_State_Penalty>
0.0120612

> <r_epik_Charging_Adjusted_Penalty>
0.0274152

> <i_epik_Tot_Q>
1

> <i_epik_Tot_abs_Q>
1

> <r_epik_Metal_State_Penalty>
0.0121253

> <b_epik_Metal_Only>
0

> <s_lp_Force_Field>
OPLS_2005

> <r_lp_Energy>
62.3844

> <b_lp_Chiralities_Consistent>
1

> <s_lp_Variant>
AV-unprocessed.smi:21-11

> <Gold.Version>
5.8.1

> <Gold.Id.Protein>
6NUR|6NUR_protein|mol2

> <Gold.PLP.Fitness>
46.3369

> <Gold.PLP.PLP>
-32.1591

> <Gold.PLP.part.hbond>
-3.0000

> <Gold.PLP.part.metal>
0.0000

> <Gold.PLP.part.buried>
-1.7743

> <Gold.PLP.part.nonpolar>
-28.2778

> <Gold.PLP.part.repulsive>
0.6687

> <Gold.PLP.ligand.clash>
0.0000

> <Gold.PLP.ligand.torsion>
0.8111

> <Gold.PLP.Chemscore.Hbond>
4.0000

> <Gold.PLP.Chemscore.CHOScore>
1.0000

> <Gold.PLP.Chemscore.Metal>
0.0000

> <Gold.Chemscore.Hbonds>
donor molecule, donor type, donor heavy atom, donor atom, acceptor molecule, acceptor atom, score
      L1  H    21    49       P1  8028  1.00
      L1  H    27    62       P1  7948  2.00
      P1  H  7997  8008       L1    25  0.90
      L1  C    16    43       P1  7957  1.00

> <Gold.PLP.Chemscore.Internal.Correction>
0.8001

> <Gold.Rescore>
     Score         DG    S(hbond)    S(metal)    S(lipo)     H(rot)  DE(clash)    DE(int)     intcor
     10.86     -14.23       2.08        0.00      82.73       3.08       1.77       1.61       ----

> <Gold.Chemscore.Fitness>
10.8583

> <Gold.Chemscore.DG>
-14.2314

> <Gold.Chemscore.ZeroCoef>
-5.4800

> <Gold.Chemscore.Hbond>
2.0797

> <Gold.Chemscore.Metal>
0.0000

> <Gold.Chemscore.Lipo>
82.7296

> <Gold.Chemscore.Internal_Hbond>
0.0000

> <Gold.Chemscore.DEClash>
1.7673

> <Gold.Chemscore.DEInternal>
1.6057

> <Gold.Chemscore.Rot>
3.0758

> <Gold.Chemscore.Internal.Correction>
   9.000000E+99

> <Gold.Chemscore.Hbonds>
donor molecule, donor type, donor heavy atom, donor atom, acceptor molecule, acceptor atom, score
      L1  H    21    49       P1  8028  0.99
      L1  H    27    62       P1  7948  0.94
      P1  H  7997  8008       L1    25  0.08

> <Gold.Chemscore.Hbond.Weighted>
-6.9462

> <Gold.Chemscore.Metal.Weighted>
-0.0000

> <Gold.Chemscore.Lipo.Weighted>
-9.6794

> <Gold.Chemscore.Internal_Hbond.Weighted>
0.0000

> <Gold.Chemscore.DEClash.Weighted>
1.7673

> <Gold.Chemscore.DEInternal.Weighted>
1.6057

> <Gold.Chemscore.Rot.Weighted>
7.8741

> <Gold.Chemscore.Internal.Correction.Weighted>
   9.000000E+99

> <Gold.Protein.RotatedTorsions>
[ 6907 6896 6895 6894 ] final   84.21 input  -60.11 | X-H torsion
[ 7974 7965 7964 7962 ] final   -4.38 input  175.53 | X-H torsion
[ 8008 7997 7996 7995 ] final  -53.26 input   59.86 | X-H torsion
[ 10167 10162 10161 10158 ] final    4.30 input  -65.29 | X-H torsion
[ 10718 10713 10712 10709 ] final  134.58 input   66.30 | X-H torsion
[ 10763 10752 10751 10750 ] final  -89.73 input  -60.55 | X-H torsion
[ 11005 11000 10999 10996 ] final -137.41 input  -57.11 | X-H torsion

> <Gold.Protein.ActiveResidues>
 VAL166  LYS551  ARG553  GLY616  TRP617  ASP618  TYR619  PRO620  LYS621  CYS622 
 ASP623  PHE694  ASN695  SER759  ASP760  ASP761  ALA762  ILE779  LEU786  VAL792 
 PHE793  MET794  SER795  GLU796  ALA797  LYS798  CYS799  TRP800  GLU811  SER814 

> <Gold.Protein.RotatedAtoms>
  152.5347  134.2776  159.8994 H   0  0  0  0  0  0  0  0  0  0  0  0  # atno 6907 bound_to 6896
  151.2731  133.4239  159.2630 H   0  0  0  0  0  0  0  0  0  0  0  0  # atno 6908 bound_to 6896
  151.0350  134.9581  159.8188 H   0  0  0  0  0  0  0  0  0  0  0  0  # atno 6909 bound_to 6896
  146.2373  140.1863  142.8332 H   0  0  0  0  0  0  0  0  0  0  0  0  # atno 7974 bound_to 7965
  154.4128  140.1204  156.5124 H   0  0  0  0  0  0  0  0  0  0  0  0  # atno 8008 bound_to 7997
  155.6785  140.3496  155.4826 H   0  0  0  0  0  0  0  0  0  0  0  0  # atno 8009 bound_to 7997
  155.9572  140.1116  157.0917 H   0  0  0  0  0  0  0  0  0  0  0  0  # atno 8010 bound_to 7997
  140.6542  143.7469  150.7625 H   0  0  0  0  0  0  0  0  0  0  0  0  # atno 10167 bound_to 10162
  157.4658  131.1077  150.9864 H   0  0  0  0  0  0  0  0  0  0  0  0  # atno 10718 bound_to 10713
  154.6584  135.5330  153.7987 H   0  0  0  0  0  0  0  0  0  0  0  0  # atno 10763 bound_to 10752
  153.0427  135.6499  154.0910 H   0  0  0  0  0  0  0  0  0  0  0  0  # atno 10764 bound_to 10752
  154.0821  135.2946  155.3268 H   0  0  0  0  0  0  0  0  0  0  0  0  # atno 10765 bound_to 10752
  140.8714  134.2046  157.4649 H   0  0  0  0  0  0  0  0  0  0  0  0  # atno 11005 bound_to 11000
  144.9894  140.8533  143.5349 LP  0  0  0  0  0  0  0  0  0  0  0  0  # atno 17320 bound_to 7965
  145.1867  139.2323  143.5264 LP  0  0  0  0  0  0  0  0  0  0  0  0  # atno 17321 bound_to 7965
  140.1126  143.4685  152.2361 LP  0  0  0  0  0  0  0  0  0  0  0  0  # atno 17342 bound_to 10162
  139.5761  144.7488  151.3760 LP  0  0  0  0  0  0  0  0  0  0  0  0  # atno 17343 bound_to 10162
  157.0646  130.5839  149.5391 LP  0  0  0  0  0  0  0  0  0  0  0  0  # atno 17370 bound_to 10713
  156.0049  130.5135  150.7796 LP  0  0  0  0  0  0  0  0  0  0  0  0  # atno 17371 bound_to 10713
  139.8712  134.9776  156.4964 LP  0  0  0  0  0  0  0  0  0  0  0  0  # atno 17394 bound_to 11000
  140.8569  133.8089  155.9225 LP  0  0  0  0  0  0  0  0  0  0  0  0  # atno 17395 bound_to 11000

$$$$
