#       Name:                AV-unprocessed.smi:53
#       Creating user name   scv26
#       Creation time:       Thu Mar 26 16:39:40 2020


#       File generated by GOLD software.
#

@<TRIPOS>MOLECULE
AV-unprocessed.smi:53
    41    42     1
SMALL
NO_CHARGES


@<TRIPOS>ATOM
      1 ****        -4.9972  -0.4426  -0.4463 N.pl3          1 S1                 0.0000
      2 ****        -3.6587  -0.5004  -0.4856 C.2            1 S1                 0.0000
      3 ****        -2.8725   0.7080  -0.3800 C.2            1 S1                 0.0000
      4 ****        -1.5292   0.5696  -0.4299 C.2            1 S1                 0.0000
      5 ****        -0.9185  -0.6695  -0.5770 N.am           1 S1                 0.0000
      6 ****         0.5905  -0.8262  -0.6327 C.3            1 S1                 0.0000
      7 ****         1.1788   0.3941  -0.9817 O.3            1 S1                 0.0000
      8 ****         1.8559   0.9545   0.1401 C.3            1 S1                 0.0000
      9 ****         2.9619   1.9048  -0.3428 C.3            1 S1                 0.0000
     10 ****         2.4134   3.1688  -0.6495 O.3            1 S1                 0.0000
     11 ****         2.3827  -0.2977   0.8395 C.3            1 S1                 0.0000
     12 ****         2.7855  -0.0622   2.1762 O.3            1 S1                 0.0000
     13 ****         1.2085  -1.2637   0.7175 C.3            1 S1                 0.0000
     14 ****         0.3134  -1.1554   1.8149 O.3            1 S1                 0.0000
     15 ****        -1.7166  -1.8349  -0.6703 C.2            1 S1                 0.0000
     16 ****        -1.2155  -2.9534  -0.7806 O.2            1 S1                 0.0000
     17 ****        -3.0752  -1.6754  -0.6205 N.2            1 S1                 0.0000
     18 ****         0.7898  -1.5241  -1.4482 H              1 S1                 0.0000
     19 ****         1.1472   1.4690   0.7920 H              1 S1                 0.0000
     20 ****         3.2309  -0.6966   0.2807 H              1 S1                 0.0000
     21 ****         1.5453  -2.2985   0.6482 H              1 S1                 0.0000
     22 ****        -5.5429  -1.2889  -0.5193 H              1 S1                 0.0000
     23 ****        -5.4577   0.4502  -0.3426 H              1 S1                 0.0000
     24 ****        -3.3063   1.6913  -0.2662 H              1 S1                 0.0000
     25 ****        -0.9374   1.4684  -0.3502 H              1 S1                 0.0000
     26 ****         3.7009   2.0523   0.4453 H              1 S1                 0.0000
     27 ****         3.4865   1.4975  -1.2075 H              1 S1                 0.0000
     28 ****         3.1120   3.7395  -0.9312 H              1 S1                 0.0000
     29 ****         2.9756  -0.8939   2.5825 H              1 S1                 0.0000
     30 ****        -0.4516  -1.6777   1.6260 H              1 S1                 0.0000
     31 ****         0.4682   1.0273  -1.2884 LP             1 S1                 0.0000
     32 ****         1.8343   0.2447  -1.7220 LP             1 S1                 0.0000
     33 ****         1.9727   3.5510   0.1627 LP             1 S1                 0.0000
     34 ****         1.7389   3.0748  -1.3817 LP             1 S1                 0.0000
     35 ****         2.0498   0.3964   2.6746 LP             1 S1                 0.0000
     36 ****         3.6036   0.5128   2.1858 LP             1 S1                 0.0000
     37 ****         0.0477  -0.1998   1.9417 LP             1 S1                 0.0000
     38 ****         0.7556  -1.4915   2.6465 LP             1 S1                 0.0000
     39 ****        -0.2210  -3.0555  -0.8062 LP             1 S1                 0.0000
     40 ****        -1.8027  -3.7603  -0.8446 LP             1 S1                 0.0000
     41 ****        -3.6529  -2.4887  -0.6897 LP             1 S1                 0.0000
@<TRIPOS>BOND
    1    1    2 1     
    2    1   22 1     
    3    1   23 1     
    4    2   17 2     
    5    2    3 1     
    6    3    4 2     
    7    3   24 1     
    8    4    5 1     
    9    4   25 1     
   10    5    6 1     
   11    5   15 am    
   12    6   18 1     
   13    6   13 1     
   14    6    7 1     
   15    7    8 1     
   16    8   19 1     
   17    8    9 1     
   18    8   11 1     
   19    9   10 1     
   20    9   26 1     
   21    9   27 1     
   22   10   28 1     
   23   11   20 1     
   24   11   12 1     
   25   11   13 1     
   26   12   29 1     
   27   13   21 1     
   28   13   14 1     
   29   14   30 1     
   30   15   16 2     
   31   15   17 1     
   32    7   31 1     
   33    7   32 1     
   34   10   33 1     
   35   10   34 1     
   36   12   35 1     
   37   12   36 1     
   38   14   37 1     
   39   14   38 1     
   40   16   39 1     
   41   16   40 1     
   42   17   41 1     
@<TRIPOS>SUBSTRUCTURE
      1 S1             1
@<TRIPOS>SET
LONE_PAIRS      STATIC     ATOMS    <user>   **** ""
11 31 32 33 34 35 36 37 38 39 40 41
DONOR_HYDROGENS      STATIC     ATOMS    <user>   **** ""
5 22 23 28 29 30
ATOM$BLUE        STATIC     ATOMS    COLORGROUP SYSTEM
11 31 32 33 34 35 36 37 38 39 40 41
ATOM$RED        STATIC     ATOMS    COLORGROUP SYSTEM
5 22 23 28 29 30
