AV-unprocessed.smi:1072|AV-procd|sdf|4683|dock6
  -GOLD-   22720 3203D 1   1.00000     0.00000
 Structure written by MMmdl.
 46 47  0  0  0  0  0  0  0  0  1 V2000
  147.2666  133.5898  163.0472 C   0  0  0  0  0  0  0  0  0  0  0  0
  147.6797  134.5582  161.9594 C   0  0  0  0  0  0  0  0  0  0  0  0
  148.2272  134.1990  160.8452 N   0  0  0  0  0  0  0  0  0  0  0  0
  148.5645  135.1881  159.9108 C   0  0  0  0  0  0  0  0  0  0  0  0
  149.1975  134.6862  158.6242 C   0  0  0  0  0  0  0  0  0  0  0  0
  148.3308  136.5113  160.1530 C   0  0  0  0  0  0  0  0  0  0  0  0
  148.6833  137.6101  159.1514 C   0  0  0  0  0  0  0  0  0  0  0  0
  150.1701  137.7519  158.8166 C   0  0  0  0  0  0  0  0  0  0  0  0
  151.0040  137.0667  159.4083 O   0  0  0  0  0  0  0  0  0  0  0  0
  150.4749  138.6573  157.8705 N   0  0  0  0  0  0  0  0  0  0  0  0
  151.7994  139.0459  157.3642 C   0  0  1  0  0  0  0  0  0  0  0  0
  152.5767  137.7868  156.9234 C   0  0  0  0  0  0  0  0  0  0  0  0
  151.6946  140.0547  156.1896 C   0  0  0  0  0  0  0  0  0  0  0  0
  151.0606  141.3937  156.6071 C   0  0  0  0  0  0  0  0  0  0  0  0
  151.8354  142.0454  157.7664 C   0  0  1  0  0  0  0  0  0  0  0  0
  151.1985  143.3766  158.1890 C   0  0  0  0  0  0  0  0  0  0  0  0
  151.9454  141.0695  158.9519 C   0  0  0  0  0  0  0  0  0  0  0  0
  152.5651  139.7246  158.5258 C   0  0  0  0  0  0  0  0  0  0  0  0
  147.7052  136.9102  161.4288 C   0  0  0  0  0  0  0  0  0  0  0  0
  147.4451  138.0696  161.7463 O   0  0  0  0  0  0  0  0  0  0  0  0
  147.4145  135.8914  162.2684 N   0  0  0  0  0  0  0  0  0  0  0  0
  146.9839  136.1129  163.1543 H   0  0  0  0  0  0  0  0  0  0  0  0
  146.5193  132.8941  162.6649 H   0  0  0  0  0  0  0  0  0  0  0  0
  146.8428  134.1073  163.9087 H   0  0  0  0  0  0  0  0  0  0  0  0
  148.1288  133.0149  163.3853 H   0  0  0  0  0  0  0  0  0  0  0  0
  150.2134  135.0682  158.5238 H   0  0  0  0  0  0  0  0  0  0  0  0
  148.6179  135.0059  157.7582 H   0  0  0  0  0  0  0  0  0  0  0  0
  149.2466  133.5968  158.6060 H   0  0  0  0  0  0  0  0  0  0  0  0
  148.1381  137.4707  158.2174 H   0  0  0  0  0  0  0  0  0  0  0  0
  148.3197  138.5598  159.5457 H   0  0  0  0  0  0  0  0  0  0  0  0
  149.6965  139.1506  157.4583 H   0  0  0  0  0  0  0  0  0  0  0  0
  153.5962  138.0367  156.6283 H   0  0  0  0  0  0  0  0  0  0  0  0
  152.1107  137.2946  156.0698 H   0  0  0  0  0  0  0  0  0  0  0  0
  152.6400  137.0562  157.7308 H   0  0  0  0  0  0  0  0  0  0  0  0
  152.6936  140.2525  155.7987 H   0  0  0  0  0  0  0  0  0  0  0  0
  151.1374  139.6312  155.3544 H   0  0  0  0  0  0  0  0  0  0  0  0
  151.0403  142.0674  155.7497 H   0  0  0  0  0  0  0  0  0  0  0  0
  150.0205  141.2368  156.8957 H   0  0  0  0  0  0  0  0  0  0  0  0
  152.8456  142.2616  157.4155 H   0  0  0  0  0  0  0  0  0  0  0  0
  150.1778  143.2322  158.5443 H   0  0  0  0  0  0  0  0  0  0  0  0
  151.1645  144.0772  157.3541 H   0  0  0  0  0  0  0  0  0  0  0  0
  151.7673  143.8473  158.9912 H   0  0  0  0  0  0  0  0  0  0  0  0
  152.5526  141.5134  159.7415 H   0  0  0  0  0  0  0  0  0  0  0  0
  150.9586  140.9030  159.3858 H   0  0  0  0  0  0  0  0  0  0  0  0
  152.6124  139.0566  159.3870 H   0  0  0  0  0  0  0  0  0  0  0  0
  153.5997  139.8991  158.2261 H   0  0  0  0  0  0  0  0  0  0  0  0
  1  2  1  0  0  0  0
  1 23  1  0  0  0  0
  1 24  1  0  0  0  0
  1 25  1  0  0  0  0
  2 21  1  0  0  0  0
  2  3  2  0  0  0  0
  3  4  1  0  0  0  0
  4  5  1  0  0  0  0
  4  6  2  0  0  0  0
  5 26  1  0  0  0  0
  5 27  1  0  0  0  0
  5 28  1  0  0  0  0
  6  7  1  0  0  0  0
  6 19  1  0  0  0  0
  7  8  1  0  0  0  0
  7 29  1  0  0  0  0
  7 30  1  0  0  0  0
  8  9  2  0  0  0  0
  8 10  1  0  0  0  0
 10 11  1  0  0  0  0
 10 31  1  0  0  0  0
 11 18  1  0  0  0  0
 11 12  1  0  0  0  0
 11 13  1  0  0  0  0
 12 32  1  0  0  0  0
 12 33  1  0  0  0  0
 12 34  1  0  0  0  0
 13 14  1  0  0  0  0
 13 35  1  0  0  0  0
 13 36  1  0  0  0  0
 14 15  1  0  0  0  0
 14 37  1  0  0  0  0
 14 38  1  0  0  0  0
 15 16  1  0  0  0  0
 15 17  1  0  0  0  0
 15 39  1  0  0  0  0
 16 40  1  0  0  0  0
 16 41  1  0  0  0  0
 16 42  1  0  0  0  0
 17 18  1  0  0  0  0
 17 43  1  0  0  0  0
 17 44  1  0  0  0  0
 18 45  1  0  0  0  0
 18 46  1  0  0  0  0
 19 20  2  0  0  0  0
 19 21  1  0  0  0  0
 21 22  1  0  0  0  0
M  END
> <s_m_source_file>
AV-unprocessed.smi

> <i_m_source_file_index>
1072

> <i_lp_mmshare_version>
43012

> <i_f3d_flags>
0

> <s_epik_input>
W0NIM11jMW5jKFtDSDNdKWMoYyg9TylbbkhdMSlbQ0gyXUMoPU8pW05IXVtDQEBdMihbQ0gzXSlbQ0gyXVtDSDJdW0NAQEhdKFtDSDNdKVtDSDJdW0NIMl0y

> <s_epik_cmdline>
J2VwaWtfcHl0aG9uJywgJy1waCcsICc3LjAnLCAnLXRuJywgJzgnLCAnLW1hJywgJzIwMCcsICctbWV0YWxfYmluZGluZycsICctaW1hZScsICc8aW5maWxlLm1hZT4nLCAnLW9tYWUnLCAnPG91dGZpbGUubWFlPic=

> <r_lp_tautomer_probability>
0.839158

> <r_epik_Ionization_Penalty>
0.000352328

> <r_epik_Ionization_Penalty_Charging>
0.000314696

> <r_epik_Ionization_Penalty_Neutral>
3.76315e-05

> <r_epik_State_Penalty>
0.09125

> <r_epik_Charging_Adjusted_Penalty>
0.0915647

> <i_epik_Tot_Q>
0

> <i_epik_Tot_abs_Q>
0

> <r_epik_Metal_State_Penalty>
0.245598

> <b_epik_Metal_Only>
0

> <s_lp_Force_Field>
OPLS_2005

> <r_lp_Energy>
11.0611

> <b_lp_Chiralities_Consistent>
1

> <s_lp_Variant>
AV-unprocessed.smi:1072-1

> <Gold.Version>
5.8.1

> <Gold.Id.Protein>
6NUR|6NUR_protein|mol2

> <Gold.PLP.Fitness>
39.2766

> <Gold.PLP.PLP>
-31.3043

> <Gold.PLP.part.hbond>
-3.0000

> <Gold.PLP.part.metal>
0.0000

> <Gold.PLP.part.buried>
-4.7302

> <Gold.PLP.part.nonpolar>
-23.7230

> <Gold.PLP.part.repulsive>
0.1176

> <Gold.PLP.ligand.clash>
0.0000

> <Gold.PLP.ligand.torsion>
0.0747

> <Gold.PLP.Chemscore.Hbond>
2.7057

> <Gold.PLP.Chemscore.CHOScore>
0.0000

> <Gold.PLP.Chemscore.Metal>
0.0000

> <Gold.Chemscore.Hbonds>
donor molecule, donor type, donor heavy atom, donor atom, acceptor molecule, acceptor atom, score
      P1  H  6896  6907       L1     9  0.99
      P1  H  6931  6943       L1    20  0.15
      P1  H  6934  6947       L1    20  0.16

> <Gold.PLP.Chemscore.Internal.Correction>
0.0048

> <Gold.Rescore>
     Score         DG    S(hbond)    S(metal)    S(lipo)     H(rot)  DE(clash)    DE(int)     intcor
     17.19     -18.43       2.64        0.00      67.50       1.47       0.00       1.24       ----

> <Gold.Chemscore.Fitness>
17.1888

> <Gold.Chemscore.DG>
-18.4254

> <Gold.Chemscore.ZeroCoef>
-5.4800

> <Gold.Chemscore.Hbond>
2.6371

> <Gold.Chemscore.Metal>
0.0000

> <Gold.Chemscore.Lipo>
67.5046

> <Gold.Chemscore.Internal_Hbond>
0.0000

> <Gold.Chemscore.DEClash>
0.0000

> <Gold.Chemscore.DEInternal>
1.2366

> <Gold.Chemscore.Rot>
1.4690

> <Gold.Chemscore.Internal.Correction>
   9.000000E+99

> <Gold.Chemscore.Hbonds>
donor molecule, donor type, donor heavy atom, donor atom, acceptor molecule, acceptor atom, score
      P1  H  6896  6907       L1     9  0.92
      P1  H  6934  6947       L1    20  0.17

> <Gold.Chemscore.Hbond.Weighted>
-8.8081

> <Gold.Chemscore.Metal.Weighted>
-0.0000

> <Gold.Chemscore.Lipo.Weighted>
-7.8980

> <Gold.Chemscore.Internal_Hbond.Weighted>
0.0000

> <Gold.Chemscore.DEClash.Weighted>
0.0000

> <Gold.Chemscore.DEInternal.Weighted>
1.2366

> <Gold.Chemscore.Rot.Weighted>
3.7607

> <Gold.Chemscore.Internal.Correction.Weighted>
   9.000000E+99

> <Gold.Protein.RotatedTorsions>
[ 6907 6896 6895 6894 ] final  -27.98 input  -60.11 | X-H torsion
[ 7974 7965 7964 7962 ] final   37.46 input  175.53 | X-H torsion
[ 8008 7997 7996 7995 ] final   76.49 input   59.86 | X-H torsion
[ 10167 10162 10161 10158 ] final -147.95 input  -65.29 | X-H torsion
[ 10718 10713 10712 10709 ] final   92.01 input   66.30 | X-H torsion
[ 10763 10752 10751 10750 ] final  161.17 input  -60.55 | X-H torsion
[ 11005 11000 10999 10996 ] final -124.74 input  -57.11 | X-H torsion

> <Gold.Protein.ActiveResidues>
 VAL166  LYS551  ARG553  GLY616  TRP617  ASP618  TYR619  PRO620  LYS621  CYS622 
 ASP623  PHE694  ASN695  SER759  ASP760  ASP761  ALA762  ILE779  LEU786  VAL792 
 PHE793  MET794  SER795  GLU796  ALA797  LYS798  CYS799  TRP800  GLU811  SER814 

> <Gold.Protein.RotatedAtoms>
  151.1394  135.0171  159.8618 H   0  0  0  0  0  0  0  0  0  0  0  0  # atno 6907 bound_to 6896
  152.5452  134.1517  159.8531 H   0  0  0  0  0  0  0  0  0  0  0  0  # atno 6908 bound_to 6896
  151.1591  133.4811  159.2627 H   0  0  0  0  0  0  0  0  0  0  0  0  # atno 6909 bound_to 6896
  146.1135  139.5891  142.9336 H   0  0  0  0  0  0  0  0  0  0  0  0  # atno 7974 bound_to 7965
  155.8281  140.3467  155.5555 H   0  0  0  0  0  0  0  0  0  0  0  0  # atno 8008 bound_to 7997
  155.8271  140.0921  157.1834 H   0  0  0  0  0  0  0  0  0  0  0  0  # atno 8009 bound_to 7997
  154.4004  140.1419  156.3557 H   0  0  0  0  0  0  0  0  0  0  0  0  # atno 8010 bound_to 7997
  139.7576  143.8425  152.2600 H   0  0  0  0  0  0  0  0  0  0  0  0  # atno 10167 bound_to 10162
  157.6959  131.0428  150.3816 H   0  0  0  0  0  0  0  0  0  0  0  0  # atno 10718 bound_to 10713
  154.2588  135.2769  155.2786 H   0  0  0  0  0  0  0  0  0  0  0  0  # atno 10763 bound_to 10752
  154.5401  135.5705  153.6836 H   0  0  0  0  0  0  0  0  0  0  0  0  # atno 10764 bound_to 10752
  152.9966  135.6249  154.2738 H   0  0  0  0  0  0  0  0  0  0  0  0  # atno 10765 bound_to 10752
  140.9817  134.0664  157.3757 H   0  0  0  0  0  0  0  0  0  0  0  0  # atno 11005 bound_to 11000
  145.5614  141.0404  143.2224 LP  0  0  0  0  0  0  0  0  0  0  0  0  # atno 17320 bound_to 7965
  144.7533  139.7139  143.7264 LP  0  0  0  0  0  0  0  0  0  0  0  0  # atno 17321 bound_to 7965
  139.8422  144.7204  150.9317 LP  0  0  0  0  0  0  0  0  0  0  0  0  # atno 17342 bound_to 10162
  140.7804  143.3973  151.1208 LP  0  0  0  0  0  0  0  0  0  0  0  0  # atno 17343 bound_to 10162
  156.4229  130.3956  149.6812 LP  0  0  0  0  0  0  0  0  0  0  0  0  # atno 17370 bound_to 10713
  156.4057  130.7697  151.2707 LP  0  0  0  0  0  0  0  0  0  0  0  0  # atno 17371 bound_to 10713
  139.8953  135.0140  156.6994 LP  0  0  0  0  0  0  0  0  0  0  0  0  # atno 17394 bound_to 11000
  140.7176  133.9168  155.8125 LP  0  0  0  0  0  0  0  0  0  0  0  0  # atno 17395 bound_to 11000

$$$$
