#       Name:                AV-unprocessed.smi:1868
#       Creating user name   scv26
#       Creation time:       Fri Mar 27 09:30:28 2020


#       File generated by GOLD software.
#

@<TRIPOS>MOLECULE
AV-unprocessed.smi:1868
    50    52     1
SMALL
NO_CHARGES


@<TRIPOS>ATOM
      1 ****        -3.1317   1.3298   3.2767 C.3            1 S1                 0.0000
      2 ****        -3.0809   1.8979   1.8981 C.2            1 S1                 0.0000
      3 ****        -3.5116   3.1361   1.5251 N.pl3          1 S1                 1.0000
      4 ****        -3.3076   3.3152   0.1559 C.ar           1 S1                 0.0000
      5 ****        -3.5837   4.3975  -0.6738 C.ar           1 S1                 0.0000
      6 ****        -3.2483   4.2521  -2.0361 C.ar           1 S1                 0.0000
      7 ****        -2.6641   3.0660  -2.5264 C.ar           1 S1                 0.0000
      8 ****        -2.3900   1.9746  -1.6758 C.ar           1 S1                 0.0000
      9 ****        -2.7229   2.1278  -0.3302 C.ar           1 S1                 0.0000
     10 ****        -2.5988   1.2838   0.7790 N.pl3          1 S1                 0.0000
     11 ****        -2.0211  -0.0575   0.6007 C.3            1 S1                 0.0000
     12 ****        -0.4810  -0.0494   0.5289 C.3            1 S1                 0.0000
     13 ****         0.0386   0.5330   1.7085 O.3            1 S1                 0.0000
     14 ****         0.0879  -1.4754   0.3897 C.3            1 S1                 0.0000
     15 ****         1.5638  -1.4888   0.2197 N.4            1 S1                 1.0000
     16 ****         2.0020  -1.1400  -1.1578 C.3            1 S1                 0.0000
     17 ****         3.5351  -1.0330  -1.2429 C.3            1 S1                 0.0000
     18 ****         4.2375  -2.3151  -0.7595 C.3            1 S1                 0.0000
     19 ****         4.1300  -3.4711  -1.7693 C.3            1 S1                 0.0000
     20 ****         3.7098  -2.6932   0.6364 C.3            1 S1                 0.0000
     21 ****         2.1728  -2.7629   0.6799 C.3            1 S1                 0.0000
     22 ****        -3.5467   2.0560   3.9762 H              1 S1                 0.0000
     23 ****        -2.1296   1.0606   3.6110 H              1 S1                 0.0000
     24 ****        -3.7570   0.4371   3.2928 H              1 S1                 0.0000
     25 ****        -4.0324   5.3070  -0.3016 H              1 S1                 0.0000
     26 ****        -3.4446   5.0665  -2.7187 H              1 S1                 0.0000
     27 ****        -2.4226   2.9916  -3.5770 H              1 S1                 0.0000
     28 ****        -1.9442   1.0700  -2.0619 H              1 S1                 0.0000
     29 ****        -2.3583  -0.6764   1.4332 H              1 S1                 0.0000
     30 ****        -2.4510  -0.4980  -0.2997 H              1 S1                 0.0000
     31 ****        -0.1732   0.5673  -0.3146 H              1 S1                 0.0000
     32 ****        -0.3030   1.4111   1.7859 H              1 S1                 0.0000
     33 ****        -0.1865  -2.0419   1.2814 H              1 S1                 0.0000
     34 ****        -0.3754  -1.9939  -0.4512 H              1 S1                 0.0000
     35 ****         1.6333  -1.8881  -1.8608 H              1 S1                 0.0000
     36 ****         1.5691  -0.1887  -1.4638 H              1 S1                 0.0000
     37 ****         3.8384  -0.7979  -2.2638 H              1 S1                 0.0000
     38 ****         3.8643  -0.1928  -0.6300 H              1 S1                 0.0000
     39 ****         5.3005  -2.0905  -0.6599 H              1 S1                 0.0000
     40 ****         3.0975  -3.7744  -1.9401 H              1 S1                 0.0000
     41 ****         4.6764  -4.3472  -1.4186 H              1 S1                 0.0000
     42 ****         4.5537  -3.1878  -2.7331 H              1 S1                 0.0000
     43 ****         4.1376  -3.6434   0.9581 H              1 S1                 0.0000
     44 ****         4.0495  -1.9498   1.3592 H              1 S1                 0.0000
     45 ****         1.8596  -2.9694   1.7042 H              1 S1                 0.0000
     46 ****         1.8062  -3.5880   0.0676 H              1 S1                 0.0000
     47 ****         1.9220  -0.7721   0.8353 H              1 S1                 0.0000
     48 ****        -3.9189   3.8080   2.1631 H              1 S1                 0.0000
     49 ****         1.0369   0.5627   1.6583 LP             1 S1                 0.0000
     50 ****        -0.2392  -0.0081   2.5023 LP             1 S1                 0.0000
@<TRIPOS>BOND
    1    1    2 1     
    2    1   22 1     
    3    1   23 1     
    4    1   24 1     
    5    2   10 1     
    6    2    3 2     
    7    3    4 1     
    8    3   48 1     
    9    4    9 ar    
   10    4    5 ar    
   11    5    6 ar    
   12    5   25 1     
   13    6    7 ar    
   14    6   26 1     
   15    7    8 ar    
   16    7   27 1     
   17    8    9 ar    
   18    8   28 1     
   19    9   10 1     
   20   10   11 1     
   21   11   12 1     
   22   11   29 1     
   23   11   30 1     
   24   12   13 1     
   25   12   14 1     
   26   12   31 1     
   27   13   32 1     
   28   14   15 1     
   29   14   33 1     
   30   14   34 1     
   31   15   21 1     
   32   15   16 1     
   33   15   47 1     
   34   16   17 1     
   35   16   35 1     
   36   16   36 1     
   37   17   18 1     
   38   17   37 1     
   39   17   38 1     
   40   18   19 1     
   41   18   20 1     
   42   18   39 1     
   43   19   40 1     
   44   19   41 1     
   45   19   42 1     
   46   20   21 1     
   47   20   43 1     
   48   20   44 1     
   49   21   45 1     
   50   21   46 1     
   51   13   49 1     
   52   13   50 1     
@<TRIPOS>SUBSTRUCTURE
      1 S1             1
@<TRIPOS>SET
LONE_PAIRS      STATIC     ATOMS    <user>   **** ""
2 49 50
DONOR_HYDROGENS      STATIC     ATOMS    <user>   **** ""
3 48 32 47
ATOM$BLUE        STATIC     ATOMS    COLORGROUP SYSTEM
2 49 50
ATOM$RED        STATIC     ATOMS    COLORGROUP SYSTEM
3 48 32 47
