AV-unprocessed.smi:767|AV-procd|sdf|3666|dock2
  -GOLD-   22720 1 73D 1   1.00000     0.00000
 Structure written by MMmdl.
 48 50  0  0  0  0  0  0  0  0  2 V2000
  151.6043  143.0787  158.1111 C   0  0  0  0  0  0  0  0  0  0  0  0
  151.2269  141.9252  157.2060 C   0  0  0  0  0  0  0  0  0  0  0  0
  151.8975  140.6839  157.2458 C   0  0  0  0  0  0  0  0  0  0  0  0
  151.4941  139.6547  156.3696 C   0  0  0  0  0  0  0  0  0  0  0  0
  150.4287  139.8871  155.4723 C   0  0  0  0  0  0  0  0  0  0  0  0
  149.9808  138.8046  154.5105 C   0  0  0  0  0  0  0  0  0  0  0  0
  148.6688  138.1424  154.9610 C   0  0  0  0  0  0  0  0  0  0  0  0
  148.3702  136.9509  154.1760 N   0  0  0  0  0  0  0  0  0  0  0  0
  147.4464  136.0356  154.4986 C   0  0  0  0  0  0  0  0  0  0  0  0
  146.7262  136.1050  155.4947 O   0  0  0  0  0  0  0  0  0  0  0  0
  147.4071  135.0321  153.6125 N   0  0  0  0  0  0  0  0  0  0  0  0
  146.5098  133.8763  153.7105 C   0  0  1  0  0  0  0  0  0  0  0  0
  145.4079  133.8904  152.6475 C   0  0  1  0  0  0  0  0  0  0  0  0
  144.8099  134.9088  151.7458 C   0  0  0  0  0  0  0  0  0  0  0  0
  144.7120  134.0133  150.4805 C   0  0  0  0  0  0  0  0  0  0  0  0
  145.4574  132.8066  150.7863 O   0  0  0  0  0  0  0  0  0  0  0  0
  146.4186  133.2315  151.7321 C   0  0  2  0  0  0  0  0  0  0  0  0
  147.0127  132.5617  152.9914 C   0  0  0  0  0  0  0  0  0  0  0  0
  148.5258  132.3188  152.9535 C   0  0  0  0  0  0  0  0  0  0  0  0
  146.3861  131.2303  153.4434 C   0  0  0  0  0  0  0  0  0  0  0  0
  149.7943  141.1478  155.4782 C   0  0  0  0  0  0  0  0  0  0  0  0
  150.2108  142.1078  156.3327 N   0  3  0  0  0  0  0  0  0  0  0  0
  152.4168  142.8013  158.7832 H   0  0  0  0  0  0  0  0  0  0  0  0
  150.7501  143.3819  158.7172 H   0  0  0  0  0  0  0  0  0  0  0  0
  151.9295  143.9353  157.5198 H   0  0  0  0  0  0  0  0  0  0  0  0
  152.7121  140.5194  157.9361 H   0  0  0  0  0  0  0  0  0  0  0  0
  152.0002  138.7003  156.3855 H   0  0  0  0  0  0  0  0  0  0  0  0
  149.8647  139.2415  153.5177 H   0  0  0  0  0  0  0  0  0  0  0  0
  150.7695  138.0555  154.4256 H   0  0  0  0  0  0  0  0  0  0  0  0
  148.7398  137.8482  156.0085 H   0  0  0  0  0  0  0  0  0  0  0  0
  147.8401  138.8499  154.8930 H   0  0  0  0  0  0  0  0  0  0  0  0
  148.9138  136.8061  153.3374 H   0  0  0  0  0  0  0  0  0  0  0  0
  148.0380  135.0589  152.8251 H   0  0  0  0  0  0  0  0  0  0  0  0
  146.1233  133.6994  154.7157 H   0  0  0  0  0  0  0  0  0  0  0  0
  144.6180  133.2060  152.9666 H   0  0  0  0  0  0  0  0  0  0  0  0
  143.8360  135.2600  152.0877 H   0  0  0  0  0  0  0  0  0  0  0  0
  145.4684  135.7649  151.5922 H   0  0  0  0  0  0  0  0  0  0  0  0
  143.6799  133.7541  150.2436 H   0  0  0  0  0  0  0  0  0  0  0  0
  145.1418  134.5168  149.6137 H   0  0  0  0  0  0  0  0  0  0  0  0
  147.1230  133.9302  151.2688 H   0  0  0  0  0  0  0  0  0  0  0  0
  148.7770  131.4403  152.3582 H   0  0  0  0  0  0  0  0  0  0  0  0
  148.9293  132.1656  153.9550 H   0  0  0  0  0  0  0  0  0  0  0  0
  149.0644  133.1583  152.5139 H   0  0  0  0  0  0  0  0  0  0  0  0
  146.5566  130.4445  152.7071 H   0  0  0  0  0  0  0  0  0  0  0  0
  145.3101  131.2859  153.5991 H   0  0  0  0  0  0  0  0  0  0  0  0
  146.8172  130.8919  154.3862 H   0  0  0  0  0  0  0  0  0  0  0  0
  148.9754  141.4177  154.8272 H   0  0  0  0  0  0  0  0  0  0  0  0
  149.7382  143.0119  156.3167 H   0  0  0  0  0  0  0  0  0  0  0  0
  1  2  1  0  0  0  0
  1 23  1  0  0  0  0
  1 24  1  0  0  0  0
  1 25  1  0  0  0  0
  2 22  1  0  0  0  0
  2  3  2  0  0  0  0
  3  4  1  0  0  0  0
  3 26  1  0  0  0  0
  4  5  2  0  0  0  0
  4 27  1  0  0  0  0
  5  6  1  0  0  0  0
  5 21  1  0  0  0  0
  6  7  1  0  0  0  0
  6 28  1  0  0  0  0
  6 29  1  0  0  0  0
  7  8  1  0  0  0  0
  7 30  1  0  0  0  0
  7 31  1  0  0  0  0
  8  9  1  0  0  0  0
  8 32  1  0  0  0  0
  9 10  2  0  0  0  0
  9 11  1  0  0  0  0
 11 12  1  0  0  0  0
 11 33  1  0  0  0  0
 12 18  1  0  0  0  0
 12 13  1  0  0  0  0
 12 34  1  0  0  0  0
 13 17  1  0  0  0  0
 13 14  1  0  0  0  0
 13 35  1  0  0  0  0
 14 15  1  0  0  0  0
 14 36  1  0  0  0  0
 14 37  1  0  0  0  0
 15 16  1  0  0  0  0
 15 38  1  0  0  0  0
 15 39  1  0  0  0  0
 16 17  1  0  0  0  0
 17 18  1  0  0  0  0
 17 40  1  0  0  0  0
 18 19  1  0  0  0  0
 18 20  1  0  0  0  0
 19 41  1  0  0  0  0
 19 42  1  0  0  0  0
 19 43  1  0  0  0  0
 20 44  1  0  0  0  0
 20 45  1  0  0  0  0
 20 46  1  0  0  0  0
 21 22  2  0  0  0  0
 21 47  1  0  0  0  0
 22 48  1  0  0  0  0
M  CHG  1  22   1
M  END
> <s_m_source_file>
AV-unprocessed.smi

> <i_m_source_file_index>
767

> <i_lp_mmshare_version>
43012

> <i_f3d_flags>
0

> <s_epik_input>
W0NIM11jMVtjSF1bY0hdYyhbY0hdbjEpW0NIMl1bQ0gyXVtOSF1DKD1PKVtOSF1bQ0BIXTJDKFtDSDNdKShbQ0gzXSlbQ0BIXShbQ0BASF0yMylPW0NIMl1bQ0gyXTM=

> <s_epik_cmdline>
J2VwaWtfcHl0aG9uJywgJy1waCcsICc3LjAnLCAnLXRuJywgJzgnLCAnLW1hJywgJzIwMCcsICctbWV0YWxfYmluZGluZycsICctaW1hZScsICc8aW5maWxlLm1hZT4nLCAnLW9tYWUnLCAnPG91dGZpbGUubWFlPic=

> <r_epik_Ionization_Penalty>
1.41853

> <r_epik_Ionization_Penalty_Charging>
1.41848

> <r_epik_Ionization_Penalty_Neutral>
5.17407e-05

> <r_epik_State_Penalty>
1.50205

> <r_epik_Charging_Adjusted_Penalty>
2.92053

> <i_epik_Tot_Q>
1

> <i_epik_Tot_abs_Q>
1

> <r_epik_Metal_State_Penalty>
1.5544

> <b_epik_Metal_Only>
0

> <s_lp_Force_Field>
OPLS_2005

> <r_lp_Energy>
64.9812

> <b_lp_Chiralities_Consistent>
1

> <s_lp_Variant>
AV-unprocessed.smi:767-10

> <Gold.Version>
5.8.1

> <Gold.Id.Protein>
6NUR|6NUR_protein|mol2

> <Gold.PLP.Fitness>
45.8594

> <Gold.PLP.PLP>
-35.1020

> <Gold.PLP.part.hbond>
-2.9480

> <Gold.PLP.part.metal>
0.0000

> <Gold.PLP.part.buried>
-4.6114

> <Gold.PLP.part.nonpolar>
-28.7579

> <Gold.PLP.part.repulsive>
0.2828

> <Gold.PLP.ligand.clash>
0.0000

> <Gold.PLP.ligand.torsion>
0.5385

> <Gold.PLP.Chemscore.Hbond>
3.8560

> <Gold.PLP.Chemscore.CHOScore>
0.0000

> <Gold.PLP.Chemscore.Metal>
0.0000

> <Gold.Chemscore.Hbonds>
donor molecule, donor type, donor heavy atom, donor atom, acceptor molecule, acceptor atom, score
      L1  H     8    32       P1  7948  0.98
      L1  H    11    33       P1  7948  0.83
      L1  H    22    48       P1  8028  2.00

> <Gold.PLP.Chemscore.Internal.Correction>
0.2662

> <Gold.Rescore>
     Score         DG    S(hbond)    S(metal)    S(lipo)     H(rot)  DE(clash)    DE(int)     intcor
     21.23     -21.66       2.84        0.00      90.70       1.52       0.02       0.41       ----

> <Gold.Chemscore.Fitness>
21.2252

> <Gold.Chemscore.DG>
-21.6629

> <Gold.Chemscore.ZeroCoef>
-5.4800

> <Gold.Chemscore.Hbond>
2.8354

> <Gold.Chemscore.Metal>
0.0000

> <Gold.Chemscore.Lipo>
90.7034

> <Gold.Chemscore.Internal_Hbond>
0.0000

> <Gold.Chemscore.DEClash>
0.0250

> <Gold.Chemscore.DEInternal>
0.4128

> <Gold.Chemscore.Rot>
1.5233

> <Gold.Chemscore.Internal.Correction>
   9.000000E+99

> <Gold.Chemscore.Hbonds>
donor molecule, donor type, donor heavy atom, donor atom, acceptor molecule, acceptor atom, score
      L1  H     8    32       P1  7948  0.89
      L1  H    11    33       P1  7948  0.80
      L1  H    22    48       P1  8028  0.94

> <Gold.Chemscore.Hbond.Weighted>
-9.4701

> <Gold.Chemscore.Metal.Weighted>
-0.0000

> <Gold.Chemscore.Lipo.Weighted>
-10.6123

> <Gold.Chemscore.Internal_Hbond.Weighted>
0.0000

> <Gold.Chemscore.DEClash.Weighted>
0.0250

> <Gold.Chemscore.DEInternal.Weighted>
0.4128

> <Gold.Chemscore.Rot.Weighted>
3.8995

> <Gold.Chemscore.Internal.Correction.Weighted>
   9.000000E+99

> <Gold.Protein.RotatedTorsions>
[ 6907 6896 6895 6894 ] final  174.37 input  -60.11 | X-H torsion
[ 7974 7965 7964 7962 ] final  153.21 input  175.53 | X-H torsion
[ 8008 7997 7996 7995 ] final -126.26 input   59.86 | X-H torsion
[ 10167 10162 10161 10158 ] final   49.82 input  -65.29 | X-H torsion
[ 10718 10713 10712 10709 ] final  -70.18 input   66.30 | X-H torsion
[ 10763 10752 10751 10750 ] final  133.42 input  -60.55 | X-H torsion
[ 11005 11000 10999 10996 ] final  -85.75 input  -57.11 | X-H torsion

> <Gold.Protein.ActiveResidues>
 VAL166  LYS551  ARG553  GLY616  TRP617  ASP618  TYR619  PRO620  LYS621  CYS622 
 ASP623  PHE694  ASN695  SER759  ASP760  ASP761  ALA762  ILE779  LEU786  VAL792 
 PHE793  MET794  SER795  GLU796  ALA797  LYS798  CYS799  TRP800  GLU811  SER814 

> <Gold.Protein.RotatedAtoms>
  151.7534  133.3329  159.3397 H   0  0  0  0  0  0  0  0  0  0  0  0  # atno 6907 bound_to 6896
  150.7526  134.6172  159.6126 H   0  0  0  0  0  0  0  0  0  0  0  0  # atno 6908 bound_to 6896
  152.3453  134.7081  160.0303 H   0  0  0  0  0  0  0  0  0  0  0  0  # atno 6909 bound_to 6896
  144.8170  139.6770  143.6117 H   0  0  0  0  0  0  0  0  0  0  0  0  # atno 7974 bound_to 7965
  155.2268  140.0424  157.2956 H   0  0  0  0  0  0  0  0  0  0  0  0  # atno 8008 bound_to 7997
  154.5914  140.2427  155.7886 H   0  0  0  0  0  0  0  0  0  0  0  0  # atno 8009 bound_to 7997
  156.2261  140.2954  156.0080 H   0  0  0  0  0  0  0  0  0  0  0  0  # atno 8010 bound_to 7997
  140.2789  144.3179  150.6269 H   0  0  0  0  0  0  0  0  0  0  0  0  # atno 10167 bound_to 10162
  156.0420  130.4326  150.2257 H   0  0  0  0  0  0  0  0  0  0  0  0  # atno 10718 bound_to 10713
  153.8069  135.3134  155.3396 H   0  0  0  0  0  0  0  0  0  0  0  0  # atno 10763 bound_to 10752
  154.8067  135.4693  154.0413 H   0  0  0  0  0  0  0  0  0  0  0  0  # atno 10764 bound_to 10752
  153.1779  135.6888  153.8606 H   0  0  0  0  0  0  0  0  0  0  0  0  # atno 10765 bound_to 10752
  141.1638  133.7417  156.9061 H   0  0  0  0  0  0  0  0  0  0  0  0  # atno 11005 bound_to 11000
  146.2474  139.6126  142.9450 LP  0  0  0  0  0  0  0  0  0  0  0  0  # atno 17320 bound_to 7965
  145.5192  141.0432  143.2445 LP  0  0  0  0  0  0  0  0  0  0  0  0  # atno 17321 bound_to 7965
  140.5828  143.2171  151.7397 LP  0  0  0  0  0  0  0  0  0  0  0  0  # atno 17342 bound_to 10162
  139.4968  144.4055  152.0136 LP  0  0  0  0  0  0  0  0  0  0  0  0  # atno 17343 bound_to 10162
  157.0351  131.0019  151.3300 LP  0  0  0  0  0  0  0  0  0  0  0  0  # atno 17370 bound_to 10713
  157.5249  130.8022  149.7851 LP  0  0  0  0  0  0  0  0  0  0  0  0  # atno 17371 bound_to 10713
  140.1549  134.9205  157.2640 LP  0  0  0  0  0  0  0  0  0  0  0  0  # atno 17394 bound_to 11000
  140.2679  134.3494  155.7383 LP  0  0  0  0  0  0  0  0  0  0  0  0  # atno 17395 bound_to 11000

$$$$
