AV-unprocessed.smi:1439|AV-procd|sdf|5869|dock9
  -GOLD-   22720 5543D 1   1.00000     0.00000
 Structure written by MMmdl.
 36 37  0  0  0  0  0  0  0  0  1 V2000
  148.6054  135.8656  153.9553 N   0  0  0  0  0  0  0  0  0  0  0  0
  147.7587  136.7151  154.5435 C   0  0  0  0  0  0  0  0  0  0  0  0
  147.5740  136.7230  155.7587 O   0  0  0  0  0  0  0  0  0  0  0  0
  147.0068  137.6930  153.6383 C   0  0  0  0  0  0  0  0  0  0  0  0
  147.3944  139.1077  153.9599 C   0  0  0  0  0  0  0  0  0  0  0  0
  146.8878  140.2506  153.3883 C   0  0  0  0  0  0  0  0  0  0  0  0
  147.6109  141.6912  154.0502 S   0  0  0  0  0  0  0  0  0  0  0  0
  148.5991  140.6650  155.0915 C   0  0  0  0  0  0  0  0  0  0  0  0
  149.5690  141.0784  156.0383 N   0  0  0  0  0  0  0  0  0  0  0  0
  150.9076  141.0011  155.9390 C   0  0  0  0  0  0  0  0  0  0  0  0
  151.5097  140.5397  154.9697 O   0  0  0  0  0  0  0  0  0  0  0  0
  151.6933  141.5299  157.1431 C   0  0  0  0  0  0  0  0  0  0  0  0
  151.2432  142.9355  157.5814 C   0  0  0  0  0  0  0  0  0  0  0  0
  152.0787  143.4860  158.7462 C   0  0  2  0  0  0  0  0  0  0  0  0
  152.2849  142.4920  159.8851 C   0  0  0  0  0  0  0  0  0  0  0  0
  152.6177  143.3936  161.0602 C   0  0  0  0  0  0  0  0  0  0  0  0
  152.0034  144.7439  160.6749 C   0  0  0  0  0  0  0  0  0  0  0  0
  151.4050  144.5512  159.3981 O   0  0  0  0  0  0  0  0  0  0  0  0
  148.3740  139.3603  154.9275 N   0  0  0  0  0  0  0  0  0  0  0  0
  149.1272  135.2089  154.5175 H   0  0  0  0  0  0  0  0  0  0  0  0
  148.7269  135.8874  152.9531 H   0  0  0  0  0  0  0  0  0  0  0  0
  147.2185  137.4544  152.5948 H   0  0  0  0  0  0  0  0  0  0  0  0
  145.9336  137.5527  153.7719 H   0  0  0  0  0  0  0  0  0  0  0  0
  146.1304  140.3303  152.6225 H   0  0  0  0  0  0  0  0  0  0  0  0
  149.2032  141.4830  156.8878 H   0  0  0  0  0  0  0  0  0  0  0  0
  151.5884  140.8368  157.9793 H   0  0  0  0  0  0  0  0  0  0  0  0
  152.7515  141.5425  156.8802 H   0  0  0  0  0  0  0  0  0  0  0  0
  151.2982  143.6277  156.7399 H   0  0  0  0  0  0  0  0  0  0  0  0
  150.1954  142.8994  157.8834 H   0  0  0  0  0  0  0  0  0  0  0  0
  153.0462  143.8428  158.3882 H   0  0  0  0  0  0  0  0  0  0  0  0
  151.3588  141.9525  160.0882 H   0  0  0  0  0  0  0  0  0  0  0  0
  153.0650  141.7596  159.6747 H   0  0  0  0  0  0  0  0  0  0  0  0
  152.2140  143.0048  161.9954 H   0  0  0  0  0  0  0  0  0  0  0  0
  153.6979  143.4916  161.1749 H   0  0  0  0  0  0  0  0  0  0  0  0
  151.2560  145.0778  161.3951 H   0  0  0  0  0  0  0  0  0  0  0  0
  152.7745  145.5120  160.6058 H   0  0  0  0  0  0  0  0  0  0  0  0
  1  2  1  0  0  0  0
  1 20  1  0  0  0  0
  1 21  1  0  0  0  0
  2  3  2  0  0  0  0
  2  4  1  0  0  0  0
  4  5  1  0  0  0  0
  4 22  1  0  0  0  0
  4 23  1  0  0  0  0
  5 19  1  0  0  0  0
  5  6  2  0  0  0  0
  6  7  1  0  0  0  0
  6 24  1  0  0  0  0
  7  8  1  0  0  0  0
  8  9  1  0  0  0  0
  8 19  2  0  0  0  0
  9 10  1  0  0  0  0
  9 25  1  0  0  0  0
 10 11  2  0  0  0  0
 10 12  1  0  0  0  0
 12 13  1  0  0  0  0
 12 26  1  0  0  0  0
 12 27  1  0  0  0  0
 13 14  1  0  0  0  0
 13 28  1  0  0  0  0
 13 29  1  0  0  0  0
 14 18  1  0  0  0  0
 14 15  1  0  0  0  0
 14 30  1  0  0  0  0
 15 16  1  0  0  0  0
 15 31  1  0  0  0  0
 15 32  1  0  0  0  0
 16 17  1  0  0  0  0
 16 33  1  0  0  0  0
 16 34  1  0  0  0  0
 17 18  1  0  0  0  0
 17 35  1  0  0  0  0
 17 36  1  0  0  0  0
M  END
> <s_m_source_file>
AV-unprocessed.smi

> <i_m_source_file_index>
1439

> <i_lp_mmshare_version>
43012

> <i_f3d_flags>
0

> <s_epik_input>
W05IMl1DKD1PKVtDSDJdYzFbY0hdc2MobjEpW05IXUMoPU8pW0NIMl1bQ0gyXVtDQEBIXTJbQ0gyXVtDSDJdW0NIMl1PMg==

> <s_epik_cmdline>
J2VwaWtfcHl0aG9uJywgJy1waCcsICc3LjAnLCAnLXRuJywgJzgnLCAnLW1hJywgJzIwMCcsICctbWV0YWxfYmluZGluZycsICctaW1hZScsICc8aW5maWxlLm1hZT4nLCAnLW9tYWUnLCAnPG91dGZpbGUubWFlPic=

> <r_lp_tautomer_probability>
1

> <r_epik_Ionization_Penalty>
0.000300833

> <r_epik_Ionization_Penalty_Charging>
0

> <r_epik_Ionization_Penalty_Neutral>
0.000300833

> <r_epik_State_Penalty>
-0

> <r_epik_Charging_Adjusted_Penalty>
0

> <i_epik_Tot_Q>
0

> <i_epik_Tot_abs_Q>
0

> <r_epik_Metal_State_Penalty>
0.167159

> <b_epik_Metal_Only>
0

> <s_lp_Force_Field>
OPLS_2005

> <r_lp_Energy>
15.8288

> <b_lp_Chiralities_Consistent>
1

> <s_lp_Variant>
AV-unprocessed.smi:1439-1

> <Gold.Version>
5.8.1

> <Gold.Id.Protein>
6NUR|6NUR_protein|mol2

> <Gold.PLP.Fitness>
40.7654

> <Gold.PLP.PLP>
-33.6116

> <Gold.PLP.part.hbond>
-2.0000

> <Gold.PLP.part.metal>
0.0000

> <Gold.PLP.part.buried>
-5.6718

> <Gold.PLP.part.nonpolar>
-26.0542

> <Gold.PLP.part.repulsive>
0.3035

> <Gold.PLP.ligand.clash>
0.0000

> <Gold.PLP.ligand.torsion>
0.9352

> <Gold.PLP.Chemscore.Hbond>
2.0000

> <Gold.PLP.Chemscore.CHOScore>
0.9919

> <Gold.PLP.Chemscore.Metal>
0.0000

> <Gold.Chemscore.Hbonds>
donor molecule, donor type, donor heavy atom, donor atom, acceptor molecule, acceptor atom, score
      L1  H     1    21       P1  7948  0.05
      P1  H  7989  7998       L1    11  0.80
      L1  C     6    24       P1 10175  1.00

> <Gold.PLP.Chemscore.Internal.Correction>
0.0486

> <Gold.Rescore>
     Score         DG    S(hbond)    S(metal)    S(lipo)     H(rot)  DE(clash)    DE(int)     intcor
     14.05     -15.44       1.96        0.00      85.15       2.56       0.13       1.25       ----

> <Gold.Chemscore.Fitness>
14.0542

> <Gold.Chemscore.DG>
-15.4372

> <Gold.Chemscore.ZeroCoef>
-5.4800

> <Gold.Chemscore.Hbond>
1.9604

> <Gold.Chemscore.Metal>
0.0000

> <Gold.Chemscore.Lipo>
85.1521

> <Gold.Chemscore.Internal_Hbond>
0.0000

> <Gold.Chemscore.DEClash>
0.1300

> <Gold.Chemscore.DEInternal>
1.2529

> <Gold.Chemscore.Rot>
2.5598

> <Gold.Chemscore.Internal.Correction>
   9.000000E+99

> <Gold.Chemscore.Hbonds>
donor molecule, donor type, donor heavy atom, donor atom, acceptor molecule, acceptor atom, score
      L1  H     1    21       P1  7948  0.10
      P1  H  7989  7998       L1    11  0.77

> <Gold.Chemscore.Hbond.Weighted>
-6.5476

> <Gold.Chemscore.Metal.Weighted>
-0.0000

> <Gold.Chemscore.Lipo.Weighted>
-9.9628

> <Gold.Chemscore.Internal_Hbond.Weighted>
0.0000

> <Gold.Chemscore.DEClash.Weighted>
0.1300

> <Gold.Chemscore.DEInternal.Weighted>
1.2529

> <Gold.Chemscore.Rot.Weighted>
6.5532

> <Gold.Chemscore.Internal.Correction.Weighted>
   9.000000E+99

> <Gold.Protein.RotatedTorsions>
[ 6907 6896 6895 6894 ] final   57.80 input  -60.11 | X-H torsion
[ 7974 7965 7964 7962 ] final   85.32 input  175.53 | X-H torsion
[ 8008 7997 7996 7995 ] final  132.76 input   59.86 | X-H torsion
[ 10167 10162 10161 10158 ] final   35.57 input  -65.29 | X-H torsion
[ 10718 10713 10712 10709 ] final  178.91 input   66.30 | X-H torsion
[ 10763 10752 10751 10750 ] final -116.03 input  -60.55 | X-H torsion
[ 11005 11000 10999 10996 ] final   15.53 input  -57.11 | X-H torsion

> <Gold.Protein.ActiveResidues>
 VAL166  LYS551  ARG553  GLY616  TRP617  ASP618  TYR619  PRO620  LYS621  CYS622 
 ASP623  PHE694  ASN695  SER759  ASP760  ASP761  ALA762  ILE779  LEU786  VAL792 
 PHE793  MET794  SER795  GLU796  ALA797  LYS798  CYS799  TRP800  GLU811  SER814 

> <Gold.Protein.RotatedAtoms>
  152.3765  134.6655  160.0157 H   0  0  0  0  0  0  0  0  0  0  0  0  # atno 6907 bound_to 6896
  151.6931  133.3305  159.3256 H   0  0  0  0  0  0  0  0  0  0  0  0  # atno 6908 bound_to 6896
  150.7714  134.6616  159.6387 H   0  0  0  0  0  0  0  0  0  0  0  0  # atno 6909 bound_to 6896
  145.5871  139.2333  143.2320 H   0  0  0  0  0  0  0  0  0  0  0  0  # atno 7974 bound_to 7965
  156.2986  140.2538  156.3142 H   0  0  0  0  0  0  0  0  0  0  0  0  # atno 8008 bound_to 7997
  154.9297  140.0398  157.2060 H   0  0  0  0  0  0  0  0  0  0  0  0  # atno 8009 bound_to 7997
  154.8230  140.2863  155.5778 H   0  0  0  0  0  0  0  0  0  0  0  0  # atno 8010 bound_to 7997
  140.4210  144.1460  150.6148 H   0  0  0  0  0  0  0  0  0  0  0  0  # atno 10167 bound_to 10162
  156.8835  130.9823  151.3059 H   0  0  0  0  0  0  0  0  0  0  0  0  # atno 10718 bound_to 10713
  154.8504  135.4360  154.1757 H   0  0  0  0  0  0  0  0  0  0  0  0  # atno 10763 bound_to 10752
  153.2860  135.6957  153.7345 H   0  0  0  0  0  0  0  0  0  0  0  0  # atno 10764 bound_to 10752
  153.6531  135.3448  155.3080 H   0  0  0  0  0  0  0  0  0  0  0  0  # atno 10765 bound_to 10752
  140.4573  134.1163  155.7711 H   0  0  0  0  0  0  0  0  0  0  0  0  # atno 11005 bound_to 11000
  146.1674  140.6697  142.9249 LP  0  0  0  0  0  0  0  0  0  0  0  0  # atno 17320 bound_to 7965
  144.7368  140.4830  143.6898 LP  0  0  0  0  0  0  0  0  0  0  0  0  # atno 17321 bound_to 7965
  140.4534  143.2477  151.9317 LP  0  0  0  0  0  0  0  0  0  0  0  0  # atno 17342 bound_to 10162
  139.4782  144.5539  151.8343 LP  0  0  0  0  0  0  0  0  0  0  0  0  # atno 17343 bound_to 10162
  157.6126  130.8594  149.8976 LP  0  0  0  0  0  0  0  0  0  0  0  0  # atno 17370 bound_to 10713
  156.0665  130.3691  150.0867 LP  0  0  0  0  0  0  0  0  0  0  0  0  # atno 17371 bound_to 10713
  141.1637  133.8744  157.1775 LP  0  0  0  0  0  0  0  0  0  0  0  0  # atno 17394 bound_to 11000
  139.9968  135.0043  157.0100 LP  0  0  0  0  0  0  0  0  0  0  0  0  # atno 17395 bound_to 11000

$$$$
