AV-unprocessed.smi:3178|AV-procd|sdf|12130|dock1
  -GOLD-   2272017573D 1   1.00000     0.00000
 Structure written by MMmdl.
 35 35  0  0  0  0  0  0  0  0  1 V2000
  150.5654  144.4670  160.1653 C   0  0  0  0  0  0  0  0  0  0  0  0
  150.6665  143.1889  159.5499 O   0  0  0  0  0  0  0  0  0  0  0  0
  151.7643  142.9492  158.6620 C   0  0  0  0  0  0  0  0  0  0  0  0
  151.7548  144.0192  157.5527 C   0  0  0  0  0  0  0  0  0  0  0  0
  153.1218  142.9510  159.4041 C   0  0  0  0  0  0  0  0  0  0  0  0
  151.4854  141.5641  158.0284 C   0  0  0  0  0  0  0  0  0  0  0  0
  150.3567  141.6063  157.1040 N   0  0  0  0  0  0  0  0  0  0  0  0
  150.3779  141.1800  155.8315 C   0  0  0  0  0  0  0  0  0  0  0  0
  151.3051  140.5341  155.3437 O   0  0  0  0  0  0  0  0  0  0  0  0
  149.1861  141.5855  154.9641 C   0  0  0  0  0  0  0  0  0  0  0  0
  148.6317  140.3696  154.2662 C   0  0  0  0  0  0  0  0  0  0  0  0
  147.3356  140.1979  153.6935 C   0  0  0  0  0  0  0  0  0  0  0  0
  147.3351  138.9120  153.2331 C   0  0  0  0  0  0  0  0  0  0  0  0
  146.2770  138.1147  152.5491 C   0  0  0  0  0  0  0  0  0  0  0  0
  148.5776  138.3994  153.5267 N   0  0  0  0  0  0  0  0  0  0  0  0
  149.3782  139.2795  154.1560 N   0  0  0  0  0  0  0  0  0  0  0  0
  148.8882  137.4636  153.3071 H   0  0  0  0  0  0  0  0  0  0  0  0
  149.6338  144.5128  160.7288 H   0  0  0  0  0  0  0  0  0  0  0  0
  150.5489  145.2790  159.4395 H   0  0  0  0  0  0  0  0  0  0  0  0
  151.3760  144.6386  160.8734 H   0  0  0  0  0  0  0  0  0  0  0  0
  152.5028  143.7992  156.7902 H   0  0  0  0  0  0  0  0  0  0  0  0
  151.9761  145.0140  157.9381 H   0  0  0  0  0  0  0  0  0  0  0  0
  150.7841  144.0646  157.0578 H   0  0  0  0  0  0  0  0  0  0  0  0
  153.9266  142.6232  158.7455 H   0  0  0  0  0  0  0  0  0  0  0  0
  153.1118  142.2869  160.2691 H   0  0  0  0  0  0  0  0  0  0  0  0
  153.3891  143.9462  159.7595 H   0  0  0  0  0  0  0  0  0  0  0  0
  152.3787  141.1816  157.5312 H   0  0  0  0  0  0  0  0  0  0  0  0
  151.2414  140.8419  158.8081 H   0  0  0  0  0  0  0  0  0  0  0  0
  149.5413  142.1163  157.4118 H   0  0  0  0  0  0  0  0  0  0  0  0
  148.4188  142.0454  155.5880 H   0  0  0  0  0  0  0  0  0  0  0  0
  149.5063  142.3444  154.2485 H   0  0  0  0  0  0  0  0  0  0  0  0
  146.5244  140.9094  153.6457 H   0  0  0  0  0  0  0  0  0  0  0  0
  145.9334  138.6225  151.6479 H   0  0  0  0  0  0  0  0  0  0  0  0
  145.4183  137.9735  153.2055 H   0  0  0  0  0  0  0  0  0  0  0  0
  146.6462  137.1301  152.2611 H   0  0  0  0  0  0  0  0  0  0  0  0
  1  2  1  0  0  0  0
  1 18  1  0  0  0  0
  1 19  1  0  0  0  0
  1 20  1  0  0  0  0
  2  3  1  0  0  0  0
  3  4  1  0  0  0  0
  3  5  1  0  0  0  0
  3  6  1  0  0  0  0
  4 21  1  0  0  0  0
  4 22  1  0  0  0  0
  4 23  1  0  0  0  0
  5 24  1  0  0  0  0
  5 25  1  0  0  0  0
  5 26  1  0  0  0  0
  6  7  1  0  0  0  0
  6 27  1  0  0  0  0
  6 28  1  0  0  0  0
  7  8  1  0  0  0  0
  7 29  1  0  0  0  0
  8  9  2  0  0  0  0
  8 10  1  0  0  0  0
 10 11  1  0  0  0  0
 10 30  1  0  0  0  0
 10 31  1  0  0  0  0
 11 16  2  0  0  0  0
 11 12  1  0  0  0  0
 12 13  2  0  0  0  0
 12 32  1  0  0  0  0
 13 14  1  0  0  0  0
 13 15  1  0  0  0  0
 14 33  1  0  0  0  0
 14 34  1  0  0  0  0
 14 35  1  0  0  0  0
 15 17  1  0  0  0  0
 15 16  1  0  0  0  0
M  END
> <s_m_source_file>
AV-unprocessed.smi

> <i_m_source_file_index>
3178

> <i_lp_mmshare_version>
43012

> <i_f3d_flags>
0

> <s_epik_input>
W0NIM11PQyhbQ0gzXSkoW0NIM10pW0NIMl1bTkhdQyg9TylbQ0gyXWMxW2NIXWMoW0NIM10pW25IXW4x

> <s_epik_cmdline>
J2VwaWtfcHl0aG9uJywgJy1waCcsICc3LjAnLCAnLXRuJywgJzgnLCAnLW1hJywgJzIwMCcsICctbWV0YWxfYmluZGluZycsICctaW1hZScsICc8aW5maWxlLm1hZT4nLCAnLW9tYWUnLCAnPG91dGZpbGUubWFlPic=

> <r_lp_tautomer_probability>
0.5

> <r_epik_Ionization_Penalty>
8.10473e-05

> <r_epik_Ionization_Penalty_Charging>
0

> <r_epik_Ionization_Penalty_Neutral>
8.10473e-05

> <r_epik_State_Penalty>
0.41068

> <r_epik_Charging_Adjusted_Penalty>
0.41068

> <i_epik_Tot_Q>
0

> <i_epik_Tot_abs_Q>
0

> <r_epik_Metal_State_Penalty>
0.410702

> <b_epik_Metal_Only>
0

> <s_lp_Force_Field>
OPLS_2005

> <r_lp_Energy>
5.73531

> <b_lp_Chiralities_Consistent>
1

> <s_lp_Variant>
AV-unprocessed.smi:3178-1

> <Gold.Version>
5.8.1

> <Gold.Id.Protein>
6NUR|6NUR_protein|mol2

> <Gold.PLP.Fitness>
39.0125

> <Gold.PLP.PLP>
-34.5527

> <Gold.PLP.part.hbond>
-3.5247

> <Gold.PLP.part.metal>
0.0000

> <Gold.PLP.part.buried>
-1.9564

> <Gold.PLP.part.nonpolar>
-29.4006

> <Gold.PLP.part.repulsive>
1.1975

> <Gold.PLP.ligand.clash>
0.0000

> <Gold.PLP.ligand.torsion>
0.4996

> <Gold.PLP.Chemscore.Hbond>
1.7920

> <Gold.PLP.Chemscore.CHOScore>
0.0000

> <Gold.PLP.Chemscore.Metal>
0.0000

> <Gold.Chemscore.Hbonds>
donor molecule, donor type, donor heavy atom, donor atom, acceptor molecule, acceptor atom, score
      L1  H    15    17       P1  7948  0.82
      P1  H  7989  7998       L1     9  0.88

> <Gold.PLP.Chemscore.Internal.Correction>
0.0830

> <Gold.Rescore>
     Score         DG    S(hbond)    S(metal)    S(lipo)     H(rot)  DE(clash)    DE(int)     intcor
     14.09     -16.86       1.73        0.00      89.08       1.89       0.73       2.04       ----

> <Gold.Chemscore.Fitness>
14.0856

> <Gold.Chemscore.DG>
-16.8561

> <Gold.Chemscore.ZeroCoef>
-5.4800

> <Gold.Chemscore.Hbond>
1.7322

> <Gold.Chemscore.Metal>
0.0000

> <Gold.Chemscore.Lipo>
89.0845

> <Gold.Chemscore.Internal_Hbond>
0.0000

> <Gold.Chemscore.DEClash>
0.7332

> <Gold.Chemscore.DEInternal>
2.0372

> <Gold.Chemscore.Rot>
1.8877

> <Gold.Chemscore.Internal.Correction>
   9.000000E+99

> <Gold.Chemscore.Hbonds>
donor molecule, donor type, donor heavy atom, donor atom, acceptor molecule, acceptor atom, score
      L1  H    15    17       P1  7948  0.81
      P1  H  7989  7998       L1     9  0.78

> <Gold.Chemscore.Hbond.Weighted>
-5.7857

> <Gold.Chemscore.Metal.Weighted>
-0.0000

> <Gold.Chemscore.Lipo.Weighted>
-10.4229

> <Gold.Chemscore.Internal_Hbond.Weighted>
0.0000

> <Gold.Chemscore.DEClash.Weighted>
0.7332

> <Gold.Chemscore.DEInternal.Weighted>
2.0372

> <Gold.Chemscore.Rot.Weighted>
4.8325

> <Gold.Chemscore.Internal.Correction.Weighted>
   9.000000E+99

> <Gold.Protein.RotatedTorsions>
[ 6907 6896 6895 6894 ] final   74.41 input  -60.11 | X-H torsion
[ 7974 7965 7964 7962 ] final  -16.47 input  175.53 | X-H torsion
[ 8008 7997 7996 7995 ] final   49.95 input   59.86 | X-H torsion
[ 10167 10162 10161 10158 ] final -154.73 input  -65.29 | X-H torsion
[ 10718 10713 10712 10709 ] final  125.19 input   66.30 | X-H torsion
[ 10763 10752 10751 10750 ] final  -71.86 input  -60.55 | X-H torsion
[ 11005 11000 10999 10996 ] final  -65.81 input  -57.11 | X-H torsion

> <Gold.Protein.ActiveResidues>
 VAL166  LYS551  ARG553  GLY616  TRP617  ASP618  TYR619  PRO620  LYS621  CYS622 
 ASP623  PHE694  ASN695  SER759  ASP760  ASP761  ALA762  ILE779  LEU786  VAL792 
 PHE793  MET794  SER795  GLU796  ALA797  LYS798  CYS799  TRP800  GLU811  SER814 

> <Gold.Protein.RotatedAtoms>
  152.4974  134.4276  159.9501 H   0  0  0  0  0  0  0  0  0  0  0  0  # atno 6907 bound_to 6896
  151.4252  133.3680  159.2769 H   0  0  0  0  0  0  0  0  0  0  0  0  # atno 6908 bound_to 6896
  150.9194  134.8634  159.7538 H   0  0  0  0  0  0  0  0  0  0  0  0  # atno 6909 bound_to 6896
  146.1986  140.3640  142.8431 H   0  0  0  0  0  0  0  0  0  0  0  0  # atno 7974 bound_to 7965
  155.4107  140.3442  155.4263 H   0  0  0  0  0  0  0  0  0  0  0  0  # atno 8008 bound_to 7997
  156.1450  140.1553  156.8892 H   0  0  0  0  0  0  0  0  0  0  0  0  # atno 8009 bound_to 7997
  154.5003  140.0816  156.7765 H   0  0  0  0  0  0  0  0  0  0  0  0  # atno 8010 bound_to 7997
  139.6989  143.9296  152.2419 H   0  0  0  0  0  0  0  0  0  0  0  0  # atno 10167 bound_to 10162
  157.5524  131.1093  150.8680 H   0  0  0  0  0  0  0  0  0  0  0  0  # atno 10718 bound_to 10713
  154.4376  135.5948  153.6108 H   0  0  0  0  0  0  0  0  0  0  0  0  # atno 10763 bound_to 10752
  152.9803  135.5990  154.3762 H   0  0  0  0  0  0  0  0  0  0  0  0  # atno 10764 bound_to 10752
  154.3608  135.2841  155.2299 H   0  0  0  0  0  0  0  0  0  0  0  0  # atno 10765 bound_to 10752
  141.1465  133.6688  156.6043 H   0  0  0  0  0  0  0  0  0  0  0  0  # atno 11005 bound_to 11000
  144.8634  140.7171  143.6093 LP  0  0  0  0  0  0  0  0  0  0  0  0  # atno 17320 bound_to 7965
  145.3560  139.1694  143.4409 LP  0  0  0  0  0  0  0  0  0  0  0  0  # atno 17321 bound_to 7965
  139.9133  144.6843  150.8539 LP  0  0  0  0  0  0  0  0  0  0  0  0  # atno 17342 bound_to 10162
  140.7704  143.3427  151.2174 LP  0  0  0  0  0  0  0  0  0  0  0  0  # atno 17343 bound_to 10162
  156.9201  130.5312  149.5279 LP  0  0  0  0  0  0  0  0  0  0  0  0  # atno 17370 bound_to 10713
  156.0588  130.5644  150.9149 LP  0  0  0  0  0  0  0  0  0  0  0  0  # atno 17371 bound_to 10713
  140.3664  134.7643  157.4569 LP  0  0  0  0  0  0  0  0  0  0  0  0  # atno 17394 bound_to 11000
  140.0745  134.5817  155.8606 LP  0  0  0  0  0  0  0  0  0  0  0  0  # atno 17395 bound_to 11000

$$$$
