AV-unprocessed.smi:2926|AV-procd|sdf|11228|dock2
  -GOLD-   2272016123D 1   1.00000     0.00000
 Structure written by MMmdl.
 31 31  0  0  0  0  0  0  0  0  2 V2000
  151.9824  143.9802  161.1301 C   0  0  0  0  0  0  0  0  0  0  0  0
  152.8093  143.7575  159.8406 C   0  0  0  0  0  0  0  0  0  0  0  0
  152.1581  144.5623  158.6927 C   0  0  0  0  0  0  0  0  0  0  0  0
  153.0155  142.2458  159.5042 C   0  0  1  0  0  0  0  0  0  0  0  0
  153.4661  141.3715  160.6976 C   0  0  0  0  0  0  0  0  0  0  0  0
  154.8723  141.2223  160.7538 O   0  0  0  0  0  0  0  0  0  0  0  0
  151.7873  141.6906  158.9459 N   0  5  0  0  0  0  0  0  0  0  0  0
  151.7916  140.1921  158.3256 S   0  0  0  0  0  0  0  0  0  0  0  0
  153.1243  139.5674  158.3658 O   0  0  0  0  0  0  0  0  0  0  0  0
  150.6582  139.3881  158.8119 O   0  0  0  0  0  0  0  0  0  0  0  0
  151.4270  140.5491  156.5504 C   0  0  0  0  0  0  0  0  0  0  0  0
  151.3783  139.2758  155.7499 C   0  0  0  0  0  0  0  0  0  0  0  0
  150.3237  138.7859  154.9300 C   0  0  0  0  0  0  0  0  0  0  0  0
  150.8117  137.6044  154.4526 C   0  0  0  0  0  0  0  0  0  0  0  0
  152.0557  137.3718  154.9420 O   0  0  0  0  0  0  0  0  0  0  0  0
  152.4073  138.4419  155.7726 N   0  0  0  0  0  0  0  0  0  0  0  0
  153.8233  142.2025  158.7722 H   0  0  0  0  0  0  0  0  0  0  0  0
  150.9752  143.5667  161.0492 H   0  0  0  0  0  0  0  0  0  0  0  0
  151.8744  145.0450  161.3378 H   0  0  0  0  0  0  0  0  0  0  0  0
  152.4510  143.5428  162.0133 H   0  0  0  0  0  0  0  0  0  0  0  0
  153.7924  144.1986  160.0131 H   0  0  0  0  0  0  0  0  0  0  0  0
  151.1733  144.1757  158.4231 H   0  0  0  0  0  0  0  0  0  0  0  0
  152.7734  144.5798  157.7921 H   0  0  0  0  0  0  0  0  0  0  0  0
  152.0219  145.6038  158.9853 H   0  0  0  0  0  0  0  0  0  0  0  0
  153.1283  141.8107  161.6370 H   0  0  0  0  0  0  0  0  0  0  0  0
  153.0095  140.3835  160.6480 H   0  0  0  0  0  0  0  0  0  0  0  0
  155.0963  140.8122  161.5746 H   0  0  0  0  0  0  0  0  0  0  0  0
  150.4674  141.0651  156.5114 H   0  0  0  0  0  0  0  0  0  0  0  0
  152.1817  141.2366  156.1692 H   0  0  0  0  0  0  0  0  0  0  0  0
  149.3656  139.2384  154.7196 H   0  0  0  0  0  0  0  0  0  0  0  0
  150.4130  136.8505  153.7901 H   0  0  0  0  0  0  0  0  0  0  0  0
  1  2  1  0  0  0  0
  1 18  1  0  0  0  0
  1 19  1  0  0  0  0
  1 20  1  0  0  0  0
  2  3  1  0  0  0  0
  2  4  1  0  0  0  0
  2 21  1  0  0  0  0
  3 22  1  0  0  0  0
  3 23  1  0  0  0  0
  3 24  1  0  0  0  0
  4 17  1  0  0  0  0
  4  5  1  0  0  0  0
  4  7  1  0  0  0  0
  5  6  1  0  0  0  0
  5 25  1  0  0  0  0
  5 26  1  0  0  0  0
  6 27  1  0  0  0  0
  7  8  1  0  0  0  0
  8  9  2  0  0  0  0
  8 10  2  0  0  0  0
  8 11  1  0  0  0  0
 11 12  1  0  0  0  0
 11 28  1  0  0  0  0
 11 29  1  0  0  0  0
 12 16  2  0  0  0  0
 12 13  1  0  0  0  0
 13 14  2  0  0  0  0
 13 30  1  0  0  0  0
 14 15  1  0  0  0  0
 14 31  1  0  0  0  0
 15 16  1  0  0  0  0
M  CHG  1   7  -1
M  END
> <s_m_source_file>
AV-unprocessed.smi

> <i_m_source_file_index>
2926

> <i_lp_mmshare_version>
43012

> <i_f3d_flags>
0

> <s_epik_input>
W0NIM11bQ0hdKFtDSDNdKVtDQEBIXShbQ0gyXVtPSF0pW05IXVMoPU8pKD1PKVtDSDJdYzFbY0hdW2NIXW9uMQ==

> <s_epik_cmdline>
J2VwaWtfcHl0aG9uJywgJy1waCcsICc3LjAnLCAnLXRuJywgJzgnLCAnLW1hJywgJzIwMCcsICctbWV0YWxfYmluZGluZycsICctaW1hZScsICc8aW5maWxlLm1hZT4nLCAnLW9tYWUnLCAnPG91dGZpbGUubWFlPic=

> <r_lp_tautomer_probability>
1

> <r_epik_Ionization_Penalty>
4.75719

> <r_epik_Ionization_Penalty_Charging>
4.75718

> <r_epik_Ionization_Penalty_Neutral>
1.48962e-06

> <r_epik_State_Penalty>
4.75699

> <r_epik_Charging_Adjusted_Penalty>
9.51417

> <i_epik_Tot_Q>
-1

> <i_epik_Tot_abs_Q>
1

> <r_epik_Metal_State_Penalty>
0.961449

> <b_epik_Metal_Only>
1

> <s_lp_Force_Field>
OPLS_2005

> <r_lp_Energy>
4.17098

> <b_lp_Chiralities_Consistent>
1

> <s_lp_Variant>
AV-unprocessed.smi:2926-3

> <Gold.Version>
5.8.1

> <Gold.Id.Protein>
6NUR|6NUR_protein|mol2

> <Gold.PLP.Fitness>
44.5273

> <Gold.PLP.PLP>
-37.7410

> <Gold.PLP.part.hbond>
-3.1584

> <Gold.PLP.part.metal>
0.0000

> <Gold.PLP.part.buried>
-4.6484

> <Gold.PLP.part.nonpolar>
-30.4042

> <Gold.PLP.part.repulsive>
0.0836

> <Gold.PLP.ligand.clash>
0.0000

> <Gold.PLP.ligand.torsion>
1.2332

> <Gold.PLP.Chemscore.Hbond>
1.6400

> <Gold.PLP.Chemscore.CHOScore>
1.0517

> <Gold.PLP.Chemscore.Metal>
0.0000

> <Gold.Chemscore.Hbonds>
donor molecule, donor type, donor heavy atom, donor atom, acceptor molecule, acceptor atom, score
      P1  H  7997  8009       L1     9  0.98
      P1  H 10752 10765       L1    15  0.80
      L1  C    14    31       P1  7948  0.68
      L1  C    14    31       P1  7949  0.37

> <Gold.PLP.Chemscore.Internal.Correction>
1.1775

> <Gold.Rescore>
     Score         DG    S(hbond)    S(metal)    S(lipo)     H(rot)  DE(clash)    DE(int)     intcor
     12.78     -15.43       1.89        0.00      87.52       2.58       0.00       2.64       ----

> <Gold.Chemscore.Fitness>
12.7845

> <Gold.Chemscore.DG>
-15.4312

> <Gold.Chemscore.ZeroCoef>
-5.4800

> <Gold.Chemscore.Hbond>
1.8891

> <Gold.Chemscore.Metal>
0.0000

> <Gold.Chemscore.Lipo>
87.5233

> <Gold.Chemscore.Internal_Hbond>
0.0000

> <Gold.Chemscore.DEClash>
0.0044

> <Gold.Chemscore.DEInternal>
2.6423

> <Gold.Chemscore.Rot>
2.5776

> <Gold.Chemscore.Internal.Correction>
   9.000000E+99

> <Gold.Chemscore.Hbonds>
donor molecule, donor type, donor heavy atom, donor atom, acceptor molecule, acceptor atom, score
      P1  H  7997  8009       L1     9  0.92
      P1  H 10752 10765       L1    15  0.70

> <Gold.Chemscore.Hbond.Weighted>
-6.3097

> <Gold.Chemscore.Metal.Weighted>
-0.0000

> <Gold.Chemscore.Lipo.Weighted>
-10.2402

> <Gold.Chemscore.Internal_Hbond.Weighted>
0.0000

> <Gold.Chemscore.DEClash.Weighted>
0.0044

> <Gold.Chemscore.DEInternal.Weighted>
2.6423

> <Gold.Chemscore.Rot.Weighted>
6.5987

> <Gold.Chemscore.Internal.Correction.Weighted>
   9.000000E+99

> <Gold.Protein.RotatedTorsions>
[ 6907 6896 6895 6894 ] final    4.99 input  -60.11 | X-H torsion
[ 7974 7965 7964 7962 ] final   44.84 input  175.53 | X-H torsion
[ 8008 7997 7996 7995 ] final  151.82 input   59.86 | X-H torsion
[ 10167 10162 10161 10158 ] final -112.33 input  -65.29 | X-H torsion
[ 10718 10713 10712 10709 ] final   19.82 input   66.30 | X-H torsion
[ 10763 10752 10751 10750 ] final  162.48 input  -60.55 | X-H torsion
[ 11005 11000 10999 10996 ] final -108.31 input  -57.11 | X-H torsion

> <Gold.Protein.ActiveResidues>
 VAL166  LYS551  ARG553  GLY616  TRP617  ASP618  TYR619  PRO620  LYS621  CYS622 
 ASP623  PHE694  ASN695  SER759  ASP760  ASP761  ALA762  ILE779  LEU786  VAL792 
 PHE793  MET794  SER795  GLU796  ALA797  LYS798  CYS799  TRP800  GLU811  SER814 

> <Gold.Protein.RotatedAtoms>
  151.6503  135.1002  160.0158 H   0  0  0  0  0  0  0  0  0  0  0  0  # atno 6907 bound_to 6896
  152.4005  133.6806  159.6320 H   0  0  0  0  0  0  0  0  0  0  0  0  # atno 6908 bound_to 6896
  150.7905  133.8717  159.3301 H   0  0  0  0  0  0  0  0  0  0  0  0  # atno 6909 bound_to 6896
  146.0533  139.5030  142.9704 H   0  0  0  0  0  0  0  0  0  0  0  0  # atno 7974 bound_to 7965
  156.2657  140.2037  156.6236 H   0  0  0  0  0  0  0  0  0  0  0  0  # atno 8008 bound_to 7997
  154.6738  140.0547  157.0218 H   0  0  0  0  0  0  0  0  0  0  0  0  # atno 8009 bound_to 7997
  155.1099  140.3214  155.4527 H   0  0  0  0  0  0  0  0  0  0  0  0  # atno 8010 bound_to 7997
  140.1239  143.4419  152.1673 H   0  0  0  0  0  0  0  0  0  0  0  0  # atno 10167 bound_to 10162
  157.1159  130.6528  149.5910 H   0  0  0  0  0  0  0  0  0  0  0  0  # atno 10718 bound_to 10713
  154.2790  135.2763  155.2705 H   0  0  0  0  0  0  0  0  0  0  0  0  # atno 10763 bound_to 10752
  154.5235  135.5749  153.6704 H   0  0  0  0  0  0  0  0  0  0  0  0  # atno 10764 bound_to 10752
  152.9932  135.6210  154.2948 H   0  0  0  0  0  0  0  0  0  0  0  0  # atno 10765 bound_to 10752
  141.0908  133.9058  157.2079 H   0  0  0  0  0  0  0  0  0  0  0  0  # atno 11005 bound_to 11000
  145.6687  141.0222  143.1669 LP  0  0  0  0  0  0  0  0  0  0  0  0  # atno 17320 bound_to 7965
  144.7134  139.8285  143.7407 LP  0  0  0  0  0  0  0  0  0  0  0  0  # atno 17321 bound_to 7965
  139.5554  144.7369  151.4309 LP  0  0  0  0  0  0  0  0  0  0  0  0  # atno 17342 bound_to 10162
  140.6856  143.7981  150.7182 LP  0  0  0  0  0  0  0  0  0  0  0  0  # atno 17343 bound_to 10162
  155.9839  130.4862  150.6959 LP  0  0  0  0  0  0  0  0  0  0  0  0  # atno 17370 bound_to 10713
  157.4519  131.0873  151.0837 LP  0  0  0  0  0  0  0  0  0  0  0  0  # atno 17371 bound_to 10713
  139.9734  135.0121  156.9570 LP  0  0  0  0  0  0  0  0  0  0  0  0  # atno 17394 bound_to 11000
  140.5256  134.0864  155.7302 LP  0  0  0  0  0  0  0  0  0  0  0  0  # atno 17395 bound_to 11000

$$$$
