AV-unprocessed.smi:1655|AV-procd|sdf|6645|dock8
  -GOLD-   22720 7353D 1   1.00000     0.00000
 Structure written by MMmdl.
 34 35  0  0  0  0  0  0  0  0  1 V2000
  153.6435  137.7370  157.1555 C   0  0  0  0  0  0  0  0  0  0  0  0
  152.6595  138.2085  156.1401 C   0  0  0  0  0  0  0  0  0  0  0  0
  151.6701  137.5761  155.4410 C   0  0  0  0  0  0  0  0  0  0  0  0
  151.1221  138.6189  154.6476 C   0  0  0  0  0  0  0  0  0  0  0  0
  150.0458  138.3678  153.7589 N   0  0  0  0  0  0  0  0  0  0  0  0
  148.8144  138.9049  153.7907 C   0  0  0  0  0  0  0  0  0  0  0  0
  148.4166  139.7199  154.6239 O   0  0  0  0  0  0  0  0  0  0  0  0
  148.0551  138.4417  152.7872 N   0  0  0  0  0  0  0  0  0  0  0  0
  146.6725  138.8309  152.5342 C   0  0  0  0  0  0  0  0  0  0  0  0
  146.0922  138.0975  151.3134 C   0  0  0  0  0  0  0  0  0  0  0  0
  145.5505  136.7036  151.6622 C   0  0  1  0  0  0  0  0  0  0  0  0
  144.1563  136.7180  152.2888 C   0  0  0  0  0  0  0  0  0  0  0  0
  143.5637  135.3729  151.8926 C   0  0  0  0  0  0  0  0  0  0  0  0
  144.5459  134.8183  150.8578 C   0  0  0  0  0  0  0  0  0  0  0  0
  145.3531  135.9272  150.4912 O   0  0  0  0  0  0  0  0  0  0  0  0
  151.7231  139.7826  154.8437 N   0  0  0  0  0  0  0  0  0  0  0  0
  152.7116  139.5254  155.8010 O   0  0  0  0  0  0  0  0  0  0  0  0
  153.2594  136.8714  157.6955 H   0  0  0  0  0  0  0  0  0  0  0  0
  153.8582  138.5198  157.8833 H   0  0  0  0  0  0  0  0  0  0  0  0
  154.5815  137.4506  156.6798 H   0  0  0  0  0  0  0  0  0  0  0  0
  151.3870  136.5353  155.4916 H   0  0  0  0  0  0  0  0  0  0  0  0
  150.2348  137.7105  153.0169 H   0  0  0  0  0  0  0  0  0  0  0  0
  148.4622  137.7735  152.1495 H   0  0  0  0  0  0  0  0  0  0  0  0
  146.0891  138.5922  153.4237 H   0  0  0  0  0  0  0  0  0  0  0  0
  146.6055  139.9120  152.4000 H   0  0  0  0  0  0  0  0  0  0  0  0
  145.2839  138.6920  150.8855 H   0  0  0  0  0  0  0  0  0  0  0  0
  146.8546  138.0112  150.5382 H   0  0  0  0  0  0  0  0  0  0  0  0
  146.2445  136.1800  152.3226 H   0  0  0  0  0  0  0  0  0  0  0  0
  144.1883  136.8651  153.3687 H   0  0  0  0  0  0  0  0  0  0  0  0
  143.5540  137.5201  151.8600 H   0  0  0  0  0  0  0  0  0  0  0  0
  143.4753  134.7000  152.7461 H   0  0  0  0  0  0  0  0  0  0  0  0
  142.5695  135.5050  151.4640 H   0  0  0  0  0  0  0  0  0  0  0  0
  145.1777  134.0478  151.3025 H   0  0  0  0  0  0  0  0  0  0  0  0
  144.0444  134.3889  149.9904 H   0  0  0  0  0  0  0  0  0  0  0  0
  1  2  1  0  0  0  0
  1 18  1  0  0  0  0
  1 19  1  0  0  0  0
  1 20  1  0  0  0  0
  2 17  1  0  0  0  0
  2  3  2  0  0  0  0
  3  4  1  0  0  0  0
  3 21  1  0  0  0  0
  4  5  1  0  0  0  0
  4 16  2  0  0  0  0
  5  6  1  0  0  0  0
  5 22  1  0  0  0  0
  6  7  2  0  0  0  0
  6  8  1  0  0  0  0
  8  9  1  0  0  0  0
  8 23  1  0  0  0  0
  9 10  1  0  0  0  0
  9 24  1  0  0  0  0
  9 25  1  0  0  0  0
 10 11  1  0  0  0  0
 10 26  1  0  0  0  0
 10 27  1  0  0  0  0
 11 15  1  0  0  0  0
 11 12  1  0  0  0  0
 11 28  1  0  0  0  0
 12 13  1  0  0  0  0
 12 29  1  0  0  0  0
 12 30  1  0  0  0  0
 13 14  1  0  0  0  0
 13 31  1  0  0  0  0
 13 32  1  0  0  0  0
 14 15  1  0  0  0  0
 14 33  1  0  0  0  0
 14 34  1  0  0  0  0
 16 17  1  0  0  0  0
M  END
> <s_m_source_file>
AV-unprocessed.smi

> <i_m_source_file_index>
1655

> <i_lp_mmshare_version>
43012

> <i_f3d_flags>
0

> <s_epik_input>
W0NIM11jMVtjSF1jKG5vMSlbTkhdQyg9TylbTkhdW0NIMl1bQ0gyXVtDQEBIXTJbQ0gyXVtDSDJdW0NIMl1PMg==

> <s_epik_cmdline>
J2VwaWtfcHl0aG9uJywgJy1waCcsICc3LjAnLCAnLXRuJywgJzgnLCAnLW1hJywgJzIwMCcsICctbWV0YWxfYmluZGluZycsICctaW1hZScsICc8aW5maWxlLm1hZT4nLCAnLW9tYWUnLCAnPG91dGZpbGUubWFlPic=

> <r_lp_tautomer_probability>
1

> <r_epik_Ionization_Penalty>
2.23964e-05

> <r_epik_Ionization_Penalty_Charging>
0

> <r_epik_Ionization_Penalty_Neutral>
2.23964e-05

> <r_epik_State_Penalty>
-0

> <r_epik_Charging_Adjusted_Penalty>
0

> <i_epik_Tot_Q>
0

> <i_epik_Tot_abs_Q>
0

> <r_epik_Metal_State_Penalty>
-0

> <b_epik_Metal_Only>
0

> <s_lp_Force_Field>
OPLS_2005

> <r_lp_Energy>
15.0992

> <b_lp_Chiralities_Consistent>
1

> <s_lp_Variant>
AV-unprocessed.smi:1655-2

> <Gold.Version>
5.8.1

> <Gold.Id.Protein>
6NUR|6NUR_protein|mol2

> <Gold.PLP.Fitness>
36.9595

> <Gold.PLP.PLP>
-28.9535

> <Gold.PLP.part.hbond>
-5.6566

> <Gold.PLP.part.metal>
0.0000

> <Gold.PLP.part.buried>
-0.1161

> <Gold.PLP.part.nonpolar>
-24.6423

> <Gold.PLP.part.repulsive>
0.5514

> <Gold.PLP.ligand.clash>
0.0000

> <Gold.PLP.ligand.torsion>
0.8659

> <Gold.PLP.Chemscore.Hbond>
3.2432

> <Gold.PLP.Chemscore.CHOScore>
0.0000

> <Gold.PLP.Chemscore.Metal>
0.0000

> <Gold.Chemscore.Hbonds>
donor molecule, donor type, donor heavy atom, donor atom, acceptor molecule, acceptor atom, score
      L1  H     5    22       P1  7948  0.28
      L1  H     8    23       P1  7948  1.00
      P1  H  7989  7998       L1    16  1.00
      P1  H  7997  8009       L1    17  1.00

> <Gold.PLP.Chemscore.Internal.Correction>
0.0083

> <Gold.Rescore>
     Score         DG    S(hbond)    S(metal)    S(lipo)     H(rot)  DE(clash)    DE(int)     intcor
     15.18     -17.07       2.87        0.00      51.15       1.55       0.84       1.05       ----

> <Gold.Chemscore.Fitness>
15.1824

> <Gold.Chemscore.DG>
-17.0732

> <Gold.Chemscore.ZeroCoef>
-5.4800

> <Gold.Chemscore.Hbond>
2.8674

> <Gold.Chemscore.Metal>
0.0000

> <Gold.Chemscore.Lipo>
51.1532

> <Gold.Chemscore.Internal_Hbond>
0.0000

> <Gold.Chemscore.DEClash>
0.8429

> <Gold.Chemscore.DEInternal>
1.0480

> <Gold.Chemscore.Rot>
1.5503

> <Gold.Chemscore.Internal.Correction>
   9.000000E+99

> <Gold.Chemscore.Hbonds>
donor molecule, donor type, donor heavy atom, donor atom, acceptor molecule, acceptor atom, score
      L1  H     5    22       P1  7948  0.04
      L1  H     8    23       P1  7948  0.93
      P1  H  7989  7998       L1    16  0.88
      P1  H  7997  8009       L1    17  0.60

> <Gold.Chemscore.Hbond.Weighted>
-9.5770

> <Gold.Chemscore.Metal.Weighted>
-0.0000

> <Gold.Chemscore.Lipo.Weighted>
-5.9849

> <Gold.Chemscore.Internal_Hbond.Weighted>
0.0000

> <Gold.Chemscore.DEClash.Weighted>
0.8429

> <Gold.Chemscore.DEInternal.Weighted>
1.0480

> <Gold.Chemscore.Rot.Weighted>
3.9687

> <Gold.Chemscore.Internal.Correction.Weighted>
   9.000000E+99

> <Gold.Protein.RotatedTorsions>
[ 6907 6896 6895 6894 ] final  177.56 input  -60.11 | X-H torsion
[ 7974 7965 7964 7962 ] final   36.21 input  175.53 | X-H torsion
[ 8008 7997 7996 7995 ] final -158.75 input   59.86 | X-H torsion
[ 10167 10162 10161 10158 ] final  106.12 input  -65.29 | X-H torsion
[ 10718 10713 10712 10709 ] final   38.20 input   66.30 | X-H torsion
[ 10763 10752 10751 10750 ] final  -52.33 input  -60.55 | X-H torsion
[ 11005 11000 10999 10996 ] final  153.61 input  -57.11 | X-H torsion

> <Gold.Protein.ActiveResidues>
 VAL166  LYS551  ARG553  GLY616  TRP617  ASP618  TYR619  PRO620  LYS621  CYS622 
 ASP623  PHE694  ASN695  SER759  ASP760  ASP761  ALA762  ILE779  LEU786  VAL792 
 PHE793  MET794  SER795  GLU796  ALA797  LYS798  CYS799  TRP800  GLU811  SER814 

> <Gold.Protein.RotatedAtoms>
  151.7020  133.3311  159.3268 H   0  0  0  0  0  0  0  0  0  0  0  0  # atno 6907 bound_to 6896
  150.7732  134.6607  159.6348 H   0  0  0  0  0  0  0  0  0  0  0  0  # atno 6908 bound_to 6896
  152.3764  134.6660  160.0210 H   0  0  0  0  0  0  0  0  0  0  0  0  # atno 6909 bound_to 6896
  146.1227  139.6045  142.9279 H   0  0  0  0  0  0  0  0  0  0  0  0  # atno 7974 bound_to 7965
  155.7522  140.0828  157.2195 H   0  0  0  0  0  0  0  0  0  0  0  0  # atno 8008 bound_to 7997
  154.4011  140.1558  156.2793 H   0  0  0  0  0  0  0  0  0  0  0  0  # atno 8009 bound_to 7997
  155.8919  140.3415  155.5965 H   0  0  0  0  0  0  0  0  0  0  0  0  # atno 8010 bound_to 7997
  139.7035  144.7090  151.1145 H   0  0  0  0  0  0  0  0  0  0  0  0  # atno 10167 bound_to 10162
  157.3560  130.7623  149.7012 H   0  0  0  0  0  0  0  0  0  0  0  0  # atno 10718 bound_to 10713
  154.1410  135.6505  153.4942 H   0  0  0  0  0  0  0  0  0  0  0  0  # atno 10763 bound_to 10752
  153.0166  135.5315  154.6905 H   0  0  0  0  0  0  0  0  0  0  0  0  # atno 10764 bound_to 10752
  154.6166  135.2960  155.0343 H   0  0  0  0  0  0  0  0  0  0  0  0  # atno 10765 bound_to 10752
  140.1413  134.8737  157.2335 H   0  0  0  0  0  0  0  0  0  0  0  0  # atno 11005 bound_to 11000
  145.5431  141.0419  143.2320 LP  0  0  0  0  0  0  0  0  0  0  0  0  # atno 17320 bound_to 7965
  144.7613  139.6951  143.7233 LP  0  0  0  0  0  0  0  0  0  0  0  0  # atno 17321 bound_to 7965
  140.7716  143.5390  150.9334 LP  0  0  0  0  0  0  0  0  0  0  0  0  # atno 17342 bound_to 10162
  139.9073  143.6763  152.3121 LP  0  0  0  0  0  0  0  0  0  0  0  0  # atno 17343 bound_to 10162
  155.9729  130.4127  150.4046 LP  0  0  0  0  0  0  0  0  0  0  0  0  # atno 17370 bound_to 10713
  157.2116  131.0462  151.2596 LP  0  0  0  0  0  0  0  0  0  0  0  0  # atno 17371 bound_to 10713
  140.2718  134.3451  155.7371 LP  0  0  0  0  0  0  0  0  0  0  0  0  # atno 17394 bound_to 11000
  141.2186  133.7428  156.9234 LP  0  0  0  0  0  0  0  0  0  0  0  0  # atno 17395 bound_to 11000

$$$$
