AV-unprocessed.smi:1433|AV-procd|sdf|5843|dock5
  -GOLD-   22720 5503D 1   1.00000     0.00000
 Structure written by MMmdl.
 45 46  0  0  0  0  0  0  0  0  2 V2000
  145.1127  133.7858  151.1699 C   0  0  0  0  0  0  0  0  0  0  0  0
  145.8802  134.8398  151.9762 C   0  0  2  0  0  0  0  0  0  0  0  0
  146.7001  134.2105  153.1149 C   0  0  0  0  0  0  0  0  0  0  0  0
  147.3821  135.2555  153.9233 N   0  3  2  0  0  0  0  0  0  0  0  0
  148.3147  134.6711  154.9422 C   0  0  1  0  0  0  0  0  0  0  0  0
  149.3685  133.7803  154.2445 C   0  0  0  0  0  0  0  0  0  0  0  0
  149.0132  135.7305  155.8415 C   0  0  0  0  0  0  0  0  0  0  0  0
  148.1699  136.1809  156.9437 N   0  0  0  0  0  0  0  0  0  0  0  0
  148.2963  135.7916  158.2219 C   0  0  0  0  0  0  0  0  0  0  0  0
  149.1172  134.9551  158.5980 O   0  0  0  0  0  0  0  0  0  0  0  0
  147.3671  136.4642  159.2323 C   0  0  0  0  0  0  0  0  0  0  0  0
  147.4699  135.8256  160.5327 N   0  0  0  0  0  0  0  0  0  0  0  0
  147.3769  134.4835  160.8372 C   0  0  0  0  0  0  0  0  0  0  0  0
  147.5514  134.3599  162.1858 C   0  0  0  0  0  0  0  0  0  0  0  0
  147.7462  135.6990  162.6260 C   0  0  0  0  0  0  0  0  0  0  0  0
  147.7005  136.5738  161.6343 N   0  0  0  0  0  0  0  0  0  0  0  0
  146.3697  136.2163  154.4418 C   0  0  0  0  0  0  0  0  0  0  0  0
  145.4941  136.7923  153.3100 C   0  0  1  0  0  0  0  0  0  0  0  0
  146.2190  137.8373  152.4423 C   0  0  0  0  0  0  0  0  0  0  0  0
  144.9291  135.7426  152.5285 O   0  0  0  0  0  0  0  0  0  0  0  0
  145.7939  133.0675  150.7132 H   0  0  0  0  0  0  0  0  0  0  0  0
  144.5367  134.2511  150.3696 H   0  0  0  0  0  0  0  0  0  0  0  0
  144.4174  133.2329  151.8022 H   0  0  0  0  0  0  0  0  0  0  0  0
  146.5446  135.3689  151.2928 H   0  0  0  0  0  0  0  0  0  0  0  0
  146.0495  133.6194  153.7620 H   0  0  0  0  0  0  0  0  0  0  0  0
  147.4217  133.5196  152.6827 H   0  0  0  0  0  0  0  0  0  0  0  0
  147.7170  134.0384  155.6005 H   0  0  0  0  0  0  0  0  0  0  0  0
  150.0243  133.2885  154.9632 H   0  0  0  0  0  0  0  0  0  0  0  0
  149.9974  134.3689  153.5758 H   0  0  0  0  0  0  0  0  0  0  0  0
  148.9205  132.9822  153.6554 H   0  0  0  0  0  0  0  0  0  0  0  0
  149.9276  135.3171  156.2682 H   0  0  0  0  0  0  0  0  0  0  0  0
  149.3012  136.6139  155.2699 H   0  0  0  0  0  0  0  0  0  0  0  0
  147.4652  136.8724  156.7289 H   0  0  0  0  0  0  0  0  0  0  0  0
  147.6130  137.5234  159.3235 H   0  0  0  0  0  0  0  0  0  0  0  0
  146.3330  136.4016  158.8909 H   0  0  0  0  0  0  0  0  0  0  0  0
  147.1983  133.7373  160.0770 H   0  0  0  0  0  0  0  0  0  0  0  0
  147.5401  133.4514  162.7693 H   0  0  0  0  0  0  0  0  0  0  0  0
  147.9193  136.0584  163.6296 H   0  0  0  0  0  0  0  0  0  0  0  0
  145.7394  135.7073  155.1728 H   0  0  0  0  0  0  0  0  0  0  0  0
  146.8439  137.0544  154.9516 H   0  0  0  0  0  0  0  0  0  0  0  0
  144.6514  137.3049  153.7749 H   0  0  0  0  0  0  0  0  0  0  0  0
  146.5155  138.6986  153.0413 H   0  0  0  0  0  0  0  0  0  0  0  0
  145.5678  138.2000  151.6465 H   0  0  0  0  0  0  0  0  0  0  0  0
  147.1222  137.4398  151.9806 H   0  0  0  0  0  0  0  0  0  0  0  0
  147.9612  135.7870  153.2891 H   0  0  0  0  0  0  0  0  0  0  0  0
  1  2  1  0  0  0  0
  1 21  1  0  0  0  0
  1 22  1  0  0  0  0
  1 23  1  0  0  0  0
  2 20  1  0  0  0  0
  2  3  1  0  0  0  0
  2 24  1  0  0  0  0
  3  4  1  0  0  0  0
  3 25  1  0  0  0  0
  3 26  1  0  0  0  0
  4  5  1  0  0  0  0
  4 17  1  0  0  0  0
  4 45  1  0  0  0  0
  5  6  1  0  0  0  0
  5  7  1  0  0  0  0
  5 27  1  0  0  0  0
  6 28  1  0  0  0  0
  6 29  1  0  0  0  0
  6 30  1  0  0  0  0
  7  8  1  0  0  0  0
  7 31  1  0  0  0  0
  7 32  1  0  0  0  0
  8  9  1  0  0  0  0
  8 33  1  0  0  0  0
  9 10  2  0  0  0  0
  9 11  1  0  0  0  0
 11 12  1  0  0  0  0
 11 34  1  0  0  0  0
 11 35  1  0  0  0  0
 12 16  1  0  0  0  0
 12 13  1  0  0  0  0
 13 14  2  0  0  0  0
 13 36  1  0  0  0  0
 14 15  1  0  0  0  0
 14 37  1  0  0  0  0
 15 16  2  0  0  0  0
 15 38  1  0  0  0  0
 17 18  1  0  0  0  0
 17 39  1  0  0  0  0
 17 40  1  0  0  0  0
 18 19  1  0  0  0  0
 18 20  1  0  0  0  0
 18 41  1  0  0  0  0
 19 42  1  0  0  0  0
 19 43  1  0  0  0  0
 19 44  1  0  0  0  0
M  CHG  1   4   1
M  END
> <s_m_source_file>
AV-unprocessed.smi

> <i_m_source_file_index>
1433

> <i_lp_mmshare_version>
43012

> <i_f3d_flags>
0

> <s_epik_input>
W0NIM11bQ0BASF0xW0NIMl1OKFtDSDJdW0NASF0oTzEpW0NIM10pW0NASF0oW0NIM10pW0NIMl1bTkhdQyg9TylbQ0gyXW4yW2NIXVtjSF1bY0hdbjI=

> <s_epik_cmdline>
J2VwaWtfcHl0aG9uJywgJy1waCcsICc3LjAnLCAnLXRuJywgJzgnLCAnLW1hJywgJzIwMCcsICctbWV0YWxfYmluZGluZycsICctaW1hZScsICc8aW5maWxlLm1hZT4nLCAnLW9tYWUnLCAnPG91dGZpbGUubWFlPic=

> <r_lp_tautomer_probability>
1

> <r_epik_Ionization_Penalty>
0.748405

> <r_epik_Ionization_Penalty_Charging>
0.748396

> <r_epik_Ionization_Penalty_Neutral>
8.54426e-06

> <r_epik_State_Penalty>
0.775162

> <r_epik_Charging_Adjusted_Penalty>
1.52356

> <i_epik_Tot_Q>
1

> <i_epik_Tot_abs_Q>
1

> <r_epik_Metal_State_Penalty>
0.775167

> <b_epik_Metal_Only>
0

> <s_lp_Force_Field>
OPLS_2005

> <r_lp_Energy>
20.9037

> <b_lp_Chiralities_Consistent>
1

> <s_lp_Variant>
AV-unprocessed.smi:1433-9

> <Gold.Version>
5.8.1

> <Gold.Id.Protein>
6NUR|6NUR_protein|mol2

> <Gold.PLP.Fitness>
43.1211

> <Gold.PLP.PLP>
-29.7925

> <Gold.PLP.part.hbond>
-4.0000

> <Gold.PLP.part.metal>
0.0000

> <Gold.PLP.part.buried>
-3.4296

> <Gold.PLP.part.nonpolar>
-22.0747

> <Gold.PLP.part.repulsive>
0.0984

> <Gold.PLP.ligand.clash>
0.0000

> <Gold.PLP.ligand.torsion>
0.5331

> <Gold.PLP.Chemscore.Hbond>
4.7680

> <Gold.PLP.Chemscore.CHOScore>
0.0000

> <Gold.PLP.Chemscore.Metal>
0.0000

> <Gold.Chemscore.Hbonds>
donor molecule, donor type, donor heavy atom, donor atom, acceptor molecule, acceptor atom, score
      L1  H     4    45       P1  7948  2.00
      P1  H  6896  6908       L1    10  1.00
      P1  H  6931  6943       L1    16  0.68

> <Gold.PLP.Chemscore.Internal.Correction>
0.0909

> <Gold.Rescore>
     Score         DG    S(hbond)    S(metal)    S(lipo)     H(rot)  DE(clash)    DE(int)     intcor
     15.97     -18.10       2.91        0.00      65.62       1.87       0.27       1.86       ----

> <Gold.Chemscore.Fitness>
15.9664

> <Gold.Chemscore.DG>
-18.0962

> <Gold.Chemscore.ZeroCoef>
-5.4800

> <Gold.Chemscore.Hbond>
2.9087

> <Gold.Chemscore.Metal>
0.0000

> <Gold.Chemscore.Lipo>
65.6178

> <Gold.Chemscore.Internal_Hbond>
0.0000

> <Gold.Chemscore.DEClash>
0.2690

> <Gold.Chemscore.DEInternal>
1.8608

> <Gold.Chemscore.Rot>
1.8657

> <Gold.Chemscore.Internal.Correction>
   9.000000E+99

> <Gold.Chemscore.Hbonds>
donor molecule, donor type, donor heavy atom, donor atom, acceptor molecule, acceptor atom, score
      L1  H     4    45       P1  7948  1.00
      P1  H  6896  6908       L1    10  1.00
      P1  H  6931  6943       L1    16  0.59

> <Gold.Chemscore.Hbond.Weighted>
-9.7151

> <Gold.Chemscore.Metal.Weighted>
-0.0000

> <Gold.Chemscore.Lipo.Weighted>
-7.6773

> <Gold.Chemscore.Internal_Hbond.Weighted>
0.0000

> <Gold.Chemscore.DEClash.Weighted>
0.2690

> <Gold.Chemscore.DEInternal.Weighted>
1.8608

> <Gold.Chemscore.Rot.Weighted>
4.7761

> <Gold.Chemscore.Internal.Correction.Weighted>
   9.000000E+99

> <Gold.Protein.RotatedTorsions>
[ 6907 6896 6895 6894 ] final  152.62 input  -60.11 | X-H torsion
[ 7974 7965 7964 7962 ] final   93.55 input  175.53 | X-H torsion
[ 8008 7997 7996 7995 ] final   66.96 input   59.86 | X-H torsion
[ 10167 10162 10161 10158 ] final -176.09 input  -65.29 | X-H torsion
[ 10718 10713 10712 10709 ] final  -42.55 input   66.30 | X-H torsion
[ 10763 10752 10751 10750 ] final  -11.44 input  -60.55 | X-H torsion
[ 11005 11000 10999 10996 ] final -138.13 input  -57.11 | X-H torsion

> <Gold.Protein.ActiveResidues>
 VAL166  LYS551  ARG553  GLY616  TRP617  ASP618  TYR619  PRO620  LYS621  CYS622 
 ASP623  PHE694  ASN695  SER759  ASP760  ASP761  ALA762  ILE779  LEU786  VAL792 
 PHE793  MET794  SER795  GLU796  ALA797  LYS798  CYS799  TRP800  GLU811  SER814 

> <Gold.Protein.RotatedAtoms>
  152.0842  133.4168  159.4514 H   0  0  0  0  0  0  0  0  0  0  0  0  # atno 6907 bound_to 6896
  150.6862  134.2947  159.4690 H   0  0  0  0  0  0  0  0  0  0  0  0  # atno 6908 bound_to 6896
  152.0792  134.9482  160.0624 H   0  0  0  0  0  0  0  0  0  0  0  0  # atno 6909 bound_to 6896
  145.4774  139.2279  143.2901 H   0  0  0  0  0  0  0  0  0  0  0  0  # atno 7974 bound_to 7965
  155.6854  140.3496  155.4872 H   0  0  0  0  0  0  0  0  0  0  0  0  # atno 8008 bound_to 7997
  155.9570  140.1130  157.0950 H   0  0  0  0  0  0  0  0  0  0  0  0  # atno 8009 bound_to 7997
  154.4134  140.1183  156.5115 H   0  0  0  0  0  0  0  0  0  0  0  0  # atno 8010 bound_to 7997
  139.5547  144.2018  152.1139 H   0  0  0  0  0  0  0  0  0  0  0  0  # atno 10167 bound_to 10162
  156.2584  130.4194  149.8570 H   0  0  0  0  0  0  0  0  0  0  0  0  # atno 10718 bound_to 10713
  153.4838  135.7017  153.5923 H   0  0  0  0  0  0  0  0  0  0  0  0  # atno 10763 bound_to 10752
  153.4125  135.3845  155.2059 H   0  0  0  0  0  0  0  0  0  0  0  0  # atno 10764 bound_to 10752
  154.8720  135.3908  154.4290 H   0  0  0  0  0  0  0  0  0  0  0  0  # atno 10765 bound_to 10752
  140.8645  134.2127  157.4688 H   0  0  0  0  0  0  0  0  0  0  0  0  # atno 11005 bound_to 11000
  146.2361  140.5558  142.8954 LP  0  0  0  0  0  0  0  0  0  0  0  0  # atno 17320 bound_to 7965
  144.7909  140.6029  143.6542 LP  0  0  0  0  0  0  0  0  0  0  0  0  # atno 17321 bound_to 7965
  140.1520  144.5105  150.6682 LP  0  0  0  0  0  0  0  0  0  0  0  0  # atno 17342 bound_to 10162
  140.6818  143.2330  151.5365 LP  0  0  0  0  0  0  0  0  0  0  0  0  # atno 17343 bound_to 10162
  156.6094  130.8580  151.3450 LP  0  0  0  0  0  0  0  0  0  0  0  0  # atno 17370 bound_to 10713
  157.7241  130.9598  150.1561 LP  0  0  0  0  0  0  0  0  0  0  0  0  # atno 17371 bound_to 10713
  139.8708  134.9745  156.4849 LP  0  0  0  0  0  0  0  0  0  0  0  0  # atno 17394 bound_to 11000
  140.8645  133.8035  155.9299 LP  0  0  0  0  0  0  0  0  0  0  0  0  # atno 17395 bound_to 11000

$$$$
