AV-unprocessed.smi:173|AV-procd|sdf|1423|dock3
  -GOLD-   2262019193D 1   1.00000     0.00000
 Structure written by MMmdl.
 60 64  0  0  0  0  0  0  0  0  1 V2000
  149.8682  142.6773  158.9046 O   0  0  0  0  0  0  0  0  0  0  0  0
  151.1650  142.4943  158.3627 C   0  0  0  0  0  0  0  0  0  0  0  0
  151.0297  141.6419  157.0758 C   0  0  0  0  0  0  0  0  0  0  0  0
  150.3467  140.3740  157.2789 N   0  0  0  0  0  0  0  0  0  0  0  0
  149.0677  140.0519  156.8818 C   0  0  0  0  0  0  0  0  0  0  0  0
  148.6856  138.8360  157.1638 N   0  0  0  0  0  0  0  0  0  0  0  0
  149.7814  138.2846  157.8147 C   0  0  0  0  0  0  0  0  0  0  0  0
  150.0590  137.0085  158.3683 C   0  0  0  0  0  0  0  0  0  0  0  0
  149.1619  135.9980  158.3195 N   0  0  0  0  0  0  0  0  0  0  0  0
  147.9208  136.2347  159.0631 C   0  0  0  0  0  0  0  0  0  0  0  0
  147.9376  135.6021  160.4680 C   0  0  2  0  0  0  0  0  0  0  0  0
  147.5299  134.1317  160.4795 C   0  0  0  0  0  0  0  0  0  0  0  0
  147.0856  133.9043  161.9153 C   0  0  0  0  0  0  0  0  0  0  0  0
  146.7955  135.3141  162.4394 C   0  0  0  0  0  0  0  0  0  0  0  0
  146.9518  136.1706  161.3168 O   0  0  0  0  0  0  0  0  0  0  0  0
  149.1389  135.3350  157.0125 C   0  0  0  0  0  0  0  0  0  0  0  0
  150.5161  135.0570  156.3990 C   0  0  0  0  0  0  0  0  0  0  0  0
  150.2368  134.8257  154.9075 C   0  0  0  0  0  0  0  0  0  0  0  0
  148.8435  135.4138  154.6233 C   0  0  0  0  0  0  0  0  0  0  0  0
  148.3958  136.1021  155.9162 C   0  0  0  0  0  0  0  0  0  0  0  0
  151.2713  136.8148  158.9513 N   0  0  0  0  0  0  0  0  0  0  0  0
  152.1627  137.8100  158.9790 C   0  0  0  0  0  0  0  0  0  0  0  0
  152.0483  139.0479  158.4915 N   0  0  0  0  0  0  0  0  0  0  0  0
  150.8297  139.2407  157.9089 C   0  0  0  0  0  0  0  0  0  0  0  0
  151.7533  143.8802  158.0302 C   0  0  0  0  0  0  0  0  0  0  0  0
  152.0681  144.6963  159.2967 C   0  0  0  0  0  0  0  0  0  0  0  0
  152.9368  143.9580  160.1467 O   0  0  0  0  0  0  0  0  0  0  0  0
  152.3476  142.7519  160.6171 C   0  0  0  0  0  0  0  0  0  0  0  0
  152.0442  141.8140  159.4351 C   0  0  0  0  0  0  0  0  0  0  0  0
  149.9158  143.3292  159.5873 H   0  0  0  0  0  0  0  0  0  0  0  0
  150.4954  142.1991  156.3048 H   0  0  0  0  0  0  0  0  0  0  0  0
  152.0174  141.4284  156.6645 H   0  0  0  0  0  0  0  0  0  0  0  0
  148.4276  140.7486  156.3602 H   0  0  0  0  0  0  0  0  0  0  0  0
  147.7147  137.3035  159.1328 H   0  0  0  0  0  0  0  0  0  0  0  0
  147.0889  135.8069  158.5069 H   0  0  0  0  0  0  0  0  0  0  0  0
  148.9228  135.7128  160.9260 H   0  0  0  0  0  0  0  0  0  0  0  0
  146.6860  133.9725  159.8066 H   0  0  0  0  0  0  0  0  0  0  0  0
  148.3364  133.4656  160.1725 H   0  0  0  0  0  0  0  0  0  0  0  0
  146.2074  133.2595  161.9613 H   0  0  0  0  0  0  0  0  0  0  0  0
  147.8772  133.4373  162.5021 H   0  0  0  0  0  0  0  0  0  0  0  0
  145.7934  135.4066  162.8586 H   0  0  0  0  0  0  0  0  0  0  0  0
  147.5147  135.5946  163.2102 H   0  0  0  0  0  0  0  0  0  0  0  0
  148.6291  134.3755  157.1235 H   0  0  0  0  0  0  0  0  0  0  0  0
  151.1686  135.9239  156.5068 H   0  0  0  0  0  0  0  0  0  0  0  0
  151.0168  134.2082  156.8656 H   0  0  0  0  0  0  0  0  0  0  0  0
  151.0039  135.2963  154.2918 H   0  0  0  0  0  0  0  0  0  0  0  0
  150.2448  133.7597  154.6775 H   0  0  0  0  0  0  0  0  0  0  0  0
  148.8519  136.1047  153.7799 H   0  0  0  0  0  0  0  0  0  0  0  0
  148.1511  134.6079  154.3768 H   0  0  0  0  0  0  0  0  0  0  0  0
  147.3138  136.0771  156.0500 H   0  0  0  0  0  0  0  0  0  0  0  0
  148.7005  137.1473  155.8824 H   0  0  0  0  0  0  0  0  0  0  0  0
  153.1040  137.5803  159.4559 H   0  0  0  0  0  0  0  0  0  0  0  0
  152.6775  143.7532  157.4650 H   0  0  0  0  0  0  0  0  0  0  0  0
  151.0753  144.4394  157.3840 H   0  0  0  0  0  0  0  0  0  0  0  0
  152.5572  145.6317  159.0243 H   0  0  0  0  0  0  0  0  0  0  0  0
  151.1553  144.9626  159.8315 H   0  0  0  0  0  0  0  0  0  0  0  0
  153.0412  142.2691  161.3055 H   0  0  0  0  0  0  0  0  0  0  0  0
  151.4429  142.9725  161.1860 H   0  0  0  0  0  0  0  0  0  0  0  0
  151.5718  140.9038  159.8066 H   0  0  0  0  0  0  0  0  0  0  0  0
  152.9887  141.5079  158.9837 H   0  0  0  0  0  0  0  0  0  0  0  0
  1  2  1  0  0  0  0
  1 30  1  0  0  0  0
  2 29  1  0  0  0  0
  2  3  1  0  0  0  0
  2 25  1  0  0  0  0
  3  4  1  0  0  0  0
  3 31  1  0  0  0  0
  3 32  1  0  0  0  0
  4 24  1  0  0  0  0
  4  5  1  0  0  0  0
  5  6  2  0  0  0  0
  5 33  1  0  0  0  0
  6  7  1  0  0  0  0
  7 24  2  0  0  0  0
  7  8  1  0  0  0  0
  8  9  1  0  0  0  0
  8 21  2  0  0  0  0
  9 10  1  0  0  0  0
  9 16  1  0  0  0  0
 10 11  1  0  0  0  0
 10 34  1  0  0  0  0
 10 35  1  0  0  0  0
 11 15  1  0  0  0  0
 11 12  1  0  0  0  0
 11 36  1  0  0  0  0
 12 13  1  0  0  0  0
 12 37  1  0  0  0  0
 12 38  1  0  0  0  0
 13 14  1  0  0  0  0
 13 39  1  0  0  0  0
 13 40  1  0  0  0  0
 14 15  1  0  0  0  0
 14 41  1  0  0  0  0
 14 42  1  0  0  0  0
 16 20  1  0  0  0  0
 16 17  1  0  0  0  0
 16 43  1  0  0  0  0
 17 18  1  0  0  0  0
 17 44  1  0  0  0  0
 17 45  1  0  0  0  0
 18 19  1  0  0  0  0
 18 46  1  0  0  0  0
 18 47  1  0  0  0  0
 19 20  1  0  0  0  0
 19 48  1  0  0  0  0
 19 49  1  0  0  0  0
 20 50  1  0  0  0  0
 20 51  1  0  0  0  0
 21 22  1  0  0  0  0
 22 23  2  0  0  0  0
 22 52  1  0  0  0  0
 23 24  1  0  0  0  0
 25 26  1  0  0  0  0
 25 53  1  0  0  0  0
 25 54  1  0  0  0  0
 26 27  1  0  0  0  0
 26 55  1  0  0  0  0
 26 56  1  0  0  0  0
 27 28  1  0  0  0  0
 28 29  1  0  0  0  0
 28 57  1  0  0  0  0
 28 58  1  0  0  0  0
 29 59  1  0  0  0  0
 29 60  1  0  0  0  0
M  END
> <s_m_source_file>
AV-unprocessed.smi

> <i_m_source_file_index>
173

> <i_lp_mmshare_version>
43012

> <i_f3d_flags>
0

> <s_epik_input>
W0NIMl0xW0NIMl1PW0NIMl1bQ0gyXUMxKFtPSF0pW0NIMl1uKFtjSF1uMiljKGMyMyluW2NIXW5jM04oW0NIMl1bQ0BASF00W0NIMl1bQ0gyXVtDSDJdTzQpW0NIXTVbQ0gyXVtDSDJdW0NIMl1bQ0gyXTU=

> <s_epik_cmdline>
J2VwaWtfcHl0aG9uJywgJy1waCcsICc3LjAnLCAnLXRuJywgJzgnLCAnLW1hJywgJzIwMCcsICctbWV0YWxfYmluZGluZycsICctaW1hZScsICc8aW5maWxlLm1hZT4nLCAnLW9tYWUnLCAnPG91dGZpbGUubWFlPic=

> <r_lp_tautomer_probability>
1

> <r_epik_Ionization_Penalty>
0.0053129

> <r_epik_Ionization_Penalty_Charging>
0

> <r_epik_Ionization_Penalty_Neutral>
0.0053129

> <r_epik_State_Penalty>
0.00367355

> <r_epik_Charging_Adjusted_Penalty>
0.00367355

> <i_epik_Tot_Q>
0

> <i_epik_Tot_abs_Q>
0

> <r_epik_Metal_State_Penalty>
-0

> <b_epik_Metal_Only>
0

> <s_lp_Force_Field>
OPLS_2005

> <r_lp_Energy>
56.2303

> <b_lp_Chiralities_Consistent>
1

> <s_lp_Variant>
AV-unprocessed.smi:173-1

> <Gold.Version>
5.8.1

> <Gold.Id.Protein>
6NUR|6NUR_protein|mol2

> <Gold.PLP.Fitness>
49.2179

> <Gold.PLP.PLP>
-47.9984

> <Gold.PLP.part.hbond>
-2.2002

> <Gold.PLP.part.metal>
0.0000

> <Gold.PLP.part.buried>
-5.9483

> <Gold.PLP.part.nonpolar>
-40.3894

> <Gold.PLP.part.repulsive>
0.0220

> <Gold.PLP.ligand.clash>
0.0000

> <Gold.PLP.ligand.torsion>
1.4589

> <Gold.PLP.Chemscore.Hbond>
1.0000

> <Gold.PLP.Chemscore.CHOScore>
0.0000

> <Gold.PLP.Chemscore.Metal>
0.0000

> <Gold.Chemscore.Hbonds>
donor molecule, donor type, donor heavy atom, donor atom, acceptor molecule, acceptor atom, score
      P1  H  6896  6907       L1    21  0.99

> <Gold.PLP.Chemscore.Internal.Correction>
1.1373

> <Gold.Rescore>
     Score         DG    S(hbond)    S(metal)    S(lipo)     H(rot)  DE(clash)    DE(int)     intcor
     10.85     -14.84       0.92        0.00     110.56       2.59       0.04       3.95       ----

> <Gold.Chemscore.Fitness>
10.8486

> <Gold.Chemscore.DG>
-14.8442

> <Gold.Chemscore.ZeroCoef>
-5.4800

> <Gold.Chemscore.Hbond>
0.9172

> <Gold.Chemscore.Metal>
0.0000

> <Gold.Chemscore.Lipo>
110.5582

> <Gold.Chemscore.Internal_Hbond>
0.0000

> <Gold.Chemscore.DEClash>
0.0424

> <Gold.Chemscore.DEInternal>
3.9532

> <Gold.Chemscore.Rot>
2.5916

> <Gold.Chemscore.Internal.Correction>
   9.000000E+99

> <Gold.Chemscore.Hbonds>
donor molecule, donor type, donor heavy atom, donor atom, acceptor molecule, acceptor atom, score
      P1  H  6896  6907       L1    21  0.66

> <Gold.Chemscore.Hbond.Weighted>
-3.0634

> <Gold.Chemscore.Metal.Weighted>
-0.0000

> <Gold.Chemscore.Lipo.Weighted>
-12.9353

> <Gold.Chemscore.Internal_Hbond.Weighted>
0.0000

> <Gold.Chemscore.DEClash.Weighted>
0.0424

> <Gold.Chemscore.DEInternal.Weighted>
3.9532

> <Gold.Chemscore.Rot.Weighted>
6.6346

> <Gold.Chemscore.Internal.Correction.Weighted>
   9.000000E+99

> <Gold.Protein.RotatedTorsions>
[ 6907 6896 6895 6894 ] final  -19.67 input  -60.11 | X-H torsion
[ 7974 7965 7964 7962 ] final  -13.43 input  175.53 | X-H torsion
[ 8008 7997 7996 7995 ] final  167.72 input   59.86 | X-H torsion
[ 10167 10162 10161 10158 ] final  -50.33 input  -65.29 | X-H torsion
[ 10718 10713 10712 10709 ] final  101.57 input   66.30 | X-H torsion
[ 10763 10752 10751 10750 ] final  130.45 input  -60.55 | X-H torsion
[ 11005 11000 10999 10996 ] final   -2.58 input  -57.11 | X-H torsion

> <Gold.Protein.ActiveResidues>
 VAL166  LYS551  ARG553  GLY616  TRP617  ASP618  TYR619  PRO620  LYS621  CYS622 
 ASP623  PHE694  ASN695  SER759  ASP760  ASP761  ALA762  ILE779  LEU786  VAL792 
 PHE793  MET794  SER795  GLU796  ALA797  LYS798  CYS799  TRP800  GLU811  SER814 

> <Gold.Protein.RotatedAtoms>
  151.2597  135.0650  159.9093 H   0  0  0  0  0  0  0  0  0  0  0  0  # atno 6907 bound_to 6896
  152.5368  134.0244  159.8007 H   0  0  0  0  0  0  0  0  0  0  0  0  # atno 6908 bound_to 6896
  151.0465  133.5611  159.2677 H   0  0  0  0  0  0  0  0  0  0  0  0  # atno 6909 bound_to 6896
  146.2114  140.3202  142.8390 H   0  0  0  0  0  0  0  0  0  0  0  0  # atno 7974 bound_to 7965
  156.1609  140.1609  156.8613 H   0  0  0  0  0  0  0  0  0  0  0  0  # atno 8008 bound_to 7997
  154.5160  140.0789  156.8117 H   0  0  0  0  0  0  0  0  0  0  0  0  # atno 8009 bound_to 7997
  155.3709  140.3400  155.4245 H   0  0  0  0  0  0  0  0  0  0  0  0  # atno 8010 bound_to 7997
  140.6643  143.2662  151.4344 H   0  0  0  0  0  0  0  0  0  0  0  0  # atno 10167 bound_to 10162
  157.6826  131.0730  150.5273 H   0  0  0  0  0  0  0  0  0  0  0  0  # atno 10718 bound_to 10713
  153.7582  135.3200  155.3333 H   0  0  0  0  0  0  0  0  0  0  0  0  # atno 10763 bound_to 10752
  154.8239  135.4583  154.0864 H   0  0  0  0  0  0  0  0  0  0  0  0  # atno 10764 bound_to 10752
  153.2087  135.6932  153.8224 H   0  0  0  0  0  0  0  0  0  0  0  0  # atno 10765 bound_to 10752
  140.6599  133.9330  155.8430 H   0  0  0  0  0  0  0  0  0  0  0  0  # atno 11005 bound_to 11000
  144.8925  140.7542  143.5917 LP  0  0  0  0  0  0  0  0  0  0  0  0  # atno 17320 bound_to 7965
  145.3125  139.1814  143.4631 LP  0  0  0  0  0  0  0  0  0  0  0  0  # atno 17321 bound_to 7965
  139.5886  144.1549  152.2060 LP  0  0  0  0  0  0  0  0  0  0  0  0  # atno 17342 bound_to 10162
  140.0897  144.5631  150.7064 LP  0  0  0  0  0  0  0  0  0  0  0  0  # atno 17343 bound_to 10162
  156.5584  130.4249  149.6074 LP  0  0  0  0  0  0  0  0  0  0  0  0  # atno 17370 bound_to 10713
  156.2842  130.7088  151.1920 LP  0  0  0  0  0  0  0  0  0  0  0  0  # atno 17371 bound_to 10713
  141.0473  134.0535  157.3828 LP  0  0  0  0  0  0  0  0  0  0  0  0  # atno 17394 bound_to 11000
  139.9016  135.0166  156.7297 LP  0  0  0  0  0  0  0  0  0  0  0  0  # atno 17395 bound_to 11000

$$$$
