AV-unprocessed.smi:3058|AV-procd|sdf|11670|dock10
  -GOLD-   2272017 73D 1   1.00000     0.00000
 Structure written by MMmdl.
 38 40  0  0  0  0  0  0  0  0  1 V2000
  149.5946  141.7227  158.6061 O   0  0  0  0  0  0  0  0  0  0  0  0
  150.4567  142.2693  157.9166 C   0  0  0  0  0  0  0  0  0  0  0  0
  151.1369  141.6269  156.9547 N   0  0  0  0  0  0  0  0  0  0  0  0
  150.9680  140.2212  156.6073 C   0  0  0  0  0  0  0  0  0  0  0  0
  150.8818  140.0210  155.0856 C   0  0  0  0  0  0  0  0  0  0  0  0
  149.4937  140.3135  154.5516 C   0  0  0  0  0  0  0  0  0  0  0  0
  148.6944  139.2832  154.0152 C   0  0  0  0  0  0  0  0  0  0  0  0
  147.4088  139.6014  153.5370 C   0  0  0  0  0  0  0  0  0  0  0  0
  146.9762  140.9404  153.6168 C   0  0  0  0  0  0  0  0  0  0  0  0
  147.7329  141.9350  154.1293 N   0  0  0  0  0  0  0  0  0  0  0  0
  148.9647  141.6212  154.5851 C   0  0  0  0  0  0  0  0  0  0  0  0
  150.7974  143.7580  158.1059 C   0  0  1  0  0  0  0  0  0  0  0  0
  150.0824  144.4402  159.2987 C   0  0  0  0  0  0  0  0  0  0  0  0
  151.2471  145.0693  160.0865 C   0  0  1  0  0  0  0  0  0  0  0  0
  152.0417  143.9614  160.8034 C   0  0  0  0  0  0  0  0  0  0  0  0
  152.8124  143.2957  159.6487 C   0  0  0  0  0  0  0  0  0  0  0  0
  152.2903  144.0552  158.4089 C   0  0  2  0  0  0  0  0  0  0  0  0
  152.2002  145.4726  158.9670 C   0  0  0  0  0  0  0  0  0  0  0  0
  151.8222  142.1490  156.4280 H   0  0  0  0  0  0  0  0  0  0  0  0
  151.7863  139.6325  157.0259 H   0  0  0  0  0  0  0  0  0  0  0  0
  150.0540  139.8631  157.0819 H   0  0  0  0  0  0  0  0  0  0  0  0
  151.6006  140.6679  154.5809 H   0  0  0  0  0  0  0  0  0  0  0  0
  151.1510  138.9975  154.8213 H   0  0  0  0  0  0  0  0  0  0  0  0
  149.0574  138.2666  153.9724 H   0  0  0  0  0  0  0  0  0  0  0  0
  146.7692  138.8377  153.1200 H   0  0  0  0  0  0  0  0  0  0  0  0
  145.9959  141.2196  153.2599 H   0  0  0  0  0  0  0  0  0  0  0  0
  149.5430  142.4379  154.9919 H   0  0  0  0  0  0  0  0  0  0  0  0
  150.5169  144.2888  157.1938 H   0  0  0  0  0  0  0  0  0  0  0  0
  149.4063  145.2156  158.9363 H   0  0  0  0  0  0  0  0  0  0  0  0
  149.4917  143.7645  159.9187 H   0  0  0  0  0  0  0  0  0  0  0  0
  150.9389  145.8813  160.7455 H   0  0  0  0  0  0  0  0  0  0  0  0
  152.7336  144.3837  161.5331 H   0  0  0  0  0  0  0  0  0  0  0  0
  151.3896  143.2602  161.3256 H   0  0  0  0  0  0  0  0  0  0  0  0
  153.8834  143.4644  159.7685 H   0  0  0  0  0  0  0  0  0  0  0  0
  152.6656  142.2173  159.6038 H   0  0  0  0  0  0  0  0  0  0  0  0
  152.9370  143.9599  157.5363 H   0  0  0  0  0  0  0  0  0  0  0  0
  151.7678  146.1899  158.2669 H   0  0  0  0  0  0  0  0  0  0  0  0
  153.1541  145.8598  159.3297 H   0  0  0  0  0  0  0  0  0  0  0  0
  1  2  2  0  0  0  0
  2  3  1  0  0  0  0
  2 12  1  0  0  0  0
  3  4  1  0  0  0  0
  3 19  1  0  0  0  0
  4  5  1  0  0  0  0
  4 20  1  0  0  0  0
  4 21  1  0  0  0  0
  5  6  1  0  0  0  0
  5 22  1  0  0  0  0
  5 23  1  0  0  0  0
  6 11  1  0  0  0  0
  6  7  2  0  0  0  0
  7  8  1  0  0  0  0
  7 24  1  0  0  0  0
  8  9  2  0  0  0  0
  8 25  1  0  0  0  0
  9 10  1  0  0  0  0
  9 26  1  0  0  0  0
 10 11  2  0  0  0  0
 11 27  1  0  0  0  0
 12 17  1  0  0  0  0
 12 13  1  0  0  0  0
 12 28  1  0  0  0  0
 13 14  1  0  0  0  0
 13 29  1  0  0  0  0
 13 30  1  0  0  0  0
 14 18  1  0  0  0  0
 14 15  1  0  0  0  0
 14 31  1  0  0  0  0
 15 16  1  0  0  0  0
 15 32  1  0  0  0  0
 15 33  1  0  0  0  0
 16 17  1  0  0  0  0
 16 34  1  0  0  0  0
 16 35  1  0  0  0  0
 17 18  1  0  0  0  0
 17 36  1  0  0  0  0
 18 37  1  0  0  0  0
 18 38  1  0  0  0  0
M  END
> <s_m_source_file>
AV-unprocessed.smi

> <i_m_source_file_index>
3058

> <i_lp_mmshare_version>
43012

> <i_f3d_flags>
0

> <s_epik_input>
W0NIMl0xW0NIMl1bQ0BIXShbQ0gyXTIpW0NAQEhdKFtDSDJdW0NAQEhdMTIpQyg9TylbTkhdW0NIMl1bQ0gyXWMzW2NIXVtjSF1bY0hdbltjSF0z

> <s_epik_cmdline>
J2VwaWtfcHl0aG9uJywgJy1waCcsICc3LjAnLCAnLXRuJywgJzgnLCAnLW1hJywgJzIwMCcsICctbWV0YWxfYmluZGluZycsICctaW1hZScsICc8aW5maWxlLm1hZT4nLCAnLW9tYWUnLCAnPG91dGZpbGUubWFlPic=

> <r_epik_Ionization_Penalty>
0.0135821

> <r_epik_Ionization_Penalty_Charging>
0

> <r_epik_Ionization_Penalty_Neutral>
0.0135821

> <r_epik_State_Penalty>
0.0105782

> <r_epik_Charging_Adjusted_Penalty>
0.0105782

> <i_epik_Tot_Q>
0

> <i_epik_Tot_abs_Q>
0

> <r_epik_Metal_State_Penalty>
0.0103407

> <b_epik_Metal_Only>
0

> <s_lp_Force_Field>
OPLS_2005

> <r_lp_Energy>
46.4092

> <b_lp_Chiralities_Consistent>
1

> <s_lp_Variant>
AV-unprocessed.smi:3058-2

> <Gold.Version>
5.8.1

> <Gold.Id.Protein>
6NUR|6NUR_protein|mol2

> <Gold.PLP.Fitness>
47.6466

> <Gold.PLP.PLP>
-42.1817

> <Gold.PLP.part.hbond>
-0.5794

> <Gold.PLP.part.metal>
0.0000

> <Gold.PLP.part.buried>
-1.2179

> <Gold.PLP.part.nonpolar>
-40.1106

> <Gold.PLP.part.repulsive>
0.2838

> <Gold.PLP.ligand.clash>
0.0000

> <Gold.PLP.ligand.torsion>
0.2730

> <Gold.PLP.Chemscore.Hbond>
0.0000

> <Gold.PLP.Chemscore.CHOScore>
2.0000

> <Gold.PLP.Chemscore.Metal>
0.0000

> <Gold.Chemscore.Hbonds>
donor molecule, donor type, donor heavy atom, donor atom, acceptor molecule, acceptor atom, score
      L1  C     9    26       P1 10175  0.98
      L1  C    11    27       P1  8028  1.00

> <Gold.PLP.Chemscore.Internal.Correction>
0.0108

> <Gold.Rescore>
     Score         DG    S(hbond)    S(metal)    S(lipo)     H(rot)  DE(clash)    DE(int)     intcor
     16.77     -17.17       0.00        0.00     129.75       1.37       0.19       0.21       ----

> <Gold.Chemscore.Fitness>
16.7657

> <Gold.Chemscore.DG>
-17.1654

> <Gold.Chemscore.ZeroCoef>
-5.4800

> <Gold.Chemscore.Hbond>
0.0000

> <Gold.Chemscore.Metal>
0.0000

> <Gold.Chemscore.Lipo>
129.7482

> <Gold.Chemscore.Internal_Hbond>
0.0000

> <Gold.Chemscore.DEClash>
0.1922

> <Gold.Chemscore.DEInternal>
0.2075

> <Gold.Chemscore.Rot>
1.3653

> <Gold.Chemscore.Internal.Correction>
   9.000000E+99

> <Gold.Chemscore.Hbond.Weighted>
-0.0000

> <Gold.Chemscore.Metal.Weighted>
-0.0000

> <Gold.Chemscore.Lipo.Weighted>
-15.1805

> <Gold.Chemscore.Internal_Hbond.Weighted>
0.0000

> <Gold.Chemscore.DEClash.Weighted>
0.1922

> <Gold.Chemscore.DEInternal.Weighted>
0.2075

> <Gold.Chemscore.Rot.Weighted>
3.4951

> <Gold.Chemscore.Internal.Correction.Weighted>
   9.000000E+99

> <Gold.Protein.RotatedTorsions>
[ 6907 6896 6895 6894 ] final   14.66 input  -60.11 | X-H torsion
[ 7974 7965 7964 7962 ] final   78.08 input  175.53 | X-H torsion
[ 8008 7997 7996 7995 ] final -136.16 input   59.86 | X-H torsion
[ 10167 10162 10161 10158 ] final  -61.83 input  -65.29 | X-H torsion
[ 10718 10713 10712 10709 ] final   19.40 input   66.30 | X-H torsion
[ 10763 10752 10751 10750 ] final   38.68 input  -60.55 | X-H torsion
[ 11005 11000 10999 10996 ] final  158.12 input  -57.11 | X-H torsion

> <Gold.Protein.ActiveResidues>
 VAL166  LYS551  ARG553  GLY616  TRP617  ASP618  TYR619  PRO620  LYS621  CYS622 
 ASP623  PHE694  ASN695  SER759  ASP760  ASP761  ALA762  ILE779  LEU786  VAL792 
 PHE793  MET794  SER795  GLU796  ALA797  LYS798  CYS799  TRP800  GLU811  SER814 

> <Gold.Protein.RotatedAtoms>
  151.8058  135.0695  160.0406 H   0  0  0  0  0  0  0  0  0  0  0  0  # atno 6907 bound_to 6896
  152.3056  133.5695  159.5655 H   0  0  0  0  0  0  0  0  0  0  0  0  # atno 6908 bound_to 6896
  150.7294  134.0143  159.3722 H   0  0  0  0  0  0  0  0  0  0  0  0  # atno 6909 bound_to 6896
  145.6817  139.2526  143.1810 H   0  0  0  0  0  0  0  0  0  0  0  0  # atno 7974 bound_to 7965
  155.3907  140.0500  157.3041 H   0  0  0  0  0  0  0  0  0  0  0  0  # atno 8008 bound_to 7997
  154.5037  140.2166  155.9255 H   0  0  0  0  0  0  0  0  0  0  0  0  # atno 8009 bound_to 7997
  156.1500  140.3138  155.8637 H   0  0  0  0  0  0  0  0  0  0  0  0  # atno 8010 bound_to 7997
  140.5980  143.2355  151.5993 H   0  0  0  0  0  0  0  0  0  0  0  0  # atno 10167 bound_to 10162
  157.1100  130.6504  149.5895 H   0  0  0  0  0  0  0  0  0  0  0  0  # atno 10718 bound_to 10713
  152.9992  135.6242  154.2344 H   0  0  0  0  0  0  0  0  0  0  0  0  # atno 10763 bound_to 10752
  154.2085  135.2801  155.2968 H   0  0  0  0  0  0  0  0  0  0  0  0  # atno 10764 bound_to 10752
  154.5626  135.5701  153.7079 H   0  0  0  0  0  0  0  0  0  0  0  0  # atno 10765 bound_to 10752
  140.1834  134.8459  157.2830 H   0  0  0  0  0  0  0  0  0  0  0  0  # atno 11005 bound_to 11000
  146.0958  140.7602  142.9573 LP  0  0  0  0  0  0  0  0  0  0  0  0  # atno 17320 bound_to 7965
  144.7024  140.3710  143.7145 LP  0  0  0  0  0  0  0  0  0  0  0  0  # atno 17321 bound_to 7965
  139.5271  144.3026  152.1061 LP  0  0  0  0  0  0  0  0  0  0  0  0  # atno 17342 bound_to 10162
  140.2201  144.4474  150.6346 LP  0  0  0  0  0  0  0  0  0  0  0  0  # atno 17343 bound_to 10162
  155.9853  130.4882  150.7024 LP  0  0  0  0  0  0  0  0  0  0  0  0  # atno 17370 bound_to 10713
  157.4568  131.0878  151.0788 LP  0  0  0  0  0  0  0  0  0  0  0  0  # atno 17371 bound_to 10713
  140.2241  134.3988  155.7552 LP  0  0  0  0  0  0  0  0  0  0  0  0  # atno 17394 bound_to 11000
  141.2224  133.7181  156.8537 LP  0  0  0  0  0  0  0  0  0  0  0  0  # atno 17395 bound_to 11000

$$$$
