AV-unprocessed.smi:3171|AV-procd|sdf|12112|dock8
  -GOLD-   2272017553D 1   1.00000     0.00000
 Structure written by MMmdl.
 33 34  0  0  0  0  0  0  0  0  1 V2000
  153.1008  143.2456  163.2491 C   0  0  0  0  0  0  0  0  0  0  0  0
  152.9110  142.6139  161.8814 C   0  0  0  0  0  0  0  0  0  0  0  0
  151.9084  143.1401  161.1444 N   0  0  0  0  0  0  0  0  0  0  0  0
  151.6476  142.6692  159.9242 N   0  0  0  0  0  0  0  0  0  0  0  0
  152.3755  141.6550  159.3968 C   0  0  0  0  0  0  0  0  0  0  0  0
  152.0408  141.2141  158.1024 N   0  0  0  0  0  0  0  0  0  0  0  0
  150.9376  141.8070  157.3555 C   0  0  0  0  0  0  0  0  0  0  0  0
  150.8266  141.2416  155.9303 C   0  0  1  0  0  0  0  0  0  0  0  0
  150.8544  139.7171  155.8767 C   0  0  0  0  0  0  0  0  0  0  0  0
  150.1999  139.4509  154.5399 C   0  0  0  0  0  0  0  0  0  0  0  0
  149.1348  140.5448  154.4754 C   0  0  0  0  0  0  0  0  0  0  0  0
  149.5691  141.5808  155.3543 O   0  0  0  0  0  0  0  0  0  0  0  0
  153.4444  141.0574  160.1144 C   0  0  0  0  0  0  0  0  0  0  0  0
  154.2301  139.9668  159.5403 C   0  0  0  0  0  0  0  0  0  0  0  0
  154.8521  139.1035  159.0855 N   0  0  0  0  0  0  0  0  0  0  0  0
  153.7248  141.5543  161.4123 C   0  0  0  0  0  0  0  0  0  0  0  0
  154.8556  140.9726  162.2570 C   0  0  0  0  0  0  0  0  0  0  0  0
  154.1066  143.6552  163.3442 H   0  0  0  0  0  0  0  0  0  0  0  0
  152.9480  142.5059  164.0351 H   0  0  0  0  0  0  0  0  0  0  0  0
  152.3934  144.0590  163.4159 H   0  0  0  0  0  0  0  0  0  0  0  0
  152.3802  140.3129  157.7979 H   0  0  0  0  0  0  0  0  0  0  0  0
  150.0037  141.6553  157.8978 H   0  0  0  0  0  0  0  0  0  0  0  0
  151.0906  142.8858  157.3140 H   0  0  0  0  0  0  0  0  0  0  0  0
  151.6183  141.6324  155.2890 H   0  0  0  0  0  0  0  0  0  0  0  0
  151.8621  139.3071  155.9488 H   0  0  0  0  0  0  0  0  0  0  0  0
  150.2512  139.2922  156.6803 H   0  0  0  0  0  0  0  0  0  0  0  0
  150.9263  139.5877  153.7376 H   0  0  0  0  0  0  0  0  0  0  0  0
  149.7856  138.4458  154.4570 H   0  0  0  0  0  0  0  0  0  0  0  0
  148.9986  140.9203  153.4610 H   0  0  0  0  0  0  0  0  0  0  0  0
  148.1738  140.1706  154.8295 H   0  0  0  0  0  0  0  0  0  0  0  0
  154.7344  139.8941  162.3634 H   0  0  0  0  0  0  0  0  0  0  0  0
  154.9028  141.3891  163.2616 H   0  0  0  0  0  0  0  0  0  0  0  0
  155.8163  141.1620  161.7773 H   0  0  0  0  0  0  0  0  0  0  0  0
  1  2  1  0  0  0  0
  1 18  1  0  0  0  0
  1 19  1  0  0  0  0
  1 20  1  0  0  0  0
  2 16  1  0  0  0  0
  2  3  2  0  0  0  0
  3  4  1  0  0  0  0
  4  5  2  0  0  0  0
  5  6  1  0  0  0  0
  5 13  1  0  0  0  0
  6  7  1  0  0  0  0
  6 21  1  0  0  0  0
  7  8  1  0  0  0  0
  7 22  1  0  0  0  0
  7 23  1  0  0  0  0
  8 12  1  0  0  0  0
  8  9  1  0  0  0  0
  8 24  1  0  0  0  0
  9 10  1  0  0  0  0
  9 25  1  0  0  0  0
  9 26  1  0  0  0  0
 10 11  1  0  0  0  0
 10 27  1  0  0  0  0
 10 28  1  0  0  0  0
 11 12  1  0  0  0  0
 11 29  1  0  0  0  0
 11 30  1  0  0  0  0
 13 14  1  0  0  0  0
 13 16  2  0  0  0  0
 14 15  3  0  0  0  0
 16 17  1  0  0  0  0
 17 31  1  0  0  0  0
 17 32  1  0  0  0  0
 17 33  1  0  0  0  0
M  END
> <s_m_source_file>
AV-unprocessed.smi

> <i_m_source_file_index>
3171

> <i_lp_mmshare_version>
43012

> <i_f3d_flags>
0

> <s_epik_input>
W0NIM11jMW5uYyhjKEMjTiljMVtDSDNdKVtOSF1bQ0gyXVtDQEBIXTJbQ0gyXVtDSDJdW0NIMl1PMg==

> <s_epik_cmdline>
J2VwaWtfcHl0aG9uJywgJy1waCcsICc3LjAnLCAnLXRuJywgJzgnLCAnLW1hJywgJzIwMCcsICctbWV0YWxfYmluZGluZycsICctaW1hZScsICc8aW5maWxlLm1hZT4nLCAnLW9tYWUnLCAnPG91dGZpbGUubWFlPic=

> <r_lp_tautomer_probability>
1

> <r_epik_Ionization_Penalty>
0.00108228

> <r_epik_Ionization_Penalty_Charging>
0

> <r_epik_Ionization_Penalty_Neutral>
0.00108228

> <r_epik_State_Penalty>
-0

> <r_epik_Charging_Adjusted_Penalty>
0

> <i_epik_Tot_Q>
0

> <i_epik_Tot_abs_Q>
0

> <r_epik_Metal_State_Penalty>
-0

> <b_epik_Metal_Only>
0

> <s_lp_Force_Field>
OPLS_2005

> <r_lp_Energy>
28.3967

> <b_lp_Chiralities_Consistent>
1

> <s_lp_Variant>
AV-unprocessed.smi:3171-2

> <Gold.Version>
5.8.1

> <Gold.Id.Protein>
6NUR|6NUR_protein|mol2

> <Gold.PLP.Fitness>
39.9264

> <Gold.PLP.PLP>
-37.1008

> <Gold.PLP.part.hbond>
-1.5180

> <Gold.PLP.part.metal>
0.0000

> <Gold.PLP.part.buried>
-0.4209

> <Gold.PLP.part.nonpolar>
-33.7457

> <Gold.PLP.part.repulsive>
0.4055

> <Gold.PLP.ligand.clash>
0.0000

> <Gold.PLP.ligand.torsion>
0.0904

> <Gold.PLP.Chemscore.Hbond>
1.0000

> <Gold.PLP.Chemscore.CHOScore>
0.0000

> <Gold.PLP.Chemscore.Metal>
0.0000

> <Gold.Chemscore.Hbonds>
donor molecule, donor type, donor heavy atom, donor atom, acceptor molecule, acceptor atom, score
      P1  H  7997  8009       L1    15  0.89

> <Gold.PLP.Chemscore.Internal.Correction>
0.0065

> <Gold.Rescore>
     Score         DG    S(hbond)    S(metal)    S(lipo)     H(rot)  DE(clash)    DE(int)     intcor
     13.16     -13.27       0.21        0.00      87.22       1.22       0.09       0.03       ----

> <Gold.Chemscore.Fitness>
13.1568

> <Gold.Chemscore.DG>
-13.2749

> <Gold.Chemscore.ZeroCoef>
-5.4800

> <Gold.Chemscore.Hbond>
0.2122

> <Gold.Chemscore.Metal>
0.0000

> <Gold.Chemscore.Lipo>
87.2174

> <Gold.Chemscore.Internal_Hbond>
0.0000

> <Gold.Chemscore.DEClash>
0.0857

> <Gold.Chemscore.DEInternal>
0.0324

> <Gold.Chemscore.Rot>
1.2181

> <Gold.Chemscore.Internal.Correction>
   9.000000E+99

> <Gold.Chemscore.Hbonds>
donor molecule, donor type, donor heavy atom, donor atom, acceptor molecule, acceptor atom, score
      P1  H  7997  8009       L1    15  0.21

> <Gold.Chemscore.Hbond.Weighted>
-0.7087

> <Gold.Chemscore.Metal.Weighted>
-0.0000

> <Gold.Chemscore.Lipo.Weighted>
-10.2044

> <Gold.Chemscore.Internal_Hbond.Weighted>
0.0000

> <Gold.Chemscore.DEClash.Weighted>
0.0857

> <Gold.Chemscore.DEInternal.Weighted>
0.0324

> <Gold.Chemscore.Rot.Weighted>
3.1182

> <Gold.Chemscore.Internal.Correction.Weighted>
   9.000000E+99

> <Gold.Protein.RotatedTorsions>
[ 6907 6896 6895 6894 ] final  -40.53 input  -60.11 | X-H torsion
[ 7974 7965 7964 7962 ] final  147.25 input  175.53 | X-H torsion
[ 8008 7997 7996 7995 ] final   95.71 input   59.86 | X-H torsion
[ 10167 10162 10161 10158 ] final  178.07 input  -65.29 | X-H torsion
[ 10718 10713 10712 10709 ] final  148.73 input   66.30 | X-H torsion
[ 10763 10752 10751 10750 ] final    8.17 input  -60.55 | X-H torsion
[ 11005 11000 10999 10996 ] final  -29.44 input  -57.11 | X-H torsion

> <Gold.Protein.ActiveResidues>
 VAL166  LYS551  ARG553  GLY616  TRP617  ASP618  TYR619  PRO620  LYS621  CYS622 
 ASP623  PHE694  ASN695  SER759  ASP760  ASP761  ALA762  ILE779  LEU786  VAL792 
 PHE793  MET794  SER795  GLU796  ALA797  LYS798  CYS799  TRP800  GLU811  SER814 

> <Gold.Protein.RotatedAtoms>
  150.9773  134.9135  159.7823 H   0  0  0  0  0  0  0  0  0  0  0  0  # atno 6907 bound_to 6896
  152.5210  134.3458  159.9243 H   0  0  0  0  0  0  0  0  0  0  0  0  # atno 6908 bound_to 6896
  151.3466  133.3900  159.2711 H   0  0  0  0  0  0  0  0  0  0  0  0  # atno 6909 bound_to 6896
  144.8606  139.6005  143.5932 H   0  0  0  0  0  0  0  0  0  0  0  0  # atno 7974 bound_to 7965
  156.0718  140.3283  155.7585 H   0  0  0  0  0  0  0  0  0  0  0  0  # atno 8008 bound_to 7997
  155.5293  140.0592  157.2909 H   0  0  0  0  0  0  0  0  0  0  0  0  # atno 8009 bound_to 7997
  154.4534  140.1930  156.0468 H   0  0  0  0  0  0  0  0  0  0  0  0  # atno 8010 bound_to 7997
  139.5279  144.2724  152.0617 H   0  0  0  0  0  0  0  0  0  0  0  0  # atno 10167 bound_to 10162
  157.3050  131.0877  151.1361 H   0  0  0  0  0  0  0  0  0  0  0  0  # atno 10718 bound_to 10713
  153.2280  135.6889  153.7922 H   0  0  0  0  0  0  0  0  0  0  0  0  # atno 10763 bound_to 10752
  153.7097  135.3284  155.3244 H   0  0  0  0  0  0  0  0  0  0  0  0  # atno 10764 bound_to 10752
  154.8301  135.4587  154.1154 H   0  0  0  0  0  0  0  0  0  0  0  0  # atno 10765 bound_to 10752
  140.9296  133.7346  156.0917 H   0  0  0  0  0  0  0  0  0  0  0  0  # atno 11005 bound_to 11000
  146.2858  139.7000  142.9197 LP  0  0  0  0  0  0  0  0  0  0  0  0  # atno 17320 bound_to 7965
  145.4319  141.0416  143.2906 LP  0  0  0  0  0  0  0  0  0  0  0  0  # atno 17321 bound_to 7965
  140.2183  144.4493  150.6354 LP  0  0  0  0  0  0  0  0  0  0  0  0  # atno 17342 bound_to 10162
  140.6435  143.2208  151.6237 LP  0  0  0  0  0  0  0  0  0  0  0  0  # atno 17343 bound_to 10162
  157.2705  130.6702  149.6017 LP  0  0  0  0  0  0  0  0  0  0  0  0  # atno 17370 bound_to 10713
  155.9674  130.4480  150.5604 LP  0  0  0  0  0  0  0  0  0  0  0  0  # atno 17371 bound_to 10713
  140.7880  134.3650  157.5471 LP  0  0  0  0  0  0  0  0  0  0  0  0  # atno 17394 bound_to 11000
  139.8793  134.9123  156.3056 LP  0  0  0  0  0  0  0  0  0  0  0  0  # atno 17395 bound_to 11000

$$$$
