AV-unprocessed.smi:1671|AV-procd|sdf|6697|dock10
  -GOLD-   22720 7433D 1   1.00000     0.00000
 Structure written by MMmdl.
 44 45  0  0  0  0  0  0  0  0  1 V2000
  150.1951  132.9322  154.5868 C   0  0  0  0  0  0  0  0  0  0  0  0
  148.9266  134.0354  153.9054 S   0  0  0  0  0  0  0  0  0  0  0  0
  148.8350  135.3084  155.2003 C   0  0  2  0  0  0  0  0  0  0  0  0
  147.6551  136.2565  154.9320 C   0  0  0  0  0  0  0  0  0  0  0  0
  150.1537  136.0804  155.3330 C   0  0  0  0  0  0  0  0  0  0  0  0
  150.7965  136.0404  156.3826 O   0  0  0  0  0  0  0  0  0  0  0  0
  150.5333  136.7980  154.2636 N   0  0  0  0  0  0  0  0  0  0  0  0
  151.7136  137.6532  154.1860 C   0  0  0  0  0  0  0  0  0  0  0  0
  151.7677  138.7054  155.2830 C   0  0  0  0  0  0  0  0  0  0  0  0
  150.7797  139.7063  155.3635 C   0  0  0  0  0  0  0  0  0  0  0  0
  150.8578  140.6647  156.3919 C   0  0  0  0  0  0  0  0  0  0  0  0
  151.9296  140.6033  157.3142 C   0  0  0  0  0  0  0  0  0  0  0  0
  152.0266  141.5513  158.3564 N   0  0  0  0  0  0  0  0  0  0  0  0
  153.1533  141.4415  159.2810 C   0  0  0  0  0  0  0  0  0  0  0  0
  152.9368  142.3537  160.4994 C   0  0  0  0  0  0  0  0  0  0  0  0
  152.7069  143.6890  160.0630 O   0  0  0  0  0  0  0  0  0  0  0  0
  151.5377  143.7958  159.2555 C   0  0  1  0  0  0  0  0  0  0  0  0
  151.3220  145.2740  158.9149 C   0  0  0  0  0  0  0  0  0  0  0  0
  151.7110  142.9303  157.9921 C   0  0  0  0  0  0  0  0  0  0  0  0
  152.8801  139.6396  157.2316 N   0  0  0  0  0  0  0  0  0  0  0  0
  152.8019  138.7249  156.2427 C   0  0  0  0  0  0  0  0  0  0  0  0
  150.3319  132.0714  153.9323 H   0  0  0  0  0  0  0  0  0  0  0  0
  149.8989  132.5724  155.5720 H   0  0  0  0  0  0  0  0  0  0  0  0
  151.1511  133.4470  154.6754 H   0  0  0  0  0  0  0  0  0  0  0  0
  148.6342  134.7972  156.1431 H   0  0  0  0  0  0  0  0  0  0  0  0
  147.5909  137.0369  155.6914 H   0  0  0  0  0  0  0  0  0  0  0  0
  146.7107  135.7118  154.9433 H   0  0  0  0  0  0  0  0  0  0  0  0
  147.7421  136.7428  153.9595 H   0  0  0  0  0  0  0  0  0  0  0  0
  149.9420  136.7694  153.4457 H   0  0  0  0  0  0  0  0  0  0  0  0
  152.6317  137.0645  154.2172 H   0  0  0  0  0  0  0  0  0  0  0  0
  151.7014  138.1442  153.2126 H   0  0  0  0  0  0  0  0  0  0  0  0
  149.9657  139.7385  154.6542 H   0  0  0  0  0  0  0  0  0  0  0  0
  150.0900  141.4198  156.4700 H   0  0  0  0  0  0  0  0  0  0  0  0
  153.2681  140.4106  159.6181 H   0  0  0  0  0  0  0  0  0  0  0  0
  154.0726  141.7212  158.7645 H   0  0  0  0  0  0  0  0  0  0  0  0
  152.0962  142.0059  161.1022 H   0  0  0  0  0  0  0  0  0  0  0  0
  153.8171  142.3365  161.1420 H   0  0  0  0  0  0  0  0  0  0  0  0
  150.6765  143.4428  159.8258 H   0  0  0  0  0  0  0  0  0  0  0  0
  150.4270  145.4097  158.3073 H   0  0  0  0  0  0  0  0  0  0  0  0
  152.1687  145.6789  158.3601 H   0  0  0  0  0  0  0  0  0  0  0  0
  151.2019  145.8691  159.8205 H   0  0  0  0  0  0  0  0  0  0  0  0
  152.5214  143.3222  157.3759 H   0  0  0  0  0  0  0  0  0  0  0  0
  150.8027  142.9906  157.3944 H   0  0  0  0  0  0  0  0  0  0  0  0
  153.5906  137.9878  156.2243 H   0  0  0  0  0  0  0  0  0  0  0  0
  1  2  1  0  0  0  0
  1 22  1  0  0  0  0
  1 23  1  0  0  0  0
  1 24  1  0  0  0  0
  2  3  1  0  0  0  0
  3  4  1  0  0  0  0
  3  5  1  0  0  0  0
  3 25  1  0  0  0  0
  4 26  1  0  0  0  0
  4 27  1  0  0  0  0
  4 28  1  0  0  0  0
  5  6  2  0  0  0  0
  5  7  1  0  0  0  0
  7  8  1  0  0  0  0
  7 29  1  0  0  0  0
  8  9  1  0  0  0  0
  8 30  1  0  0  0  0
  8 31  1  0  0  0  0
  9 21  1  0  0  0  0
  9 10  2  0  0  0  0
 10 11  1  0  0  0  0
 10 32  1  0  0  0  0
 11 12  2  0  0  0  0
 11 33  1  0  0  0  0
 12 13  1  0  0  0  0
 12 20  1  0  0  0  0
 13 19  1  0  0  0  0
 13 14  1  0  0  0  0
 14 15  1  0  0  0  0
 14 34  1  0  0  0  0
 14 35  1  0  0  0  0
 15 16  1  0  0  0  0
 15 36  1  0  0  0  0
 15 37  1  0  0  0  0
 16 17  1  0  0  0  0
 17 18  1  0  0  0  0
 17 19  1  0  0  0  0
 17 38  1  0  0  0  0
 18 39  1  0  0  0  0
 18 40  1  0  0  0  0
 18 41  1  0  0  0  0
 19 42  1  0  0  0  0
 19 43  1  0  0  0  0
 20 21  2  0  0  0  0
 21 44  1  0  0  0  0
M  END
> <s_m_source_file>
AV-unprocessed.smi

> <i_m_source_file_index>
1671

> <i_lp_mmshare_version>
43012

> <i_f3d_flags>
0

> <s_epik_input>
W0NIM11TW0NASF0oW0NIM10pQyg9TylbTkhdW0NIMl1jMVtjSF1bY0hdYyhuW2NIXTEpTjJbQ0gyXVtDSDJdT1tDQEBIXShbQ0gzXSlbQ0gyXTI=

> <s_epik_cmdline>
J2VwaWtfcHl0aG9uJywgJy1waCcsICc3LjAnLCAnLXRuJywgJzgnLCAnLW1hJywgJzIwMCcsICctbWV0YWxfYmluZGluZycsICctaW1hZScsICc8aW5maWxlLm1hZT4nLCAnLW9tYWUnLCAnPG91dGZpbGUubWFlPic=

> <r_lp_tautomer_probability>
1

> <r_epik_Ionization_Penalty>
0.00480033

> <r_epik_Ionization_Penalty_Charging>
0

> <r_epik_Ionization_Penalty_Neutral>
0.00480033

> <r_epik_State_Penalty>
0.00347981

> <r_epik_Charging_Adjusted_Penalty>
0.00347981

> <i_epik_Tot_Q>
0

> <i_epik_Tot_abs_Q>
0

> <r_epik_Metal_State_Penalty>
-0

> <b_epik_Metal_Only>
0

> <s_lp_Force_Field>
OPLS_2005

> <r_lp_Energy>
16.3373

> <b_lp_Chiralities_Consistent>
1

> <s_lp_Variant>
AV-unprocessed.smi:1671-1

> <Gold.Version>
5.8.1

> <Gold.Id.Protein>
6NUR|6NUR_protein|mol2

> <Gold.PLP.Fitness>
43.6637

> <Gold.PLP.PLP>
-39.0653

> <Gold.PLP.part.hbond>
-2.8463

> <Gold.PLP.part.metal>
0.0000

> <Gold.PLP.part.buried>
-3.2010

> <Gold.PLP.part.nonpolar>
-33.2925

> <Gold.PLP.part.repulsive>
0.0755

> <Gold.PLP.ligand.clash>
0.0000

> <Gold.PLP.ligand.torsion>
0.3183

> <Gold.PLP.Chemscore.Hbond>
1.6240

> <Gold.PLP.Chemscore.CHOScore>
0.0000

> <Gold.PLP.Chemscore.Metal>
0.0000

> <Gold.Chemscore.Hbonds>
donor molecule, donor type, donor heavy atom, donor atom, acceptor molecule, acceptor atom, score
      L1  H     7    29       P1  7948  0.95
      P1  H  7997  8010       L1    20  0.56

> <Gold.PLP.Chemscore.Internal.Correction>
0.3631

> <Gold.Rescore>
     Score         DG    S(hbond)    S(metal)    S(lipo)     H(rot)  DE(clash)    DE(int)     intcor
     16.72     -17.01       1.20        0.00      99.88       1.63       0.01       0.28       ----

> <Gold.Chemscore.Fitness>
16.7186

> <Gold.Chemscore.DG>
-17.0100

> <Gold.Chemscore.ZeroCoef>
-5.4800

> <Gold.Chemscore.Hbond>
1.2005

> <Gold.Chemscore.Metal>
0.0000

> <Gold.Chemscore.Lipo>
99.8795

> <Gold.Chemscore.Internal_Hbond>
0.0000

> <Gold.Chemscore.DEClash>
0.0141

> <Gold.Chemscore.DEInternal>
0.2773

> <Gold.Chemscore.Rot>
1.6272

> <Gold.Chemscore.Internal.Correction>
   9.000000E+99

> <Gold.Chemscore.Hbonds>
donor molecule, donor type, donor heavy atom, donor atom, acceptor molecule, acceptor atom, score
      L1  H     7    29       P1  7948  0.21
      P1  H  7997  8010       L1    20  0.12

> <Gold.Chemscore.Hbond.Weighted>
-4.0098

> <Gold.Chemscore.Metal.Weighted>
-0.0000

> <Gold.Chemscore.Lipo.Weighted>
-11.6859

> <Gold.Chemscore.Internal_Hbond.Weighted>
0.0000

> <Gold.Chemscore.DEClash.Weighted>
0.0141

> <Gold.Chemscore.DEInternal.Weighted>
0.2773

> <Gold.Chemscore.Rot.Weighted>
4.1657

> <Gold.Chemscore.Internal.Correction.Weighted>
   9.000000E+99

> <Gold.Protein.RotatedTorsions>
[ 6907 6896 6895 6894 ] final  -76.08 input  -60.11 | X-H torsion
[ 7974 7965 7964 7962 ] final  -76.60 input  175.53 | X-H torsion
[ 8008 7997 7996 7995 ] final   20.92 input   59.86 | X-H torsion
[ 10167 10162 10161 10158 ] final -126.75 input  -65.29 | X-H torsion
[ 10718 10713 10712 10709 ] final  156.29 input   66.30 | X-H torsion
[ 10763 10752 10751 10750 ] final  -53.15 input  -60.55 | X-H torsion
[ 11005 11000 10999 10996 ] final  -72.55 input  -57.11 | X-H torsion

> <Gold.Protein.ActiveResidues>
 VAL166  LYS551  ARG553  GLY616  TRP617  ASP618  TYR619  PRO620  LYS621  CYS622 
 ASP623  PHE694  ASN695  SER759  ASP760  ASP761  ALA762  ILE779  LEU786  VAL792 
 PHE793  MET794  SER795  GLU796  ALA797  LYS798  CYS799  TRP800  GLU811  SER814 

> <Gold.Protein.RotatedAtoms>
  150.7038  134.4625  159.5386 H   0  0  0  0  0  0  0  0  0  0  0  0  # atno 6907 bound_to 6896
  152.2296  134.8331  160.0484 H   0  0  0  0  0  0  0  0  0  0  0  0  # atno 6908 bound_to 6896
  151.9152  133.3536  159.3914 H   0  0  0  0  0  0  0  0  0  0  0  0  # atno 6909 bound_to 6896
  145.6107  140.9387  143.1191 H   0  0  0  0  0  0  0  0  0  0  0  0  # atno 7974 bound_to 7965
  154.9428  140.3055  155.5112 H   0  0  0  0  0  0  0  0  0  0  0  0  # atno 8008 bound_to 7997
  156.2994  140.2333  156.4436 H   0  0  0  0  0  0  0  0  0  0  0  0  # atno 8009 bound_to 7997
  154.8129  140.0427  157.1344 H   0  0  0  0  0  0  0  0  0  0  0  0  # atno 8010 bound_to 7997
  139.9681  143.5876  152.2422 H   0  0  0  0  0  0  0  0  0  0  0  0  # atno 10167 bound_to 10162
  157.2069  131.0689  151.1992 H   0  0  0  0  0  0  0  0  0  0  0  0  # atno 10718 bound_to 10713
  154.1542  135.6485  153.4970 H   0  0  0  0  0  0  0  0  0  0  0  0  # atno 10763 bound_to 10752
  153.0129  135.5345  154.6777 H   0  0  0  0  0  0  0  0  0  0  0  0  # atno 10764 bound_to 10752
  154.6073  135.2950  155.0442 H   0  0  0  0  0  0  0  0  0  0  0  0  # atno 10765 bound_to 10752
  141.1610  133.6850  156.7076 H   0  0  0  0  0  0  0  0  0  0  0  0  # atno 11005 bound_to 11000
  144.7271  139.7841  143.7361 LP  0  0  0  0  0  0  0  0  0  0  0  0  # atno 17320 bound_to 7965
  146.1506  139.4589  143.0051 LP  0  0  0  0  0  0  0  0  0  0  0  0  # atno 17321 bound_to 7965
  139.6502  144.7660  151.2163 LP  0  0  0  0  0  0  0  0  0  0  0  0  # atno 17342 bound_to 10162
  140.7531  143.6173  150.8547 LP  0  0  0  0  0  0  0  0  0  0  0  0  # atno 17343 bound_to 10162
  157.3711  130.7181  149.6565 LP  0  0  0  0  0  0  0  0  0  0  0  0  # atno 17370 bound_to 10713
  155.9694  130.4198  150.4395 LP  0  0  0  0  0  0  0  0  0  0  0  0  # atno 17371 bound_to 10713
  140.2912  134.8239  157.4018 LP  0  0  0  0  0  0  0  0  0  0  0  0  # atno 17394 bound_to 11000
  140.1345  134.5052  155.8079 LP  0  0  0  0  0  0  0  0  0  0  0  0  # atno 17395 bound_to 11000

$$$$
