AV-unprocessed.smi:3024|AV-procd|sdf|11503|dock5
  -GOLD-   2272016443D 1   1.00000     0.00000
 Structure written by MMmdl.
 31 32  0  0  0  0  0  0  0  0  1 V2000
  148.7624  144.3694  161.5028 O   0  0  0  0  0  0  0  0  0  0  0  0
  148.5413  144.8412  160.3878 C   0  0  0  0  0  0  0  0  0  0  0  0
  149.5048  145.2689  159.5599 N   0  0  0  0  0  0  0  0  0  0  0  0
  150.9328  145.2569  159.8571 C   0  0  0  0  0  0  0  0  0  0  0  0
  151.4368  143.8333  160.1455 C   0  0  2  0  0  0  0  0  0  0  0  0
  152.2421  143.7157  161.4383 C   0  0  0  0  0  0  0  0  0  0  0  0
  153.1318  142.5053  161.1986 C   0  0  0  0  0  0  0  0  0  0  0  0
  153.0388  142.2647  159.6889 C   0  0  0  0  0  0  0  0  0  0  0  0
  152.3780  143.4107  159.1717 O   0  0  0  0  0  0  0  0  0  0  0  0
  147.3265  144.9775  159.8290 N   0  0  0  0  0  0  0  0  0  0  0  0
  146.0592  144.6491  160.3815 C   0  0  0  0  0  0  0  0  0  0  0  0
  146.0273  144.0703  161.6670 C   0  0  0  0  0  0  0  0  0  0  0  0
  144.7863  143.7192  162.2313 C   0  0  0  0  0  0  0  0  0  0  0  0
  143.6190  143.9528  161.4791 C   0  0  0  0  0  0  0  0  0  0  0  0
  143.6318  144.4906  160.2413 N   0  0  0  0  0  0  0  0  0  0  0  0
  144.8259  144.8272  159.7067 C   0  0  0  0  0  0  0  0  0  0  0  0
  149.2313  145.6366  158.6606 H   0  0  0  0  0  0  0  0  0  0  0  0
  151.5046  145.7152  159.0482 H   0  0  0  0  0  0  0  0  0  0  0  0
  151.0894  145.8820  160.7364 H   0  0  0  0  0  0  0  0  0  0  0  0
  150.6025  143.1292  160.1661 H   0  0  0  0  0  0  0  0  0  0  0  0
  152.8641  144.6010  161.5770 H   0  0  0  0  0  0  0  0  0  0  0  0
  151.6086  143.6096  162.3193 H   0  0  0  0  0  0  0  0  0  0  0  0
  154.1565  142.7091  161.5114 H   0  0  0  0  0  0  0  0  0  0  0  0
  152.7797  141.6329  161.7502 H   0  0  0  0  0  0  0  0  0  0  0  0
  154.0158  142.1316  159.2236 H   0  0  0  0  0  0  0  0  0  0  0  0
  152.4376  141.3793  159.4784 H   0  0  0  0  0  0  0  0  0  0  0  0
  147.3116  145.3023  158.8735 H   0  0  0  0  0  0  0  0  0  0  0  0
  146.9407  143.9002  162.2180 H   0  0  0  0  0  0  0  0  0  0  0  0
  144.7301  143.2800  163.2163 H   0  0  0  0  0  0  0  0  0  0  0  0
  142.6498  143.6948  161.8799 H   0  0  0  0  0  0  0  0  0  0  0  0
  144.7739  145.2268  158.7060 H   0  0  0  0  0  0  0  0  0  0  0  0
  1  2  2  0  0  0  0
  2  3  1  0  0  0  0
  2 10  1  0  0  0  0
  3  4  1  0  0  0  0
  3 17  1  0  0  0  0
  4  5  1  0  0  0  0
  4 18  1  0  0  0  0
  4 19  1  0  0  0  0
  5  9  1  0  0  0  0
  5  6  1  0  0  0  0
  5 20  1  0  0  0  0
  6  7  1  0  0  0  0
  6 21  1  0  0  0  0
  6 22  1  0  0  0  0
  7  8  1  0  0  0  0
  7 23  1  0  0  0  0
  7 24  1  0  0  0  0
  8  9  1  0  0  0  0
  8 25  1  0  0  0  0
  8 26  1  0  0  0  0
 10 11  1  0  0  0  0
 10 27  1  0  0  0  0
 11 16  1  0  0  0  0
 11 12  2  0  0  0  0
 12 13  1  0  0  0  0
 12 28  1  0  0  0  0
 13 14  2  0  0  0  0
 13 29  1  0  0  0  0
 14 15  1  0  0  0  0
 14 30  1  0  0  0  0
 15 16  2  0  0  0  0
 16 31  1  0  0  0  0
M  END
> <s_m_source_file>
AV-unprocessed.smi

> <i_m_source_file_index>
3024

> <i_lp_mmshare_version>
43012

> <i_f3d_flags>
0

> <s_epik_input>
W2NIXTFuW2NIXVtjSF1bY0hdYzFbTkhdQyg9TylbTkhdW0NIMl1bQ0BASF0yW0NIMl1bQ0gyXVtDSDJdTzI=

> <s_epik_cmdline>
J2VwaWtfcHl0aG9uJywgJy1waCcsICc3LjAnLCAnLXRuJywgJzgnLCAnLW1hJywgJzIwMCcsICctbWV0YWxfYmluZGluZycsICctaW1hZScsICc8aW5maWxlLm1hZT4nLCAnLW9tYWUnLCAnPG91dGZpbGUubWFlPic=

> <r_epik_Ionization_Penalty>
0.00471982

> <r_epik_Ionization_Penalty_Charging>
0

> <r_epik_Ionization_Penalty_Neutral>
0.00471982

> <r_epik_State_Penalty>
0.00339234

> <r_epik_Charging_Adjusted_Penalty>
0.00339234

> <i_epik_Tot_Q>
0

> <i_epik_Tot_abs_Q>
0

> <r_epik_Metal_State_Penalty>
-0

> <b_epik_Metal_Only>
0

> <s_lp_Force_Field>
OPLS_2005

> <r_lp_Energy>
19.771

> <b_lp_Chiralities_Consistent>
1

> <s_lp_Variant>
AV-unprocessed.smi:3024-1

> <Gold.Version>
5.8.1

> <Gold.Id.Protein>
6NUR|6NUR_protein|mol2

> <Gold.PLP.Fitness>
44.6999

> <Gold.PLP.PLP>
-38.1928

> <Gold.PLP.part.hbond>
-3.0000

> <Gold.PLP.part.metal>
0.0000

> <Gold.PLP.part.buried>
-8.2099

> <Gold.PLP.part.nonpolar>
-28.3493

> <Gold.PLP.part.repulsive>
0.8670

> <Gold.PLP.ligand.clash>
0.0000

> <Gold.PLP.ligand.torsion>
0.7230

> <Gold.PLP.Chemscore.Hbond>
2.6484

> <Gold.PLP.Chemscore.CHOScore>
0.0000

> <Gold.PLP.Chemscore.Metal>
0.0000

> <Gold.Chemscore.Hbonds>
donor molecule, donor type, donor heavy atom, donor atom, acceptor molecule, acceptor atom, score
      L1  H     3    17       P1  8029  1.00
      L1  H    10    27       P1  8029  1.00
      P1  H  6933  6944       L1     1  0.69

> <Gold.PLP.Chemscore.Internal.Correction>
0.0080

> <Gold.Rescore>
     Score         DG    S(hbond)    S(metal)    S(lipo)     H(rot)  DE(clash)    DE(int)     intcor
     19.08     -21.25       2.74        0.00      83.58       1.24       0.00       2.17       ----

> <Gold.Chemscore.Fitness>
19.0819

> <Gold.Chemscore.DG>
-21.2528

> <Gold.Chemscore.ZeroCoef>
-5.4800

> <Gold.Chemscore.Hbond>
2.7442

> <Gold.Chemscore.Metal>
0.0000

> <Gold.Chemscore.Lipo>
83.5819

> <Gold.Chemscore.Internal_Hbond>
0.0000

> <Gold.Chemscore.DEClash>
0.0048

> <Gold.Chemscore.DEInternal>
2.1661

> <Gold.Chemscore.Rot>
1.2390

> <Gold.Chemscore.Internal.Correction>
   9.000000E+99

> <Gold.Chemscore.Hbonds>
donor molecule, donor type, donor heavy atom, donor atom, acceptor molecule, acceptor atom, score
      L1  H     3    17       P1  8029  0.95
      L1  H    10    27       P1  8029  1.00
      P1  H  6933  6944       L1     1  0.49

> <Gold.Chemscore.Hbond.Weighted>
-9.1656

> <Gold.Chemscore.Metal.Weighted>
-0.0000

> <Gold.Chemscore.Lipo.Weighted>
-9.7791

> <Gold.Chemscore.Internal_Hbond.Weighted>
0.0000

> <Gold.Chemscore.DEClash.Weighted>
0.0048

> <Gold.Chemscore.DEInternal.Weighted>
2.1661

> <Gold.Chemscore.Rot.Weighted>
3.1718

> <Gold.Chemscore.Internal.Correction.Weighted>
   9.000000E+99

> <Gold.Protein.RotatedTorsions>
[ 6907 6896 6895 6894 ] final   12.03 input  -60.11 | X-H torsion
[ 7974 7965 7964 7962 ] final   29.99 input  175.53 | X-H torsion
[ 8008 7997 7996 7995 ] final  125.94 input   59.86 | X-H torsion
[ 10167 10162 10161 10158 ] final  135.94 input  -65.29 | X-H torsion
[ 10718 10713 10712 10709 ] final  -84.39 input   66.30 | X-H torsion
[ 10763 10752 10751 10750 ] final   75.30 input  -60.55 | X-H torsion
[ 11005 11000 10999 10996 ] final   18.23 input  -57.11 | X-H torsion

> <Gold.Protein.ActiveResidues>
 VAL166  LYS551  ARG553  GLY616  TRP617  ASP618  TYR619  PRO620  LYS621  CYS622 
 ASP623  PHE694  ASN695  SER759  ASP760  ASP761  ALA762  ILE779  LEU786  VAL792 
 PHE793  MET794  SER795  GLU796  ALA797  LYS798  CYS799  TRP800  GLU811  SER814 

> <Gold.Protein.RotatedAtoms>
  151.7639  135.0803  160.0349 H   0  0  0  0  0  0  0  0  0  0  0  0  # atno 6907 bound_to 6896
  152.3335  133.5980  159.5834 H   0  0  0  0  0  0  0  0  0  0  0  0  # atno 6908 bound_to 6896
  150.7436  133.9748  159.3599 H   0  0  0  0  0  0  0  0  0  0  0  0  # atno 6909 bound_to 6896
  146.1638  139.6847  142.9015 H   0  0  0  0  0  0  0  0  0  0  0  0  # atno 7974 bound_to 7965
  156.2849  140.2704  156.2030 H   0  0  0  0  0  0  0  0  0  0  0  0  # atno 8008 bound_to 7997
  155.0342  140.0386  157.2503 H   0  0  0  0  0  0  0  0  0  0  0  0  # atno 8009 bound_to 7997
  154.7329  140.2710  155.6445 H   0  0  0  0  0  0  0  0  0  0  0  0  # atno 8010 bound_to 7997
  139.5198  144.6490  151.5356 H   0  0  0  0  0  0  0  0  0  0  0  0  # atno 10167 bound_to 10162
  156.0007  130.4696  150.4403 H   0  0  0  0  0  0  0  0  0  0  0  0  # atno 10718 bound_to 10713
  153.0645  135.4994  154.8169 H   0  0  0  0  0  0  0  0  0  0  0  0  # atno 10763 bound_to 10752
  154.6933  135.2988  154.9451 H   0  0  0  0  0  0  0  0  0  0  0  0  # atno 10764 bound_to 10752
  154.0198  135.6743  153.4824 H   0  0  0  0  0  0  0  0  0  0  0  0  # atno 10765 bound_to 10752
  140.4271  134.1458  155.7677 H   0  0  0  0  0  0  0  0  0  0  0  0  # atno 11005 bound_to 11000
  145.4519  141.0429  143.2799 LP  0  0  0  0  0  0  0  0  0  0  0  0  # atno 17320 bound_to 7965
  144.8064  139.6043  143.7049 LP  0  0  0  0  0  0  0  0  0  0  0  0  # atno 17321 bound_to 7965
  140.6287  143.9118  150.6587 LP  0  0  0  0  0  0  0  0  0  0  0  0  # atno 17342 bound_to 10162
  140.2415  143.3660  152.1483 LP  0  0  0  0  0  0  0  0  0  0  0  0  # atno 17343 bound_to 10162
  157.2445  131.0533  151.2417 LP  0  0  0  0  0  0  0  0  0  0  0  0  # atno 17370 bound_to 10713
  157.3588  130.7120  149.6488 LP  0  0  0  0  0  0  0  0  0  0  0  0  # atno 17371 bound_to 10713
  141.1761  133.8512  157.1417 LP  0  0  0  0  0  0  0  0  0  0  0  0  # atno 17394 bound_to 11000
  140.0160  134.9967  157.0494 LP  0  0  0  0  0  0  0  0  0  0  0  0  # atno 17395 bound_to 11000

$$$$
