AV-unprocessed.smi:1110|AV-procd|sdf|4791|dock5
  -GOLD-   22720 3333D 1   1.00000     0.00000
 Structure written by MMmdl.
 44 45  0  0  0  0  0  0  0  0  2 V2000
  146.3277  141.0435  154.2822 C   0  0  0  0  0  0  0  0  0  0  0  0
  147.5544  141.5475  153.5082 C   0  0  0  0  0  0  0  0  0  0  0  0
  148.9129  141.3074  154.2211 C   0  0  1  0  0  0  0  0  0  0  0  0
  148.8439  141.6832  155.7239 C   0  0  0  0  0  0  0  0  0  0  0  0
  150.0245  142.4311  156.1413 N   0  0  0  0  0  0  0  0  0  0  0  0
  151.0529  141.9417  156.8523 C   0  0  0  0  0  0  0  0  0  0  0  0
  151.1033  140.7728  157.2317 O   0  0  0  0  0  0  0  0  0  0  0  0
  152.2038  142.8975  157.2124 C   0  0  0  0  0  0  0  0  0  0  0  0
  152.6105  142.8688  158.6296 N   0  0  0  0  0  0  0  0  0  0  0  0
  152.9637  141.6139  159.1649 C   0  0  0  0  0  0  0  0  0  0  0  0
  153.3373  141.4678  160.4459 C   0  0  0  0  0  0  0  0  0  0  0  0
  153.3747  142.6430  161.2838 C   0  0  0  0  0  0  0  0  0  0  0  0
  153.0341  143.8474  160.7834 C   0  0  0  0  0  0  0  0  0  0  0  0
  152.6166  144.0102  159.3862 C   0  0  0  0  0  0  0  0  0  0  0  0
  152.2810  145.1016  158.9269 O   0  0  0  0  0  0  0  0  0  0  0  0
  149.3600  139.8944  154.0277 N   0  3  0  0  0  0  0  0  0  0  0  0
  150.6388  139.5338  154.6928 C   0  0  0  0  0  0  0  0  0  0  0  0
  150.4886  138.1029  155.2272 C   0  0  0  0  0  0  0  0  0  0  0  0
  149.2084  137.5821  154.5861 C   0  0  0  0  0  0  0  0  0  0  0  0
  148.3818  138.8487  154.4025 C   0  0  0  0  0  0  0  0  0  0  0  0
  145.4078  141.3651  153.7934 H   0  0  0  0  0  0  0  0  0  0  0  0
  146.3142  141.4328  155.3005 H   0  0  0  0  0  0  0  0  0  0  0  0
  146.2986  139.9552  154.3330 H   0  0  0  0  0  0  0  0  0  0  0  0
  147.5638  141.0947  152.5158 H   0  0  0  0  0  0  0  0  0  0  0  0
  147.4053  142.6140  153.3423 H   0  0  0  0  0  0  0  0  0  0  0  0
  149.6598  141.9528  153.7558 H   0  0  0  0  0  0  0  0  0  0  0  0
  147.9366  142.2537  155.9265 H   0  0  0  0  0  0  0  0  0  0  0  0
  148.7580  140.7927  156.3454 H   0  0  0  0  0  0  0  0  0  0  0  0
  150.0718  143.3995  155.8582 H   0  0  0  0  0  0  0  0  0  0  0  0
  153.0566  142.6537  156.5770 H   0  0  0  0  0  0  0  0  0  0  0  0
  151.9171  143.9085  156.9180 H   0  0  0  0  0  0  0  0  0  0  0  0
  152.9061  140.7865  158.4725 H   0  0  0  0  0  0  0  0  0  0  0  0
  153.6036  140.4977  160.8394 H   0  0  0  0  0  0  0  0  0  0  0  0
  153.6797  142.5567  162.3165 H   0  0  0  0  0  0  0  0  0  0  0  0
  153.0697  144.7160  161.4250 H   0  0  0  0  0  0  0  0  0  0  0  0
  151.4495  139.6009  153.9667 H   0  0  0  0  0  0  0  0  0  0  0  0
  150.8728  140.2094  155.5170 H   0  0  0  0  0  0  0  0  0  0  0  0
  151.3527  137.4770  155.0024 H   0  0  0  0  0  0  0  0  0  0  0  0
  150.3708  138.1273  156.3116 H   0  0  0  0  0  0  0  0  0  0  0  0
  149.4320  137.1400  153.6141 H   0  0  0  0  0  0  0  0  0  0  0  0
  148.7038  136.8290  155.1924 H   0  0  0  0  0  0  0  0  0  0  0  0
  147.9009  139.1134  155.3458 H   0  0  0  0  0  0  0  0  0  0  0  0
  147.6064  138.7208  153.6466 H   0  0  0  0  0  0  0  0  0  0  0  0
  149.5182  139.7708  153.0379 H   0  0  0  0  0  0  0  0  0  0  0  0
  1  2  1  0  0  0  0
  1 21  1  0  0  0  0
  1 22  1  0  0  0  0
  1 23  1  0  0  0  0
  2  3  1  0  0  0  0
  2 24  1  0  0  0  0
  2 25  1  0  0  0  0
  3  4  1  0  0  0  0
  3 16  1  0  0  0  0
  3 26  1  0  0  0  0
  4  5  1  0  0  0  0
  4 27  1  0  0  0  0
  4 28  1  0  0  0  0
  5  6  1  0  0  0  0
  5 29  1  0  0  0  0
  6  7  2  0  0  0  0
  6  8  1  0  0  0  0
  8  9  1  0  0  0  0
  8 30  1  0  0  0  0
  8 31  1  0  0  0  0
  9 14  1  0  0  0  0
  9 10  1  0  0  0  0
 10 11  2  0  0  0  0
 10 32  1  0  0  0  0
 11 12  1  0  0  0  0
 11 33  1  0  0  0  0
 12 13  2  0  0  0  0
 12 34  1  0  0  0  0
 13 14  1  0  0  0  0
 13 35  1  0  0  0  0
 14 15  2  0  0  0  0
 16 20  1  0  0  0  0
 16 17  1  0  0  0  0
 16 44  1  0  0  0  0
 17 18  1  0  0  0  0
 17 36  1  0  0  0  0
 17 37  1  0  0  0  0
 18 19  1  0  0  0  0
 18 38  1  0  0  0  0
 18 39  1  0  0  0  0
 19 20  1  0  0  0  0
 19 40  1  0  0  0  0
 19 41  1  0  0  0  0
 20 42  1  0  0  0  0
 20 43  1  0  0  0  0
M  CHG  1  16   1
M  END
> <s_m_source_file>
AV-unprocessed.smi

> <i_m_source_file_index>
1110

> <i_lp_mmshare_version>
43012

> <i_f3d_flags>
0

> <s_epik_input>
W0NIMl0xW0NIMl1bQ0gyXVtDSDJdTjFbQ0BIXShbQ0gyXVtDSDNdKVtDSDJdW05IXUMoPU8pW0NIMl1uMltjSF1bY0hdW2NIXVtjSF1jMj1P

> <s_epik_cmdline>
J2VwaWtfcHl0aG9uJywgJy1waCcsICc3LjAnLCAnLXRuJywgJzgnLCAnLW1hJywgJzIwMCcsICctbWV0YWxfYmluZGluZycsICctaW1hZScsICc8aW5maWxlLm1hZT4nLCAnLW9tYWUnLCAnPG91dGZpbGUubWFlPic=

> <r_lp_tautomer_probability>
1

> <r_epik_Ionization_Penalty>
0.00361135

> <r_epik_Ionization_Penalty_Charging>
0.00361127

> <r_epik_Ionization_Penalty_Neutral>
7.8489e-08

> <r_epik_State_Penalty>
0.00256751

> <r_epik_Charging_Adjusted_Penalty>
0.00617878

> <i_epik_Tot_Q>
1

> <i_epik_Tot_abs_Q>
1

> <r_epik_Metal_State_Penalty>
-0

> <b_epik_Metal_Only>
0

> <s_lp_Force_Field>
OPLS_2005

> <r_lp_Energy>
49.2182

> <b_lp_Chiralities_Consistent>
1

> <s_lp_Variant>
AV-unprocessed.smi:1110-2

> <Gold.Version>
5.8.1

> <Gold.Id.Protein>
6NUR|6NUR_protein|mol2

> <Gold.PLP.Fitness>
51.6625

> <Gold.PLP.PLP>
-47.6169

> <Gold.PLP.part.hbond>
-2.0000

> <Gold.PLP.part.metal>
0.0000

> <Gold.PLP.part.buried>
-3.3214

> <Gold.PLP.part.nonpolar>
-43.8246

> <Gold.PLP.part.repulsive>
2.3247

> <Gold.PLP.ligand.clash>
0.0000

> <Gold.PLP.ligand.torsion>
1.0457

> <Gold.PLP.Chemscore.Hbond>
1.9913

> <Gold.PLP.Chemscore.CHOScore>
0.0000

> <Gold.PLP.Chemscore.Metal>
0.0000

> <Gold.Chemscore.Hbonds>
donor molecule, donor type, donor heavy atom, donor atom, acceptor molecule, acceptor atom, score
      L1  H     5    29       P1  8028  0.72
      L1  H    16    44       P1  7957  1.00

> <Gold.PLP.Chemscore.Internal.Correction>
0.1632

> <Gold.Rescore>
     Score         DG    S(hbond)    S(metal)    S(lipo)     H(rot)  DE(clash)    DE(int)     intcor
     15.54     -19.95       1.95        0.00     111.57       1.99       1.69       2.72       ----

> <Gold.Chemscore.Fitness>
15.5444

> <Gold.Chemscore.DG>
-19.9503

> <Gold.Chemscore.ZeroCoef>
-5.4800

> <Gold.Chemscore.Hbond>
1.9487

> <Gold.Chemscore.Metal>
0.0000

> <Gold.Chemscore.Lipo>
111.5744

> <Gold.Chemscore.Internal_Hbond>
0.0000

> <Gold.Chemscore.DEClash>
1.6854

> <Gold.Chemscore.DEInternal>
2.7206

> <Gold.Chemscore.Rot>
1.9893

> <Gold.Chemscore.Internal.Correction>
   9.000000E+99

> <Gold.Chemscore.Hbonds>
donor molecule, donor type, donor heavy atom, donor atom, acceptor molecule, acceptor atom, score
      L1  H     5    29       P1  8028  0.72
      L1  H    16    44       P1  7957  1.00

> <Gold.Chemscore.Hbond.Weighted>
-6.5088

> <Gold.Chemscore.Metal.Weighted>
-0.0000

> <Gold.Chemscore.Lipo.Weighted>
-13.0542

> <Gold.Chemscore.Internal_Hbond.Weighted>
0.0000

> <Gold.Chemscore.DEClash.Weighted>
1.6854

> <Gold.Chemscore.DEInternal.Weighted>
2.7206

> <Gold.Chemscore.Rot.Weighted>
5.0927

> <Gold.Chemscore.Internal.Correction.Weighted>
   9.000000E+99

> <Gold.Protein.RotatedTorsions>
[ 6907 6896 6895 6894 ] final   -1.25 input  -60.11 | X-H torsion
[ 7974 7965 7964 7962 ] final   52.62 input  175.53 | X-H torsion
[ 8008 7997 7996 7995 ] final -134.82 input   59.86 | X-H torsion
[ 10167 10162 10161 10158 ] final   46.02 input  -65.29 | X-H torsion
[ 10718 10713 10712 10709 ] final   50.59 input   66.30 | X-H torsion
[ 10763 10752 10751 10750 ] final   55.40 input  -60.55 | X-H torsion
[ 11005 11000 10999 10996 ] final  -88.60 input  -57.11 | X-H torsion

> <Gold.Protein.ActiveResidues>
 VAL166  LYS551  ARG553  GLY616  TRP617  ASP618  TYR619  PRO620  LYS621  CYS622 
 ASP623  PHE694  ASN695  SER759  ASP760  ASP761  ALA762  ILE779  LEU786  VAL792 
 PHE793  MET794  SER795  GLU796  ALA797  LYS798  CYS799  TRP800  GLU811  SER814 

> <Gold.Protein.RotatedAtoms>
  151.5491  135.1067  159.9945 H   0  0  0  0  0  0  0  0  0  0  0  0  # atno 6907 bound_to 6896
  152.4500  133.7606  159.6755 H   0  0  0  0  0  0  0  0  0  0  0  0  # atno 6908 bound_to 6896
  150.8425  133.7846  159.3079 H   0  0  0  0  0  0  0  0  0  0  0  0  # atno 6909 bound_to 6896
  145.9795  139.4228  143.0141 H   0  0  0  0  0  0  0  0  0  0  0  0  # atno 7974 bound_to 7965
  155.3684  140.0487  157.3046 H   0  0  0  0  0  0  0  0  0  0  0  0  # atno 8008 bound_to 7997
  154.5142  140.2202  155.9060 H   0  0  0  0  0  0  0  0  0  0  0  0  # atno 8009 bound_to 7997
  156.1617  140.3115  155.8825 H   0  0  0  0  0  0  0  0  0  0  0  0  # atno 8010 bound_to 7997
  140.3181  144.2738  150.6187 H   0  0  0  0  0  0  0  0  0  0  0  0  # atno 10167 bound_to 10162
  157.4899  130.8369  149.8190 H   0  0  0  0  0  0  0  0  0  0  0  0  # atno 10718 bound_to 10713
  152.9816  135.5712  154.5060 H   0  0  0  0  0  0  0  0  0  0  0  0  # atno 10763 bound_to 10752
  154.4572  135.2780  155.1741 H   0  0  0  0  0  0  0  0  0  0  0  0  # atno 10764 bound_to 10752
  154.3344  135.6242  153.5620 H   0  0  0  0  0  0  0  0  0  0  0  0  # atno 10765 bound_to 10752
  141.1599  133.7579  156.9474 H   0  0  0  0  0  0  0  0  0  0  0  0  # atno 11005 bound_to 11000
  145.7790  140.9864  143.1109 LP  0  0  0  0  0  0  0  0  0  0  0  0  # atno 17320 bound_to 7965
  144.6857  139.9541  143.7478 LP  0  0  0  0  0  0  0  0  0  0  0  0  # atno 17321 bound_to 7965
  140.5508  143.2207  151.7931 LP  0  0  0  0  0  0  0  0  0  0  0  0  # atno 17342 bound_to 10162
  139.4879  144.4479  151.9688 LP  0  0  0  0  0  0  0  0  0  0  0  0  # atno 17343 bound_to 10162
  156.0167  130.3811  150.2087 LP  0  0  0  0  0  0  0  0  0  0  0  0  # atno 17370 bound_to 10713
  157.0276  130.9998  151.3322 LP  0  0  0  0  0  0  0  0  0  0  0  0  # atno 17371 bound_to 10713
  140.1280  134.9374  157.2297 LP  0  0  0  0  0  0  0  0  0  0  0  0  # atno 17394 bound_to 11000
  140.2988  134.3155  155.7295 LP  0  0  0  0  0  0  0  0  0  0  0  0  # atno 17395 bound_to 11000

$$$$
