AV-unprocessed.smi:3136|AV-procd|sdf|11949|dock10
  -GOLD-   2272017343D 1   1.00000     0.00000
 Structure written by MMmdl.
 40 40  0  0  0  0  0  0  0  0  2 V2000
  145.3599  132.4392  149.7369 C   0  0  0  0  0  0  0  0  0  0  0  0
  144.7378  133.5267  150.6236 C   0  0  0  0  0  0  0  0  0  0  0  0
  145.3731  134.8224  150.4108 N   0  0  0  0  0  0  0  0  0  0  0  0
  145.3291  135.8545  151.2670 C   0  0  0  0  0  0  0  0  0  0  0  0
  144.7363  135.8112  152.3457 O   0  0  0  0  0  0  0  0  0  0  0  0
  146.0692  137.1216  150.8254 C   0  0  0  0  0  0  0  0  0  0  0  0
  146.1993  138.1761  151.9381 C   0  0  0  0  0  0  0  0  0  0  0  0
  147.2646  137.8076  152.8929 N   0  3  0  0  0  0  0  0  0  0  0  0
  147.8551  138.9383  153.6468 C   0  0  1  0  0  0  0  0  0  0  0  0
  146.8683  139.3859  154.7381 C   0  0  0  0  0  0  0  0  0  0  0  0
  149.2544  138.5880  154.2246 C   0  0  2  0  0  0  0  0  0  0  0  0
  149.2674  137.3198  155.0982 C   0  0  0  0  0  0  0  0  0  0  0  0
  149.8933  139.7122  154.9020 N   0  0  0  0  0  0  0  0  0  0  0  0
  151.1453  139.7556  155.4814 C   0  0  0  0  0  0  0  0  0  0  0  0
  151.3221  141.0130  155.9827 C   0  0  0  0  0  0  0  0  0  0  0  0
  150.1099  141.6808  155.6558 C   0  0  0  0  0  0  0  0  0  0  0  0
  149.2593  140.9029  155.0061 N   0  0  0  0  0  0  0  0  0  0  0  0
  144.9125  131.4670  149.9454 H   0  0  0  0  0  0  0  0  0  0  0  0
  146.4334  132.3549  149.9099 H   0  0  0  0  0  0  0  0  0  0  0  0
  145.2060  132.6523  148.6786 H   0  0  0  0  0  0  0  0  0  0  0  0
  143.6635  133.5960  150.4440 H   0  0  0  0  0  0  0  0  0  0  0  0
  144.8595  133.2581  151.6732 H   0  0  0  0  0  0  0  0  0  0  0  0
  145.8827  134.9417  149.5470 H   0  0  0  0  0  0  0  0  0  0  0  0
  147.0607  136.8362  150.4704 H   0  0  0  0  0  0  0  0  0  0  0  0
  145.5397  137.5490  149.9726 H   0  0  0  0  0  0  0  0  0  0  0  0
  146.4197  139.1524  151.5058 H   0  0  0  0  0  0  0  0  0  0  0  0
  145.2578  138.2682  152.4819 H   0  0  0  0  0  0  0  0  0  0  0  0
  146.8669  137.1622  153.5603 H   0  0  0  0  0  0  0  0  0  0  0  0
  147.9746  139.7845  152.9682 H   0  0  0  0  0  0  0  0  0  0  0  0
  147.2693  140.2234  155.3096 H   0  0  0  0  0  0  0  0  0  0  0  0
  146.6446  138.5813  155.4394 H   0  0  0  0  0  0  0  0  0  0  0  0
  145.9241  139.7113  154.3001 H   0  0  0  0  0  0  0  0  0  0  0  0
  149.8873  138.3583  153.3659 H   0  0  0  0  0  0  0  0  0  0  0  0
  148.8462  136.4695  154.5614 H   0  0  0  0  0  0  0  0  0  0  0  0
  148.6963  137.4497  156.0176 H   0  0  0  0  0  0  0  0  0  0  0  0
  150.2862  137.0547  155.3824 H   0  0  0  0  0  0  0  0  0  0  0  0
  151.8007  138.8969  155.4889 H   0  0  0  0  0  0  0  0  0  0  0  0
  152.1863  141.3976  156.5041 H   0  0  0  0  0  0  0  0  0  0  0  0
  149.8260  142.7010  155.8685 H   0  0  0  0  0  0  0  0  0  0  0  0
  148.0089  137.3348  152.3986 H   0  0  0  0  0  0  0  0  0  0  0  0
  1  2  1  0  0  0  0
  1 18  1  0  0  0  0
  1 19  1  0  0  0  0
  1 20  1  0  0  0  0
  2  3  1  0  0  0  0
  2 21  1  0  0  0  0
  2 22  1  0  0  0  0
  3  4  1  0  0  0  0
  3 23  1  0  0  0  0
  4  5  2  0  0  0  0
  4  6  1  0  0  0  0
  6  7  1  0  0  0  0
  6 24  1  0  0  0  0
  6 25  1  0  0  0  0
  7  8  1  0  0  0  0
  7 26  1  0  0  0  0
  7 27  1  0  0  0  0
  8  9  1  0  0  0  0
  8 28  1  0  0  0  0
  8 40  1  0  0  0  0
  9 10  1  0  0  0  0
  9 11  1  0  0  0  0
  9 29  1  0  0  0  0
 10 30  1  0  0  0  0
 10 31  1  0  0  0  0
 10 32  1  0  0  0  0
 11 12  1  0  0  0  0
 11 13  1  0  0  0  0
 11 33  1  0  0  0  0
 12 34  1  0  0  0  0
 12 35  1  0  0  0  0
 12 36  1  0  0  0  0
 13 17  1  0  0  0  0
 13 14  1  0  0  0  0
 14 15  2  0  0  0  0
 14 37  1  0  0  0  0
 15 16  1  0  0  0  0
 15 38  1  0  0  0  0
 16 17  2  0  0  0  0
 16 39  1  0  0  0  0
M  CHG  1   8   1
M  END
> <s_m_source_file>
AV-unprocessed.smi

> <i_m_source_file_index>
3136

> <i_lp_mmshare_version>
43012

> <i_f3d_flags>
0

> <s_epik_input>
W0NIM11bQ0gyXVtOSF1DKD1PKVtDSDJdW0NIMl1bTkhdW0NASF0oW0NIM10pW0NASF0oW0NIM10pbjFbY0hdW2NIXVtjSF1uMQ==

> <s_epik_cmdline>
J2VwaWtfcHl0aG9uJywgJy1waCcsICc3LjAnLCAnLXRuJywgJzgnLCAnLW1hJywgJzIwMCcsICctbWV0YWxfYmluZGluZycsICctaW1hZScsICc8aW5maWxlLm1hZT4nLCAnLW9tYWUnLCAnPG91dGZpbGUubWFlPic=

> <r_lp_tautomer_probability>
1

> <r_epik_Ionization_Penalty>
0.00463447

> <r_epik_Ionization_Penalty_Charging>
0.00462393

> <r_epik_Ionization_Penalty_Neutral>
1.05394e-05

> <r_epik_State_Penalty>
-0

> <r_epik_Charging_Adjusted_Penalty>
0.00462393

> <i_epik_Tot_Q>
1

> <i_epik_Tot_abs_Q>
1

> <r_epik_Metal_State_Penalty>
-0

> <b_epik_Metal_Only>
0

> <s_lp_Force_Field>
OPLS_2005

> <r_lp_Energy>
10.5289

> <b_lp_Chiralities_Consistent>
1

> <s_lp_Variant>
AV-unprocessed.smi:3136-2

> <Gold.Version>
5.8.1

> <Gold.Id.Protein>
6NUR|6NUR_protein|mol2

> <Gold.PLP.Fitness>
40.5834

> <Gold.PLP.PLP>
-29.7371

> <Gold.PLP.part.hbond>
-1.9247

> <Gold.PLP.part.metal>
0.0000

> <Gold.PLP.part.buried>
1.2930

> <Gold.PLP.part.nonpolar>
-29.0915

> <Gold.PLP.part.repulsive>
0.3427

> <Gold.PLP.ligand.clash>
0.0000

> <Gold.PLP.ligand.torsion>
0.6896

> <Gold.PLP.Chemscore.Hbond>
3.0000

> <Gold.PLP.Chemscore.CHOScore>
1.0000

> <Gold.PLP.Chemscore.Metal>
0.0000

> <Gold.Chemscore.Hbonds>
donor molecule, donor type, donor heavy atom, donor atom, acceptor molecule, acceptor atom, score
      L1  H     3    23       P1  7921  1.00
      L1  H     8    40       P1  7948  2.00
      L1  C    16    39       P1  8028  1.00

> <Gold.PLP.Chemscore.Internal.Correction>
0.2254

> <Gold.Rescore>
     Score         DG    S(hbond)    S(metal)    S(lipo)     H(rot)  DE(clash)    DE(int)     intcor
     11.56     -14.77       1.92        0.00      75.34       2.32       1.28       1.94       ----

> <Gold.Chemscore.Fitness>
11.5610

> <Gold.Chemscore.DG>
-14.7732

> <Gold.Chemscore.ZeroCoef>
-5.4800

> <Gold.Chemscore.Hbond>
1.9183

> <Gold.Chemscore.Metal>
0.0000

> <Gold.Chemscore.Lipo>
75.3378

> <Gold.Chemscore.Internal_Hbond>
0.0000

> <Gold.Chemscore.DEClash>
1.2765

> <Gold.Chemscore.DEInternal>
1.9357

> <Gold.Chemscore.Rot>
2.3159

> <Gold.Chemscore.Internal.Correction>
   9.000000E+99

> <Gold.Chemscore.Hbonds>
donor molecule, donor type, donor heavy atom, donor atom, acceptor molecule, acceptor atom, score
      L1  H     3    23       P1  7921  0.86
      L1  H     8    40       P1  7948  0.93

> <Gold.Chemscore.Hbond.Weighted>
-6.4073

> <Gold.Chemscore.Metal.Weighted>
-0.0000

> <Gold.Chemscore.Lipo.Weighted>
-8.8145

> <Gold.Chemscore.Internal_Hbond.Weighted>
0.0000

> <Gold.Chemscore.DEClash.Weighted>
1.2765

> <Gold.Chemscore.DEInternal.Weighted>
1.9357

> <Gold.Chemscore.Rot.Weighted>
5.9286

> <Gold.Chemscore.Internal.Correction.Weighted>
   9.000000E+99

> <Gold.Protein.RotatedTorsions>
[ 6907 6896 6895 6894 ] final   12.25 input  -60.11 | X-H torsion
[ 7974 7965 7964 7962 ] final -130.56 input  175.53 | X-H torsion
[ 8008 7997 7996 7995 ] final -172.62 input   59.86 | X-H torsion
[ 10167 10162 10161 10158 ] final -153.01 input  -65.29 | X-H torsion
[ 10718 10713 10712 10709 ] final  116.34 input   66.30 | X-H torsion
[ 10763 10752 10751 10750 ] final  -55.86 input  -60.55 | X-H torsion
[ 11005 11000 10999 10996 ] final   31.37 input  -57.11 | X-H torsion

> <Gold.Protein.ActiveResidues>
 VAL166  LYS551  ARG553  GLY616  TRP617  ASP618  TYR619  PRO620  LYS621  CYS622 
 ASP623  PHE694  ASN695  SER759  ASP760  ASP761  ALA762  ILE779  LEU786  VAL792 
 PHE793  MET794  SER795  GLU796  ALA797  LYS798  CYS799  TRP800  GLU811  SER814 

> <Gold.Protein.RotatedAtoms>
  151.7673  135.0795  160.0354 H   0  0  0  0  0  0  0  0  0  0  0  0  # atno 6907 bound_to 6896
  152.3313  133.5957  159.5820 H   0  0  0  0  0  0  0  0  0  0  0  0  # atno 6908 bound_to 6896
  150.7424  133.9780  159.3609 H   0  0  0  0  0  0  0  0  0  0  0  0  # atno 6909 bound_to 6896
  144.9463  140.7295  143.4815 H   0  0  0  0  0  0  0  0  0  0  0  0  # atno 7974 bound_to 7965
  155.9469  140.1119  157.1009 H   0  0  0  0  0  0  0  0  0  0  0  0  # atno 8008 bound_to 7997
  154.4101  140.1208  156.5067 H   0  0  0  0  0  0  0  0  0  0  0  0  # atno 8009 bound_to 7997
  155.6891  140.3472  155.4888 H   0  0  0  0  0  0  0  0  0  0  0  0  # atno 8010 bound_to 7997
  139.7132  143.9074  152.2476 H   0  0  0  0  0  0  0  0  0  0  0  0  # atno 10167 bound_to 10162
  157.6166  131.1024  150.7459 H   0  0  0  0  0  0  0  0  0  0  0  0  # atno 10718 bound_to 10713
  154.1975  135.6416  153.5077 H   0  0  0  0  0  0  0  0  0  0  0  0  # atno 10763 bound_to 10752
  153.0020  135.5443  154.6350 H   0  0  0  0  0  0  0  0  0  0  0  0  # atno 10764 bound_to 10752
  154.5755  135.2920  155.0758 H   0  0  0  0  0  0  0  0  0  0  0  0  # atno 10765 bound_to 10752
  140.2846  134.2933  155.7791 H   0  0  0  0  0  0  0  0  0  0  0  0  # atno 11005 bound_to 11000
  145.2913  139.1883  143.4739 LP  0  0  0  0  0  0  0  0  0  0  0  0  # atno 17320 bound_to 7965
  146.3305  140.2890  142.8614 LP  0  0  0  0  0  0  0  0  0  0  0  0  # atno 17321 bound_to 7965
  139.8949  144.6944  150.8729 LP  0  0  0  0  0  0  0  0  0  0  0  0  # atno 17342 bound_to 10162
  140.7738  143.3557  151.1925 LP  0  0  0  0  0  0  0  0  0  0  0  0  # atno 17343 bound_to 10162
  156.7825  130.4864  149.5398 LP  0  0  0  0  0  0  0  0  0  0  0  0  # atno 17370 bound_to 10713
  156.1291  130.6165  151.0307 LP  0  0  0  0  0  0  0  0  0  0  0  0  # atno 17371 bound_to 10713
  141.2157  133.7547  156.9533 LP  0  0  0  0  0  0  0  0  0  0  0  0  # atno 17394 bound_to 11000
  140.1251  134.9392  157.2259 LP  0  0  0  0  0  0  0  0  0  0  0  0  # atno 17395 bound_to 11000

$$$$
