#       Name:                AV-unprocessed.smi:2509
#       Creating user name   scv26
#       Creation time:       Fri Mar 27 13:50:02 2020


#       File generated by GOLD software.
#

@<TRIPOS>MOLECULE
AV-unprocessed.smi:2509
    51    52     1
SMALL
NO_CHARGES


@<TRIPOS>ATOM
      1 ****        -5.8122   2.1684   0.2097 C.3            1 S1                 0.0000
      2 ****        -4.5223   2.8238   0.7578 C.3            1 S1                 0.0000
      3 ****        -4.2705   4.0710  -0.1219 C.3            1 S1                 0.0000
      4 ****        -4.7455   3.2580   2.2179 C.3            1 S1                 0.0000
      5 ****        -3.3334   1.8497   0.6888 C.ar           1 S1                 0.0000
      6 ****        -3.5928   0.5547   0.9105 N.ar           1 S1                 0.0000
      7 ****        -2.5437  -0.2909   0.9783 C.ar           1 S1                 0.0000
      8 ****        -1.2126   0.1558   0.8598 C.ar           1 S1                 0.0000
      9 ****        -0.1657  -0.8029   0.9353 N.am           1 S1                 0.0000
     10 ****         1.1639  -0.6135   0.8935 C.2            1 S1                 0.0000
     11 ****         1.7313   0.4755   0.8191 O.2            1 S1                 0.0000
     12 ****         1.8167  -1.7829   0.9402 N.am           1 S1                 0.0000
     13 ****         3.2652  -1.9389   0.8642 C.3            1 S1                 0.0000
     14 ****         3.8035  -1.7864  -0.5751 C.3            1 S1                 0.0000
     15 ****         5.3335  -1.9220  -0.6521 C.3            1 S1                 0.0000
     16 ****         5.6566  -2.5641  -2.0106 C.3            1 S1                 0.0000
     17 ****         4.3136  -2.7867  -2.7102 C.3            1 S1                 0.0000
     18 ****         3.2880  -2.8299  -1.5781 C.3            1 S1                 0.0000
     19 ****         1.9937  -2.5361  -2.0639 O.3            1 S1                 0.0000
     20 ****        -1.0490   1.5492   0.6686 C.ar           1 S1                 0.0000
     21 ****        -2.1083   2.3839   0.6024 N.ar           1 S1                 0.0000
     22 ****        -6.6466   2.8707   0.2132 H              1 S1                 0.0000
     23 ****        -6.1222   1.3109   0.8080 H              1 S1                 0.0000
     24 ****        -5.6780   1.8248  -0.8168 H              1 S1                 0.0000
     25 ****        -4.0809   3.7931  -1.1594 H              1 S1                 0.0000
     26 ****        -3.4159   4.6521   0.2266 H              1 S1                 0.0000
     27 ****        -5.1301   4.7419  -0.1144 H              1 S1                 0.0000
     28 ****        -5.5878   3.9451   2.3051 H              1 S1                 0.0000
     29 ****        -3.8662   3.7630   2.6195 H              1 S1                 0.0000
     30 ****        -4.9530   2.4002   2.8583 H              1 S1                 0.0000
     31 ****        -2.7721  -1.3351   1.1348 H              1 S1                 0.0000
     32 ****        -0.4690  -1.7623   1.0181 H              1 S1                 0.0000
     33 ****         1.2712  -2.6302   1.0001 H              1 S1                 0.0000
     34 ****         3.7459  -1.2156   1.5251 H              1 S1                 0.0000
     35 ****         3.5172  -2.9253   1.2544 H              1 S1                 0.0000
     36 ****         3.5485  -0.7938  -0.9512 H              1 S1                 0.0000
     37 ****         5.8198  -0.9527  -0.5370 H              1 S1                 0.0000
     38 ****         5.7065  -2.5646   0.1467 H              1 S1                 0.0000
     39 ****         6.3189  -1.9394  -2.6109 H              1 S1                 0.0000
     40 ****         6.1603  -3.5189  -1.8557 H              1 S1                 0.0000
     41 ****         4.1098  -1.9394  -3.3670 H              1 S1                 0.0000
     42 ****         4.3030  -3.6890  -3.3223 H              1 S1                 0.0000
     43 ****         3.2875  -3.8209  -1.1218 H              1 S1                 0.0000
     44 ****         2.0085  -1.6762  -2.4558 H              1 S1                 0.0000
     45 ****        -0.0866   2.0239   0.5668 H              1 S1                 0.0000
     46 ****        -4.5307   0.2262   1.0219 LP             1 S1                 0.0000
     47 ****         1.1938   1.3181   0.7845 LP             1 S1                 0.0000
     48 ****         2.7301   0.5182   0.7933 LP             1 S1                 0.0000
     49 ****         1.3385  -2.5513  -1.3086 LP             1 S1                 0.0000
     50 ****         1.7285  -3.2145  -2.7490 LP             1 S1                 0.0000
     51 ****        -1.9820   3.3698   0.4924 LP             1 S1                 0.0000
@<TRIPOS>BOND
    1    1    2 1     
    2    1   22 1     
    3    1   23 1     
    4    1   24 1     
    5    2    3 1     
    6    2    4 1     
    7    2    5 1     
    8    3   25 1     
    9    3   26 1     
   10    3   27 1     
   11    4   28 1     
   12    4   29 1     
   13    4   30 1     
   14    5   21 ar    
   15    5    6 ar    
   16    6    7 ar    
   17    7    8 ar    
   18    7   31 1     
   19    8    9 1     
   20    8   20 ar    
   21    9   10 am    
   22    9   32 1     
   23   10   11 2     
   24   10   12 am    
   25   12   13 1     
   26   12   33 1     
   27   13   14 1     
   28   13   34 1     
   29   13   35 1     
   30   14   18 1     
   31   14   15 1     
   32   14   36 1     
   33   15   16 1     
   34   15   37 1     
   35   15   38 1     
   36   16   17 1     
   37   16   39 1     
   38   16   40 1     
   39   17   18 1     
   40   17   41 1     
   41   17   42 1     
   42   18   19 1     
   43   18   43 1     
   44   19   44 1     
   45   20   21 ar    
   46   20   45 1     
   47    6   46 1     
   48   11   47 1     
   49   11   48 1     
   50   19   49 1     
   51   19   50 1     
   52   21   51 1     
@<TRIPOS>SUBSTRUCTURE
      1 S1             1
@<TRIPOS>SET
LONE_PAIRS      STATIC     ATOMS    <user>   **** ""
6 46 47 48 49 50 51
DONOR_HYDROGENS      STATIC     ATOMS    <user>   **** ""
3 32 33 44
ATOM$BLUE        STATIC     ATOMS    COLORGROUP SYSTEM
6 46 47 48 49 50 51
ATOM$RED        STATIC     ATOMS    COLORGROUP SYSTEM
3 32 33 44
