AV-unprocessed.smi:589|AV-procd|sdf|3007|dock7
  -GOLD-   2262023513D 1   1.00000     0.00000
 Structure written by MMmdl.
 40 41  0  0  0  0  0  0  0  0  1 V2000
  151.9781  145.1930  158.7311 C   0  0  0  0  0  0  0  0  0  0  0  0
  152.1630  143.6969  158.8735 C   0  0  0  0  0  0  0  0  0  0  0  0
  152.8536  143.1523  159.9710 C   0  0  0  0  0  0  0  0  0  0  0  0
  152.9986  141.7528  160.0581 C   0  0  0  0  0  0  0  0  0  0  0  0
  153.7101  141.1760  161.2738 C   0  0  0  0  0  0  0  0  0  0  0  0
  152.4553  140.9408  159.0219 C   0  0  0  0  0  0  0  0  0  0  0  0
  152.5735  139.4369  159.0541 C   0  0  0  0  0  0  0  0  0  0  0  0
  153.8038  138.9502  159.2406 N   0  0  0  0  0  0  0  0  0  0  0  0
  151.5950  138.7121  158.8829 O   0  0  0  0  0  0  0  0  0  0  0  0
  151.7598  141.5953  157.9638 C   0  0  0  0  0  0  0  0  0  0  0  0
  151.1960  140.8627  156.9051 N   0  0  0  0  0  0  0  0  0  0  0  0
  150.2883  141.6164  156.0529 C   0  0  0  0  0  0  0  0  0  0  0  0
  149.5562  140.6554  155.0998 C   0  0  1  0  0  0  0  0  0  0  0  0
  148.6624  141.4038  154.1059 C   0  0  0  0  0  0  0  0  0  0  0  0
  150.5159  139.9014  154.3570 O   0  0  0  0  0  0  0  0  0  0  0  0
  151.4392  139.1506  155.1522 C   0  0  2  0  0  0  0  0  0  0  0  0
  150.7710  137.9380  155.8246 C   0  0  0  0  0  0  0  0  0  0  0  0
  152.1619  140.0803  156.1474 C   0  0  0  0  0  0  0  0  0  0  0  0
  151.6269  142.9412  157.8963 N   0  0  0  0  0  0  0  0  0  0  0  0
  152.3899  145.7268  159.5880 H   0  0  0  0  0  0  0  0  0  0  0  0
  150.9185  145.4388  158.6550 H   0  0  0  0  0  0  0  0  0  0  0  0
  152.4803  145.5523  157.8326 H   0  0  0  0  0  0  0  0  0  0  0  0
  153.2572  143.7977  160.7375 H   0  0  0  0  0  0  0  0  0  0  0  0
  153.1473  140.3447  161.6992 H   0  0  0  0  0  0  0  0  0  0  0  0
  153.8226  141.9268  162.0567 H   0  0  0  0  0  0  0  0  0  0  0  0
  154.7060  140.8243  161.0039 H   0  0  0  0  0  0  0  0  0  0  0  0
  153.9512  137.9521  159.2754 H   0  0  0  0  0  0  0  0  0  0  0  0
  154.5814  139.5849  159.3492 H   0  0  0  0  0  0  0  0  0  0  0  0
  149.5694  142.1575  156.6693 H   0  0  0  0  0  0  0  0  0  0  0  0
  150.8495  142.3571  155.4813 H   0  0  0  0  0  0  0  0  0  0  0  0
  148.9255  139.9789  155.6773 H   0  0  0  0  0  0  0  0  0  0  0  0
  147.9013  141.9864  154.6254 H   0  0  0  0  0  0  0  0  0  0  0  0
  148.1511  140.7071  153.4412 H   0  0  0  0  0  0  0  0  0  0  0  0
  149.2449  142.0878  153.4881 H   0  0  0  0  0  0  0  0  0  0  0  0
  152.1861  138.7572  154.4623 H   0  0  0  0  0  0  0  0  0  0  0  0
  151.5149  137.3146  156.3209 H   0  0  0  0  0  0  0  0  0  0  0  0
  150.2588  137.3184  155.0885 H   0  0  0  0  0  0  0  0  0  0  0  0
  150.0430  138.2325  156.5802 H   0  0  0  0  0  0  0  0  0  0  0  0
  152.8197  140.7592  155.6026 H   0  0  0  0  0  0  0  0  0  0  0  0
  152.7910  139.5002  156.8237 H   0  0  0  0  0  0  0  0  0  0  0  0
  1  2  1  0  0  0  0
  1 20  1  0  0  0  0
  1 21  1  0  0  0  0
  1 22  1  0  0  0  0
  2 19  1  0  0  0  0
  2  3  2  0  0  0  0
  3  4  1  0  0  0  0
  3 23  1  0  0  0  0
  4  5  1  0  0  0  0
  4  6  2  0  0  0  0
  5 24  1  0  0  0  0
  5 25  1  0  0  0  0
  5 26  1  0  0  0  0
  6  7  1  0  0  0  0
  6 10  1  0  0  0  0
  7  8  1  0  0  0  0
  7  9  2  0  0  0  0
  8 27  1  0  0  0  0
  8 28  1  0  0  0  0
 10 11  1  0  0  0  0
 10 19  2  0  0  0  0
 11 18  1  0  0  0  0
 11 12  1  0  0  0  0
 12 13  1  0  0  0  0
 12 29  1  0  0  0  0
 12 30  1  0  0  0  0
 13 14  1  0  0  0  0
 13 15  1  0  0  0  0
 13 31  1  0  0  0  0
 14 32  1  0  0  0  0
 14 33  1  0  0  0  0
 14 34  1  0  0  0  0
 15 16  1  0  0  0  0
 16 17  1  0  0  0  0
 16 18  1  0  0  0  0
 16 35  1  0  0  0  0
 17 36  1  0  0  0  0
 17 37  1  0  0  0  0
 17 38  1  0  0  0  0
 18 39  1  0  0  0  0
 18 40  1  0  0  0  0
M  END
> <s_m_source_file>
AV-unprocessed.smi

> <i_m_source_file_index>
589

> <i_lp_mmshare_version>
43012

> <i_f3d_flags>
0

> <s_epik_input>
W0NIM11jMVtjSF1jKFtDSDNdKWMoQyg9TylbTkgyXSljKG4xKU4yW0NIMl1bQ0BASF0oW0NIM10pT1tDQEBIXShbQ0gzXSlbQ0gyXTI=

> <s_epik_cmdline>
J2VwaWtfcHl0aG9uJywgJy1waCcsICc3LjAnLCAnLXRuJywgJzgnLCAnLW1hJywgJzIwMCcsICctbWV0YWxfYmluZGluZycsICctaW1hZScsICc8aW5maWxlLm1hZT4nLCAnLW9tYWUnLCAnPG91dGZpbGUubWFlPic=

> <r_lp_tautomer_probability>
1

> <r_epik_Ionization_Penalty>
0.000626871

> <r_epik_Ionization_Penalty_Charging>
0

> <r_epik_Ionization_Penalty_Neutral>
0.000626871

> <r_epik_State_Penalty>
0.000395665

> <r_epik_Charging_Adjusted_Penalty>
0.000395665

> <i_epik_Tot_Q>
0

> <i_epik_Tot_abs_Q>
0

> <r_epik_Metal_State_Penalty>
-0

> <b_epik_Metal_Only>
0

> <s_lp_Force_Field>
OPLS_2005

> <r_lp_Energy>
27.549

> <b_lp_Chiralities_Consistent>
1

> <s_lp_Variant>
AV-unprocessed.smi:589-3

> <Gold.Version>
5.8.1

> <Gold.Id.Protein>
6NUR|6NUR_protein|mol2

> <Gold.PLP.Fitness>
42.4066

> <Gold.PLP.PLP>
-41.1207

> <Gold.PLP.part.hbond>
-1.0000

> <Gold.PLP.part.metal>
0.0000

> <Gold.PLP.part.buried>
-4.2995

> <Gold.PLP.part.nonpolar>
-35.8767

> <Gold.PLP.part.repulsive>
0.2746

> <Gold.PLP.ligand.clash>
0.0000

> <Gold.PLP.ligand.torsion>
1.0300

> <Gold.PLP.Chemscore.Hbond>
1.0000

> <Gold.PLP.Chemscore.CHOScore>
0.0000

> <Gold.PLP.Chemscore.Metal>
0.0000

> <Gold.Chemscore.Hbonds>
donor molecule, donor type, donor heavy atom, donor atom, acceptor molecule, acceptor atom, score
      P1  H  7989  7998       L1    15  0.95

> <Gold.PLP.Chemscore.Internal.Correction>
0.3458

> <Gold.Rescore>
     Score         DG    S(hbond)    S(metal)    S(lipo)     H(rot)  DE(clash)    DE(int)     intcor
     14.65     -17.31       0.82        0.00      99.67       1.00       0.21       2.45       ----

> <Gold.Chemscore.Fitness>
14.6494

> <Gold.Chemscore.DG>
-17.3114

> <Gold.Chemscore.ZeroCoef>
-5.4800

> <Gold.Chemscore.Hbond>
0.8173

> <Gold.Chemscore.Metal>
0.0000

> <Gold.Chemscore.Lipo>
99.6724

> <Gold.Chemscore.Internal_Hbond>
0.0000

> <Gold.Chemscore.DEClash>
0.2098

> <Gold.Chemscore.DEInternal>
2.4521

> <Gold.Chemscore.Rot>
1.0000

> <Gold.Chemscore.Internal.Correction>
   9.000000E+99

> <Gold.Chemscore.Hbonds>
donor molecule, donor type, donor heavy atom, donor atom, acceptor molecule, acceptor atom, score
      P1  H  7989  7998       L1    15  0.19

> <Gold.Chemscore.Hbond.Weighted>
-2.7297

> <Gold.Chemscore.Metal.Weighted>
-0.0000

> <Gold.Chemscore.Lipo.Weighted>
-11.6617

> <Gold.Chemscore.Internal_Hbond.Weighted>
0.0000

> <Gold.Chemscore.DEClash.Weighted>
0.2098

> <Gold.Chemscore.DEInternal.Weighted>
2.4521

> <Gold.Chemscore.Rot.Weighted>
2.5600

> <Gold.Chemscore.Internal.Correction.Weighted>
   9.000000E+99

> <Gold.Protein.RotatedTorsions>
[ 6907 6896 6895 6894 ] final   84.88 input  -60.11 | X-H torsion
[ 7974 7965 7964 7962 ] final  102.60 input  175.53 | X-H torsion
[ 8008 7997 7996 7995 ] final   34.23 input   59.86 | X-H torsion
[ 10167 10162 10161 10158 ] final  -48.05 input  -65.29 | X-H torsion
[ 10718 10713 10712 10709 ] final   72.73 input   66.30 | X-H torsion
[ 10763 10752 10751 10750 ] final  153.38 input  -60.55 | X-H torsion
[ 11005 11000 10999 10996 ] final   49.06 input  -57.11 | X-H torsion

> <Gold.Protein.ActiveResidues>
 VAL166  LYS551  ARG553  GLY616  TRP617  ASP618  TYR619  PRO620  LYS621  CYS622 
 ASP623  PHE694  ASN695  SER759  ASP760  ASP761  ALA762  ILE779  LEU786  VAL792 
 PHE793  MET794  SER795  GLU796  ALA797  LYS798  CYS799  TRP800  GLU811  SER814 

> <Gold.Protein.RotatedAtoms>
  152.5362  134.2673  159.8957 H   0  0  0  0  0  0  0  0  0  0  0  0  # atno 6907 bound_to 6896
  151.2630  133.4286  159.2625 H   0  0  0  0  0  0  0  0  0  0  0  0  # atno 6908 bound_to 6896
  151.0435  134.9638  159.8231 H   0  0  0  0  0  0  0  0  0  0  0  0  # atno 6909 bound_to 6896
  145.3570  139.2426  143.3527 H   0  0  0  0  0  0  0  0  0  0  0  0  # atno 7974 bound_to 7965
  155.1515  140.3275  155.4430 H   0  0  0  0  0  0  0  0  0  0  0  0  # atno 8008 bound_to 7997
  156.2573  140.1976  156.6576 H   0  0  0  0  0  0  0  0  0  0  0  0  # atno 8009 bound_to 7997
  154.6470  140.0563  156.9898 H   0  0  0  0  0  0  0  0  0  0  0  0  # atno 8010 bound_to 7997
  140.6748  143.2757  151.4015 H   0  0  0  0  0  0  0  0  0  0  0  0  # atno 10167 bound_to 10162
  157.6515  130.9593  150.0970 H   0  0  0  0  0  0  0  0  0  0  0  0  # atno 10718 bound_to 10713
  154.1353  135.2824  155.3175 H   0  0  0  0  0  0  0  0  0  0  0  0  # atno 10763 bound_to 10752
  154.6326  135.5430  153.7701 H   0  0  0  0  0  0  0  0  0  0  0  0  # atno 10764 bound_to 10752
  153.0268  135.6466  154.1502 H   0  0  0  0  0  0  0  0  0  0  0  0  # atno 10765 bound_to 10752
  140.1136  134.4922  155.8656 H   0  0  0  0  0  0  0  0  0  0  0  0  # atno 11005 bound_to 11000
  146.2944  140.4196  142.8727 LP  0  0  0  0  0  0  0  0  0  0  0  0  # atno 17320 bound_to 7965
  144.8675  140.7226  143.6068 LP  0  0  0  0  0  0  0  0  0  0  0  0  # atno 17321 bound_to 7965
  139.6035  144.1246  152.2223 LP  0  0  0  0  0  0  0  0  0  0  0  0  # atno 17342 bound_to 10162
  140.0638  144.5835  150.7243 LP  0  0  0  0  0  0  0  0  0  0  0  0  # atno 17343 bound_to 10162
  156.1903  130.3654  149.8919 LP  0  0  0  0  0  0  0  0  0  0  0  0  # atno 17370 bound_to 10713
  156.6849  130.8873  151.3581 LP  0  0  0  0  0  0  0  0  0  0  0  0  # atno 17371 bound_to 10713
  141.2136  133.6736  156.6753 LP  0  0  0  0  0  0  0  0  0  0  0  0  # atno 17394 bound_to 11000
  140.3058  134.8127  157.4135 LP  0  0  0  0  0  0  0  0  0  0  0  0  # atno 17395 bound_to 11000

$$$$
