AV-unprocessed.smi:25|AV-procd|sdf|182|dock7
  -GOLD-   2262015443D 1   1.00000     0.00000
 Structure written by MMmdl.
 47 50  0  0  0  0  0  0  0  0  1 V2000
  153.4788  139.0084  158.2440 C   0  0  0  0  0  0  0  0  0  0  0  0
  152.4563  139.7613  159.1197 C   0  0  1  0  0  0  0  0  0  0  0  0
  153.1633  140.7210  160.1025 C   0  0  0  0  0  0  0  0  0  0  0  0
  152.6576  142.0681  159.6901 C   0  0  0  0  0  0  0  0  0  0  0  0
  153.0487  143.2985  160.2453 C   0  0  0  0  0  0  0  0  0  0  0  0
  152.4702  144.4770  159.7345 C   0  0  0  0  0  0  0  0  0  0  0  0
  151.5225  144.4054  158.6906 C   0  0  0  0  0  0  0  0  0  0  0  0
  151.1418  143.1600  158.1444 C   0  0  0  0  0  0  0  0  0  0  0  0
  151.7251  141.9754  158.6575 C   0  0  0  0  0  0  0  0  0  0  0  0
  151.5400  140.6011  158.3123 N   0  0  0  0  0  0  0  0  0  0  0  0
  150.6075  140.0242  157.5048 C   0  0  0  0  0  0  0  0  0  0  0  0
  149.9186  140.7082  156.7437 O   0  0  0  0  0  0  0  0  0  0  0  0
  150.3930  138.4988  157.4901 C   0  0  0  0  0  0  0  0  0  0  0  0
  149.1765  138.0627  158.2154 N   0  0  0  0  0  0  0  0  0  0  0  0
  147.9155  138.5510  157.7922 C   0  0  0  0  0  0  0  0  0  0  0  0
  147.8163  139.3390  156.8506 O   0  0  0  0  0  0  0  0  0  0  0  0
  146.7668  138.0539  158.5398 C   0  0  0  0  0  0  0  0  0  0  0  0
  145.5256  138.4090  158.1666 F   0  0  0  0  0  0  0  0  0  0  0  0
  146.9278  137.2260  159.5921 C   0  0  0  0  0  0  0  0  0  0  0  0
  148.1695  136.8173  160.0462 N   0  0  0  0  0  0  0  0  0  0  0  0
  148.3159  135.8247  161.1815 C   0  0  1  0  0  0  0  0  0  0  0  0
  147.7608  136.3204  162.5285 C   0  0  0  0  0  0  0  0  0  0  0  0
  146.4739  135.5294  162.6585 C   0  0  0  0  0  0  0  0  0  0  0  0
  146.8309  134.2405  161.9286 C   0  0  0  0  0  0  0  0  0  0  0  0
  147.6139  134.6719  160.8234 O   0  0  0  0  0  0  0  0  0  0  0  0
  149.3241  137.1891  159.3208 C   0  0  0  0  0  0  0  0  0  0  0  0
  150.4374  136.7716  159.6484 O   0  0  0  0  0  0  0  0  0  0  0  0
  154.1759  138.4422  158.8620 H   0  0  0  0  0  0  0  0  0  0  0  0
  154.0619  139.7015  157.6365 H   0  0  0  0  0  0  0  0  0  0  0  0
  152.9996  138.2995  157.5691 H   0  0  0  0  0  0  0  0  0  0  0  0
  151.8764  139.0385  159.6968 H   0  0  0  0  0  0  0  0  0  0  0  0
  152.8795  140.5180  161.1357 H   0  0  0  0  0  0  0  0  0  0  0  0
  154.2508  140.6830  160.0277 H   0  0  0  0  0  0  0  0  0  0  0  0
  153.7753  143.3401  161.0433 H   0  0  0  0  0  0  0  0  0  0  0  0
  152.7526  145.4365  160.1417 H   0  0  0  0  0  0  0  0  0  0  0  0
  151.0847  145.3141  158.3043 H   0  0  0  0  0  0  0  0  0  0  0  0
  150.4182  143.1768  157.3502 H   0  0  0  0  0  0  0  0  0  0  0  0
  150.3631  138.1631  156.4535 H   0  0  0  0  0  0  0  0  0  0  0  0
  151.2632  138.0181  157.9375 H   0  0  0  0  0  0  0  0  0  0  0  0
  146.0346  136.8748  160.0833 H   0  0  0  0  0  0  0  0  0  0  0  0
  149.3835  135.6177  161.2698 H   0  0  0  0  0  0  0  0  0  0  0  0
  148.4580  136.0213  163.3124 H   0  0  0  0  0  0  0  0  0  0  0  0
  147.6451  137.4029  162.5808 H   0  0  0  0  0  0  0  0  0  0  0  0
  146.1771  135.3640  163.6942 H   0  0  0  0  0  0  0  0  0  0  0  0
  145.6554  136.0354  162.1461 H   0  0  0  0  0  0  0  0  0  0  0  0
  147.4364  133.5933  162.5651 H   0  0  0  0  0  0  0  0  0  0  0  0
  145.9536  133.6806  161.6048 H   0  0  0  0  0  0  0  0  0  0  0  0
  1  2  1  0  0  0  0
  1 28  1  0  0  0  0
  1 29  1  0  0  0  0
  1 30  1  0  0  0  0
  2 10  1  0  0  0  0
  2  3  1  0  0  0  0
  2 31  1  0  0  0  0
  3  4  1  0  0  0  0
  3 32  1  0  0  0  0
  3 33  1  0  0  0  0
  4  9  2  0  0  0  0
  4  5  1  0  0  0  0
  5  6  2  0  0  0  0
  5 34  1  0  0  0  0
  6  7  1  0  0  0  0
  6 35  1  0  0  0  0
  7  8  2  0  0  0  0
  7 36  1  0  0  0  0
  8  9  1  0  0  0  0
  8 37  1  0  0  0  0
  9 10  1  0  0  0  0
 10 11  1  0  0  0  0
 11 12  2  0  0  0  0
 11 13  1  0  0  0  0
 13 14  1  0  0  0  0
 13 38  1  0  0  0  0
 13 39  1  0  0  0  0
 14 26  1  0  0  0  0
 14 15  1  0  0  0  0
 15 16  2  0  0  0  0
 15 17  1  0  0  0  0
 17 18  1  0  0  0  0
 17 19  2  0  0  0  0
 19 20  1  0  0  0  0
 19 40  1  0  0  0  0
 20 21  1  0  0  0  0
 20 26  1  0  0  0  0
 21 25  1  0  0  0  0
 21 22  1  0  0  0  0
 21 41  1  0  0  0  0
 22 23  1  0  0  0  0
 22 42  1  0  0  0  0
 22 43  1  0  0  0  0
 23 24  1  0  0  0  0
 23 44  1  0  0  0  0
 23 45  1  0  0  0  0
 24 25  1  0  0  0  0
 24 46  1  0  0  0  0
 24 47  1  0  0  0  0
 26 27  2  0  0  0  0
M  END
> <s_m_source_file>
AV-unprocessed.smi

> <i_m_source_file_index>
25

> <i_lp_mmshare_version>
43012

> <i_f3d_flags>
0

> <s_epik_input>
W2NIXTFbY0hdW2NIXVtjSF1jKGMxMilOKFtDQEhdKFtDSDNdKVtDSDJdMilDKD1PKVtDSDJdbjNjKD1PKWMoRilbY0hdbihjMz1PKVtDQEBIXTRbQ0gyXVtDSDJdW0NIMl1PNA==

> <s_epik_cmdline>
J2VwaWtfcHl0aG9uJywgJy1waCcsICc3LjAnLCAnLXRuJywgJzgnLCAnLW1hJywgJzIwMCcsICctbWV0YWxfYmluZGluZycsICctaW1hZScsICc8aW5maWxlLm1hZT4nLCAnLW9tYWUnLCAnPG91dGZpbGUubWFlPic=

> <r_lp_tautomer_probability>
1

> <r_epik_Ionization_Penalty>
1.67943e-06

> <r_epik_Ionization_Penalty_Charging>
3.79603e-09

> <r_epik_Ionization_Penalty_Neutral>
1.67563e-06

> <r_epik_State_Penalty>
-0

> <r_epik_Charging_Adjusted_Penalty>
3.79603e-09

> <i_epik_Tot_Q>
0

> <i_epik_Tot_abs_Q>
0

> <r_epik_Metal_State_Penalty>
-0

> <b_epik_Metal_Only>
0

> <s_epik_Chemistry_Notes>
This compound contains an acetal/aminal-like group ( X-CH(R)-Y where X, Y are N, S, or O) that may be acid/base labile, releasing an aldehyde.

> <s_lp_Force_Field>
OPLS_2005

> <r_lp_Energy>
55.1146

> <b_lp_Chiralities_Consistent>
1

> <s_lp_Variant>
AV-unprocessed.smi:25-4

> <Gold.Version>
5.8.1

> <Gold.Id.Protein>
6NUR|6NUR_protein|mol2

> <Gold.PLP.Fitness>
49.8181

> <Gold.PLP.PLP>
-47.2561

> <Gold.PLP.part.hbond>
-1.0000

> <Gold.PLP.part.metal>
0.0000

> <Gold.PLP.part.buried>
-4.5858

> <Gold.PLP.part.nonpolar>
-41.7425

> <Gold.PLP.part.repulsive>
0.0328

> <Gold.PLP.ligand.clash>
0.0000

> <Gold.PLP.ligand.torsion>
0.3069

> <Gold.PLP.Chemscore.Hbond>
1.0000

> <Gold.PLP.Chemscore.CHOScore>
0.0000

> <Gold.PLP.Chemscore.Metal>
0.0000

> <Gold.Chemscore.Hbonds>
donor molecule, donor type, donor heavy atom, donor atom, acceptor molecule, acceptor atom, score
      P1  H  6896  6908       L1    27  1.00

> <Gold.PLP.Chemscore.Internal.Correction>
0.1758

> <Gold.Rescore>
     Score         DG    S(hbond)    S(metal)    S(lipo)     H(rot)  DE(clash)    DE(int)     intcor
     15.77     -18.36       0.96        0.00     116.64       1.55       0.03       2.55       ----

> <Gold.Chemscore.Fitness>
15.7703

> <Gold.Chemscore.DG>
-18.3550

> <Gold.Chemscore.ZeroCoef>
-5.4800

> <Gold.Chemscore.Hbond>
0.9561

> <Gold.Chemscore.Metal>
0.0000

> <Gold.Chemscore.Lipo>
116.6401

> <Gold.Chemscore.Internal_Hbond>
0.0000

> <Gold.Chemscore.DEClash>
0.0339

> <Gold.Chemscore.DEInternal>
2.5508

> <Gold.Chemscore.Rot>
1.5489

> <Gold.Chemscore.Internal.Correction>
   9.000000E+99

> <Gold.Chemscore.Hbonds>
donor molecule, donor type, donor heavy atom, donor atom, acceptor molecule, acceptor atom, score
      P1  H  6896  6908       L1    27  0.99

> <Gold.Chemscore.Hbond.Weighted>
-3.1933

> <Gold.Chemscore.Metal.Weighted>
-0.0000

> <Gold.Chemscore.Lipo.Weighted>
-13.6469

> <Gold.Chemscore.Internal_Hbond.Weighted>
0.0000

> <Gold.Chemscore.DEClash.Weighted>
0.0339

> <Gold.Chemscore.DEInternal.Weighted>
2.5508

> <Gold.Chemscore.Rot.Weighted>
3.9651

> <Gold.Chemscore.Internal.Correction.Weighted>
   9.000000E+99

> <Gold.Protein.RotatedTorsions>
[ 6907 6896 6895 6894 ] final -162.56 input  -60.11 | X-H torsion
[ 7974 7965 7964 7962 ] final   40.92 input  175.53 | X-H torsion
[ 8008 7997 7996 7995 ] final  -86.29 input   59.86 | X-H torsion
[ 10167 10162 10161 10158 ] final   94.88 input  -65.29 | X-H torsion
[ 10718 10713 10712 10709 ] final  128.95 input   66.30 | X-H torsion
[ 10763 10752 10751 10750 ] final  148.64 input  -60.55 | X-H torsion
[ 11005 11000 10999 10996 ] final  -48.58 input  -57.11 | X-H torsion

> <Gold.Protein.ActiveResidues>
 VAL166  LYS551  ARG553  GLY616  TRP617  ASP618  TYR619  PRO620  LYS621  CYS622 
 ASP623  PHE694  ASN695  SER759  ASP760  ASP761  ALA762  ILE779  LEU786  VAL792 
 PHE793  MET794  SER795  GLU796  ALA797  LYS798  CYS799  TRP800  GLU811  SER814 

> <Gold.Protein.RotatedAtoms>
  151.3822  133.3817  159.2711 H   0  0  0  0  0  0  0  0  0  0  0  0  # atno 6907 bound_to 6896
  150.9569  134.8963  159.7717 H   0  0  0  0  0  0  0  0  0  0  0  0  # atno 6908 bound_to 6896
  152.5134  134.3780  159.9393 H   0  0  0  0  0  0  0  0  0  0  0  0  # atno 6909 bound_to 6896
  146.0866  139.5476  142.9503 H   0  0  0  0  0  0  0  0  0  0  0  0  # atno 7974 bound_to 7965
  154.6502  140.0580  156.9946 H   0  0  0  0  0  0  0  0  0  0  0  0  # atno 8008 bound_to 7997
  155.1383  140.3263  155.4439 H   0  0  0  0  0  0  0  0  0  0  0  0  # atno 8009 bound_to 7997
  156.2572  140.1968  156.6500 H   0  0  0  0  0  0  0  0  0  0  0  0  # atno 8010 bound_to 7997
  139.8042  144.6801  150.9725 H   0  0  0  0  0  0  0  0  0  0  0  0  # atno 10167 bound_to 10162
  157.5198  131.1098  150.9170 H   0  0  0  0  0  0  0  0  0  0  0  0  # atno 10718 bound_to 10713
  154.0582  135.2876  155.3329 H   0  0  0  0  0  0  0  0  0  0  0  0  # atno 10763 bound_to 10752
  154.6826  135.5257  153.8286 H   0  0  0  0  0  0  0  0  0  0  0  0  # atno 10764 bound_to 10752
  153.0533  135.6585  154.0772 H   0  0  0  0  0  0  0  0  0  0  0  0  # atno 10765 bound_to 10752
  141.0709  133.6679  156.3461 H   0  0  0  0  0  0  0  0  0  0  0  0  # atno 11005 bound_to 11000
  145.6119  141.0338  143.1962 LP  0  0  0  0  0  0  0  0  0  0  0  0  # atno 17320 bound_to 7965
  144.7330  139.7669  143.7340 LP  0  0  0  0  0  0  0  0  0  0  0  0  # atno 17321 bound_to 7965
  140.7819  143.4251  151.0781 LP  0  0  0  0  0  0  0  0  0  0  0  0  # atno 17342 bound_to 10162
  139.7921  143.8204  152.3153 LP  0  0  0  0  0  0  0  0  0  0  0  0  # atno 17343 bound_to 10162
  156.9784  130.5517  149.5295 LP  0  0  0  0  0  0  0  0  0  0  0  0  # atno 17370 bound_to 10713
  156.0345  130.5434  150.8620 LP  0  0  0  0  0  0  0  0  0  0  0  0  # atno 17371 bound_to 10713
  140.5675  134.5873  157.5449 LP  0  0  0  0  0  0  0  0  0  0  0  0  # atno 17394 bound_to 11000
  139.9522  134.7596  156.0421 LP  0  0  0  0  0  0  0  0  0  0  0  0  # atno 17395 bound_to 11000

$$$$
