AV-unprocessed.smi:319|AV-procd|sdf|2331|dock3
  -GOLD-   2262022233D 1   1.00000     0.00000
 Structure written by MMmdl.
 38 39  0  0  0  0  0  0  0  0  1 V2000
  149.4830  134.6707  154.8799 C   0  0  0  0  0  0  0  0  0  0  0  0
  148.1664  135.8617  155.2577 S   0  0  0  0  0  0  0  0  0  0  0  0
  149.0611  137.3839  155.1971 C   0  0  0  0  0  0  0  0  0  0  0  0
  150.3734  137.4464  154.9674 N   0  0  0  0  0  0  0  0  0  0  0  0
  150.8666  138.7543  154.9662 C   0  0  0  0  0  0  0  0  0  0  0  0
  152.3273  138.9876  154.7254 C   0  0  0  0  0  0  0  0  0  0  0  0
  149.9006  139.7049  155.2055 C   0  0  0  0  0  0  0  0  0  0  0  0
  150.0614  141.1908  155.2831 C   0  0  0  0  0  0  0  0  0  0  0  0
  151.0104  141.5741  156.4182 C   0  0  0  0  0  0  0  0  0  0  0  0
  151.8510  140.7683  156.8166 O   0  0  0  0  0  0  0  0  0  0  0  0
  150.8689  142.8094  156.9227 N   0  0  0  0  0  0  0  0  0  0  0  0
  151.6873  143.3907  157.9816 C   0  0  0  0  0  0  0  0  0  0  0  0
  151.7462  142.4503  159.2033 C   0  0  0  0  0  0  0  0  0  0  0  0
  152.5353  143.0822  160.3617 C   0  0  0  0  0  0  0  0  0  0  0  0
  151.9582  144.4530  160.7484 C   0  0  0  0  0  0  0  0  0  0  0  0
  151.9053  145.3939  159.5346 C   0  0  0  0  0  0  0  0  0  0  0  0
  151.1145  144.7654  158.3758 C   0  0  0  0  0  0  0  0  0  0  0  0
  148.3337  138.9712  155.4354 S   0  0  0  0  0  0  0  0  0  0  0  0
  149.0797  133.6584  154.8982 H   0  0  0  0  0  0  0  0  0  0  0  0
  150.2826  134.7294  155.6183 H   0  0  0  0  0  0  0  0  0  0  0  0
  149.8977  134.8509  153.8880 H   0  0  0  0  0  0  0  0  0  0  0  0
  152.4868  139.7813  153.9957 H   0  0  0  0  0  0  0  0  0  0  0  0
  152.8212  138.0925  154.3458 H   0  0  0  0  0  0  0  0  0  0  0  0
  152.8349  139.2762  155.6459 H   0  0  0  0  0  0  0  0  0  0  0  0
  150.4336  141.5841  154.3363 H   0  0  0  0  0  0  0  0  0  0  0  0
  149.0943  141.6653  155.4525 H   0  0  0  0  0  0  0  0  0  0  0  0
  150.1489  143.3988  156.5310 H   0  0  0  0  0  0  0  0  0  0  0  0
  152.7005  143.5427  157.6041 H   0  0  0  0  0  0  0  0  0  0  0  0
  150.7348  142.2183  159.5402 H   0  0  0  0  0  0  0  0  0  0  0  0
  152.2046  141.5002  158.9266 H   0  0  0  0  0  0  0  0  0  0  0  0
  152.5242  142.4168  161.2254 H   0  0  0  0  0  0  0  0  0  0  0  0
  153.5809  143.1945  160.0717 H   0  0  0  0  0  0  0  0  0  0  0  0
  150.9549  144.3255  161.1567 H   0  0  0  0  0  0  0  0  0  0  0  0
  152.5598  144.9003  161.5401 H   0  0  0  0  0  0  0  0  0  0  0  0
  151.4531  146.3441  159.8202 H   0  0  0  0  0  0  0  0  0  0  0  0
  152.9195  145.6212  159.2038 H   0  0  0  0  0  0  0  0  0  0  0  0
  151.1285  145.4364  157.5161 H   0  0  0  0  0  0  0  0  0  0  0  0
  150.0688  144.6608  158.6687 H   0  0  0  0  0  0  0  0  0  0  0  0
  1  2  1  0  0  0  0
  1 19  1  0  0  0  0
  1 20  1  0  0  0  0
  1 21  1  0  0  0  0
  2  3  1  0  0  0  0
  3 18  1  0  0  0  0
  3  4  2  0  0  0  0
  4  5  1  0  0  0  0
  5  6  1  0  0  0  0
  5  7  2  0  0  0  0
  6 22  1  0  0  0  0
  6 23  1  0  0  0  0
  6 24  1  0  0  0  0
  7  8  1  0  0  0  0
  7 18  1  0  0  0  0
  8  9  1  0  0  0  0
  8 25  1  0  0  0  0
  8 26  1  0  0  0  0
  9 10  2  0  0  0  0
  9 11  1  0  0  0  0
 11 12  1  0  0  0  0
 11 27  1  0  0  0  0
 12 17  1  0  0  0  0
 12 13  1  0  0  0  0
 12 28  1  0  0  0  0
 13 14  1  0  0  0  0
 13 29  1  0  0  0  0
 13 30  1  0  0  0  0
 14 15  1  0  0  0  0
 14 31  1  0  0  0  0
 14 32  1  0  0  0  0
 15 16  1  0  0  0  0
 15 33  1  0  0  0  0
 15 34  1  0  0  0  0
 16 17  1  0  0  0  0
 16 35  1  0  0  0  0
 16 36  1  0  0  0  0
 17 37  1  0  0  0  0
 17 38  1  0  0  0  0
M  END
> <s_m_source_file>
AV-unprocessed.smi

> <i_m_source_file_index>
319

> <i_lp_mmshare_version>
43012

> <i_f3d_flags>
0

> <s_epik_input>
W0NIM11TYzFuYyhbQ0gzXSljKHMxKVtDSDJdQyg9TylbTkhdW0NIXTJbQ0gyXVtDSDJdW0NIMl1bQ0gyXVtDSDJdMg==

> <s_epik_cmdline>
J2VwaWtfcHl0aG9uJywgJy1waCcsICc3LjAnLCAnLXRuJywgJzgnLCAnLW1hJywgJzIwMCcsICctbWV0YWxfYmluZGluZycsICctaW1hZScsICc8aW5maWxlLm1hZT4nLCAnLW9tYWUnLCAnPG91dGZpbGUubWFlPic=

> <r_lp_tautomer_probability>
1

> <r_epik_Ionization_Penalty>
2.85285e-06

> <r_epik_Ionization_Penalty_Charging>
0

> <r_epik_Ionization_Penalty_Neutral>
2.85285e-06

> <r_epik_State_Penalty>
-0

> <r_epik_Charging_Adjusted_Penalty>
0

> <i_epik_Tot_Q>
0

> <i_epik_Tot_abs_Q>
0

> <r_epik_Metal_State_Penalty>
-0

> <b_epik_Metal_Only>
0

> <s_lp_Force_Field>
OPLS_2005

> <r_lp_Energy>
6.2973

> <b_lp_Chiralities_Consistent>
1

> <s_lp_Variant>
AV-unprocessed.smi:319-1

> <Gold.Version>
5.8.1

> <Gold.Id.Protein>
6NUR|6NUR_protein|mol2

> <Gold.PLP.Fitness>
41.0890

> <Gold.PLP.PLP>
-38.8750

> <Gold.PLP.part.hbond>
-1.0000

> <Gold.PLP.part.metal>
0.0000

> <Gold.PLP.part.buried>
-3.4498

> <Gold.PLP.part.nonpolar>
-33.9632

> <Gold.PLP.part.repulsive>
0.1842

> <Gold.PLP.ligand.clash>
0.0000

> <Gold.PLP.ligand.torsion>
0.3982

> <Gold.PLP.Chemscore.Hbond>
1.0000

> <Gold.PLP.Chemscore.CHOScore>
0.0000

> <Gold.PLP.Chemscore.Metal>
0.0000

> <Gold.Chemscore.Hbonds>
donor molecule, donor type, donor heavy atom, donor atom, acceptor molecule, acceptor atom, score
      L1  H    11    27       P1  8028  1.00

> <Gold.PLP.Chemscore.Internal.Correction>
0.0104

> <Gold.Rescore>
     Score         DG    S(hbond)    S(metal)    S(lipo)     H(rot)  DE(clash)    DE(int)     intcor
     15.40     -18.69       0.95        0.00     114.75       1.33       0.45       2.83       ----

> <Gold.Chemscore.Fitness>
15.4041

> <Gold.Chemscore.DG>
-18.6865

> <Gold.Chemscore.ZeroCoef>
-5.4800

> <Gold.Chemscore.Hbond>
0.9530

> <Gold.Chemscore.Metal>
0.0000

> <Gold.Chemscore.Lipo>
114.7461

> <Gold.Chemscore.Internal_Hbond>
0.0000

> <Gold.Chemscore.DEClash>
0.4506

> <Gold.Chemscore.DEInternal>
2.8318

> <Gold.Chemscore.Rot>
1.3289

> <Gold.Chemscore.Internal.Correction>
   9.000000E+99

> <Gold.Chemscore.Hbonds>
donor molecule, donor type, donor heavy atom, donor atom, acceptor molecule, acceptor atom, score
      L1  H    11    27       P1  8028  0.94

> <Gold.Chemscore.Hbond.Weighted>
-3.1832

> <Gold.Chemscore.Metal.Weighted>
-0.0000

> <Gold.Chemscore.Lipo.Weighted>
-13.4253

> <Gold.Chemscore.Internal_Hbond.Weighted>
0.0000

> <Gold.Chemscore.DEClash.Weighted>
0.4506

> <Gold.Chemscore.DEInternal.Weighted>
2.8318

> <Gold.Chemscore.Rot.Weighted>
3.4019

> <Gold.Chemscore.Internal.Correction.Weighted>
   9.000000E+99

> <Gold.Protein.RotatedTorsions>
[ 6907 6896 6895 6894 ] final  116.11 input  -60.11 | X-H torsion
[ 7974 7965 7964 7962 ] final  129.43 input  175.53 | X-H torsion
[ 8008 7997 7996 7995 ] final  -22.31 input   59.86 | X-H torsion
[ 10167 10162 10161 10158 ] final   44.12 input  -65.29 | X-H torsion
[ 10718 10713 10712 10709 ] final   38.81 input   66.30 | X-H torsion
[ 10763 10752 10751 10750 ] final    7.13 input  -60.55 | X-H torsion
[ 11005 11000 10999 10996 ] final -132.42 input  -57.11 | X-H torsion

> <Gold.Protein.ActiveResidues>
 VAL166  LYS551  ARG553  GLY616  TRP617  ASP618  TYR619  PRO620  LYS621  CYS622 
 ASP623  PHE694  ASN695  SER759  ASP760  ASP761  ALA762  ILE779  LEU786  VAL792 
 PHE793  MET794  SER795  GLU796  ALA797  LYS798  CYS799  TRP800  GLU811  SER814 

> <Gold.Protein.RotatedAtoms>
  152.4699  133.8006  159.6950 H   0  0  0  0  0  0  0  0  0  0  0  0  # atno 6907 bound_to 6896
  150.8682  133.7533  159.2976 H   0  0  0  0  0  0  0  0  0  0  0  0  # atno 6908 bound_to 6896
  151.5077  135.1067  159.9897 H   0  0  0  0  0  0  0  0  0  0  0  0  # atno 6909 bound_to 6896
  145.0288  139.4065  143.5160 H   0  0  0  0  0  0  0  0  0  0  0  0  # atno 7974 bound_to 7965
  154.4652  140.2011  156.0137 H   0  0  0  0  0  0  0  0  0  0  0  0  # atno 8008 bound_to 7997
  156.0914  140.3257  155.7791 H   0  0  0  0  0  0  0  0  0  0  0  0  # atno 8009 bound_to 7997
  155.4950  140.0549  157.2938 H   0  0  0  0  0  0  0  0  0  0  0  0  # atno 8010 bound_to 7997
  140.3375  144.2512  150.6160 H   0  0  0  0  0  0  0  0  0  0  0  0  # atno 10167 bound_to 10162
  157.3632  130.7660  149.7063 H   0  0  0  0  0  0  0  0  0  0  0  0  # atno 10718 bound_to 10713
  153.2398  135.6902  153.7796 H   0  0  0  0  0  0  0  0  0  0  0  0  # atno 10763 bound_to 10752
  153.6930  135.3310  155.3207 H   0  0  0  0  0  0  0  0  0  0  0  0  # atno 10764 bound_to 10752
  154.8350  135.4549  154.1315 H   0  0  0  0  0  0  0  0  0  0  0  0  # atno 10765 bound_to 10752
  140.9171  134.1492  157.4343 H   0  0  0  0  0  0  0  0  0  0  0  0  # atno 11005 bound_to 11000
  146.3496  139.9826  142.8694 LP  0  0  0  0  0  0  0  0  0  0  0  0  # atno 17320 bound_to 7965
  145.1798  140.9762  143.4273 LP  0  0  0  0  0  0  0  0  0  0  0  0  # atno 17321 bound_to 7965
  140.5340  143.2237  151.8193 LP  0  0  0  0  0  0  0  0  0  0  0  0  # atno 17342 bound_to 10162
  139.4846  144.4684  151.9455 LP  0  0  0  0  0  0  0  0  0  0  0  0  # atno 17343 bound_to 10162
  155.9741  130.4108  150.3948 LP  0  0  0  0  0  0  0  0  0  0  0  0  # atno 17370 bound_to 10713
  157.2029  131.0442  151.2641 LP  0  0  0  0  0  0  0  0  0  0  0  0  # atno 17371 bound_to 10713
  139.8768  134.9958  156.5760 LP  0  0  0  0  0  0  0  0  0  0  0  0  # atno 17394 bound_to 11000
  140.8035  133.8486  155.8747 LP  0  0  0  0  0  0  0  0  0  0  0  0  # atno 17395 bound_to 11000

$$$$
