#       Name:                AV-unprocessed.smi:618
#       Creating user name   scv26
#       Creation time:       Fri Mar 27 00:00:18 2020


#       File generated by GOLD software.
#

@<TRIPOS>MOLECULE
AV-unprocessed.smi:618
    46    48     1
SMALL
NO_CHARGES


@<TRIPOS>ATOM
      1 ****        -1.1331   1.9586  -1.2916 O.2            1 S1                 0.0000
      2 ****        -1.6458   0.8564  -1.4842 C.2            1 S1                 0.0000
      3 ****        -0.9338  -0.2667  -1.6509 N.am           1 S1                 0.0000
      4 ****         0.5228  -0.3458  -1.6136 C.3            1 S1                 0.0000
      5 ****         1.0645  -0.2611  -0.1753 C.3            1 S1                 0.0000
      6 ****         2.6005  -0.2886  -0.1355 C.3            1 S1                 0.0000
      7 ****         3.1070  -0.2472   1.2599 N.4            1 S1                 1.0000
      8 ****         4.5501  -0.5653   1.3426 C.3            1 S1                 0.0000
      9 ****         4.6543  -2.0489   1.7425 C.3            1 S1                 0.0000
     10 ****         3.2125  -2.5227   1.9560 C.3            1 S1                 0.0000
     11 ****         2.4362  -1.2206   2.1497 C.3            1 S1                 0.0000
     12 ****         0.9121  -1.3034   1.9287 C.3            1 S1                 0.0000
     13 ****         0.5973  -1.3932   0.5470 O.3            1 S1                 0.0000
     14 ****        -2.9649   0.6134  -1.5677 N.am           1 S1                 0.0000
     15 ****        -4.0433   1.5280  -1.4259 C.ar           1 S1                 0.0000
     16 ****        -5.2963   1.1594  -1.9574 C.ar           1 S1                 0.0000
     17 ****        -6.3868   2.0383  -1.8178 C.ar           1 S1                 0.0000
     18 ****        -6.1830   3.2553  -1.1395 C.ar           1 S1                 0.0000
     19 ****        -4.9954   3.6173  -0.6103 N.ar           1 S1                 0.0000
     20 ****        -3.9529   2.7701  -0.7496 C.ar           1 S1                 0.0000
     21 ****        -1.4331  -1.1298  -1.8094 H              1 S1                 0.0000
     22 ****         0.8277  -1.2851  -2.0758 H              1 S1                 0.0000
     23 ****         0.9457   0.4523  -2.2262 H              1 S1                 0.0000
     24 ****         0.7056   0.6571   0.2933 H              1 S1                 0.0000
     25 ****         2.9594  -1.1910  -0.6333 H              1 S1                 0.0000
     26 ****         3.0090   0.5599  -0.6858 H              1 S1                 0.0000
     27 ****         5.0805  -0.3453   0.4147 H              1 S1                 0.0000
     28 ****         4.9939   0.0557   2.1218 H              1 S1                 0.0000
     29 ****         5.1520  -2.6418   0.9744 H              1 S1                 0.0000
     30 ****         5.2327  -2.1496   2.6619 H              1 S1                 0.0000
     31 ****         2.8584  -3.0449   1.0660 H              1 S1                 0.0000
     32 ****         3.1127  -3.2021   2.8030 H              1 S1                 0.0000
     33 ****         2.6106  -0.8891   3.1748 H              1 S1                 0.0000
     34 ****         0.5014  -2.1701   2.4470 H              1 S1                 0.0000
     35 ****         0.4203  -0.4266   2.3531 H              1 S1                 0.0000
     36 ****        -3.2282  -0.3303  -1.8111 H              1 S1                 0.0000
     37 ****        -5.4228   0.2172  -2.4706 H              1 S1                 0.0000
     38 ****        -7.3566   1.7855  -2.2202 H              1 S1                 0.0000
     39 ****        -6.9969   3.9541  -1.0140 H              1 S1                 0.0000
     40 ****        -3.0391   3.1035  -0.2835 H              1 S1                 0.0000
     41 ****         2.9445   0.6853   1.6131 H              1 S1                 0.0000
     42 ****        -0.1378   2.0473  -1.2533 LP             1 S1                 0.0000
     43 ****        -1.7119   2.7655  -1.1735 LP             1 S1                 0.0000
     44 ****         1.0235  -2.2158   0.1706 LP             1 S1                 0.0000
     45 ****        -0.3955  -1.4554   0.4445 LP             1 S1                 0.0000
     46 ****        -4.8904   4.4876  -0.1290 LP             1 S1                 0.0000
@<TRIPOS>BOND
    1    1    2 2     
    2    2    3 am    
    3    2   14 am    
    4    3    4 1     
    5    3   21 1     
    6    4    5 1     
    7    4   22 1     
    8    4   23 1     
    9    5   13 1     
   10    5    6 1     
   11    5   24 1     
   12    6    7 1     
   13    6   25 1     
   14    6   26 1     
   15    7   11 1     
   16    7    8 1     
   17    7   41 1     
   18    8    9 1     
   19    8   27 1     
   20    8   28 1     
   21    9   10 1     
   22    9   29 1     
   23    9   30 1     
   24   10   11 1     
   25   10   31 1     
   26   10   32 1     
   27   11   12 1     
   28   11   33 1     
   29   12   13 1     
   30   12   34 1     
   31   12   35 1     
   32   14   15 1     
   33   14   36 1     
   34   15   20 ar    
   35   15   16 ar    
   36   16   17 ar    
   37   16   37 1     
   38   17   18 ar    
   39   17   38 1     
   40   18   19 ar    
   41   18   39 1     
   42   19   20 ar    
   43   20   40 1     
   44    1   42 1     
   45    1   43 1     
   46   13   44 1     
   47   13   45 1     
   48   19   46 1     
@<TRIPOS>SUBSTRUCTURE
      1 S1             1
@<TRIPOS>SET
LONE_PAIRS      STATIC     ATOMS    <user>   **** ""
5 42 43 44 45 46
DONOR_HYDROGENS      STATIC     ATOMS    <user>   **** ""
3 21 41 36
ATOM$BLUE        STATIC     ATOMS    COLORGROUP SYSTEM
5 42 43 44 45 46
ATOM$RED        STATIC     ATOMS    COLORGROUP SYSTEM
3 21 41 36
