AV-unprocessed.smi:539|AV-procd|sdf|2868|dock1
  -GOLD-   2262023363D 1   1.00000     0.00000
 Structure written by MMmdl.
 39 41  0  0  0  0  0  0  0  0  2 V2000
  147.7154  141.5947  153.7900 C   0  0  0  0  0  0  0  0  0  0  0  0
  149.0687  141.8439  154.1236 O   0  0  0  0  0  0  0  0  0  0  0  0
  149.4043  141.3900  155.4244 C   0  0  0  0  0  0  0  0  0  0  0  0
  150.7458  141.9990  155.8605 C   0  0  0  0  0  0  0  0  0  0  0  0
  151.4523  141.1444  156.8154 N   0  0  0  0  0  0  0  0  0  0  0  0
  151.9547  141.4645  158.0459 C   0  0  0  0  0  0  0  0  0  0  0  0
  151.8525  142.7307  158.6431 N   0  0  0  0  0  0  0  0  0  0  0  0
  151.2945  143.9845  158.1337 C   0  0  0  0  0  0  0  0  0  0  0  0
  151.1155  144.9483  159.3045 C   0  0  0  0  0  0  0  0  0  0  0  0
  152.2024  144.4994  160.2558 C   0  0  0  0  0  0  0  0  0  0  0  0
  152.1882  142.9902  160.0423 C   0  0  0  0  0  0  0  0  0  0  0  0
  152.5950  140.4607  158.6501 N   0  0  0  0  0  0  0  0  0  0  0  0
  152.4888  139.4173  157.7484 C   0  0  0  0  0  0  0  0  0  0  0  0
  151.8151  139.8007  156.6317 C   0  0  0  0  0  0  0  0  0  0  0  0
  151.5790  138.9011  155.4752 C   0  0  0  0  0  0  0  0  0  0  0  0
  150.9974  139.2915  154.4655 O   0  0  0  0  0  0  0  0  0  0  0  0
  152.0799  137.6426  155.6843 N   0  5  0  0  0  0  0  0  0  0  0  0
  152.7552  137.2145  156.8056 C   0  0  0  0  0  0  0  0  0  0  0  0
  153.1684  136.0593  156.9147 O   0  0  0  0  0  0  0  0  0  0  0  0
  152.9798  138.0864  157.8372 N   0  0  0  0  0  0  0  0  0  0  0  0
  153.7035  137.6627  159.0396 C   0  0  0  0  0  0  0  0  0  0  0  0
  147.5145  141.9601  152.7830 H   0  0  0  0  0  0  0  0  0  0  0  0
  147.0398  142.1077  154.4756 H   0  0  0  0  0  0  0  0  0  0  0  0
  147.4939  140.5271  153.8116 H   0  0  0  0  0  0  0  0  0  0  0  0
  148.6169  141.6728  156.1242 H   0  0  0  0  0  0  0  0  0  0  0  0
  149.4732  140.3013  155.4334 H   0  0  0  0  0  0  0  0  0  0  0  0
  151.3780  142.2069  155.0036 H   0  0  0  0  0  0  0  0  0  0  0  0
  150.5838  142.9833  156.2908 H   0  0  0  0  0  0  0  0  0  0  0  0
  151.9865  144.4165  157.4117 H   0  0  0  0  0  0  0  0  0  0  0  0
  150.3392  143.8146  157.6368 H   0  0  0  0  0  0  0  0  0  0  0  0
  151.2036  145.9952  159.0129 H   0  0  0  0  0  0  0  0  0  0  0  0
  150.1362  144.8026  159.7629 H   0  0  0  0  0  0  0  0  0  0  0  0
  153.1641  144.9148  159.9510 H   0  0  0  0  0  0  0  0  0  0  0  0
  152.0152  144.7861  161.2909 H   0  0  0  0  0  0  0  0  0  0  0  0
  151.4290  142.5253  160.6726 H   0  0  0  0  0  0  0  0  0  0  0  0
  153.1504  142.5474  160.3025 H   0  0  0  0  0  0  0  0  0  0  0  0
  154.6763  137.2439  158.7768 H   0  0  0  0  0  0  0  0  0  0  0  0
  153.1362  136.8993  159.5737 H   0  0  0  0  0  0  0  0  0  0  0  0
  153.8843  138.4836  159.7335 H   0  0  0  0  0  0  0  0  0  0  0  0
  1  2  1  0  0  0  0
  1 22  1  0  0  0  0
  1 23  1  0  0  0  0
  1 24  1  0  0  0  0
  2  3  1  0  0  0  0
  3  4  1  0  0  0  0
  3 25  1  0  0  0  0
  3 26  1  0  0  0  0
  4  5  1  0  0  0  0
  4 27  1  0  0  0  0
  4 28  1  0  0  0  0
  5 14  1  0  0  0  0
  5  6  1  0  0  0  0
  6  7  1  0  0  0  0
  6 12  2  0  0  0  0
  7 11  1  0  0  0  0
  7  8  1  0  0  0  0
  8  9  1  0  0  0  0
  8 29  1  0  0  0  0
  8 30  1  0  0  0  0
  9 10  1  0  0  0  0
  9 31  1  0  0  0  0
  9 32  1  0  0  0  0
 10 11  1  0  0  0  0
 10 33  1  0  0  0  0
 10 34  1  0  0  0  0
 11 35  1  0  0  0  0
 11 36  1  0  0  0  0
 12 13  1  0  0  0  0
 13 20  1  0  0  0  0
 13 14  2  0  0  0  0
 14 15  1  0  0  0  0
 15 16  2  0  0  0  0
 15 17  1  0  0  0  0
 17 18  1  0  0  0  0
 18 19  2  0  0  0  0
 18 20  1  0  0  0  0
 20 21  1  0  0  0  0
 21 37  1  0  0  0  0
 21 38  1  0  0  0  0
 21 39  1  0  0  0  0
M  CHG  1  17  -1
M  END
> <s_m_source_file>
AV-unprocessed.smi

> <i_m_source_file_index>
539

> <i_lp_mmshare_version>
43012

> <i_f3d_flags>
0

> <s_epik_input>
W0NIM11uMWMoPU8pW25IXWMoPU8pYyhjMTIpbihbQ0gyXVtDSDJdT1tDSDNdKWMobjIpTjNbQ0gyXVtDSDJdW0NIMl1bQ0gyXTM=

> <s_epik_cmdline>
J2VwaWtfcHl0aG9uJywgJy1waCcsICc3LjAnLCAnLXRuJywgJzgnLCAnLW1hJywgJzIwMCcsICctbWV0YWxfYmluZGluZycsICctaW1hZScsICc8aW5maWxlLm1hZT4nLCAnLW9tYWUnLCAnPG91dGZpbGUubWFlPic=

> <r_lp_tautomer_probability>
1

> <r_epik_Ionization_Penalty>
6.13244

> <r_epik_Ionization_Penalty_Charging>
0.078064

> <r_epik_Ionization_Penalty_Neutral>
6.05438

> <r_epik_State_Penalty>
6.05106

> <r_epik_Charging_Adjusted_Penalty>
6.12912

> <i_epik_Tot_Q>
-1

> <i_epik_Tot_abs_Q>
1

> <r_epik_Metal_State_Penalty>
2.00027

> <b_epik_Metal_Only>
1

> <s_lp_Force_Field>
OPLS_2005

> <r_lp_Energy>
49.7723

> <b_lp_Chiralities_Consistent>
1

> <s_lp_Variant>
AV-unprocessed.smi:539-2

> <Gold.Version>
5.8.1

> <Gold.Id.Protein>
6NUR|6NUR_protein|mol2

> <Gold.PLP.Fitness>
47.2251

> <Gold.PLP.PLP>
-40.2976

> <Gold.PLP.part.hbond>
-3.2978

> <Gold.PLP.part.metal>
0.0000

> <Gold.PLP.part.buried>
-7.3129

> <Gold.PLP.part.nonpolar>
-30.0914

> <Gold.PLP.part.repulsive>
0.3485

> <Gold.PLP.ligand.clash>
0.0000

> <Gold.PLP.ligand.torsion>
0.2836

> <Gold.PLP.Chemscore.Hbond>
2.4800

> <Gold.PLP.Chemscore.CHOScore>
0.0000

> <Gold.PLP.Chemscore.Metal>
0.0000

> <Gold.Chemscore.Hbonds>
donor molecule, donor type, donor heavy atom, donor atom, acceptor molecule, acceptor atom, score
      P1  H  7989  7998       L1    16  1.00
      P1  H  8011  8017       L1     2  0.48
      P1  H 10752 10765       L1    19  1.00

> <Gold.PLP.Chemscore.Internal.Correction>
0.0547

> <Gold.Rescore>
     Score         DG    S(hbond)    S(metal)    S(lipo)     H(rot)  DE(clash)    DE(int)     intcor
     15.29     -17.63       2.07        0.00      77.40       1.50       0.01       2.33       ----

> <Gold.Chemscore.Fitness>
15.2863

> <Gold.Chemscore.DG>
-17.6257

> <Gold.Chemscore.ZeroCoef>
-5.4800

> <Gold.Chemscore.Hbond>
2.0715

> <Gold.Chemscore.Metal>
0.0000

> <Gold.Chemscore.Lipo>
77.3995

> <Gold.Chemscore.Internal_Hbond>
0.0000

> <Gold.Chemscore.DEClash>
0.0078

> <Gold.Chemscore.DEInternal>
2.3315

> <Gold.Chemscore.Rot>
1.4957

> <Gold.Chemscore.Internal.Correction>
   9.000000E+99

> <Gold.Chemscore.Hbonds>
donor molecule, donor type, donor heavy atom, donor atom, acceptor molecule, acceptor atom, score
      P1  H  7989  7998       L1    16  0.97
      P1  H  8011  8017       L1     2  0.14
      P1  H 10752 10765       L1    19  0.88

> <Gold.Chemscore.Hbond.Weighted>
-6.9189

> <Gold.Chemscore.Metal.Weighted>
-0.0000

> <Gold.Chemscore.Lipo.Weighted>
-9.0557

> <Gold.Chemscore.Internal_Hbond.Weighted>
0.0000

> <Gold.Chemscore.DEClash.Weighted>
0.0078

> <Gold.Chemscore.DEInternal.Weighted>
2.3315

> <Gold.Chemscore.Rot.Weighted>
3.8290

> <Gold.Chemscore.Internal.Correction.Weighted>
   9.000000E+99

> <Gold.Protein.RotatedTorsions>
[ 6907 6896 6895 6894 ] final  179.97 input  -60.11 | X-H torsion
[ 7974 7965 7964 7962 ] final -178.62 input  175.53 | X-H torsion
[ 8008 7997 7996 7995 ] final   94.56 input   59.86 | X-H torsion
[ 10167 10162 10161 10158 ] final -107.00 input  -65.29 | X-H torsion
[ 10718 10713 10712 10709 ] final  -39.18 input   66.30 | X-H torsion
[ 10763 10752 10751 10750 ] final -102.30 input  -60.55 | X-H torsion
[ 11005 11000 10999 10996 ] final  -41.22 input  -57.11 | X-H torsion

> <Gold.Protein.ActiveResidues>
 VAL166  LYS551  ARG553  GLY616  TRP617  ASP618  TYR619  PRO620  LYS621  CYS622 
 ASP623  PHE694  ASN695  SER759  ASP760  ASP761  ALA762  ILE779  LEU786  VAL792 
 PHE793  MET794  SER795  GLU796  ALA797  LYS798  CYS799  TRP800  GLU811  SER814 

> <Gold.Protein.RotatedAtoms>
  151.6630  133.3316  159.3178 H   0  0  0  0  0  0  0  0  0  0  0  0  # atno 6907 bound_to 6896
  150.7904  134.6927  159.6515 H   0  0  0  0  0  0  0  0  0  0  0  0  # atno 6908 bound_to 6896
  152.3983  134.6333  160.0132 H   0  0  0  0  0  0  0  0  0  0  0  0  # atno 6909 bound_to 6896
  144.7132  140.0841  143.6424 H   0  0  0  0  0  0  0  0  0  0  0  0  # atno 7974 bound_to 7965
  156.0593  140.3298  155.7442 H   0  0  0  0  0  0  0  0  0  0  0  0  # atno 8008 bound_to 7997
  155.5480  140.0607  157.2873 H   0  0  0  0  0  0  0  0  0  0  0  0  # atno 8009 bound_to 7997
  154.4473  140.1899  156.0646 H   0  0  0  0  0  0  0  0  0  0  0  0  # atno 8010 bound_to 7997
  140.1817  143.3962  152.1276 H   0  0  0  0  0  0  0  0  0  0  0  0  # atno 10167 bound_to 10162
  156.2953  130.4233  149.8197 H   0  0  0  0  0  0  0  0  0  0  0  0  # atno 10718 bound_to 10713
  154.7723  135.4865  153.9674 H   0  0  0  0  0  0  0  0  0  0  0  0  # atno 10763 bound_to 10752
  153.1384  135.6767  153.9073 H   0  0  0  0  0  0  0  0  0  0  0  0  # atno 10764 bound_to 10752
  153.8755  135.3138  155.3422 H   0  0  0  0  0  0  0  0  0  0  0  0  # atno 10765 bound_to 10752
  141.0230  133.6854  156.2428 H   0  0  0  0  0  0  0  0  0  0  0  0  # atno 11005 bound_to 11000
  145.9677  139.2846  143.1118 LP  0  0  0  0  0  0  0  0  0  0  0  0  # atno 17320 bound_to 7965
  145.9151  140.9153  143.0434 LP  0  0  0  0  0  0  0  0  0  0  0  0  # atno 17321 bound_to 7965
  139.5293  144.7141  151.5113 LP  0  0  0  0  0  0  0  0  0  0  0  0  # atno 17342 bound_to 10162
  140.6515  143.8686  150.6791 LP  0  0  0  0  0  0  0  0  0  0  0  0  # atno 17343 bound_to 10162
  156.5595  130.8377  151.3324 LP  0  0  0  0  0  0  0  0  0  0  0  0  # atno 17370 bound_to 10713
  157.7354  130.9761  150.2078 LP  0  0  0  0  0  0  0  0  0  0  0  0  # atno 17371 bound_to 10713
  140.6539  134.5038  157.5579 LP  0  0  0  0  0  0  0  0  0  0  0  0  # atno 17394 bound_to 11000
  139.9158  134.8249  156.1371 LP  0  0  0  0  0  0  0  0  0  0  0  0  # atno 17395 bound_to 11000

$$$$
