AV-unprocessed.smi:1005|AV-procd|sdf|4367|dock1
  -GOLD-   22720 2273D 1   1.00000     0.00000
 Structure written by MMmdl.
 57 59  0  0  0  0  0  0  0  0  3 V2000
  152.3990  143.5106  160.8993 C   0  0  0  0  0  0  0  0  0  0  0  0
  152.0615  142.7853  159.6086 C   0  0  0  0  0  0  0  0  0  0  0  0
  152.6427  141.5218  159.3580 C   0  0  0  0  0  0  0  0  0  0  0  0
  152.3537  140.8146  158.1705 C   0  0  0  0  0  0  0  0  0  0  0  0
  152.7997  139.5813  157.7272 N   0  0  0  0  0  0  0  0  0  0  0  0
  152.1749  139.4741  156.5584 C   0  0  0  0  0  0  0  0  0  0  0  0
  151.3715  140.4915  156.1926 N   0  0  0  0  0  0  0  0  0  0  0  0
  150.5900  140.5916  154.9722 C   0  0  0  0  0  0  0  0  0  0  0  0
  149.6756  139.3703  154.7533 C   0  0  1  0  0  0  0  0  0  0  0  0
  148.7996  139.6241  153.6714 O   0  0  0  0  0  0  0  0  0  0  0  0
  150.4886  138.0979  154.4395 C   0  0  0  0  0  0  0  0  0  0  0  0
  149.6909  136.8529  154.5872 N   0  3  1  0  0  0  0  0  0  0  0  0
  150.5406  135.6485  154.7397 C   0  0  0  0  0  0  0  0  0  0  0  0
  149.6690  134.3843  154.8136 C   0  0  0  0  0  0  0  0  0  0  0  0
  148.7377  134.5089  155.8816 O   0  0  0  0  0  0  0  0  0  0  0  0
  147.8499  135.6078  155.7024 C   0  0  1  0  0  0  0  0  0  0  0  0
  146.8416  135.6025  156.8672 C   0  0  0  0  0  0  0  0  0  0  0  0
  146.0353  134.3559  156.9311 N   0  3  0  0  0  0  0  0  0  0  0  0
  145.2981  134.0640  155.6796 C   0  0  0  0  0  0  0  0  0  0  0  0
  145.1339  134.3379  158.1046 C   0  0  0  0  0  0  0  0  0  0  0  0
  148.6780  136.9085  155.6705 C   0  0  0  0  0  0  0  0  0  0  0  0
  151.4611  141.4111  157.2326 C   0  0  0  0  0  0  0  0  0  0  0  0
  150.8786  142.6687  157.4696 C   0  0  0  0  0  0  0  0  0  0  0  0
  151.1763  143.3608  158.6620 C   0  0  0  0  0  0  0  0  0  0  0  0
  150.5399  144.7168  158.9096 C   0  0  0  0  0  0  0  0  0  0  0  0
  153.1127  142.9455  161.4996 H   0  0  0  0  0  0  0  0  0  0  0  0
  151.5009  143.6594  161.4993 H   0  0  0  0  0  0  0  0  0  0  0  0
  152.8393  144.4848  160.6862 H   0  0  0  0  0  0  0  0  0  0  0  0
  153.3172  141.0833  160.0790 H   0  0  0  0  0  0  0  0  0  0  0  0
  152.3074  138.6039  155.9322 H   0  0  0  0  0  0  0  0  0  0  0  0
  150.0045  141.5114  155.0078 H   0  0  0  0  0  0  0  0  0  0  0  0
  151.2805  140.6964  154.1343 H   0  0  0  0  0  0  0  0  0  0  0  0
  149.0754  139.2267  155.6513 H   0  0  0  0  0  0  0  0  0  0  0  0
  149.3114  139.9224  152.9338 H   0  0  0  0  0  0  0  0  0  0  0  0
  150.8559  138.1694  153.4142 H   0  0  0  0  0  0  0  0  0  0  0  0
  151.3727  138.0402  155.0763 H   0  0  0  0  0  0  0  0  0  0  0  0
  151.2284  135.5688  153.8970 H   0  0  0  0  0  0  0  0  0  0  0  0
  151.1469  135.7388  155.6426 H   0  0  0  0  0  0  0  0  0  0  0  0
  149.1425  134.2172  153.8726 H   0  0  0  0  0  0  0  0  0  0  0  0
  150.2925  133.5074  154.9890 H   0  0  0  0  0  0  0  0  0  0  0  0
  147.3259  135.5050  154.7518 H   0  0  0  0  0  0  0  0  0  0  0  0
  147.3966  135.7232  157.7990 H   0  0  0  0  0  0  0  0  0  0  0  0
  146.1704  136.4599  156.7972 H   0  0  0  0  0  0  0  0  0  0  0  0
  144.5871  134.8587  155.4495 H   0  0  0  0  0  0  0  0  0  0  0  0
  144.7416  133.1307  155.7725 H   0  0  0  0  0  0  0  0  0  0  0  0
  145.9716  133.9513  154.8312 H   0  0  0  0  0  0  0  0  0  0  0  0
  144.4039  135.1464  158.0494 H   0  0  0  0  0  0  0  0  0  0  0  0
  145.6996  134.4495  159.0301 H   0  0  0  0  0  0  0  0  0  0  0  0
  144.5932  133.3925  158.1634 H   0  0  0  0  0  0  0  0  0  0  0  0
  149.1770  137.0639  156.6287 H   0  0  0  0  0  0  0  0  0  0  0  0
  148.0083  137.7541  155.5193 H   0  0  0  0  0  0  0  0  0  0  0  0
  150.2058  143.0958  156.7409 H   0  0  0  0  0  0  0  0  0  0  0  0
  149.8622  144.9919  158.1010 H   0  0  0  0  0  0  0  0  0  0  0  0
  151.3056  145.4893  158.9823 H   0  0  0  0  0  0  0  0  0  0  0  0
  149.9667  144.7083  159.8370 H   0  0  0  0  0  0  0  0  0  0  0  0
  146.6870  133.5970  157.0727 H   0  0  0  0  0  0  0  0  0  0  0  0
  149.1915  136.7383  153.7161 H   0  0  0  0  0  0  0  0  0  0  0  0
  1  2  1  0  0  0  0
  1 26  1  0  0  0  0
  1 27  1  0  0  0  0
  1 28  1  0  0  0  0
  2 24  1  0  0  0  0
  2  3  2  0  0  0  0
  3  4  1  0  0  0  0
  3 29  1  0  0  0  0
  4 22  2  0  0  0  0
  4  5  1  0  0  0  0
  5  6  2  0  0  0  0
  6  7  1  0  0  0  0
  6 30  1  0  0  0  0
  7  8  1  0  0  0  0
  7 22  1  0  0  0  0
  8  9  1  0  0  0  0
  8 31  1  0  0  0  0
  8 32  1  0  0  0  0
  9 10  1  0  0  0  0
  9 11  1  0  0  0  0
  9 33  1  0  0  0  0
 10 34  1  0  0  0  0
 11 12  1  0  0  0  0
 11 35  1  0  0  0  0
 11 36  1  0  0  0  0
 12 21  1  0  0  0  0
 12 13  1  0  0  0  0
 12 57  1  0  0  0  0
 13 14  1  0  0  0  0
 13 37  1  0  0  0  0
 13 38  1  0  0  0  0
 14 15  1  0  0  0  0
 14 39  1  0  0  0  0
 14 40  1  0  0  0  0
 15 16  1  0  0  0  0
 16 17  1  0  0  0  0
 16 21  1  0  0  0  0
 16 41  1  0  0  0  0
 17 18  1  0  0  0  0
 17 42  1  0  0  0  0
 17 43  1  0  0  0  0
 18 19  1  0  0  0  0
 18 20  1  0  0  0  0
 18 56  1  0  0  0  0
 19 44  1  0  0  0  0
 19 45  1  0  0  0  0
 19 46  1  0  0  0  0
 20 47  1  0  0  0  0
 20 48  1  0  0  0  0
 20 49  1  0  0  0  0
 21 50  1  0  0  0  0
 21 51  1  0  0  0  0
 22 23  1  0  0  0  0
 23 24  2  0  0  0  0
 23 52  1  0  0  0  0
 24 25  1  0  0  0  0
 25 53  1  0  0  0  0
 25 54  1  0  0  0  0
 25 55  1  0  0  0  0
M  CHG  1  12   1
M  CHG  1  18   1
M  END
> <s_m_source_file>
AV-unprocessed.smi

> <i_m_source_file_index>
1005

> <i_lp_mmshare_version>
43012

> <i_f3d_flags>
0

> <s_epik_input>
W0NIM11jKFtjSF0xKWMoW0NIM10pW2NIXWMoYzEyKW4oW2NIXW4yKVtDSDJdW0NASF0oW09IXSlbQ0gyXU4zW0NIMl1bQ0gyXU9bQ0BIXShbQ0gyXTMpW0NIMl1OKFtDSDNdKVtDSDNd

> <s_epik_cmdline>
J2VwaWtfcHl0aG9uJywgJy1waCcsICc3LjAnLCAnLXRuJywgJzgnLCAnLW1hJywgJzIwMCcsICctbWV0YWxfYmluZGluZycsICctaW1hZScsICc8aW5maWxlLm1hZT4nLCAnLW9tYWUnLCAnPG91dGZpbGUubWFlPic=

> <r_epik_Ionization_Penalty>
1.0968

> <r_epik_Ionization_Penalty_Charging>
1.0096

> <r_epik_Ionization_Penalty_Neutral>
0.0871956

> <r_epik_State_Penalty>
1.31185

> <r_epik_Charging_Adjusted_Penalty>
2.32145

> <i_epik_Tot_Q>
2

> <i_epik_Tot_abs_Q>
2

> <r_epik_Metal_State_Penalty>
1.22442

> <b_epik_Metal_Only>
0

> <s_lp_Force_Field>
OPLS_2005

> <r_lp_Energy>
33.8035

> <b_lp_Chiralities_Consistent>
1

> <s_lp_Variant>
AV-unprocessed.smi:1005-6

> <Gold.Version>
5.8.1

> <Gold.Id.Protein>
6NUR|6NUR_protein|mol2

> <Gold.PLP.Fitness>
50.1125

> <Gold.PLP.PLP>
-38.8589

> <Gold.PLP.part.hbond>
-3.0000

> <Gold.PLP.part.metal>
0.0000

> <Gold.PLP.part.buried>
-1.7554

> <Gold.PLP.part.nonpolar>
-33.3102

> <Gold.PLP.part.repulsive>
0.0560

> <Gold.PLP.ligand.clash>
0.0000

> <Gold.PLP.ligand.torsion>
0.4326

> <Gold.PLP.Chemscore.Hbond>
4.0000

> <Gold.PLP.Chemscore.CHOScore>
0.0000

> <Gold.PLP.Chemscore.Metal>
0.0000

> <Gold.Chemscore.Hbonds>
donor molecule, donor type, donor heavy atom, donor atom, acceptor molecule, acceptor atom, score
      L1  H    10    34       P1  7957  1.00
      L1  H    12    57       P1  7948  2.00
      P1  H  7997  8008       L1     5  1.00

> <Gold.PLP.Chemscore.Internal.Correction>
0.1189

> <Gold.Rescore>
     Score         DG    S(hbond)    S(metal)    S(lipo)     H(rot)  DE(clash)    DE(int)     intcor
     17.26     -19.24       1.95        0.00     116.13       2.48       1.44       0.54       ----

> <Gold.Chemscore.Fitness>
17.2626

> <Gold.Chemscore.DG>
-19.2373

> <Gold.Chemscore.ZeroCoef>
-5.4800

> <Gold.Chemscore.Hbond>
1.9528

> <Gold.Chemscore.Metal>
0.0000

> <Gold.Chemscore.Lipo>
116.1306

> <Gold.Chemscore.Internal_Hbond>
0.0000

> <Gold.Chemscore.DEClash>
1.4367

> <Gold.Chemscore.DEInternal>
0.5381

> <Gold.Chemscore.Rot>
2.4814

> <Gold.Chemscore.Internal.Correction>
   9.000000E+99

> <Gold.Chemscore.Hbonds>
donor molecule, donor type, donor heavy atom, donor atom, acceptor molecule, acceptor atom, score
      L1  H    10    34       P1  7957  0.95
      L1  H    12    57       P1  7948  0.96
      P1  H  7997  8008       L1     5  0.07

> <Gold.Chemscore.Hbond.Weighted>
-6.5224

> <Gold.Chemscore.Metal.Weighted>
-0.0000

> <Gold.Chemscore.Lipo.Weighted>
-13.5873

> <Gold.Chemscore.Internal_Hbond.Weighted>
0.0000

> <Gold.Chemscore.DEClash.Weighted>
1.4367

> <Gold.Chemscore.DEInternal.Weighted>
0.5381

> <Gold.Chemscore.Rot.Weighted>
6.3524

> <Gold.Chemscore.Internal.Correction.Weighted>
   9.000000E+99

> <Gold.Protein.RotatedTorsions>
[ 6907 6896 6895 6894 ] final -178.35 input  -60.11 | X-H torsion
[ 7974 7965 7964 7962 ] final  159.06 input  175.53 | X-H torsion
[ 8008 7997 7996 7995 ] final  -91.70 input   59.86 | X-H torsion
[ 10167 10162 10161 10158 ] final  144.17 input  -65.29 | X-H torsion
[ 10718 10713 10712 10709 ] final  103.99 input   66.30 | X-H torsion
[ 10763 10752 10751 10750 ] final   29.01 input  -60.55 | X-H torsion
[ 11005 11000 10999 10996 ] final  -73.08 input  -57.11 | X-H torsion

> <Gold.Protein.ActiveResidues>
 VAL166  LYS551  ARG553  GLY616  TRP617  ASP618  TYR619  PRO620  LYS621  CYS622 
 ASP623  PHE694  ASN695  SER759  ASP760  ASP761  ALA762  ILE779  LEU786  VAL792 
 PHE793  MET794  SER795  GLU796  ALA797  LYS798  CYS799  TRP800  GLU811  SER814 

> <Gold.Protein.RotatedAtoms>
  151.6358  133.3329  159.3118 H   0  0  0  0  0  0  0  0  0  0  0  0  # atno 6907 bound_to 6896
  150.8033  134.7145  159.6632 H   0  0  0  0  0  0  0  0  0  0  0  0  # atno 6908 bound_to 6896
  152.4127  134.6101  160.0074 H   0  0  0  0  0  0  0  0  0  0  0  0  # atno 6909 bound_to 6896
  144.7811  139.7564  143.6259 H   0  0  0  0  0  0  0  0  0  0  0  0  # atno 7974 bound_to 7965
  154.7139  140.0517  157.0576 H   0  0  0  0  0  0  0  0  0  0  0  0  # atno 8008 bound_to 7997
  155.0517  140.3180  155.4671 H   0  0  0  0  0  0  0  0  0  0  0  0  # atno 8009 bound_to 7997
  156.2797  140.2114  156.5643 H   0  0  0  0  0  0  0  0  0  0  0  0  # atno 8010 bound_to 7997
  139.4953  144.5990  151.6521 H   0  0  0  0  0  0  0  0  0  0  0  0  # atno 10167 bound_to 10162
  157.6755  131.0793  150.5639 H   0  0  0  0  0  0  0  0  0  0  0  0  # atno 10718 bound_to 10713
  153.0456  135.6499  154.0826 H   0  0  0  0  0  0  0  0  0  0  0  0  # atno 10763 bound_to 10752
  154.0524  135.2894  155.3340 H   0  0  0  0  0  0  0  0  0  0  0  0  # atno 10764 bound_to 10752
  154.6711  135.5356  153.8205 H   0  0  0  0  0  0  0  0  0  0  0  0  # atno 10765 bound_to 10752
  141.1618  133.6867  156.7158 H   0  0  0  0  0  0  0  0  0  0  0  0  # atno 11005 bound_to 11000
  146.2020  139.5320  142.9737 LP  0  0  0  0  0  0  0  0  0  0  0  0  # atno 17320 bound_to 7965
  145.6047  141.0349  143.1999 LP  0  0  0  0  0  0  0  0  0  0  0  0  # atno 17321 bound_to 7965
  140.5635  144.0229  150.6181 LP  0  0  0  0  0  0  0  0  0  0  0  0  # atno 17342 bound_to 10162
  140.3323  143.3070  152.0675 LP  0  0  0  0  0  0  0  0  0  0  0  0  # atno 17343 bound_to 10162
  156.5942  130.4337  149.5924 LP  0  0  0  0  0  0  0  0  0  0  0  0  # atno 17370 bound_to 10713
  156.2559  130.6934  151.1687 LP  0  0  0  0  0  0  0  0  0  0  0  0  # atno 17371 bound_to 10713
  140.2853  134.8284  157.3969 LP  0  0  0  0  0  0  0  0  0  0  0  0  # atno 17394 bound_to 11000
  140.1396  134.4989  155.8042 LP  0  0  0  0  0  0  0  0  0  0  0  0  # atno 17395 bound_to 11000

$$$$
