AV-unprocessed.smi:861|AV-procd|sdf|3970|dock2
  -GOLD-   22720 1443D 1   1.00000     0.00000
 Structure written by MMmdl.
 43 44  0  0  0  0  0  0  0  0  1 V2000
  155.4382  138.9864  161.2015 C   0  0  0  0  0  0  0  0  0  0  0  0
  155.1081  140.4791  161.3678 C   0  0  0  0  0  0  0  0  0  0  0  0
  155.1108  140.8652  162.8547 C   0  0  0  0  0  0  0  0  0  0  0  0
  153.7690  140.8623  160.7060 C   0  0  0  0  0  0  0  0  0  0  0  0
  153.3828  142.3419  160.8982 C   0  0  0  0  0  0  0  0  0  0  0  0
  152.2601  142.7985  160.0802 N   0  0  0  0  0  0  0  0  0  0  0  0
  152.1906  144.2552  160.0566 C   0  0  0  0  0  0  0  0  0  0  0  0
  151.0220  144.7616  159.1950 C   0  0  0  0  0  0  0  0  0  0  0  0
  151.1411  144.2353  157.8774 O   0  0  0  0  0  0  0  0  0  0  0  0
  151.1531  142.8108  157.8462 C   0  0  1  0  0  0  0  0  0  0  0  0
  151.2618  142.3700  156.3794 C   0  0  0  0  0  0  0  0  0  0  0  0
  149.9699  142.4064  155.7073 N   0  0  0  0  0  0  0  0  0  0  0  0
  149.4830  141.2869  155.0206 C   0  0  0  0  0  0  0  0  0  0  0  0
  148.1341  141.2725  154.6137 C   0  0  0  0  0  0  0  0  0  0  0  0
  147.6717  140.1362  153.9278 C   0  0  0  0  0  0  0  0  0  0  0  0
  148.5954  139.0998  153.7006 C   0  0  0  0  0  0  0  0  0  0  0  0
  149.8812  139.1667  154.1133 N   0  0  0  0  0  0  0  0  0  0  0  0
  150.3196  140.2492  154.7663 N   0  0  0  0  0  0  0  0  0  0  0  0
  152.3315  142.3063  158.7066 C   0  0  0  0  0  0  0  0  0  0  0  0
  154.6586  138.3576  161.6326 H   0  0  0  0  0  0  0  0  0  0  0  0
  156.3772  138.7358  161.6961 H   0  0  0  0  0  0  0  0  0  0  0  0
  155.5463  138.7124  160.1525 H   0  0  0  0  0  0  0  0  0  0  0  0
  155.8998  141.0531  160.8846 H   0  0  0  0  0  0  0  0  0  0  0  0
  154.3411  140.3240  163.4058 H   0  0  0  0  0  0  0  0  0  0  0  0
  154.9268  141.9317  162.9861 H   0  0  0  0  0  0  0  0  0  0  0  0
  156.0719  140.6401  163.3181 H   0  0  0  0  0  0  0  0  0  0  0  0
  153.8132  140.6153  159.6452 H   0  0  0  0  0  0  0  0  0  0  0  0
  152.9774  140.2431  161.1304 H   0  0  0  0  0  0  0  0  0  0  0  0
  153.1261  142.4830  161.9492 H   0  0  0  0  0  0  0  0  0  0  0  0
  154.2490  142.9782  160.7129 H   0  0  0  0  0  0  0  0  0  0  0  0
  152.0807  144.6371  161.0722 H   0  0  0  0  0  0  0  0  0  0  0  0
  153.1252  144.6636  159.6689 H   0  0  0  0  0  0  0  0  0  0  0  0
  150.0650  144.4673  159.6283 H   0  0  0  0  0  0  0  0  0  0  0  0
  151.0308  145.8504  159.1461 H   0  0  0  0  0  0  0  0  0  0  0  0
  150.2096  142.4487  158.2593 H   0  0  0  0  0  0  0  0  0  0  0  0
  151.9444  143.0354  155.8492 H   0  0  0  0  0  0  0  0  0  0  0  0
  151.6833  141.3656  156.3215 H   0  0  0  0  0  0  0  0  0  0  0  0
  149.4099  143.2443  155.7683 H   0  0  0  0  0  0  0  0  0  0  0  0
  147.4743  142.1024  154.8202 H   0  0  0  0  0  0  0  0  0  0  0  0
  146.6492  140.0616  153.5889 H   0  0  0  0  0  0  0  0  0  0  0  0
  148.2995  138.2018  153.1790 H   0  0  0  0  0  0  0  0  0  0  0  0
  153.2732  142.6172  158.2515 H   0  0  0  0  0  0  0  0  0  0  0  0
  152.3268  141.2171  158.7001 H   0  0  0  0  0  0  0  0  0  0  0  0
  1  2  1  0  0  0  0
  1 20  1  0  0  0  0
  1 21  1  0  0  0  0
  1 22  1  0  0  0  0
  2  3  1  0  0  0  0
  2  4  1  0  0  0  0
  2 23  1  0  0  0  0
  3 24  1  0  0  0  0
  3 25  1  0  0  0  0
  3 26  1  0  0  0  0
  4  5  1  0  0  0  0
  4 27  1  0  0  0  0
  4 28  1  0  0  0  0
  5  6  1  0  0  0  0
  5 29  1  0  0  0  0
  5 30  1  0  0  0  0
  6 19  1  0  0  0  0
  6  7  1  0  0  0  0
  7  8  1  0  0  0  0
  7 31  1  0  0  0  0
  7 32  1  0  0  0  0
  8  9  1  0  0  0  0
  8 33  1  0  0  0  0
  8 34  1  0  0  0  0
  9 10  1  0  0  0  0
 10 11  1  0  0  0  0
 10 19  1  0  0  0  0
 10 35  1  0  0  0  0
 11 12  1  0  0  0  0
 11 36  1  0  0  0  0
 11 37  1  0  0  0  0
 12 13  1  0  0  0  0
 12 38  1  0  0  0  0
 13 18  1  0  0  0  0
 13 14  2  0  0  0  0
 14 15  1  0  0  0  0
 14 39  1  0  0  0  0
 15 16  2  0  0  0  0
 15 40  1  0  0  0  0
 16 17  1  0  0  0  0
 16 41  1  0  0  0  0
 17 18  2  0  0  0  0
 19 42  1  0  0  0  0
 19 43  1  0  0  0  0
M  END
> <s_m_source_file>
AV-unprocessed.smi

> <i_m_source_file_index>
861

> <i_lp_mmshare_version>
43012

> <i_f3d_flags>
0

> <s_epik_input>
W0NIM11bQ0hdKFtDSDNdKVtDSDJdW0NIMl1OMVtDSDJdW0NIMl1PW0NASF0oW0NIMl0xKVtDSDJdW05IXWMyW2NIXVtjSF1bY0hdbm4y

> <s_epik_cmdline>
J2VwaWtfcHl0aG9uJywgJy1waCcsICc3LjAnLCAnLXRuJywgJzgnLCAnLW1hJywgJzIwMCcsICctbWV0YWxfYmluZGluZycsICctaW1hZScsICc8aW5maWxlLm1hZT4nLCAnLW9tYWUnLCAnPG91dGZpbGUubWFlPic=

> <r_lp_tautomer_probability>
0.999978

> <r_epik_Ionization_Penalty>
1.1508

> <r_epik_Ionization_Penalty_Charging>
0

> <r_epik_Ionization_Penalty_Neutral>
1.1508

> <r_epik_State_Penalty>
1.22808

> <r_epik_Charging_Adjusted_Penalty>
1.22808

> <i_epik_Tot_Q>
0

> <i_epik_Tot_abs_Q>
0

> <r_epik_Metal_State_Penalty>
1.22149

> <b_epik_Metal_Only>
0

> <s_lp_Force_Field>
OPLS_2005

> <r_lp_Energy>
29.6071

> <b_lp_Chiralities_Consistent>
1

> <s_lp_Variant>
AV-unprocessed.smi:861-5

> <Gold.Version>
5.8.1

> <Gold.Id.Protein>
6NUR|6NUR_protein|mol2

> <Gold.PLP.Fitness>
44.4152

> <Gold.PLP.PLP>
-36.1735

> <Gold.PLP.part.hbond>
-2.0000

> <Gold.PLP.part.metal>
0.0000

> <Gold.PLP.part.buried>
-4.3112

> <Gold.PLP.part.nonpolar>
-31.9192

> <Gold.PLP.part.repulsive>
0.6121

> <Gold.PLP.ligand.clash>
0.0000

> <Gold.PLP.ligand.torsion>
0.4369

> <Gold.PLP.Chemscore.Hbond>
2.0000

> <Gold.PLP.Chemscore.CHOScore>
1.0000

> <Gold.PLP.Chemscore.Metal>
0.0000

> <Gold.Chemscore.Hbonds>
donor molecule, donor type, donor heavy atom, donor atom, acceptor molecule, acceptor atom, score
      L1  H    12    38       P1  8028  1.00
      P1  H  7989  7998       L1    18  0.95
      L1  C    16    41       P1  7948  1.00

> <Gold.PLP.Chemscore.Internal.Correction>
0.1156

> <Gold.Rescore>
     Score         DG    S(hbond)    S(metal)    S(lipo)     H(rot)  DE(clash)    DE(int)     intcor
     16.97     -17.93       1.08        0.00     112.02       1.66       0.60       0.36       ----

> <Gold.Chemscore.Fitness>
16.9662

> <Gold.Chemscore.DG>
-17.9308

> <Gold.Chemscore.ZeroCoef>
-5.4800

> <Gold.Chemscore.Hbond>
1.0754

> <Gold.Chemscore.Metal>
0.0000

> <Gold.Chemscore.Lipo>
112.0202

> <Gold.Chemscore.Internal_Hbond>
0.0000

> <Gold.Chemscore.DEClash>
0.6020

> <Gold.Chemscore.DEInternal>
0.3626

> <Gold.Chemscore.Rot>
1.6591

> <Gold.Chemscore.Internal.Correction>
   9.000000E+99

> <Gold.Chemscore.Hbonds>
donor molecule, donor type, donor heavy atom, donor atom, acceptor molecule, acceptor atom, score
      L1  H    12    38       P1  8028  0.97
      P1  H  7989  7998       L1    18  0.13

> <Gold.Chemscore.Hbond.Weighted>
-3.5918

> <Gold.Chemscore.Metal.Weighted>
-0.0000

> <Gold.Chemscore.Lipo.Weighted>
-13.1064

> <Gold.Chemscore.Internal_Hbond.Weighted>
0.0000

> <Gold.Chemscore.DEClash.Weighted>
0.6020

> <Gold.Chemscore.DEInternal.Weighted>
0.3626

> <Gold.Chemscore.Rot.Weighted>
4.2474

> <Gold.Chemscore.Internal.Correction.Weighted>
   9.000000E+99

> <Gold.Protein.RotatedTorsions>
[ 6907 6896 6895 6894 ] final -164.33 input  -60.11 | X-H torsion
[ 7974 7965 7964 7962 ] final  165.04 input  175.53 | X-H torsion
[ 8008 7997 7996 7995 ] final  135.76 input   59.86 | X-H torsion
[ 10167 10162 10161 10158 ] final -149.62 input  -65.29 | X-H torsion
[ 10718 10713 10712 10709 ] final   87.06 input   66.30 | X-H torsion
[ 10763 10752 10751 10750 ] final -107.35 input  -60.55 | X-H torsion
[ 11005 11000 10999 10996 ] final   67.73 input  -57.11 | X-H torsion

> <Gold.Protein.ActiveResidues>
 VAL166  LYS551  ARG553  GLY616  TRP617  ASP618  TYR619  PRO620  LYS621  CYS622 
 ASP623  PHE694  ASN695  SER759  ASP760  ASP761  ALA762  ILE779  LEU786  VAL792 
 PHE793  MET794  SER795  GLU796  ALA797  LYS798  CYS799  TRP800  GLU811  SER814 

> <Gold.Protein.RotatedAtoms>
  151.4102  133.3730  159.2742 H   0  0  0  0  0  0  0  0  0  0  0  0  # atno 6907 bound_to 6896
  150.9369  134.8782  159.7598 H   0  0  0  0  0  0  0  0  0  0  0  0  # atno 6908 bound_to 6896
  152.5054  134.4050  159.9481 H   0  0  0  0  0  0  0  0  0  0  0  0  # atno 6909 bound_to 6896
  144.7519  139.8413  143.6363 H   0  0  0  0  0  0  0  0  0  0  0  0  # atno 7974 bound_to 7965
  156.3003  140.2462  156.3635 H   0  0  0  0  0  0  0  0  0  0  0  0  # atno 8008 bound_to 7997
  154.8855  140.0411  157.1827 H   0  0  0  0  0  0  0  0  0  0  0  0  # atno 8009 bound_to 7997
  154.8652  140.2926  155.5519 H   0  0  0  0  0  0  0  0  0  0  0  0  # atno 8010 bound_to 7997
  139.7427  143.8638  152.2566 H   0  0  0  0  0  0  0  0  0  0  0  0  # atno 10167 bound_to 10162
  157.6936  131.0240  150.3067 H   0  0  0  0  0  0  0  0  0  0  0  0  # atno 10718 bound_to 10713
  154.8069  135.4678  154.0416 H   0  0  0  0  0  0  0  0  0  0  0  0  # atno 10763 bound_to 10752
  153.1878  135.6850  153.8399 H   0  0  0  0  0  0  0  0  0  0  0  0  # atno 10764 bound_to 10752
  153.7928  135.3241  155.3358 H   0  0  0  0  0  0  0  0  0  0  0  0  # atno 10765 bound_to 10752
  139.9753  134.6832  156.0366 H   0  0  0  0  0  0  0  0  0  0  0  0  # atno 11005 bound_to 11000
  146.1480  139.4555  143.0066 LP  0  0  0  0  0  0  0  0  0  0  0  0  # atno 17320 bound_to 7965
  145.6914  141.0163  143.1553 LP  0  0  0  0  0  0  0  0  0  0  0  0  # atno 17321 bound_to 7965
  139.8593  144.7125  150.9119 LP  0  0  0  0  0  0  0  0  0  0  0  0  # atno 17342 bound_to 10162
  140.7788  143.3831  151.1441 LP  0  0  0  0  0  0  0  0  0  0  0  0  # atno 17343 bound_to 10162
  156.3574  130.3841  149.7279 LP  0  0  0  0  0  0  0  0  0  0  0  0  # atno 17370 bound_to 10713
  156.4736  130.8008  151.3025 LP  0  0  0  0  0  0  0  0  0  0  0  0  # atno 17371 bound_to 10713
  141.1431  133.6561  156.3786 LP  0  0  0  0  0  0  0  0  0  0  0  0  # atno 17394 bound_to 11000
  140.5207  134.6307  157.5317 LP  0  0  0  0  0  0  0  0  0  0  0  0  # atno 17395 bound_to 11000

$$$$
