AV-unprocessed.smi:142|AV-procd|sdf|1191|dock7
  -GOLD-   2262018343D 1   1.00000     0.00000
 Structure written by MMmdl.
 52 55  0  0  0  0  0  0  0  0  1 V2000
  150.2172  140.0318  155.4768 C   0  0  0  0  0  0  0  0  0  0  0  0
  151.4049  139.2459  156.0486 C   0  0  2  0  0  0  0  0  0  0  0  0
  150.9403  137.9383  156.5076 N   0  0  0  0  0  0  0  0  0  0  0  0
  151.2846  136.7606  155.9649 C   0  0  0  0  0  0  0  0  0  0  0  0
  152.0026  136.6616  154.9688 O   0  0  0  0  0  0  0  0  0  0  0  0
  150.7293  135.5122  156.6656 C   0  0  0  0  0  0  0  0  0  0  0  0
  150.3684  134.4313  155.7228 N   0  0  0  0  0  0  0  0  0  0  0  0
  149.2339  134.6132  154.8929 C   0  0  0  0  0  0  0  0  0  0  0  0
  148.5730  135.6523  154.9341 O   0  0  0  0  0  0  0  0  0  0  0  0
  148.9094  133.4938  154.0163 C   0  0  0  0  0  0  0  0  0  0  0  0
  147.8413  133.5714  153.2044 F   0  0  0  0  0  0  0  0  0  0  0  0
  149.6637  132.3754  154.0109 C   0  0  0  0  0  0  0  0  0  0  0  0
  150.7792  132.2185  154.8098 N   0  0  0  0  0  0  0  0  0  0  0  0
  151.5322  130.9085  154.7772 C   0  0  1  0  0  0  0  0  0  0  0  0
  150.8540  129.8267  153.9149 C   0  0  0  0  0  0  0  0  0  0  0  0
  151.9231  129.4910  152.8876 C   0  0  0  0  0  0  0  0  0  0  0  0
  153.2047  129.9611  153.5664 C   0  0  0  0  0  0  0  0  0  0  0  0
  152.8016  131.1386  154.2481 O   0  0  0  0  0  0  0  0  0  0  0  0
  151.1392  133.2439  155.7146 C   0  0  0  0  0  0  0  0  0  0  0  0
  152.0926  133.1066  156.4826 O   0  0  0  0  0  0  0  0  0  0  0  0
  152.1167  140.0490  157.1349 C   0  0  0  0  0  0  0  0  0  0  0  0
  153.1720  139.4511  157.8565 C   0  0  0  0  0  0  0  0  0  0  0  0
  153.8513  140.1705  158.8585 C   0  0  0  0  0  0  0  0  0  0  0  0
  153.4820  141.4994  159.1482 C   0  0  0  0  0  0  0  0  0  0  0  0
  154.1576  142.2258  160.1506 C   0  0  0  0  0  0  0  0  0  0  0  0
  153.7825  143.5538  160.4334 C   0  0  0  0  0  0  0  0  0  0  0  0
  152.7319  144.1588  159.7167 C   0  0  0  0  0  0  0  0  0  0  0  0
  152.0535  143.4379  158.7149 C   0  0  0  0  0  0  0  0  0  0  0  0
  152.4261  142.1087  158.4266 C   0  0  0  0  0  0  0  0  0  0  0  0
  151.7521  141.3848  157.4226 C   0  0  0  0  0  0  0  0  0  0  0  0
  150.5424  140.9850  155.0595 H   0  0  0  0  0  0  0  0  0  0  0  0
  149.4740  140.2427  156.2468 H   0  0  0  0  0  0  0  0  0  0  0  0
  149.7236  139.4760  154.6790 H   0  0  0  0  0  0  0  0  0  0  0  0
  152.1143  139.0814  155.2351 H   0  0  0  0  0  0  0  0  0  0  0  0
  150.3416  137.9279  157.3205 H   0  0  0  0  0  0  0  0  0  0  0  0
  151.4626  135.1528  157.3899 H   0  0  0  0  0  0  0  0  0  0  0  0
  149.8792  135.8145  157.2787 H   0  0  0  0  0  0  0  0  0  0  0  0
  149.3761  131.5722  153.3479 H   0  0  0  0  0  0  0  0  0  0  0  0
  151.6300  130.5913  155.8165 H   0  0  0  0  0  0  0  0  0  0  0  0
  150.6346  128.9662  154.5478 H   0  0  0  0  0  0  0  0  0  0  0  0
  149.9219  130.1704  153.4655 H   0  0  0  0  0  0  0  0  0  0  0  0
  151.9457  128.4327  152.6269 H   0  0  0  0  0  0  0  0  0  0  0  0
  151.7578  130.0590  151.9717 H   0  0  0  0  0  0  0  0  0  0  0  0
  153.5557  129.2228  154.2892 H   0  0  0  0  0  0  0  0  0  0  0  0
  154.0091  130.1615  152.8581 H   0  0  0  0  0  0  0  0  0  0  0  0
  153.4646  138.4334  157.6425 H   0  0  0  0  0  0  0  0  0  0  0  0
  154.6560  139.6973  159.4023 H   0  0  0  0  0  0  0  0  0  0  0  0
  154.9642  141.7696  160.7061 H   0  0  0  0  0  0  0  0  0  0  0  0
  154.3006  144.1087  161.2014 H   0  0  0  0  0  0  0  0  0  0  0  0
  152.4455  145.1769  159.9358 H   0  0  0  0  0  0  0  0  0  0  0  0
  151.2472  143.9090  158.1714 H   0  0  0  0  0  0  0  0  0  0  0  0
  150.9526  141.8613  156.8740 H   0  0  0  0  0  0  0  0  0  0  0  0
  1  2  1  0  0  0  0
  1 31  1  0  0  0  0
  1 32  1  0  0  0  0
  1 33  1  0  0  0  0
  2  3  1  0  0  0  0
  2 21  1  0  0  0  0
  2 34  1  0  0  0  0
  3  4  1  0  0  0  0
  3 35  1  0  0  0  0
  4  5  2  0  0  0  0
  4  6  1  0  0  0  0
  6  7  1  0  0  0  0
  6 36  1  0  0  0  0
  6 37  1  0  0  0  0
  7 19  1  0  0  0  0
  7  8  1  0  0  0  0
  8  9  2  0  0  0  0
  8 10  1  0  0  0  0
 10 11  1  0  0  0  0
 10 12  2  0  0  0  0
 12 13  1  0  0  0  0
 12 38  1  0  0  0  0
 13 14  1  0  0  0  0
 13 19  1  0  0  0  0
 14 18  1  0  0  0  0
 14 15  1  0  0  0  0
 14 39  1  0  0  0  0
 15 16  1  0  0  0  0
 15 40  1  0  0  0  0
 15 41  1  0  0  0  0
 16 17  1  0  0  0  0
 16 42  1  0  0  0  0
 16 43  1  0  0  0  0
 17 18  1  0  0  0  0
 17 44  1  0  0  0  0
 17 45  1  0  0  0  0
 19 20  2  0  0  0  0
 21 30  1  0  0  0  0
 21 22  2  0  0  0  0
 22 23  1  0  0  0  0
 22 46  1  0  0  0  0
 23 24  2  0  0  0  0
 23 47  1  0  0  0  0
 24 29  1  0  0  0  0
 24 25  1  0  0  0  0
 25 26  2  0  0  0  0
 25 48  1  0  0  0  0
 26 27  1  0  0  0  0
 26 49  1  0  0  0  0
 27 28  2  0  0  0  0
 27 50  1  0  0  0  0
 28 29  1  0  0  0  0
 28 51  1  0  0  0  0
 29 30  2  0  0  0  0
 30 52  1  0  0  0  0
M  END
> <s_m_source_file>
AV-unprocessed.smi

> <i_m_source_file_index>
142

> <i_lp_mmshare_version>
43012

> <i_f3d_flags>
0

> <s_epik_input>
W2NIXTFbY0hdW2NIXVtjSF1jKGMxMilbY0hdYyhbY0hdW2NIXTIpW0NASF0oW0NIM10pW05IXUMoPU8pW0NIMl1uM2MoPU8pYyhGKVtjSF1uKGMzPU8pW0NAQEhdNFtDSDJdW0NIMl1bQ0gyXU80

> <s_epik_cmdline>
J2VwaWtfcHl0aG9uJywgJy1waCcsICc3LjAnLCAnLXRuJywgJzgnLCAnLW1hJywgJzIwMCcsICctbWV0YWxfYmluZGluZycsICctaW1hZScsICc8aW5maWxlLm1hZT4nLCAnLW9tYWUnLCAnPG91dGZpbGUubWFlPic=

> <r_lp_tautomer_probability>
1

> <r_epik_Ionization_Penalty>
3.35688e-08

> <r_epik_Ionization_Penalty_Charging>
3.59856e-09

> <r_epik_Ionization_Penalty_Neutral>
2.99702e-08

> <r_epik_State_Penalty>
-0

> <r_epik_Charging_Adjusted_Penalty>
3.59856e-09

> <i_epik_Tot_Q>
0

> <i_epik_Tot_abs_Q>
0

> <r_epik_Metal_State_Penalty>
-0

> <b_epik_Metal_Only>
0

> <s_epik_Chemistry_Notes>
This compound contains an acetal/aminal-like group ( X-CH(R)-Y where X, Y are N, S, or O) that may be acid/base labile, releasing an aldehyde.

> <s_lp_Force_Field>
OPLS_2005

> <r_lp_Energy>
25.6775

> <b_lp_Chiralities_Consistent>
1

> <s_lp_Variant>
AV-unprocessed.smi:142-3

> <Gold.Version>
5.8.1

> <Gold.Id.Protein>
6NUR|6NUR_protein|mol2

> <Gold.PLP.Fitness>
60.7342

> <Gold.PLP.PLP>
-57.2126

> <Gold.PLP.part.hbond>
-1.9582

> <Gold.PLP.part.metal>
0.0000

> <Gold.PLP.part.buried>
-4.5137

> <Gold.PLP.part.nonpolar>
-52.8373

> <Gold.PLP.part.repulsive>
1.9894

> <Gold.PLP.ligand.clash>
0.0000

> <Gold.PLP.ligand.torsion>
0.6793

> <Gold.PLP.Chemscore.Hbond>
1.6000

> <Gold.PLP.Chemscore.CHOScore>
0.0000

> <Gold.PLP.Chemscore.Metal>
0.0000

> <Gold.Chemscore.Hbonds>
donor molecule, donor type, donor heavy atom, donor atom, acceptor molecule, acceptor atom, score
      P1  H 10752 10764       L1     5  0.86

> <Gold.PLP.Chemscore.Internal.Correction>
0.0802

> <Gold.Rescore>
     Score         DG    S(hbond)    S(metal)    S(lipo)     H(rot)  DE(clash)    DE(int)     intcor
     19.93     -21.80       1.93        0.00     128.52       2.02       0.99       0.88       ----

> <Gold.Chemscore.Fitness>
19.9289

> <Gold.Chemscore.DG>
-21.7950

> <Gold.Chemscore.ZeroCoef>
-5.4800

> <Gold.Chemscore.Hbond>
1.9291

> <Gold.Chemscore.Metal>
0.0000

> <Gold.Chemscore.Lipo>
128.5191

> <Gold.Chemscore.Internal_Hbond>
0.0000

> <Gold.Chemscore.DEClash>
0.9906

> <Gold.Chemscore.DEInternal>
0.8756

> <Gold.Chemscore.Rot>
2.0175

> <Gold.Chemscore.Internal.Correction>
   9.000000E+99

> <Gold.Chemscore.Hbonds>
donor molecule, donor type, donor heavy atom, donor atom, acceptor molecule, acceptor atom, score
      P1  H 10752 10764       L1     5  0.82

> <Gold.Chemscore.Hbond.Weighted>
-6.4431

> <Gold.Chemscore.Metal.Weighted>
-0.0000

> <Gold.Chemscore.Lipo.Weighted>
-15.0367

> <Gold.Chemscore.Internal_Hbond.Weighted>
0.0000

> <Gold.Chemscore.DEClash.Weighted>
0.9906

> <Gold.Chemscore.DEInternal.Weighted>
0.8756

> <Gold.Chemscore.Rot.Weighted>
5.1648

> <Gold.Chemscore.Internal.Correction.Weighted>
   9.000000E+99

> <Gold.Protein.RotatedTorsions>
[ 6907 6896 6895 6894 ] final   95.81 input  -60.11 | X-H torsion
[ 7974 7965 7964 7962 ] final   51.50 input  175.53 | X-H torsion
[ 8008 7997 7996 7995 ] final   79.64 input   59.86 | X-H torsion
[ 10167 10162 10161 10158 ] final   73.73 input  -65.29 | X-H torsion
[ 10718 10713 10712 10709 ] final  143.90 input   66.30 | X-H torsion
[ 10763 10752 10751 10750 ] final  -66.66 input  -60.55 | X-H torsion
[ 11005 11000 10999 10996 ] final  -77.63 input  -57.11 | X-H torsion

> <Gold.Protein.ActiveResidues>
 VAL166  LYS551  ARG553  GLY616  TRP617  ASP618  TYR619  PRO620  LYS621  CYS622 
 ASP623  PHE694  ASN695  SER759  ASP760  ASP761  ALA762  ILE779  LEU786  VAL792 
 PHE793  MET794  SER795  GLU796  ALA797  LYS798  CYS799  TRP800  GLU811  SER814 

> <Gold.Protein.RotatedAtoms>
  152.5440  134.0983  159.8306 H   0  0  0  0  0  0  0  0  0  0  0  0  # atno 6907 bound_to 6896
  151.1064  133.5198  159.2615 H   0  0  0  0  0  0  0  0  0  0  0  0  # atno 6908 bound_to 6896
  151.1933  135.0421  159.8896 H   0  0  0  0  0  0  0  0  0  0  0  0  # atno 6909 bound_to 6896
  145.9907  139.4336  143.0075 H   0  0  0  0  0  0  0  0  0  0  0  0  # atno 7974 bound_to 7965
  155.8725  140.3448  155.5831 H   0  0  0  0  0  0  0  0  0  0  0  0  # atno 8008 bound_to 7997
  155.7811  140.0858  157.2078 H   0  0  0  0  0  0  0  0  0  0  0  0  # atno 8009 bound_to 7997
  154.4018  140.1500  156.3041 H   0  0  0  0  0  0  0  0  0  0  0  0  # atno 8010 bound_to 7997
  140.0214  144.5538  150.7579 H   0  0  0  0  0  0  0  0  0  0  0  0  # atno 10167 bound_to 10162
  157.3635  131.0968  151.0894 H   0  0  0  0  0  0  0  0  0  0  0  0  # atno 10718 bound_to 10713
  154.3631  135.6111  153.5701 H   0  0  0  0  0  0  0  0  0  0  0  0  # atno 10763 bound_to 10752
  152.9793  135.5820  154.4610 H   0  0  0  0  0  0  0  0  0  0  0  0  # atno 10764 bound_to 10752
  154.4351  135.2849  155.1863 H   0  0  0  0  0  0  0  0  0  0  0  0  # atno 10765 bound_to 10752
  141.1661  133.7030  156.7849 H   0  0  0  0  0  0  0  0  0  0  0  0  # atno 11005 bound_to 11000
  145.7635  140.9926  143.1187 LP  0  0  0  0  0  0  0  0  0  0  0  0  # atno 17320 bound_to 7965
  144.6888  139.9359  143.7473 LP  0  0  0  0  0  0  0  0  0  0  0  0  # atno 17321 bound_to 7965
  140.7341  143.2725  151.3845 LP  0  0  0  0  0  0  0  0  0  0  0  0  # atno 17342 bound_to 10162
  139.6137  144.1045  152.2325 LP  0  0  0  0  0  0  0  0  0  0  0  0  # atno 17343 bound_to 10162
  157.2025  130.6401  149.5743 LP  0  0  0  0  0  0  0  0  0  0  0  0  # atno 17370 bound_to 10713
  155.9742  130.4686  150.6367 LP  0  0  0  0  0  0  0  0  0  0  0  0  # atno 17371 bound_to 10713
  140.2367  134.8644  157.3532 LP  0  0  0  0  0  0  0  0  0  0  0  0  # atno 17394 bound_to 11000
  140.1836  134.4459  155.7757 LP  0  0  0  0  0  0  0  0  0  0  0  0  # atno 17395 bound_to 11000

$$$$
