AV-unprocessed.smi:1341|AV-procd|sdf|5506|dock8
  -GOLD-   22720 5 93D 1   1.00000     0.00000
 Structure written by MMmdl.
 33 34  0  0  0  0  0  0  0  0  2 V2000
  151.9681  145.2237  158.9730 C   0  0  0  0  0  0  0  0  0  0  0  0
  152.3562  143.9612  158.7271 C   0  0  0  0  0  0  0  0  0  0  0  0
  152.3010  142.8167  159.7195 C   0  0  0  0  0  0  0  0  0  0  0  0
  153.6023  142.2406  160.0421 N   0  5  0  0  0  0  0  0  0  0  0  0
  153.7913  141.1299  160.8138 C   0  0  0  0  0  0  0  0  0  0  0  0
  154.4084  141.0146  161.8785 O   0  0  0  0  0  0  0  0  0  0  0  0
  153.1240  139.9042  160.2328 C   0  0  0  0  0  0  0  0  0  0  0  0
  152.2395  140.0887  159.2199 N   0  0  0  0  0  0  0  0  0  0  0  0
  151.6148  139.0270  158.7010 C   0  0  0  0  0  0  0  0  0  0  0  0
  150.7044  139.2550  157.6611 N   0  0  0  0  0  0  0  0  0  0  0  0
  150.3365  140.6086  157.2497 C   0  0  0  0  0  0  0  0  0  0  0  0
  151.2319  141.0483  156.0766 C   0  0  0  0  0  0  0  0  0  0  0  0
  151.1020  140.1191  155.0018 O   0  0  0  0  0  0  0  0  0  0  0  0
  151.4632  138.7910  155.3773 C   0  0  0  0  0  0  0  0  0  0  0  0
  150.5667  138.3269  156.5394 C   0  0  0  0  0  0  0  0  0  0  0  0
  151.7908  137.7635  159.1037 N   0  0  0  0  0  0  0  0  0  0  0  0
  152.6672  137.5466  160.1056 C   0  0  0  0  0  0  0  0  0  0  0  0
  153.3775  138.5945  160.7223 C   0  0  0  0  0  0  0  0  0  0  0  0
  154.5101  138.2283  161.9794 Cl  0  0  0  0  0  0  0  0  0  0  0  0
  151.5716  145.5318  159.9308 H   0  0  0  0  0  0  0  0  0  0  0  0
  152.0434  145.9768  158.2029 H   0  0  0  0  0  0  0  0  0  0  0  0
  152.7423  143.7156  157.7486 H   0  0  0  0  0  0  0  0  0  0  0  0
  151.8267  143.2105  160.6184 H   0  0  0  0  0  0  0  0  0  0  0  0
  151.5978  142.0746  159.3379 H   0  0  0  0  0  0  0  0  0  0  0  0
  149.2929  140.6040  156.9337 H   0  0  0  0  0  0  0  0  0  0  0  0
  150.3983  141.3274  158.0661 H   0  0  0  0  0  0  0  0  0  0  0  0
  150.9362  142.0373  155.7268 H   0  0  0  0  0  0  0  0  0  0  0  0
  152.2754  141.1176  156.3881 H   0  0  0  0  0  0  0  0  0  0  0  0
  151.3374  138.1330  154.5176 H   0  0  0  0  0  0  0  0  0  0  0  0
  152.5169  138.7532  155.6588 H   0  0  0  0  0  0  0  0  0  0  0  0
  150.7970  137.2984  156.8179 H   0  0  0  0  0  0  0  0  0  0  0  0
  149.5245  138.3202  156.2187 H   0  0  0  0  0  0  0  0  0  0  0  0
  152.8071  136.5216  160.4156 H   0  0  0  0  0  0  0  0  0  0  0  0
  1  2  2  0  0  0  0
  1 20  1  0  0  0  0
  1 21  1  0  0  0  0
  2  3  1  0  0  0  0
  2 22  1  0  0  0  0
  3  4  1  0  0  0  0
  3 23  1  0  0  0  0
  3 24  1  0  0  0  0
  4  5  1  0  0  0  0
  5  6  2  0  0  0  0
  5  7  1  0  0  0  0
  7 18  1  0  0  0  0
  7  8  2  0  0  0  0
  8  9  1  0  0  0  0
  9 10  1  0  0  0  0
  9 16  2  0  0  0  0
 10 15  1  0  0  0  0
 10 11  1  0  0  0  0
 11 12  1  0  0  0  0
 11 25  1  0  0  0  0
 11 26  1  0  0  0  0
 12 13  1  0  0  0  0
 12 27  1  0  0  0  0
 12 28  1  0  0  0  0
 13 14  1  0  0  0  0
 14 15  1  0  0  0  0
 14 29  1  0  0  0  0
 14 30  1  0  0  0  0
 15 31  1  0  0  0  0
 15 32  1  0  0  0  0
 16 17  1  0  0  0  0
 17 18  2  0  0  0  0
 17 33  1  0  0  0  0
 18 19  1  0  0  0  0
M  CHG  1   4  -1
M  END
> <s_m_source_file>
AV-unprocessed.smi

> <i_m_source_file_index>
1341

> <i_lp_mmshare_version>
43012

> <i_f3d_flags>
0

> <s_epik_input>
W0NIMl09W0NIXVtDSDJdW05IXUMoPU8pYzFuYyhuW2NIXWMxQ2wpTjJbQ0gyXVtDSDJdT1tDSDJdW0NIMl0y

> <s_epik_cmdline>
J2VwaWtfcHl0aG9uJywgJy1waCcsICc3LjAnLCAnLXRuJywgJzgnLCAnLW1hJywgJzIwMCcsICctbWV0YWxfYmluZGluZycsICctaW1hZScsICc8aW5maWxlLm1hZT4nLCAnLW9tYWUnLCAnPG91dGZpbGUubWFlPic=

> <r_lp_tautomer_probability>
1

> <r_epik_Ionization_Penalty>
5.99598

> <r_epik_Ionization_Penalty_Charging>
5.99596

> <r_epik_Ionization_Penalty_Neutral>
2.0749e-05

> <r_epik_State_Penalty>
5.99593

> <r_epik_Charging_Adjusted_Penalty>
11.9919

> <i_epik_Tot_Q>
-1

> <i_epik_Tot_abs_Q>
1

> <r_epik_Metal_State_Penalty>
1.94906

> <b_epik_Metal_Only>
1

> <s_lp_Force_Field>
OPLS_2005

> <r_lp_Energy>
16.4854

> <b_lp_Chiralities_Consistent>
1

> <s_lp_Variant>
AV-unprocessed.smi:1341-2

> <Gold.Version>
5.8.1

> <Gold.Id.Protein>
6NUR|6NUR_protein|mol2

> <Gold.PLP.Fitness>
38.6651

> <Gold.PLP.PLP>
-37.2998

> <Gold.PLP.part.hbond>
-2.0000

> <Gold.PLP.part.metal>
0.0000

> <Gold.PLP.part.buried>
-6.3765

> <Gold.PLP.part.nonpolar>
-28.5120

> <Gold.PLP.part.repulsive>
0.0488

> <Gold.PLP.ligand.clash>
0.0000

> <Gold.PLP.ligand.torsion>
0.9392

> <Gold.PLP.Chemscore.Hbond>
1.0000

> <Gold.PLP.Chemscore.CHOScore>
0.0000

> <Gold.PLP.Chemscore.Metal>
0.0000

> <Gold.Chemscore.Hbonds>
donor molecule, donor type, donor heavy atom, donor atom, acceptor molecule, acceptor atom, score
      P1  H  7989  7998       L1    13  1.00

> <Gold.PLP.Chemscore.Internal.Correction>
0.2438

> <Gold.Rescore>
     Score         DG    S(hbond)    S(metal)    S(lipo)     H(rot)  DE(clash)    DE(int)     intcor
     11.76     -15.81       0.88        0.00      88.47       1.15       0.25       3.79       ----

> <Gold.Chemscore.Fitness>
11.7648

> <Gold.Chemscore.DG>
-15.8060

> <Gold.Chemscore.ZeroCoef>
-5.4800

> <Gold.Chemscore.Hbond>
0.8751

> <Gold.Chemscore.Metal>
0.0000

> <Gold.Chemscore.Lipo>
88.4684

> <Gold.Chemscore.Internal_Hbond>
0.0000

> <Gold.Chemscore.DEClash>
0.2544

> <Gold.Chemscore.DEInternal>
3.7868

> <Gold.Chemscore.Rot>
1.1514

> <Gold.Chemscore.Internal.Correction>
   9.000000E+99

> <Gold.Chemscore.Hbonds>
donor molecule, donor type, donor heavy atom, donor atom, acceptor molecule, acceptor atom, score
      P1  H  7989  7998       L1    13  0.69

> <Gold.Chemscore.Hbond.Weighted>
-2.9228

> <Gold.Chemscore.Metal.Weighted>
-0.0000

> <Gold.Chemscore.Lipo.Weighted>
-10.3508

> <Gold.Chemscore.Internal_Hbond.Weighted>
0.0000

> <Gold.Chemscore.DEClash.Weighted>
0.2544

> <Gold.Chemscore.DEInternal.Weighted>
3.7868

> <Gold.Chemscore.Rot.Weighted>
2.9477

> <Gold.Chemscore.Internal.Correction.Weighted>
   9.000000E+99

> <Gold.Protein.RotatedTorsions>
[ 6907 6896 6895 6894 ] final  102.30 input  -60.11 | X-H torsion
[ 7974 7965 7964 7962 ] final  173.36 input  175.53 | X-H torsion
[ 8008 7997 7996 7995 ] final   33.26 input   59.86 | X-H torsion
[ 10167 10162 10161 10158 ] final  -26.84 input  -65.29 | X-H torsion
[ 10718 10713 10712 10709 ] final   41.19 input   66.30 | X-H torsion
[ 10763 10752 10751 10750 ] final  -13.88 input  -60.55 | X-H torsion
[ 11005 11000 10999 10996 ] final  -38.47 input  -57.11 | X-H torsion

> <Gold.Protein.ActiveResidues>
 VAL166  LYS551  ARG553  GLY616  TRP617  ASP618  TYR619  PRO620  LYS621  CYS622 
 ASP623  PHE694  ASN695  SER759  ASP760  ASP761  ALA762  ILE779  LEU786  VAL792 
 PHE793  MET794  SER795  GLU796  ALA797  LYS798  CYS799  TRP800  GLU811  SER814 

> <Gold.Protein.RotatedAtoms>
  152.5327  133.9996  159.7888 H   0  0  0  0  0  0  0  0  0  0  0  0  # atno 6907 bound_to 6896
  151.0217  133.5862  159.2677 H   0  0  0  0  0  0  0  0  0  0  0  0  # atno 6908 bound_to 6896
  151.2899  135.0746  159.9254 H   0  0  0  0  0  0  0  0  0  0  0  0  # atno 6909 bound_to 6896
  144.7245  139.9637  143.6435 H   0  0  0  0  0  0  0  0  0  0  0  0  # atno 7974 bound_to 7965
  155.1358  140.3261  155.4463 H   0  0  0  0  0  0  0  0  0  0  0  0  # atno 8008 bound_to 7997
  156.2620  140.2002  156.6425 H   0  0  0  0  0  0  0  0  0  0  0  0  # atno 8009 bound_to 7997
  154.6579  140.0550  157.0016 H   0  0  0  0  0  0  0  0  0  0  0  0  # atno 8010 bound_to 7997
  140.7281  143.4144  151.1052 H   0  0  0  0  0  0  0  0  0  0  0  0  # atno 10167 bound_to 10162
  157.3908  130.7805  149.7267 H   0  0  0  0  0  0  0  0  0  0  0  0  # atno 10718 bound_to 10713
  153.5199  135.7016  153.5736 H   0  0  0  0  0  0  0  0  0  0  0  0  # atno 10763 bound_to 10752
  153.3790  135.3925  155.1843 H   0  0  0  0  0  0  0  0  0  0  0  0  # atno 10764 bound_to 10752
  154.8695  135.3830  154.4687 H   0  0  0  0  0  0  0  0  0  0  0  0  # atno 10765 bound_to 10752
  141.0030  133.6946  156.2057 H   0  0  0  0  0  0  0  0  0  0  0  0  # atno 11005 bound_to 11000
  146.0617  139.3611  143.0577 LP  0  0  0  0  0  0  0  0  0  0  0  0  # atno 17320 bound_to 7965
  145.8083  140.9738  143.0962 LP  0  0  0  0  0  0  0  0  0  0  0  0  # atno 17321 bound_to 7965
  139.7782  143.8394  152.3133 LP  0  0  0  0  0  0  0  0  0  0  0  0  # atno 17342 bound_to 10162
  139.8336  144.7242  150.9419 LP  0  0  0  0  0  0  0  0  0  0  0  0  # atno 17343 bound_to 10162
  155.9798  130.4036  150.3567 LP  0  0  0  0  0  0  0  0  0  0  0  0  # atno 17370 bound_to 10713
  157.1683  131.0362  151.2808 LP  0  0  0  0  0  0  0  0  0  0  0  0  # atno 17371 bound_to 10713
  140.6859  134.4718  157.5589 LP  0  0  0  0  0  0  0  0  0  0  0  0  # atno 17394 bound_to 11000
  139.9048  134.8473  156.1749 LP  0  0  0  0  0  0  0  0  0  0  0  0  # atno 17395 bound_to 11000

$$$$
