#       Name:                AV-unprocessed.smi:3150
#       Creating user name   scv26
#       Creation time:       Fri Mar 27 17:42:04 2020


#       File generated by GOLD software.
#

@<TRIPOS>MOLECULE
AV-unprocessed.smi:3150
    37    38     1
SMALL
NO_CHARGES


@<TRIPOS>ATOM
      1 ****         0.3749   2.2351   1.9030 C.3            1 S1                 0.0000
      2 ****         0.5800   0.8603   1.2526 C.3            1 S1                 0.0000
      3 ****         1.8251   0.8890   0.5599 O.3            1 S1                 0.0000
      4 ****         2.3258  -0.3846   0.1642 C.3            1 S1                 0.0000
      5 ****         3.6698  -0.2539  -0.5284 C.3            1 S1                 0.0000
      6 ****         4.6638   0.8118  -0.1147 C.3            1 S1                 0.0000
      7 ****         3.9624   0.9186  -1.4416 C.3            1 S1                 0.0000
      8 ****        -0.5680   0.5414   0.2806 C.2            1 S1                 0.0000
      9 ****        -0.5821   1.1019  -0.8190 O.2            1 S1                 0.0000
     10 ****        -1.4628  -0.3807   0.8170 N.2            1 S1                 0.0000
     11 ****        -2.5107  -0.8251   0.1782 C.2            1 S1                 0.0000
     12 ****        -2.8500  -0.4209  -1.1249 N.pl3          1 S1                 0.0000
     13 ****        -3.9580  -0.8944  -1.7950 C.2            1 S1                 0.0000
     14 ****        -4.7861  -1.7784  -1.2365 C.2            1 S1                 0.0000
     15 ****        -4.5075  -2.2472   0.1054 C.2            1 S1                 0.0000
     16 ****        -3.3984  -1.8022   0.8343 C.2            1 S1                 0.0000
     17 ****        -3.1961  -2.2356   1.9924 O.co2          1 S1                -1.0000
     18 ****        -0.5604   2.2724   2.4628 H              1 S1                 0.0000
     19 ****         0.3529   3.0313   1.1578 H              1 S1                 0.0000
     20 ****         1.1839   2.4568   2.5993 H              1 S1                 0.0000
     21 ****         0.6295   0.1093   2.0441 H              1 S1                 0.0000
     22 ****         2.4461  -1.0248   1.0388 H              1 S1                 0.0000
     23 ****         1.6373  -0.8851  -0.5171 H              1 S1                 0.0000
     24 ****         4.0962  -1.2079  -0.8321 H              1 S1                 0.0000
     25 ****         4.3712   1.5114   0.6657 H              1 S1                 0.0000
     26 ****         5.7179   0.5430  -0.1248 H              1 S1                 0.0000
     27 ****         4.5493   0.7221  -2.3364 H              1 S1                 0.0000
     28 ****         3.1998   1.6878  -1.5466 H              1 S1                 0.0000
     29 ****        -4.0924  -0.4942  -2.7889 H              1 S1                 0.0000
     30 ****        -5.6499  -2.1385  -1.7752 H              1 S1                 0.0000
     31 ****        -5.1849  -2.9636   0.5475 H              1 S1                 0.0000
     32 ****        -2.2786   0.2455  -1.6229 H              1 S1                 0.0000
     33 ****         2.5029   1.3160   1.1585 LP             1 S1                 0.0000
     34 ****         1.7092   1.4456  -0.2628 LP             1 S1                 0.0000
     35 ****         0.1427   1.7471  -1.0606 LP             1 S1                 0.0000
     36 ****        -1.3183   0.9108  -1.4682 LP             1 S1                 0.0000
     37 ****        -1.2934  -0.7210   1.7420 LP             1 S1                 0.0000
@<TRIPOS>BOND
    1    1    2 1     
    2    1   18 1     
    3    1   19 1     
    4    1   20 1     
    5    2    3 1     
    6    2    8 1     
    7    2   21 1     
    8    3    4 1     
    9    4    5 1     
   10    4   22 1     
   11    4   23 1     
   12    5    7 1     
   13    5    6 1     
   14    5   24 1     
   15    6    7 1     
   16    6   25 1     
   17    6   26 1     
   18    7   27 1     
   19    7   28 1     
   20    8    9 2     
   21    8   10 1     
   22   10   11 2     
   23   11   16 1     
   24   11   12 1     
   25   12   32 1     
   26   12   13 1     
   27   13   29 1     
   28   13   14 2     
   29   14   30 1     
   30   14   15 1     
   31   15   16 2     
   32   15   31 1     
   33   16   17 ar    
   34    3   33 1     
   35    3   34 1     
   36    9   35 1     
   37    9   36 1     
   38   10   37 1     
@<TRIPOS>SUBSTRUCTURE
      1 S1             1
@<TRIPOS>SET
LONE_PAIRS      STATIC     ATOMS    <user>   **** ""
6 33 34 35 36 37 17
DONOR_HYDROGENS      STATIC     ATOMS    <user>   **** ""
1 32
ATOM$BLUE        STATIC     ATOMS    COLORGROUP SYSTEM
6 33 34 35 36 37 17
ATOM$RED        STATIC     ATOMS    COLORGROUP SYSTEM
1 32
