AV-unprocessed.smi:1036|AV-procd|sdf|4517|dock8
  -GOLD-   22720 2533D 1   1.00000     0.00000
 Structure written by MMmdl.
 42 44  0  0  0  0  0  0  0  0  2 V2000
  146.5614  136.4933  152.9565 O   0  0  0  0  0  0  0  0  0  0  0  0
  145.6659  137.3131  152.2365 C   0  0  0  0  0  0  0  0  0  0  0  0
  146.4228  138.4928  151.6132 C   0  0  0  0  0  0  0  0  0  0  0  0
  146.6472  139.5574  152.5781 N   0  0  0  0  0  0  0  0  0  0  0  0
  147.8365  139.5679  153.3140 C   0  0  0  0  0  0  0  0  0  0  0  0
  148.7601  138.5704  153.3533 N   0  3  0  0  0  0  0  0  0  0  0  0
  149.8022  138.9688  154.1956 C   0  0  0  0  0  0  0  0  0  0  0  0
  150.9750  138.3154  154.5613 C   0  0  0  0  0  0  0  0  0  0  0  0
  151.8356  139.0033  155.4419 C   0  0  0  0  0  0  0  0  0  0  0  0
  151.5183  140.2893  155.9259 C   0  0  0  0  0  0  0  0  0  0  0  0
  150.3266  140.9442  155.5516 C   0  0  0  0  0  0  0  0  0  0  0  0
  149.4801  140.2593  154.6805 C   0  0  0  0  0  0  0  0  0  0  0  0
  148.2463  140.5913  154.1076 N   0  0  0  0  0  0  0  0  0  0  0  0
  147.6277  141.8897  154.4133 C   0  0  0  0  0  0  0  0  0  0  0  0
  146.8398  141.8794  155.7377 C   0  0  1  0  0  0  0  0  0  0  0  0
  147.7116  142.1787  156.8120 O   0  0  0  0  0  0  0  0  0  0  0  0
  145.6427  142.8177  155.6692 C   0  0  0  0  0  0  0  0  0  0  0  0
  145.4443  143.6523  154.5460 C   0  0  0  0  0  0  0  0  0  0  0  0
  144.3285  144.5093  154.4839 C   0  0  0  0  0  0  0  0  0  0  0  0
  144.1466  145.3064  153.4045 F   0  0  0  0  0  0  0  0  0  0  0  0
  143.4010  144.5360  155.5421 C   0  0  0  0  0  0  0  0  0  0  0  0
  143.5875  143.7016  156.6604 C   0  0  0  0  0  0  0  0  0  0  0  0
  144.7023  142.8428  156.7242 C   0  0  0  0  0  0  0  0  0  0  0  0
  144.8611  142.0380  157.8027 F   0  0  0  0  0  0  0  0  0  0  0  0
  147.3443  136.3764  152.4400 H   0  0  0  0  0  0  0  0  0  0  0  0
  145.1305  136.7312  151.4851 H   0  0  0  0  0  0  0  0  0  0  0  0
  144.9234  137.6864  152.9426 H   0  0  0  0  0  0  0  0  0  0  0  0
  147.3993  138.1461  151.2731 H   0  0  0  0  0  0  0  0  0  0  0  0
  145.8963  138.8724  150.7362 H   0  0  0  0  0  0  0  0  0  0  0  0
  146.0622  140.3805  152.5507 H   0  0  0  0  0  0  0  0  0  0  0  0
  151.2220  137.3307  154.1921 H   0  0  0  0  0  0  0  0  0  0  0  0
  152.7586  138.5350  155.7519 H   0  0  0  0  0  0  0  0  0  0  0  0
  152.2034  140.7845  156.5987 H   0  0  0  0  0  0  0  0  0  0  0  0
  150.0937  141.9298  155.9271 H   0  0  0  0  0  0  0  0  0  0  0  0
  148.4206  142.6380  154.4477 H   0  0  0  0  0  0  0  0  0  0  0  0
  146.9828  142.1659  153.5782 H   0  0  0  0  0  0  0  0  0  0  0  0
  146.4708  140.8703  155.9233 H   0  0  0  0  0  0  0  0  0  0  0  0
  148.0090  143.0709  156.7182 H   0  0  0  0  0  0  0  0  0  0  0  0
  146.1443  143.6372  153.7235 H   0  0  0  0  0  0  0  0  0  0  0  0
  142.5450  145.1928  155.4944 H   0  0  0  0  0  0  0  0  0  0  0  0
  142.8725  143.7180  157.4695 H   0  0  0  0  0  0  0  0  0  0  0  0
  148.6852  137.6984  152.8458 H   0  0  0  0  0  0  0  0  0  0  0  0
  1  2  1  0  0  0  0
  1 25  1  0  0  0  0
  2  3  1  0  0  0  0
  2 26  1  0  0  0  0
  2 27  1  0  0  0  0
  3  4  1  0  0  0  0
  3 28  1  0  0  0  0
  3 29  1  0  0  0  0
  4  5  1  0  0  0  0
  4 30  1  0  0  0  0
  5 13  1  0  0  0  0
  5  6  2  0  0  0  0
  6  7  1  0  0  0  0
  6 42  1  0  0  0  0
  7 12  2  0  0  0  0
  7  8  1  0  0  0  0
  8  9  2  0  0  0  0
  8 31  1  0  0  0  0
  9 10  1  0  0  0  0
  9 32  1  0  0  0  0
 10 11  2  0  0  0  0
 10 33  1  0  0  0  0
 11 12  1  0  0  0  0
 11 34  1  0  0  0  0
 12 13  1  0  0  0  0
 13 14  1  0  0  0  0
 14 15  1  0  0  0  0
 14 35  1  0  0  0  0
 14 36  1  0  0  0  0
 15 16  1  0  0  0  0
 15 17  1  0  0  0  0
 15 37  1  0  0  0  0
 16 38  1  0  0  0  0
 17 23  1  0  0  0  0
 17 18  2  0  0  0  0
 18 19  1  0  0  0  0
 18 39  1  0  0  0  0
 19 20  1  0  0  0  0
 19 21  2  0  0  0  0
 21 22  1  0  0  0  0
 21 40  1  0  0  0  0
 22 23  2  0  0  0  0
 22 41  1  0  0  0  0
 23 24  1  0  0  0  0
M  CHG  1   6   1
M  END
> <s_m_source_file>
AV-unprocessed.smi

> <i_m_source_file_index>
1036

> <i_lp_mmshare_version>
43012

> <i_f3d_flags>
0

> <s_epik_input>
W09IXVtDSDJdW0NIMl1bTkhdYyhuMSluKGMoYzEyKVtjSF1bY0hdW2NIXVtjSF0yKVtDSDJdW0NASF0oW09IXSljM1tjSF1jKEYpW2NIXVtjSF1jM0Y=

> <s_epik_cmdline>
J2VwaWtfcHl0aG9uJywgJy1waCcsICc3LjAnLCAnLXRuJywgJzgnLCAnLW1hJywgJzIwMCcsICctbWV0YWxfYmluZGluZycsICctaW1hZScsICc8aW5maWxlLm1hZT4nLCAnLW9tYWUnLCAnPG91dGZpbGUubWFlPic=

> <r_epik_Ionization_Penalty>
0.0688114

> <r_epik_Ionization_Penalty_Charging>
0.0688055

> <r_epik_Ionization_Penalty_Neutral>
5.85933e-06

> <r_epik_State_Penalty>
0.0602293

> <r_epik_Charging_Adjusted_Penalty>
0.129035

> <i_epik_Tot_Q>
1

> <i_epik_Tot_abs_Q>
1

> <r_epik_Metal_State_Penalty>
2.77411

> <b_epik_Metal_Only>
0

> <s_lp_Force_Field>
OPLS_2005

> <r_lp_Energy>
24.5331

> <b_lp_Chiralities_Consistent>
1

> <s_lp_Variant>
AV-unprocessed.smi:1036-2

> <Gold.Version>
5.8.1

> <Gold.Id.Protein>
6NUR|6NUR_protein|mol2

> <Gold.PLP.Fitness>
57.7409

> <Gold.PLP.PLP>
-47.7845

> <Gold.PLP.part.hbond>
-4.9533

> <Gold.PLP.part.metal>
0.0000

> <Gold.PLP.part.buried>
-0.8324

> <Gold.PLP.part.nonpolar>
-43.7654

> <Gold.PLP.part.repulsive>
0.0994

> <Gold.PLP.ligand.clash>
0.0000

> <Gold.PLP.ligand.torsion>
1.0356

> <Gold.PLP.Chemscore.Hbond>
4.0000

> <Gold.PLP.Chemscore.CHOScore>
0.0000

> <Gold.PLP.Chemscore.Metal>
0.0000

> <Gold.Chemscore.Hbonds>
donor molecule, donor type, donor heavy atom, donor atom, acceptor molecule, acceptor atom, score
      L1  H     1    25       P1  7948  1.00
      L1  H     4    30       P1 10175  0.16
      L1  H     6    42       P1  7948  2.00
      L1  H    16    38       P1  8028  0.69

> <Gold.PLP.Chemscore.Internal.Correction>
0.0277

> <Gold.Rescore>
     Score         DG    S(hbond)    S(metal)    S(lipo)     H(rot)  DE(clash)    DE(int)     intcor
     12.93     -16.79       2.60        0.00      94.24       3.29       1.60       2.26       ----

> <Gold.Chemscore.Fitness>
12.9303

> <Gold.Chemscore.DG>
-16.7881

> <Gold.Chemscore.ZeroCoef>
-5.4800

> <Gold.Chemscore.Hbond>
2.6042

> <Gold.Chemscore.Metal>
0.0000

> <Gold.Chemscore.Lipo>
94.2377

> <Gold.Chemscore.Internal_Hbond>
0.0000

> <Gold.Chemscore.DEClash>
1.5981

> <Gold.Chemscore.DEInternal>
2.2597

> <Gold.Chemscore.Rot>
3.2874

> <Gold.Chemscore.Internal.Correction>
   9.000000E+99

> <Gold.Chemscore.Hbonds>
donor molecule, donor type, donor heavy atom, donor atom, acceptor molecule, acceptor atom, score
      L1  H     1    25       P1  7948  1.00
      L1  H     4    30       P1 10175  0.06
      L1  H     6    42       P1  7948  1.00
      L1  H    16    38       P1  8028  0.13

> <Gold.Chemscore.Hbond.Weighted>
-8.6980

> <Gold.Chemscore.Metal.Weighted>
-0.0000

> <Gold.Chemscore.Lipo.Weighted>
-11.0258

> <Gold.Chemscore.Internal_Hbond.Weighted>
0.0000

> <Gold.Chemscore.DEClash.Weighted>
1.5981

> <Gold.Chemscore.DEInternal.Weighted>
2.2597

> <Gold.Chemscore.Rot.Weighted>
8.4158

> <Gold.Chemscore.Internal.Correction.Weighted>
   9.000000E+99

> <Gold.Protein.RotatedTorsions>
[ 6907 6896 6895 6894 ] final  101.70 input  -60.11 | X-H torsion
[ 7974 7965 7964 7962 ] final  -70.81 input  175.53 | X-H torsion
[ 8008 7997 7996 7995 ] final   94.97 input   59.86 | X-H torsion
[ 10167 10162 10161 10158 ] final -110.17 input  -65.29 | X-H torsion
[ 10718 10713 10712 10709 ] final  -73.31 input   66.30 | X-H torsion
[ 10763 10752 10751 10750 ] final   93.91 input  -60.55 | X-H torsion
[ 11005 11000 10999 10996 ] final  129.96 input  -57.11 | X-H torsion

> <Gold.Protein.ActiveResidues>
 VAL166  LYS551  ARG553  GLY616  TRP617  ASP618  TYR619  PRO620  LYS621  CYS622 
 ASP623  PHE694  ASN695  SER759  ASP760  ASP761  ALA762  ILE779  LEU786  VAL792 
 PHE793  MET794  SER795  GLU796  ALA797  LYS798  CYS799  TRP800  GLU811  SER814 

> <Gold.Protein.RotatedAtoms>
  152.5343  134.0086  159.7927 H   0  0  0  0  0  0  0  0  0  0  0  0  # atno 6907 bound_to 6896
  151.0292  133.5798  159.2670 H   0  0  0  0  0  0  0  0  0  0  0  0  # atno 6908 bound_to 6896
  151.2809  135.0720  159.9222 H   0  0  0  0  0  0  0  0  0  0  0  0  # atno 6909 bound_to 6896
  145.6862  140.9170  143.0806 H   0  0  0  0  0  0  0  0  0  0  0  0  # atno 7974 bound_to 7965
  156.0637  140.3293  155.7492 H   0  0  0  0  0  0  0  0  0  0  0  0  # atno 8008 bound_to 7997
  155.5414  140.0602  157.2886 H   0  0  0  0  0  0  0  0  0  0  0  0  # atno 8009 bound_to 7997
  154.4494  140.1910  156.0583 H   0  0  0  0  0  0  0  0  0  0  0  0  # atno 8010 bound_to 7997
  140.1473  143.4228  152.1520 H   0  0  0  0  0  0  0  0  0  0  0  0  # atno 10167 bound_to 10162
  156.0285  130.4391  150.2724 H   0  0  0  0  0  0  0  0  0  0  0  0  # atno 10718 bound_to 10713
  153.2356  135.4308  155.0643 H   0  0  0  0  0  0  0  0  0  0  0  0  # atno 10763 bound_to 10752
  154.8317  135.3390  154.6723 H   0  0  0  0  0  0  0  0  0  0  0  0  # atno 10764 bound_to 10752
  153.7149  135.7020  153.5084 H   0  0  0  0  0  0  0  0  0  0  0  0  # atno 10765 bound_to 10752
  139.9645  134.9594  156.9225 H   0  0  0  0  0  0  0  0  0  0  0  0  # atno 11005 bound_to 11000
  144.7011  139.8761  143.7444 LP  0  0  0  0  0  0  0  0  0  0  0  0  # atno 17320 bound_to 7965
  146.0922  139.3912  143.0399 LP  0  0  0  0  0  0  0  0  0  0  0  0  # atno 17321 bound_to 7965
  139.5443  144.7284  151.4634 LP  0  0  0  0  0  0  0  0  0  0  0  0  # atno 17342 bound_to 10162
  140.6724  143.8265  150.7016 LP  0  0  0  0  0  0  0  0  0  0  0  0  # atno 17343 bound_to 10162
  157.0827  131.0148  151.3151 LP  0  0  0  0  0  0  0  0  0  0  0  0  # atno 17370 bound_to 10713
  157.4915  130.7825  149.7512 LP  0  0  0  0  0  0  0  0  0  0  0  0  # atno 17371 bound_to 10713
  140.5427  134.0704  155.7346 LP  0  0  0  0  0  0  0  0  0  0  0  0  # atno 17394 bound_to 11000
  141.1324  133.9279  157.2507 LP  0  0  0  0  0  0  0  0  0  0  0  0  # atno 17395 bound_to 11000

$$$$
