AV-unprocessed.smi:285|AV-procd|sdf|2167|dock4
  -GOLD-   2262021523D 1   1.00000     0.00000
 Structure written by MMmdl.
 31 33  0  0  0  0  0  0  0  0  1 V2000
  152.2885  138.2015  154.3469 N   0  0  0  0  0  0  0  0  0  0  0  0
  151.6047  139.1967  154.9278 C   0  0  0  0  0  0  0  0  0  0  0  0
  150.5667  139.7434  154.2528 N   0  0  0  0  0  0  0  0  0  0  0  0
  149.8661  140.7353  154.8120 C   0  0  0  0  0  0  0  0  0  0  0  0
  150.0369  141.3088  156.0060 N   0  0  0  0  0  0  0  0  0  0  0  0
  151.0862  140.7591  156.6857 C   0  0  0  0  0  0  0  0  0  0  0  0
  151.9176  139.7007  156.2154 C   0  0  0  0  0  0  0  0  0  0  0  0
  152.8830  139.3896  157.1648 N   0  0  0  0  0  0  0  0  0  0  0  0
  152.6164  140.2253  158.1295 C   0  0  0  0  0  0  0  0  0  0  0  0
  153.6545  140.2155  159.7265 Br  0  0  0  0  0  0  0  0  0  0  0  0
  151.5600  141.0876  157.9410 N   0  0  0  0  0  0  0  0  0  0  0  0
  151.0263  142.1379  158.8615 C   0  0  2  0  0  0  0  0  0  0  0  0
  150.9487  143.4890  158.1567 C   0  0  0  0  0  0  0  0  0  0  0  0
  151.1807  144.4262  159.3210 C   0  0  2  0  0  0  0  0  0  0  0  0
  151.6486  145.6796  158.8671 O   0  0  0  0  0  0  0  0  0  0  0  0
  152.2367  143.6563  160.1244 C   0  0  1  0  0  0  0  0  0  0  0  0
  152.2642  143.9786  161.6263 C   0  0  0  0  0  0  0  0  0  0  0  0
  150.9951  143.7566  162.2040 O   0  0  0  0  0  0  0  0  0  0  0  0
  151.9004  142.2809  159.9406 O   0  0  0  0  0  0  0  0  0  0  0  0
  153.0663  137.7767  154.8313 H   0  0  0  0  0  0  0  0  0  0  0  0
  152.0224  137.8753  153.4292 H   0  0  0  0  0  0  0  0  0  0  0  0
  149.0517  141.1249  154.2189 H   0  0  0  0  0  0  0  0  0  0  0  0
  150.0614  141.7754  159.2147 H   0  0  0  0  0  0  0  0  0  0  0  0
  151.7515  143.5727  157.4217 H   0  0  0  0  0  0  0  0  0  0  0  0
  149.9883  143.6240  157.6587 H   0  0  0  0  0  0  0  0  0  0  0  0
  150.2624  144.5478  159.8974 H   0  0  0  0  0  0  0  0  0  0  0  0
  152.5190  145.8154  159.2106 H   0  0  0  0  0  0  0  0  0  0  0  0
  153.2253  143.8044  159.6856 H   0  0  0  0  0  0  0  0  0  0  0  0
  153.0136  143.3780  162.1425 H   0  0  0  0  0  0  0  0  0  0  0  0
  152.5290  145.0253  161.7782 H   0  0  0  0  0  0  0  0  0  0  0  0
  150.4993  144.5599  162.1576 H   0  0  0  0  0  0  0  0  0  0  0  0
  1  2  1  0  0  0  0
  1 20  1  0  0  0  0
  1 21  1  0  0  0  0
  2  7  1  0  0  0  0
  2  3  2  0  0  0  0
  3  4  1  0  0  0  0
  4  5  2  0  0  0  0
  4 22  1  0  0  0  0
  5  6  1  0  0  0  0
  6 11  1  0  0  0  0
  6  7  2  0  0  0  0
  7  8  1  0  0  0  0
  8  9  2  0  0  0  0
  9 10  1  0  0  0  0
  9 11  1  0  0  0  0
 11 12  1  0  0  0  0
 12 19  1  0  0  0  0
 12 13  1  0  0  0  0
 12 23  1  0  0  0  0
 13 14  1  0  0  0  0
 13 24  1  0  0  0  0
 13 25  1  0  0  0  0
 14 15  1  0  0  0  0
 14 16  1  0  0  0  0
 14 26  1  0  0  0  0
 15 27  1  0  0  0  0
 16 17  1  0  0  0  0
 16 19  1  0  0  0  0
 16 28  1  0  0  0  0
 17 18  1  0  0  0  0
 17 29  1  0  0  0  0
 17 30  1  0  0  0  0
 18 31  1  0  0  0  0
M  END
> <s_m_source_file>
AV-unprocessed.smi

> <i_m_source_file_index>
285

> <i_lp_mmshare_version>
43012

> <i_f3d_flags>
0

> <s_epik_input>
bjFbY0hdbmMoW05IMl0pYyhjMTIpbmMoQnIpbjJbQ0BASF0zW0NIMl1bQ0BASF0oW09IXSlbQ0BIXShPMylbQ0gyXVtPSF0=

> <s_epik_cmdline>
J2VwaWtfcHl0aG9uJywgJy1waCcsICc3LjAnLCAnLXRuJywgJzgnLCAnLW1hJywgJzIwMCcsICctbWV0YWxfYmluZGluZycsICctaW1hZScsICc8aW5maWxlLm1hZT4nLCAnLW9tYWUnLCAnPG91dGZpbGUubWFlPic=

> <r_lp_tautomer_probability>
1

> <r_epik_Ionization_Penalty>
0.000103242

> <r_epik_Ionization_Penalty_Charging>
0

> <r_epik_Ionization_Penalty_Neutral>
0.000103242

> <r_epik_State_Penalty>
-0

> <r_epik_Charging_Adjusted_Penalty>
0

> <i_epik_Tot_Q>
0

> <i_epik_Tot_abs_Q>
0

> <r_epik_Metal_State_Penalty>
-0

> <b_epik_Metal_Only>
0

> <s_epik_Chemistry_Notes>
This compound contains an acetal/aminal-like group ( X-CH(R)-Y where X, Y are N, S, or O) that may be acid/base labile, releasing an aldehyde.

> <s_lp_Force_Field>
OPLS_2005

> <r_lp_Energy>
29.9109

> <b_lp_Chiralities_Consistent>
1

> <s_lp_Variant>
AV-unprocessed.smi:285-3

> <Gold.Version>
5.8.1

> <Gold.Id.Protein>
6NUR|6NUR_protein|mol2

> <Gold.PLP.Fitness>
42.9765

> <Gold.PLP.PLP>
-38.4666

> <Gold.PLP.part.hbond>
-5.4733

> <Gold.PLP.part.metal>
0.0000

> <Gold.PLP.part.buried>
-4.4632

> <Gold.PLP.part.nonpolar>
-28.7623

> <Gold.PLP.part.repulsive>
0.4028

> <Gold.PLP.ligand.clash>
0.0000

> <Gold.PLP.ligand.torsion>
0.1166

> <Gold.PLP.Chemscore.Hbond>
1.5788

> <Gold.PLP.Chemscore.CHOScore>
0.0000

> <Gold.PLP.Chemscore.Metal>
0.0000

> <Gold.Chemscore.Hbonds>
donor molecule, donor type, donor heavy atom, donor atom, acceptor molecule, acceptor atom, score
      P1  H  6933  6945       L1    18  0.29
      P1  H  7989  7998       L1     3  0.33
      P1  H  7997  8008       L1     8  1.00

> <Gold.PLP.Chemscore.Internal.Correction>
0.0066

> <Gold.Rescore>
     Score         DG    S(hbond)    S(metal)    S(lipo)     H(rot)  DE(clash)    DE(int)     intcor
      2.66      -6.22       0.55        0.00      57.56       3.06       1.92       1.64       ----

> <Gold.Chemscore.Fitness>
2.6622

> <Gold.Chemscore.DG>
-6.2235

> <Gold.Chemscore.ZeroCoef>
-5.4800

> <Gold.Chemscore.Hbond>
0.5523

> <Gold.Chemscore.Metal>
0.0000

> <Gold.Chemscore.Lipo>
57.5576

> <Gold.Chemscore.Internal_Hbond>
0.0000

> <Gold.Chemscore.DEClash>
1.9184

> <Gold.Chemscore.DEInternal>
1.6429

> <Gold.Chemscore.Rot>
3.0607

> <Gold.Chemscore.Internal.Correction>
   9.000000E+99

> <Gold.Chemscore.Hbonds>
donor molecule, donor type, donor heavy atom, donor atom, acceptor molecule, acceptor atom, score
      P1  H  6933  6945       L1    18  0.28
      P1  H  7997  8008       L1     8  0.13

> <Gold.Chemscore.Hbond.Weighted>
-1.8446

> <Gold.Chemscore.Metal.Weighted>
-0.0000

> <Gold.Chemscore.Lipo.Weighted>
-6.7342

> <Gold.Chemscore.Internal_Hbond.Weighted>
0.0000

> <Gold.Chemscore.DEClash.Weighted>
1.9184

> <Gold.Chemscore.DEInternal.Weighted>
1.6429

> <Gold.Chemscore.Rot.Weighted>
7.8354

> <Gold.Chemscore.Internal.Correction.Weighted>
   9.000000E+99

> <Gold.Protein.RotatedTorsions>
[ 6907 6896 6895 6894 ] final   75.38 input  -60.11 | X-H torsion
[ 7974 7965 7964 7962 ] final   49.83 input  175.53 | X-H torsion
[ 8008 7997 7996 7995 ] final  -52.25 input   59.86 | X-H torsion
[ 10167 10162 10161 10158 ] final -139.53 input  -65.29 | X-H torsion
[ 10718 10713 10712 10709 ] final   68.69 input   66.30 | X-H torsion
[ 10763 10752 10751 10750 ] final   67.86 input  -60.55 | X-H torsion
[ 11005 11000 10999 10996 ] final -179.27 input  -57.11 | X-H torsion

> <Gold.Protein.ActiveResidues>
 VAL166  LYS551  ARG553  GLY616  TRP617  ASP618  TYR619  PRO620  LYS621  CYS622 
 ASP623  PHE694  ASN695  SER759  ASP760  ASP761  ALA762  ILE779  LEU786  VAL792 
 PHE793  MET794  SER795  GLU796  ALA797  LYS798  CYS799  TRP800  GLU811  SER814 

> <Gold.Protein.RotatedAtoms>
  152.5023  134.4128  159.9454 H   0  0  0  0  0  0  0  0  0  0  0  0  # atno 6907 bound_to 6896
  151.4097  133.3725  159.2750 H   0  0  0  0  0  0  0  0  0  0  0  0  # atno 6908 bound_to 6896
  150.9300  134.8737  159.7604 H   0  0  0  0  0  0  0  0  0  0  0  0  # atno 6909 bound_to 6896
  146.0070  139.4501  142.9979 H   0  0  0  0  0  0  0  0  0  0  0  0  # atno 7974 bound_to 7965
  154.4102  140.1228  156.4961 H   0  0  0  0  0  0  0  0  0  0  0  0  # atno 8008 bound_to 7997
  155.6942  140.3495  155.4886 H   0  0  0  0  0  0  0  0  0  0  0  0  # atno 8009 bound_to 7997
  155.9442  140.1093  157.1020 H   0  0  0  0  0  0  0  0  0  0  0  0  # atno 8010 bound_to 7997
  139.8370  143.7372  152.2664 H   0  0  0  0  0  0  0  0  0  0  0  0  # atno 10167 bound_to 10162
  157.6304  130.9387  150.0412 H   0  0  0  0  0  0  0  0  0  0  0  0  # atno 10718 bound_to 10713
  153.0207  135.5268  154.7045 H   0  0  0  0  0  0  0  0  0  0  0  0  # atno 10763 bound_to 10752
  154.6145  135.2882  155.0398 H   0  0  0  0  0  0  0  0  0  0  0  0  # atno 10764 bound_to 10752
  154.1407  135.6578  153.4994 H   0  0  0  0  0  0  0  0  0  0  0  0  # atno 10765 bound_to 10752
  140.4205  134.6610  157.4661 H   0  0  0  0  0  0  0  0  0  0  0  0  # atno 11005 bound_to 11000
  145.7400  141.0011  143.1306 LP  0  0  0  0  0  0  0  0  0  0  0  0  # atno 17320 bound_to 7965
  144.6939  139.9087  143.7462 LP  0  0  0  0  0  0  0  0  0  0  0  0  # atno 17321 bound_to 7965
  139.7597  144.7510  151.0382 LP  0  0  0  0  0  0  0  0  0  0  0  0  # atno 17342 bound_to 10162
  140.7801  143.4765  151.0075 LP  0  0  0  0  0  0  0  0  0  0  0  0  # atno 17343 bound_to 10162
  156.1503  130.3642  149.9448 LP  0  0  0  0  0  0  0  0  0  0  0  0  # atno 17370 bound_to 10713
  156.7469  130.9100  151.3635 LP  0  0  0  0  0  0  0  0  0  0  0  0  # atno 17371 bound_to 10713
  140.0203  134.6556  155.9249 LP  0  0  0  0  0  0  0  0  0  0  0  0  # atno 17394 bound_to 11000
  141.1786  133.6543  156.4927 LP  0  0  0  0  0  0  0  0  0  0  0  0  # atno 17395 bound_to 11000

$$$$
