AV-unprocessed.smi:1538|AV-procd|sdf|6193|dock7
  -GOLD-   22720 6363D 1   1.00000     0.00000
 Structure written by MMmdl.
 37 38  0  0  0  0  0  0  0  0  2 V2000
  152.2092  145.6467  160.1138 C   0  0  0  0  0  0  0  0  0  0  0  0
  151.9557  144.3339  159.5183 N   0  0  0  0  0  0  0  0  0  0  0  0
  151.4236  144.3682  158.1488 C   0  0  0  0  0  0  0  0  0  0  0  0
  150.7802  143.0476  157.7065 C   0  0  0  0  0  0  0  0  0  0  0  0
  151.7068  141.8728  158.0440 C   0  0  2  0  0  0  0  0  0  0  0  0
  151.1075  140.5502  157.5459 C   0  0  0  0  0  0  0  0  0  0  0  0
  150.9899  139.5915  158.3098 O   0  0  0  0  0  0  0  0  0  0  0  0
  150.7260  140.5110  156.2611 N   0  0  0  0  0  0  0  0  0  0  0  0
  150.1285  139.3486  155.6195 C   0  0  0  0  0  0  0  0  0  0  0  0
  149.7708  139.6585  154.1601 C   0  0  0  0  0  0  0  0  0  0  0  0
  148.5279  140.4261  154.0601 N   0  0  0  0  0  0  0  0  0  0  0  0
  148.3055  141.7067  154.4973 C   0  0  0  0  0  0  0  0  0  0  0  0
  147.0041  142.0054  154.1850 C   0  0  0  0  0  0  0  0  0  0  0  0
  146.4879  140.8954  153.5715 N   0  3  0  0  0  0  0  0  0  0  0  0
  147.4165  139.9363  153.4955 C   0  0  0  0  0  0  0  0  0  0  0  0
  151.9568  141.8322  159.5651 C   0  0  0  0  0  0  0  0  0  0  0  0
  152.2683  143.2011  160.1934 C   0  0  0  0  0  0  0  0  0  0  0  0
  152.7715  143.2197  161.3172 O   0  0  0  0  0  0  0  0  0  0  0  0
  153.2376  145.7236  160.4703 H   0  0  0  0  0  0  0  0  0  0  0  0
  151.5408  145.8142  160.9592 H   0  0  0  0  0  0  0  0  0  0  0  0
  152.0544  146.4581  159.4015 H   0  0  0  0  0  0  0  0  0  0  0  0
  150.6900  145.1699  158.0519 H   0  0  0  0  0  0  0  0  0  0  0  0
  152.2461  144.6152  157.4763 H   0  0  0  0  0  0  0  0  0  0  0  0
  149.8198  142.9269  158.2107 H   0  0  0  0  0  0  0  0  0  0  0  0
  150.5681  143.0810  156.6371 H   0  0  0  0  0  0  0  0  0  0  0  0
  152.6624  142.0323  157.5406 H   0  0  0  0  0  0  0  0  0  0  0  0
  150.8551  141.3386  155.6971 H   0  0  0  0  0  0  0  0  0  0  0  0
  150.8272  138.5114  155.6650 H   0  0  0  0  0  0  0  0  0  0  0  0
  149.2340  139.0532  156.1705 H   0  0  0  0  0  0  0  0  0  0  0  0
  150.5667  140.2270  153.6761 H   0  0  0  0  0  0  0  0  0  0  0  0
  149.6399  138.7375  153.5903 H   0  0  0  0  0  0  0  0  0  0  0  0
  149.0699  142.2955  154.9836 H   0  0  0  0  0  0  0  0  0  0  0  0
  146.4227  142.9012  154.3486 H   0  0  0  0  0  0  0  0  0  0  0  0
  147.2923  138.9595  153.0623 H   0  0  0  0  0  0  0  0  0  0  0  0
  151.0829  141.4369  160.0855 H   0  0  0  0  0  0  0  0  0  0  0  0
  152.7797  141.1504  159.7844 H   0  0  0  0  0  0  0  0  0  0  0  0
  145.5410  140.8106  153.2235 H   0  0  0  0  0  0  0  0  0  0  0  0
  1  2  1  0  0  0  0
  1 19  1  0  0  0  0
  1 20  1  0  0  0  0
  1 21  1  0  0  0  0
  2 17  1  0  0  0  0
  2  3  1  0  0  0  0
  3  4  1  0  0  0  0
  3 22  1  0  0  0  0
  3 23  1  0  0  0  0
  4  5  1  0  0  0  0
  4 24  1  0  0  0  0
  4 25  1  0  0  0  0
  5  6  1  0  0  0  0
  5 16  1  0  0  0  0
  5 26  1  0  0  0  0
  6  7  2  0  0  0  0
  6  8  1  0  0  0  0
  8  9  1  0  0  0  0
  8 27  1  0  0  0  0
  9 10  1  0  0  0  0
  9 28  1  0  0  0  0
  9 29  1  0  0  0  0
 10 11  1  0  0  0  0
 10 30  1  0  0  0  0
 10 31  1  0  0  0  0
 11 15  1  0  0  0  0
 11 12  1  0  0  0  0
 12 13  2  0  0  0  0
 12 32  1  0  0  0  0
 13 14  1  0  0  0  0
 13 33  1  0  0  0  0
 14 15  2  0  0  0  0
 14 37  1  0  0  0  0
 15 34  1  0  0  0  0
 16 17  1  0  0  0  0
 16 35  1  0  0  0  0
 16 36  1  0  0  0  0
 17 18  2  0  0  0  0
M  CHG  1  14   1
M  END
> <s_m_source_file>
AV-unprocessed.smi

> <i_m_source_file_index>
1538

> <i_lp_mmshare_version>
43012

> <i_f3d_flags>
0

> <s_epik_input>
W0NIM11OMVtDSDJdW0NIMl1bQ0BIXShbQ0gyXUMxPU8pQyg9TylbTkhdW0NIMl1bQ0gyXW4yW2NIXVtjSF1uW2NIXTI=

> <s_epik_cmdline>
J2VwaWtfcHl0aG9uJywgJy1waCcsICc3LjAnLCAnLXRuJywgJzgnLCAnLW1hJywgJzIwMCcsICctbWV0YWxfYmluZGluZycsICctaW1hZScsICc8aW5maWxlLm1hZT4nLCAnLW9tYWUnLCAnPG91dGZpbGUubWFlPic=

> <r_lp_tautomer_probability>
1

> <r_epik_Ionization_Penalty>
0.272873

> <r_epik_Ionization_Penalty_Charging>
0

> <r_epik_Ionization_Penalty_Neutral>
0.272873

> <r_epik_State_Penalty>
0.265096

> <r_epik_Charging_Adjusted_Penalty>
0.265096

> <i_epik_Tot_Q>
1

> <i_epik_Tot_abs_Q>
1

> <r_epik_Metal_State_Penalty>
0.549113

> <b_epik_Metal_Only>
0

> <s_lp_Force_Field>
OPLS_2005

> <r_lp_Energy>
17.9959

> <b_lp_Chiralities_Consistent>
1

> <s_lp_Variant>
AV-unprocessed.smi:1538-2

> <Gold.Version>
5.8.1

> <Gold.Id.Protein>
6NUR|6NUR_protein|mol2

> <Gold.PLP.Fitness>
47.1506

> <Gold.PLP.PLP>
-38.8038

> <Gold.PLP.part.hbond>
-1.0000

> <Gold.PLP.part.metal>
0.0000

> <Gold.PLP.part.buried>
-1.7533

> <Gold.PLP.part.nonpolar>
-34.5969

> <Gold.PLP.part.repulsive>
0.1815

> <Gold.PLP.ligand.clash>
0.0000

> <Gold.PLP.ligand.torsion>
0.2180

> <Gold.PLP.Chemscore.Hbond>
2.0000

> <Gold.PLP.Chemscore.CHOScore>
0.9214

> <Gold.PLP.Chemscore.Metal>
0.0000

> <Gold.Chemscore.Hbonds>
donor molecule, donor type, donor heavy atom, donor atom, acceptor molecule, acceptor atom, score
      L1  H    14    37       P1 10175  2.00
      L1  C    12    32       P1  8028  0.91

> <Gold.PLP.Chemscore.Internal.Correction>
0.0186

> <Gold.Rescore>
     Score         DG    S(hbond)    S(metal)    S(lipo)     H(rot)  DE(clash)    DE(int)     intcor
     12.06     -12.42       0.98        0.00      76.19       2.05       0.13       0.23       ----

> <Gold.Chemscore.Fitness>
12.0576

> <Gold.Chemscore.DG>
-12.4192

> <Gold.Chemscore.ZeroCoef>
-5.4800

> <Gold.Chemscore.Hbond>
0.9783

> <Gold.Chemscore.Metal>
0.0000

> <Gold.Chemscore.Lipo>
76.1868

> <Gold.Chemscore.Internal_Hbond>
0.0000

> <Gold.Chemscore.DEClash>
0.1272

> <Gold.Chemscore.DEInternal>
0.2343

> <Gold.Chemscore.Rot>
2.0478

> <Gold.Chemscore.Internal.Correction>
   9.000000E+99

> <Gold.Chemscore.Hbonds>
donor molecule, donor type, donor heavy atom, donor atom, acceptor molecule, acceptor atom, score
      L1  H    14    37       P1 10175  0.65

> <Gold.Chemscore.Hbond.Weighted>
-3.2676

> <Gold.Chemscore.Metal.Weighted>
-0.0000

> <Gold.Chemscore.Lipo.Weighted>
-8.9139

> <Gold.Chemscore.Internal_Hbond.Weighted>
0.0000

> <Gold.Chemscore.DEClash.Weighted>
0.1272

> <Gold.Chemscore.DEInternal.Weighted>
0.2343

> <Gold.Chemscore.Rot.Weighted>
5.2423

> <Gold.Chemscore.Internal.Correction.Weighted>
   9.000000E+99

> <Gold.Protein.RotatedTorsions>
[ 6907 6896 6895 6894 ] final -177.77 input  -60.11 | X-H torsion
[ 7974 7965 7964 7962 ] final  -79.58 input  175.53 | X-H torsion
[ 8008 7997 7996 7995 ] final -145.30 input   59.86 | X-H torsion
[ 10167 10162 10161 10158 ] final -144.59 input  -65.29 | X-H torsion
[ 10718 10713 10712 10709 ] final   73.17 input   66.30 | X-H torsion
[ 10763 10752 10751 10750 ] final  163.43 input  -60.55 | X-H torsion
[ 11005 11000 10999 10996 ] final    5.24 input  -57.11 | X-H torsion

> <Gold.Protein.ActiveResidues>
 VAL166  LYS551  ARG553  GLY616  TRP617  ASP618  TYR619  PRO620  LYS621  CYS622 
 ASP623  PHE694  ASN695  SER759  ASP760  ASP761  ALA762  ILE779  LEU786  VAL792 
 PHE793  MET794  SER795  GLU796  ALA797  LYS798  CYS799  TRP800  GLU811  SER814 

> <Gold.Protein.RotatedAtoms>
  151.6264  133.3335  159.3098 H   0  0  0  0  0  0  0  0  0  0  0  0  # atno 6907 bound_to 6896
  150.8079  134.7220  159.6673 H   0  0  0  0  0  0  0  0  0  0  0  0  # atno 6908 bound_to 6896
  152.4175  134.6020  160.0054 H   0  0  0  0  0  0  0  0  0  0  0  0  # atno 6909 bound_to 6896
  145.5714  140.9465  143.1393 H   0  0  0  0  0  0  0  0  0  0  0  0  # atno 7974 bound_to 7965
  155.5409  140.0608  157.2870 H   0  0  0  0  0  0  0  0  0  0  0  0  # atno 8008 bound_to 7997
  154.4452  140.1919  156.0634 H   0  0  0  0  0  0  0  0  0  0  0  0  # atno 8009 bound_to 7997
  156.0585  140.3275  155.7438 H   0  0  0  0  0  0  0  0  0  0  0  0  # atno 8010 bound_to 7997
  139.7885  143.8000  152.2647 H   0  0  0  0  0  0  0  0  0  0  0  0  # atno 10167 bound_to 10162
  157.6535  130.9615  150.1032 H   0  0  0  0  0  0  0  0  0  0  0  0  # atno 10718 bound_to 10713
  154.2936  135.2760  155.2643 H   0  0  0  0  0  0  0  0  0  0  0  0  # atno 10763 bound_to 10752
  154.5111  135.5782  153.6609 H   0  0  0  0  0  0  0  0  0  0  0  0  # atno 10764 bound_to 10752
  152.9910  135.6181  154.3102 H   0  0  0  0  0  0  0  0  0  0  0  0  # atno 10765 bound_to 10752
  140.5729  134.0085  155.8016 H   0  0  0  0  0  0  0  0  0  0  0  0  # atno 11005 bound_to 11000
  144.7436  139.7381  143.7301 LP  0  0  0  0  0  0  0  0  0  0  0  0  # atno 17320 bound_to 7965
  146.1782  139.4961  142.9884 LP  0  0  0  0  0  0  0  0  0  0  0  0  # atno 17321 bound_to 7965
  139.8084  144.7346  150.9730 LP  0  0  0  0  0  0  0  0  0  0  0  0  # atno 17342 bound_to 10162
  140.7820  143.4275  151.0746 LP  0  0  0  0  0  0  0  0  0  0  0  0  # atno 17343 bound_to 10162
  156.1948  130.3657  149.8863 LP  0  0  0  0  0  0  0  0  0  0  0  0  # atno 17370 bound_to 10713
  156.6781  130.8847  151.3572 LP  0  0  0  0  0  0  0  0  0  0  0  0  # atno 17371 bound_to 10713
  141.1044  133.9716  157.3022 LP  0  0  0  0  0  0  0  0  0  0  0  0  # atno 17394 bound_to 11000
  139.9353  135.0197  156.8535 LP  0  0  0  0  0  0  0  0  0  0  0  0  # atno 17395 bound_to 11000

$$$$
