AV-unprocessed.smi:265|AV-procd|sdf|2023|dock10
  -GOLD-   2262021223D 1   1.00000     0.00000
 Structure written by MMmdl.
 52 56  0  0  0  0  0  0  0  0  1 V2000
  146.4188  142.2040  154.6859 C   0  0  0  0  0  0  0  0  0  0  0  0
  147.2063  141.2197  153.8067 C   0  0  2  0  0  0  0  0  0  0  0  0
  146.3005  140.2042  153.3819 O   0  0  0  0  0  0  0  0  0  0  0  0
  147.0122  138.9896  153.2250 C   0  0  0  0  0  0  0  0  0  0  0  0
  147.9596  139.0121  154.4145 C   0  0  0  0  0  0  0  0  0  0  0  0
  148.3930  140.4738  154.4812 C   0  0  1  0  0  0  0  0  0  0  0  0
  149.5283  140.6280  153.6452 O   0  0  0  0  0  0  0  0  0  0  0  0
  148.7818  140.9447  155.9078 C   0  0  0  0  0  0  0  0  0  0  0  0
  149.7250  140.0605  156.5772 N   0  0  0  0  0  0  0  0  0  0  0  0
  151.0952  140.1932  156.6063 C   0  0  0  0  0  0  0  0  0  0  0  0
  151.7305  139.2689  157.2735 N   0  0  0  0  0  0  0  0  0  0  0  0
  150.7214  138.4432  157.7552 C   0  0  0  0  0  0  0  0  0  0  0  0
  150.7030  137.2597  158.5464 C   0  0  0  0  0  0  0  0  0  0  0  0
  151.8328  136.6886  159.0356 N   0  0  0  0  0  0  0  0  0  0  0  0
  152.4075  135.5714  158.2864 C   0  0  0  0  0  0  0  0  0  0  0  0
  153.8548  135.3080  158.7293 C   0  0  0  0  0  0  0  0  0  0  0  0
  153.9587  135.1104  160.2502 C   0  0  2  0  0  0  0  0  0  0  0  0
  153.3284  133.8943  160.6308 O   0  0  0  0  0  0  0  0  0  0  0  0
  153.5340  133.5426  161.9998 C   0  0  0  0  0  0  0  0  0  0  0  0
  153.2385  134.7134  162.9554 C   0  0  0  0  0  0  0  0  0  0  0  0
  153.0786  134.4999  164.1549 O   0  0  0  0  0  0  0  0  0  0  0  0
  153.2064  135.9547  162.4443 N   0  0  0  0  0  0  0  0  0  0  0  0
  153.2661  136.2578  161.0181 C   0  0  2  0  0  0  0  0  0  0  0  0
  151.8412  136.5186  160.4871 C   0  0  0  0  0  0  0  0  0  0  0  0
  149.4901  136.7039  158.8105 N   0  0  0  0  0  0  0  0  0  0  0  0
  148.3723  137.2690  158.3453 C   0  0  0  0  0  0  0  0  0  0  0  0
  148.2406  138.3712  157.6048 N   0  0  0  0  0  0  0  0  0  0  0  0
  149.4534  138.9279  157.3255 C   0  0  0  0  0  0  0  0  0  0  0  0
  155.0151  135.0583  160.5218 H   0  0  0  0  0  0  0  0  0  0  0  0
  153.8549  137.1675  160.8930 H   0  0  0  0  0  0  0  0  0  0  0  0
  147.0486  143.0237  155.0315 H   0  0  0  0  0  0  0  0  0  0  0  0
  145.9921  141.7087  155.5584 H   0  0  0  0  0  0  0  0  0  0  0  0
  145.5935  142.6427  154.1247 H   0  0  0  0  0  0  0  0  0  0  0  0
  147.5473  141.7514  152.9163 H   0  0  0  0  0  0  0  0  0  0  0  0
  146.3449  138.1276  153.2319 H   0  0  0  0  0  0  0  0  0  0  0  0
  147.5603  138.9992  152.2816 H   0  0  0  0  0  0  0  0  0  0  0  0
  147.3952  138.7469  155.3092 H   0  0  0  0  0  0  0  0  0  0  0  0
  148.7870  138.3072  154.3217 H   0  0  0  0  0  0  0  0  0  0  0  0
  149.4438  140.0341  152.9151 H   0  0  0  0  0  0  0  0  0  0  0  0
  149.2271  141.9396  155.8681 H   0  0  0  0  0  0  0  0  0  0  0  0
  147.8961  141.0278  156.5386 H   0  0  0  0  0  0  0  0  0  0  0  0
  151.6128  140.9997  156.1071 H   0  0  0  0  0  0  0  0  0  0  0  0
  151.8007  134.6790  158.4463 H   0  0  0  0  0  0  0  0  0  0  0  0
  152.3903  135.7860  157.2170 H   0  0  0  0  0  0  0  0  0  0  0  0
  154.2549  134.4378  158.2083 H   0  0  0  0  0  0  0  0  0  0  0  0
  154.4761  136.1551  158.4362 H   0  0  0  0  0  0  0  0  0  0  0  0
  152.8972  132.6930  162.2479 H   0  0  0  0  0  0  0  0  0  0  0  0
  154.5676  133.2242  162.1411 H   0  0  0  0  0  0  0  0  0  0  0  0
  153.0511  136.7271  163.0758 H   0  0  0  0  0  0  0  0  0  0  0  0
  151.4230  137.3896  160.9911 H   0  0  0  0  0  0  0  0  0  0  0  0
  151.1908  135.6780  160.7345 H   0  0  0  0  0  0  0  0  0  0  0  0
  147.4516  136.7665  158.6031 H   0  0  0  0  0  0  0  0  0  0  0  0
  1  2  1  0  0  0  0
  1 31  1  0  0  0  0
  1 32  1  0  0  0  0
  1 33  1  0  0  0  0
  2  6  1  0  0  0  0
  2  3  1  0  0  0  0
  2 34  1  0  0  0  0
  3  4  1  0  0  0  0
  4  5  1  0  0  0  0
  4 35  1  0  0  0  0
  4 36  1  0  0  0  0
  5  6  1  0  0  0  0
  5 37  1  0  0  0  0
  5 38  1  0  0  0  0
  6  7  1  0  0  0  0
  6  8  1  0  0  0  0
  7 39  1  0  0  0  0
  8  9  1  0  0  0  0
  8 40  1  0  0  0  0
  8 41  1  0  0  0  0
  9 28  1  0  0  0  0
  9 10  1  0  0  0  0
 10 11  2  0  0  0  0
 10 42  1  0  0  0  0
 11 12  1  0  0  0  0
 12 28  2  0  0  0  0
 12 13  1  0  0  0  0
 13 14  1  0  0  0  0
 13 25  2  0  0  0  0
 14 24  1  0  0  0  0
 14 15  1  0  0  0  0
 15 16  1  0  0  0  0
 15 43  1  0  0  0  0
 15 44  1  0  0  0  0
 16 17  1  0  0  0  0
 16 45  1  0  0  0  0
 16 46  1  0  0  0  0
 17 29  1  0  0  0  0
 17 23  1  0  0  0  0
 17 18  1  0  0  0  0
 18 19  1  0  0  0  0
 19 20  1  0  0  0  0
 19 47  1  0  0  0  0
 19 48  1  0  0  0  0
 20 21  2  0  0  0  0
 20 22  1  0  0  0  0
 22 23  1  0  0  0  0
 22 49  1  0  0  0  0
 23 30  1  0  0  0  0
 23 24  1  0  0  0  0
 24 50  1  0  0  0  0
 24 51  1  0  0  0  0
 25 26  1  0  0  0  0
 26 27  2  0  0  0  0
 26 52  1  0  0  0  0
 27 28  1  0  0  0  0
M  END
> <s_m_source_file>
AV-unprocessed.smi

> <i_m_source_file_index>
265

> <i_lp_mmshare_version>
43012

> <i_f3d_flags>
0

> <s_epik_input>
W0NIMl0xW0NIMl1PW0NAQEhdKFtDSDNdKVtDQEBdMShbT0hdKVtDSDJdbihbY0hdbjIpYyhjMjMpbltjSF1uYzNOKFtDSDJdW0NIMl00KVtDSDJdW0NAQEhdKFtDQEhdNDUpW05IXUMoPU8pW0NIMl1PNQ==

> <s_epik_cmdline>
J2VwaWtfcHl0aG9uJywgJy1waCcsICc3LjAnLCAnLXRuJywgJzgnLCAnLW1hJywgJzIwMCcsICctbWV0YWxfYmluZGluZycsICctaW1hZScsICc8aW5maWxlLm1hZT4nLCAnLW9tYWUnLCAnPG91dGZpbGUubWFlPic=

> <r_lp_tautomer_probability>
1

> <r_epik_Ionization_Penalty>
0.00221504

> <r_epik_Ionization_Penalty_Charging>
0

> <r_epik_Ionization_Penalty_Neutral>
0.00221504

> <r_epik_State_Penalty>
-0

> <r_epik_Charging_Adjusted_Penalty>
0

> <i_epik_Tot_Q>
0

> <i_epik_Tot_abs_Q>
0

> <r_epik_Metal_State_Penalty>
-0

> <b_epik_Metal_Only>
0

> <s_lp_Force_Field>
OPLS_2005

> <r_lp_Energy>
44.3548

> <b_lp_Chiralities_Consistent>
1

> <s_lp_Variant>
AV-unprocessed.smi:265-9

> <Gold.Version>
5.8.1

> <Gold.Id.Protein>
6NUR|6NUR_protein|mol2

> <Gold.PLP.Fitness>
46.1019

> <Gold.PLP.PLP>
-35.0952

> <Gold.PLP.part.hbond>
-4.0387

> <Gold.PLP.part.metal>
0.0000

> <Gold.PLP.part.buried>
-5.6491

> <Gold.PLP.part.nonpolar>
-26.4312

> <Gold.PLP.part.repulsive>
0.7097

> <Gold.PLP.ligand.clash>
0.0000

> <Gold.PLP.ligand.torsion>
0.7691

> <Gold.PLP.Chemscore.Hbond>
4.0654

> <Gold.PLP.Chemscore.CHOScore>
0.0000

> <Gold.PLP.Chemscore.Metal>
0.0000

> <Gold.Chemscore.Hbonds>
donor molecule, donor type, donor heavy atom, donor atom, acceptor molecule, acceptor atom, score
      L1  H     7    39       P1  7957  0.78
      P1  H  7989  7998       L1     7  0.31
      P1  H  8011  8017       L1     7  0.33

> <Gold.PLP.Chemscore.Internal.Correction>
0.3487

> <Gold.Rescore>
     Score         DG    S(hbond)    S(metal)    S(lipo)     H(rot)  DE(clash)    DE(int)     intcor
     15.55     -16.51       2.77        0.00      64.39       2.25       0.10       0.85       ----

> <Gold.Chemscore.Fitness>
15.5542

> <Gold.Chemscore.DG>
-16.5079

> <Gold.Chemscore.ZeroCoef>
-5.4800

> <Gold.Chemscore.Hbond>
2.7671

> <Gold.Chemscore.Metal>
0.0000

> <Gold.Chemscore.Lipo>
64.3911

> <Gold.Chemscore.Internal_Hbond>
0.0000

> <Gold.Chemscore.DEClash>
0.1036

> <Gold.Chemscore.DEInternal>
0.8501

> <Gold.Chemscore.Rot>
2.2453

> <Gold.Chemscore.Internal.Correction>
   9.000000E+99

> <Gold.Chemscore.Hbonds>
donor molecule, donor type, donor heavy atom, donor atom, acceptor molecule, acceptor atom, score
      L1  H     7    39       P1  7957  0.78
      P1  H  7989  7998       L1     7  0.04
      P1  H  8011  8017       L1     7  0.03

> <Gold.Chemscore.Hbond.Weighted>
-9.2420

> <Gold.Chemscore.Metal.Weighted>
-0.0000

> <Gold.Chemscore.Lipo.Weighted>
-7.5338

> <Gold.Chemscore.Internal_Hbond.Weighted>
0.0000

> <Gold.Chemscore.DEClash.Weighted>
0.1036

> <Gold.Chemscore.DEInternal.Weighted>
0.8501

> <Gold.Chemscore.Rot.Weighted>
5.7479

> <Gold.Chemscore.Internal.Correction.Weighted>
   9.000000E+99

> <Gold.Protein.RotatedTorsions>
[ 6907 6896 6895 6894 ] final   74.35 input  -60.11 | X-H torsion
[ 7974 7965 7964 7962 ] final   90.80 input  175.53 | X-H torsion
[ 8008 7997 7996 7995 ] final   60.29 input   59.86 | X-H torsion
[ 10167 10162 10161 10158 ] final -111.71 input  -65.29 | X-H torsion
[ 10718 10713 10712 10709 ] final -162.90 input   66.30 | X-H torsion
[ 10763 10752 10751 10750 ] final   93.19 input  -60.55 | X-H torsion
[ 11005 11000 10999 10996 ] final  147.79 input  -57.11 | X-H torsion

> <Gold.Protein.ActiveResidues>
 VAL166  LYS551  ARG553  GLY616  TRP617  ASP618  TYR619  PRO620  LYS621  CYS622 
 ASP623  PHE694  ASN695  SER759  ASP760  ASP761  ALA762  ILE779  LEU786  VAL792 
 PHE793  MET794  SER795  GLU796  ALA797  LYS798  CYS799  TRP800  GLU811  SER814 

> <Gold.Protein.RotatedAtoms>
  152.4971  134.4284  159.9503 H   0  0  0  0  0  0  0  0  0  0  0  0  # atno 6907 bound_to 6896
  151.4261  133.3678  159.2770 H   0  0  0  0  0  0  0  0  0  0  0  0  # atno 6908 bound_to 6896
  150.9188  134.8628  159.7534 H   0  0  0  0  0  0  0  0  0  0  0  0  # atno 6909 bound_to 6896
  145.5142  139.2277  143.2708 H   0  0  0  0  0  0  0  0  0  0  0  0  # atno 7974 bound_to 7965
  155.5800  140.3491  155.4537 H   0  0  0  0  0  0  0  0  0  0  0  0  # atno 8008 bound_to 7997
  156.0381  140.1289  157.0211 H   0  0  0  0  0  0  0  0  0  0  0  0  # atno 8009 bound_to 7997
  154.4380  140.1030  156.6182 H   0  0  0  0  0  0  0  0  0  0  0  0  # atno 8010 bound_to 7997
  140.1307  143.4363  152.1629 H   0  0  0  0  0  0  0  0  0  0  0  0  # atno 10167 bound_to 10162
  156.6170  130.8874  151.2949 H   0  0  0  0  0  0  0  0  0  0  0  0  # atno 10718 bound_to 10713
  153.2275  135.4334  155.0558 H   0  0  0  0  0  0  0  0  0  0  0  0  # atno 10763 bound_to 10752
  154.8280  135.3371  154.6836 H   0  0  0  0  0  0  0  0  0  0  0  0  # atno 10764 bound_to 10752
  153.7265  135.7013  153.5056 H   0  0  0  0  0  0  0  0  0  0  0  0  # atno 10765 bound_to 10752
  140.0905  134.9043  157.1643 H   0  0  0  0  0  0  0  0  0  0  0  0  # atno 11005 bound_to 11000
  146.2147  140.5950  142.9044 LP  0  0  0  0  0  0  0  0  0  0  0  0  # atno 17320 bound_to 7965
  144.7711  140.5639  143.6670 LP  0  0  0  0  0  0  0  0  0  0  0  0  # atno 17321 bound_to 7965
  139.5521  144.7346  151.4403 LP  0  0  0  0  0  0  0  0  0  0  0  0  # atno 17342 bound_to 10162
  140.6819  143.8063  150.7133 LP  0  0  0  0  0  0  0  0  0  0  0  0  # atno 17343 bound_to 10162
  157.7238  130.9595  150.1549 LP  0  0  0  0  0  0  0  0  0  0  0  0  # atno 17370 bound_to 10713
  156.2343  130.3685  149.8409 LP  0  0  0  0  0  0  0  0  0  0  0  0  # atno 17371 bound_to 10713
  140.3359  134.2758  155.7220 LP  0  0  0  0  0  0  0  0  0  0  0  0  # atno 17394 bound_to 11000
  141.2076  133.7800  157.0107 LP  0  0  0  0  0  0  0  0  0  0  0  0  # atno 17395 bound_to 11000

$$$$
