AV-unprocessed.smi:1555|AV-procd|sdf|6265|dock1
  -GOLD-   22720 6453D 1   1.00000     0.00000
 Structure written by MMmdl.
 42 43  0  0  0  0  0  0  0  0  2 V2000
  153.0427  140.4944  159.6757 C   0  0  0  0  0  0  0  0  0  0  0  0
  151.7440  141.0697  159.0927 C   0  0  1  0  0  0  0  0  0  0  0  0
  151.9998  142.3713  158.3099 C   0  0  0  0  0  0  0  0  0  0  0  0
  151.9888  143.5567  159.1732 N   0  0  0  0  0  0  0  0  0  0  0  0
  151.9993  144.8715  158.7827 C   0  0  0  0  0  0  0  0  0  0  0  0
  151.9780  145.6201  159.9311 C   0  0  0  0  0  0  0  0  0  0  0  0
  151.9560  144.7317  160.9728 N   0  3  0  0  0  0  0  0  0  0  0  0
  151.9644  143.4774  160.5098 C   0  0  0  0  0  0  0  0  0  0  0  0
  151.1173  140.0787  158.2208 N   0  0  0  0  0  0  0  0  0  0  0  0
  151.6632  139.5398  157.1172 C   0  0  0  0  0  0  0  0  0  0  0  0
  152.7855  139.8560  156.7204 O   0  0  0  0  0  0  0  0  0  0  0  0
  150.8813  138.6259  156.4884 N   0  0  0  0  0  0  0  0  0  0  0  0
  149.5727  138.1304  156.9476 C   0  0  0  0  0  0  0  0  0  0  0  0
  148.4759  138.7319  156.0512 C   0  0  0  0  0  0  0  0  0  0  0  0
  148.7147  138.3901  154.5635 C   0  0  0  0  0  0  0  0  0  0  0  0
  147.6742  139.0804  153.6631 C   0  0  0  0  0  0  0  0  0  0  0  0
  147.8394  138.6908  152.3159 O   0  0  0  0  0  0  0  0  0  0  0  0
  150.1662  138.7329  154.1523 C   0  0  0  0  0  0  0  0  0  0  0  0
  151.1864  138.1356  155.1389 C   0  0  0  0  0  0  0  0  0  0  0  0
  153.5232  141.2092  160.3441 H   0  0  0  0  0  0  0  0  0  0  0  0
  153.7553  140.2433  158.8891 H   0  0  0  0  0  0  0  0  0  0  0  0
  152.8481  139.5884  160.2507 H   0  0  0  0  0  0  0  0  0  0  0  0
  151.0790  141.3044  159.9257 H   0  0  0  0  0  0  0  0  0  0  0  0
  152.9702  142.3348  157.8125 H   0  0  0  0  0  0  0  0  0  0  0  0
  151.2492  142.5114  157.5303 H   0  0  0  0  0  0  0  0  0  0  0  0
  152.0183  145.1694  157.7443 H   0  0  0  0  0  0  0  0  0  0  0  0
  151.9764  146.6900  160.0810 H   0  0  0  0  0  0  0  0  0  0  0  0
  151.9497  142.5780  161.0995 H   0  0  0  0  0  0  0  0  0  0  0  0
  150.1881  139.7756  158.4741 H   0  0  0  0  0  0  0  0  0  0  0  0
  149.5569  137.0421  156.8738 H   0  0  0  0  0  0  0  0  0  0  0  0
  149.3566  138.3473  157.9936 H   0  0  0  0  0  0  0  0  0  0  0  0
  147.4998  138.3620  156.3665 H   0  0  0  0  0  0  0  0  0  0  0  0
  148.4539  139.8147  156.1838 H   0  0  0  0  0  0  0  0  0  0  0  0
  148.5863  137.3113  154.4586 H   0  0  0  0  0  0  0  0  0  0  0  0
  146.6645  138.8096  153.9729 H   0  0  0  0  0  0  0  0  0  0  0  0
  147.7535  140.1654  153.7378 H   0  0  0  0  0  0  0  0  0  0  0  0
  148.6188  139.1041  151.9770 H   0  0  0  0  0  0  0  0  0  0  0  0
  150.3712  138.3628  153.1475 H   0  0  0  0  0  0  0  0  0  0  0  0
  150.2939  139.8157  154.1131 H   0  0  0  0  0  0  0  0  0  0  0  0
  152.1993  138.3820  154.8176 H   0  0  0  0  0  0  0  0  0  0  0  0
  151.1292  137.0463  155.1252 H   0  0  0  0  0  0  0  0  0  0  0  0
  151.9354  144.9848  161.9528 H   0  0  0  0  0  0  0  0  0  0  0  0
  1  2  1  0  0  0  0
  1 20  1  0  0  0  0
  1 21  1  0  0  0  0
  1 22  1  0  0  0  0
  2  3  1  0  0  0  0
  2  9  1  0  0  0  0
  2 23  1  0  0  0  0
  3  4  1  0  0  0  0
  3 24  1  0  0  0  0
  3 25  1  0  0  0  0
  4  8  1  0  0  0  0
  4  5  1  0  0  0  0
  5  6  2  0  0  0  0
  5 26  1  0  0  0  0
  6  7  1  0  0  0  0
  6 27  1  0  0  0  0
  7  8  2  0  0  0  0
  7 42  1  0  0  0  0
  8 28  1  0  0  0  0
  9 10  1  0  0  0  0
  9 29  1  0  0  0  0
 10 11  2  0  0  0  0
 10 12  1  0  0  0  0
 12 19  1  0  0  0  0
 12 13  1  0  0  0  0
 13 14  1  0  0  0  0
 13 30  1  0  0  0  0
 13 31  1  0  0  0  0
 14 15  1  0  0  0  0
 14 32  1  0  0  0  0
 14 33  1  0  0  0  0
 15 16  1  0  0  0  0
 15 18  1  0  0  0  0
 15 34  1  0  0  0  0
 16 17  1  0  0  0  0
 16 35  1  0  0  0  0
 16 36  1  0  0  0  0
 17 37  1  0  0  0  0
 18 19  1  0  0  0  0
 18 38  1  0  0  0  0
 18 39  1  0  0  0  0
 19 40  1  0  0  0  0
 19 41  1  0  0  0  0
M  CHG  1   7   1
M  END
> <s_m_source_file>
AV-unprocessed.smi

> <i_m_source_file_index>
1555

> <i_lp_mmshare_version>
43012

> <i_f3d_flags>
0

> <s_epik_input>
W2NIXTFuW2NIXVtjSF1uMVtDSDJdW0NAQEhdKFtDSDNdKVtOSF1DKD1PKU4yW0NIMl1bQ0gyXVtDSF0oW0NIMl1bT0hdKVtDSDJdW0NIMl0y

> <s_epik_cmdline>
J2VwaWtfcHl0aG9uJywgJy1waCcsICc3LjAnLCAnLXRuJywgJzgnLCAnLW1hJywgJzIwMCcsICctbWV0YWxfYmluZGluZycsICctaW1hZScsICc8aW5maWxlLm1hZT4nLCAnLW9tYWUnLCAnPG91dGZpbGUubWFlPic=

> <r_lp_tautomer_probability>
1

> <r_epik_Ionization_Penalty>
0.253261

> <r_epik_Ionization_Penalty_Charging>
0

> <r_epik_Ionization_Penalty_Neutral>
0.253261

> <r_epik_State_Penalty>
0.244619

> <r_epik_Charging_Adjusted_Penalty>
0.244619

> <i_epik_Tot_Q>
1

> <i_epik_Tot_abs_Q>
1

> <r_epik_Metal_State_Penalty>
0.535039

> <b_epik_Metal_Only>
0

> <s_lp_Force_Field>
OPLS_2005

> <r_lp_Energy>
35.1674

> <b_lp_Chiralities_Consistent>
1

> <s_lp_Variant>
AV-unprocessed.smi:1555-2

> <Gold.Version>
5.8.1

> <Gold.Id.Protein>
6NUR|6NUR_protein|mol2

> <Gold.PLP.Fitness>
42.2530

> <Gold.PLP.PLP>
-37.0706

> <Gold.PLP.part.hbond>
-3.2548

> <Gold.PLP.part.metal>
0.0000

> <Gold.PLP.part.buried>
-4.1430

> <Gold.PLP.part.nonpolar>
-28.5493

> <Gold.PLP.part.repulsive>
0.2001

> <Gold.PLP.ligand.clash>
0.0000

> <Gold.PLP.ligand.torsion>
0.4566

> <Gold.PLP.Chemscore.Hbond>
2.0000

> <Gold.PLP.Chemscore.CHOScore>
0.0000

> <Gold.PLP.Chemscore.Metal>
0.0000

> <Gold.Chemscore.Hbonds>
donor molecule, donor type, donor heavy atom, donor atom, acceptor molecule, acceptor atom, score
      L1  H    17    37       P1  7957  1.00
      P1  H  7997  8008       L1    11  1.00

> <Gold.PLP.Chemscore.Internal.Correction>
0.0957

> <Gold.Rescore>
     Score         DG    S(hbond)    S(metal)    S(lipo)     H(rot)  DE(clash)    DE(int)     intcor
     13.23     -14.84       1.97        0.00      79.78       2.56       0.17       1.45       ----

> <Gold.Chemscore.Fitness>
13.2256

> <Gold.Chemscore.DG>
-14.8421

> <Gold.Chemscore.ZeroCoef>
-5.4800

> <Gold.Chemscore.Hbond>
1.9727

> <Gold.Chemscore.Metal>
0.0000

> <Gold.Chemscore.Lipo>
79.7806

> <Gold.Chemscore.Internal_Hbond>
0.0000

> <Gold.Chemscore.DEClash>
0.1710

> <Gold.Chemscore.DEInternal>
1.4454

> <Gold.Chemscore.Rot>
2.5630

> <Gold.Chemscore.Internal.Correction>
   9.000000E+99

> <Gold.Chemscore.Hbonds>
donor molecule, donor type, donor heavy atom, donor atom, acceptor molecule, acceptor atom, score
      L1  H    17    37       P1  7957  0.94
      P1  H  7997  8008       L1    11  0.98

> <Gold.Chemscore.Hbond.Weighted>
-6.5889

> <Gold.Chemscore.Metal.Weighted>
-0.0000

> <Gold.Chemscore.Lipo.Weighted>
-9.3343

> <Gold.Chemscore.Internal_Hbond.Weighted>
0.0000

> <Gold.Chemscore.DEClash.Weighted>
0.1710

> <Gold.Chemscore.DEInternal.Weighted>
1.4454

> <Gold.Chemscore.Rot.Weighted>
6.5612

> <Gold.Chemscore.Internal.Correction.Weighted>
   9.000000E+99

> <Gold.Protein.RotatedTorsions>
[ 6907 6896 6895 6894 ] final  175.49 input  -60.11 | X-H torsion
[ 7974 7965 7964 7962 ] final -102.74 input  175.53 | X-H torsion
[ 8008 7997 7996 7995 ] final  -51.24 input   59.86 | X-H torsion
[ 10167 10162 10161 10158 ] final  -20.76 input  -65.29 | X-H torsion
[ 10718 10713 10712 10709 ] final -143.48 input   66.30 | X-H torsion
[ 10763 10752 10751 10750 ] final  -84.15 input  -60.55 | X-H torsion
[ 11005 11000 10999 10996 ] final   -5.85 input  -57.11 | X-H torsion

> <Gold.Protein.ActiveResidues>
 VAL166  LYS551  ARG553  GLY616  TRP617  ASP618  TYR619  PRO620  LYS621  CYS622 
 ASP623  PHE694  ASN695  SER759  ASP760  ASP761  ALA762  ILE779  LEU786  VAL792 
 PHE793  MET794  SER795  GLU796  ALA797  LYS798  CYS799  TRP800  GLU811  SER814 

> <Gold.Protein.RotatedAtoms>
  151.7354  133.3319  159.3351 H   0  0  0  0  0  0  0  0  0  0  0  0  # atno 6907 bound_to 6896
  150.7595  134.6326  159.6204 H   0  0  0  0  0  0  0  0  0  0  0  0  # atno 6908 bound_to 6896
  152.3565  134.6935  160.0272 H   0  0  0  0  0  0  0  0  0  0  0  0  # atno 6909 bound_to 6896
  145.2648  140.9280  143.3020 H   0  0  0  0  0  0  0  0  0  0  0  0  # atno 7974 bound_to 7965
  154.4079  140.1252  156.4797 H   0  0  0  0  0  0  0  0  0  0  0  0  # atno 8008 bound_to 7997
  155.7097  140.3494  155.4949 H   0  0  0  0  0  0  0  0  0  0  0  0  # atno 8009 bound_to 7997
  155.9311  140.1070  157.1121 H   0  0  0  0  0  0  0  0  0  0  0  0  # atno 8010 bound_to 7997
  140.7278  143.4691  151.0271 H   0  0  0  0  0  0  0  0  0  0  0  0  # atno 10167 bound_to 10162
  156.3585  130.7725  151.1889 H   0  0  0  0  0  0  0  0  0  0  0  0  # atno 10718 bound_to 10713
  154.5962  135.5531  153.7327 H   0  0  0  0  0  0  0  0  0  0  0  0  # atno 10763 bound_to 10752
  153.0136  135.6355  154.1780 H   0  0  0  0  0  0  0  0  0  0  0  0  # atno 10764 bound_to 10752
  154.1720  135.2891  155.3058 H   0  0  0  0  0  0  0  0  0  0  0  0  # atno 10765 bound_to 10752
  140.6956  133.9034  155.8648 H   0  0  0  0  0  0  0  0  0  0  0  0  # atno 11005 bound_to 11000
  144.9386  139.4214  143.6460 LP  0  0  0  0  0  0  0  0  0  0  0  0  # atno 17320 bound_to 7965
  146.3264  139.8335  142.8904 LP  0  0  0  0  0  0  0  0  0  0  0  0  # atno 17321 bound_to 7965
  139.8382  143.7599  152.3180 LP  0  0  0  0  0  0  0  0  0  0  0  0  # atno 17342 bound_to 10162
  139.7739  144.7467  151.0185 LP  0  0  0  0  0  0  0  0  0  0  0  0  # atno 17343 bound_to 10162
  157.7470  131.0407  150.4610 LP  0  0  0  0  0  0  0  0  0  0  0  0  # atno 17370 bound_to 10713
  156.4817  130.4075  149.6457 LP  0  0  0  0  0  0  0  0  0  0  0  0  # atno 17371 bound_to 10713
  141.0206  134.0894  157.4125 LP  0  0  0  0  0  0  0  0  0  0  0  0  # atno 17394 bound_to 11000
  139.8911  135.0116  156.6773 LP  0  0  0  0  0  0  0  0  0  0  0  0  # atno 17395 bound_to 11000

$$$$
