AV-unprocessed.smi:675|AV-procd|sdf|3303|dock5
  -GOLD-   22720 0263D 1   1.00000     0.00000
 Structure written by MMmdl.
 29 30  0  0  0  0  0  0  0  0  1 V2000
  146.7394  140.0015  153.0663 O   0  0  0  0  0  0  0  0  0  0  0  0
  147.6655  140.3879  153.7767 C   0  0  0  0  0  0  0  0  0  0  0  0
  148.8776  139.6915  153.7796 N   0  0  0  0  0  0  0  0  0  0  0  0
  150.0027  140.0199  154.5364 C   0  0  0  0  0  0  0  0  0  0  0  0
  151.0118  139.3188  154.4634 O   0  0  0  0  0  0  0  0  0  0  0  0
  149.8997  141.1609  155.3679 N   0  0  0  0  0  0  0  0  0  0  0  0
  151.0220  141.5209  156.2038 C   0  0  0  0  0  0  0  0  0  0  0  0
  150.6128  142.0432  157.6002 C   0  0  2  0  0  0  0  0  0  0  0  0
  150.2716  143.4090  157.4715 O   0  0  0  0  0  0  0  0  0  0  0  0
  151.6802  141.8079  158.6693 C   0  0  0  0  0  0  0  0  0  0  0  0
  152.0759  140.4835  158.9669 C   0  0  0  0  0  0  0  0  0  0  0  0
  153.0422  140.2267  159.9572 C   0  0  0  0  0  0  0  0  0  0  0  0
  153.6224  141.2939  160.6656 C   0  0  0  0  0  0  0  0  0  0  0  0
  153.2334  142.6158  160.3823 C   0  0  0  0  0  0  0  0  0  0  0  0
  152.2667  142.8799  159.3913 C   0  0  0  0  0  0  0  0  0  0  0  0
  151.8204  144.5263  159.1066 Cl  0  0  0  0  0  0  0  0  0  0  0  0
  148.7150  141.8800  155.3968 C   0  0  0  0  0  0  0  0  0  0  0  0
  147.6266  141.5521  154.6602 C   0  0  0  0  0  0  0  0  0  0  0  0
  146.1832  142.4949  154.7613 Cl  0  0  0  0  0  0  0  0  0  0  0  0
  148.9431  138.8779  153.1853 H   0  0  0  0  0  0  0  0  0  0  0  0
  151.7140  140.6782  156.2568 H   0  0  0  0  0  0  0  0  0  0  0  0
  151.5484  142.2969  155.6449 H   0  0  0  0  0  0  0  0  0  0  0  0
  149.6867  141.5527  157.8956 H   0  0  0  0  0  0  0  0  0  0  0  0
  149.6896  143.5037  156.7329 H   0  0  0  0  0  0  0  0  0  0  0  0
  151.6312  139.6527  158.4391 H   0  0  0  0  0  0  0  0  0  0  0  0
  153.3355  139.2104  160.1756 H   0  0  0  0  0  0  0  0  0  0  0  0
  154.3622  141.0989  161.4280 H   0  0  0  0  0  0  0  0  0  0  0  0
  153.6772  143.4324  160.9325 H   0  0  0  0  0  0  0  0  0  0  0  0
  148.6525  142.7412  156.0469 H   0  0  0  0  0  0  0  0  0  0  0  0
  1  2  2  0  0  0  0
  2 18  1  0  0  0  0
  2  3  1  0  0  0  0
  3 20  1  0  0  0  0
  3  4  1  0  0  0  0
  4  5  2  0  0  0  0
  4  6  1  0  0  0  0
  6  7  1  0  0  0  0
  6 17  1  0  0  0  0
  7  8  1  0  0  0  0
  7 21  1  0  0  0  0
  7 22  1  0  0  0  0
  8  9  1  0  0  0  0
  8 10  1  0  0  0  0
  8 23  1  0  0  0  0
  9 24  1  0  0  0  0
 10 15  1  0  0  0  0
 10 11  2  0  0  0  0
 11 12  1  0  0  0  0
 11 25  1  0  0  0  0
 12 13  2  0  0  0  0
 12 26  1  0  0  0  0
 13 14  1  0  0  0  0
 13 27  1  0  0  0  0
 14 15  2  0  0  0  0
 14 28  1  0  0  0  0
 15 16  1  0  0  0  0
 17 18  2  0  0  0  0
 17 29  1  0  0  0  0
 18 19  1  0  0  0  0
M  END
> <s_m_source_file>
AV-unprocessed.smi

> <i_m_source_file_index>
675

> <i_lp_mmshare_version>
43012

> <i_f3d_flags>
0

> <s_epik_input>
Tz1jMVtuSF1jKD1PKW4oW2NIXWMxQ2wpW0NIMl1bQ0BIXShbT0hdKWMyW2NIXVtjSF1bY0hdW2NIXWMyQ2w=

> <s_epik_cmdline>
J2VwaWtfcHl0aG9uJywgJy1waCcsICc3LjAnLCAnLXRuJywgJzgnLCAnLW1hJywgJzIwMCcsICctbWV0YWxfYmluZGluZycsICctaW1hZScsICc8aW5maWxlLm1hZT4nLCAnLW9tYWUnLCAnPG91dGZpbGUubWFlPic=

> <r_lp_tautomer_probability>
0.999537

> <r_epik_Ionization_Penalty>
0.029206

> <r_epik_Ionization_Penalty_Charging>
0.0292057

> <r_epik_Ionization_Penalty_Neutral>
2.68278e-07

> <r_epik_State_Penalty>
0.0240115

> <r_epik_Charging_Adjusted_Penalty>
0.0532172

> <i_epik_Tot_Q>
0

> <i_epik_Tot_abs_Q>
0

> <r_epik_Metal_State_Penalty>
2.21956

> <b_epik_Metal_Only>
0

> <s_lp_Force_Field>
OPLS_2005

> <r_lp_Energy>
11.7134

> <b_lp_Chiralities_Consistent>
1

> <s_lp_Variant>
AV-unprocessed.smi:675-1

> <Gold.Version>
5.8.1

> <Gold.Id.Protein>
6NUR|6NUR_protein|mol2

> <Gold.PLP.Fitness>
47.8122

> <Gold.PLP.PLP>
-43.0045

> <Gold.PLP.part.hbond>
-3.0000

> <Gold.PLP.part.metal>
0.0000

> <Gold.PLP.part.buried>
-2.7340

> <Gold.PLP.part.nonpolar>
-38.4885

> <Gold.PLP.part.repulsive>
0.4721

> <Gold.PLP.ligand.clash>
0.0000

> <Gold.PLP.ligand.torsion>
0.5985

> <Gold.PLP.Chemscore.Hbond>
0.9980

> <Gold.PLP.Chemscore.CHOScore>
0.9965

> <Gold.PLP.Chemscore.Metal>
0.0000

> <Gold.Chemscore.Hbonds>
donor molecule, donor type, donor heavy atom, donor atom, acceptor molecule, acceptor atom, score
      L1  H     9    24       P1  8028  0.85
      P1  H  7989  7998       L1     5  0.05
      L1  C    17    29       P1  8028  0.98

> <Gold.PLP.Chemscore.Internal.Correction>
0.0214

> <Gold.Rescore>
     Score         DG    S(hbond)    S(metal)    S(lipo)     H(rot)  DE(clash)    DE(int)     intcor
     12.13     -14.73       0.85        0.00     102.46       2.18       0.18       2.42       ----

> <Gold.Chemscore.Fitness>
12.1265

> <Gold.Chemscore.DG>
-14.7254

> <Gold.Chemscore.ZeroCoef>
-5.4800

> <Gold.Chemscore.Hbond>
0.8479

> <Gold.Chemscore.Metal>
0.0000

> <Gold.Chemscore.Lipo>
102.4600

> <Gold.Chemscore.Internal_Hbond>
0.0000

> <Gold.Chemscore.DEClash>
0.1755

> <Gold.Chemscore.DEInternal>
2.4234

> <Gold.Chemscore.Rot>
2.1775

> <Gold.Chemscore.Internal.Correction>
   9.000000E+99

> <Gold.Chemscore.Hbonds>
donor molecule, donor type, donor heavy atom, donor atom, acceptor molecule, acceptor atom, score
      L1  H     9    24       P1  8028  0.85

> <Gold.Chemscore.Hbond.Weighted>
-2.8321

> <Gold.Chemscore.Metal.Weighted>
-0.0000

> <Gold.Chemscore.Lipo.Weighted>
-11.9878

> <Gold.Chemscore.Internal_Hbond.Weighted>
0.0000

> <Gold.Chemscore.DEClash.Weighted>
0.1755

> <Gold.Chemscore.DEInternal.Weighted>
2.4234

> <Gold.Chemscore.Rot.Weighted>
5.5745

> <Gold.Chemscore.Internal.Correction.Weighted>
   9.000000E+99

> <Gold.Protein.RotatedTorsions>
[ 6907 6896 6895 6894 ] final -120.29 input  -60.11 | X-H torsion
[ 7974 7965 7964 7962 ] final   19.24 input  175.53 | X-H torsion
[ 8008 7997 7996 7995 ] final   -5.02 input   59.86 | X-H torsion
[ 10167 10162 10161 10158 ] final   -0.63 input  -65.29 | X-H torsion
[ 10718 10713 10712 10709 ] final  -43.84 input   66.30 | X-H torsion
[ 10763 10752 10751 10750 ] final -136.65 input  -60.55 | X-H torsion
[ 11005 11000 10999 10996 ] final   85.98 input  -57.11 | X-H torsion

> <Gold.Protein.ActiveResidues>
 VAL166  LYS551  ARG553  GLY616  TRP617  ASP618  TYR619  PRO620  LYS621  CYS622 
 ASP623  PHE694  ASN695  SER759  ASP760  ASP761  ALA762  ILE779  LEU786  VAL792 
 PHE793  MET794  SER795  GLU796  ALA797  LYS798  CYS799  TRP800  GLU811  SER814 

> <Gold.Protein.RotatedAtoms>
  150.8380  133.7982  159.3071 H   0  0  0  0  0  0  0  0  0  0  0  0  # atno 6907 bound_to 6896
  151.5691  135.1061  160.0000 H   0  0  0  0  0  0  0  0  0  0  0  0  # atno 6908 bound_to 6896
  152.4449  133.7475  159.6732 H   0  0  0  0  0  0  0  0  0  0  0  0  # atno 6909 bound_to 6896
  146.2156  139.8342  142.8654 H   0  0  0  0  0  0  0  0  0  0  0  0  # atno 7974 bound_to 7965
  154.6082  140.2469  155.7703 H   0  0  0  0  0  0  0  0  0  0  0  0  # atno 8008 bound_to 7997
  156.2354  140.2952  156.0250 H   0  0  0  0  0  0  0  0  0  0  0  0  # atno 8009 bound_to 7997
  155.2096  140.0397  157.2921 H   0  0  0  0  0  0  0  0  0  0  0  0  # atno 8010 bound_to 7997
  140.6776  143.6871  150.8058 H   0  0  0  0  0  0  0  0  0  0  0  0  # atno 10167 bound_to 10162
  156.2448  130.4183  149.8719 H   0  0  0  0  0  0  0  0  0  0  0  0  # atno 10718 bound_to 10713
  154.8679  135.3666  154.5096 H   0  0  0  0  0  0  0  0  0  0  0  0  # atno 10763 bound_to 10752
  153.5732  135.7020  153.5500 H   0  0  0  0  0  0  0  0  0  0  0  0  # atno 10764 bound_to 10752
  153.3524  135.4068  155.1619 H   0  0  0  0  0  0  0  0  0  0  0  0  # atno 10765 bound_to 10752
  139.8957  134.8324  156.2657 H   0  0  0  0  0  0  0  0  0  0  0  0  # atno 11005 bound_to 11000
  145.2966  141.0182  143.3633 LP  0  0  0  0  0  0  0  0  0  0  0  0  # atno 17320 bound_to 7965
  144.9038  139.4616  143.6620 LP  0  0  0  0  0  0  0  0  0  0  0  0  # atno 17321 bound_to 7965
  140.0566  143.5196  152.2648 LP  0  0  0  0  0  0  0  0  0  0  0  0  # atno 17342 bound_to 10162
  139.6077  144.7600  151.3023 LP  0  0  0  0  0  0  0  0  0  0  0  0  # atno 17343 bound_to 10162
  156.6288  130.8657  151.3491 LP  0  0  0  0  0  0  0  0  0  0  0  0  # atno 17370 bound_to 10713
  157.7190  130.9534  150.1365 LP  0  0  0  0  0  0  0  0  0  0  0  0  # atno 17371 bound_to 10713
  141.0133  133.7083  156.1148 LP  0  0  0  0  0  0  0  0  0  0  0  0  # atno 17394 bound_to 11000
  140.7336  134.4227  157.5563 LP  0  0  0  0  0  0  0  0  0  0  0  0  # atno 17395 bound_to 11000

$$$$
