AV-unprocessed.smi:39|AV-procd|sdf|359|dock7
  -GOLD-   2262016203D 1   1.00000     0.00000
 Structure written by MMmdl.
 31 32  0  0  0  0  0  0  0  0  4 V2000
  152.5118  141.2985  159.8927 C   0  0  0  0  0  0  0  0  0  0  0  0
  151.8783  141.2392  158.5137 C   0  0  0  0  0  0  0  0  0  0  0  0
  152.1912  140.2778  157.6170 C   0  0  0  0  0  0  0  0  0  0  0  0
  151.6145  140.2295  156.3594 N   0  0  0  0  0  0  0  0  0  0  0  0
  151.9916  139.1495  155.3670 C   0  0  1  0  0  0  0  0  0  0  0  0
  152.8016  138.0506  156.0605 C   0  0  0  0  0  0  0  0  0  0  0  0
  151.7302  137.0184  156.3569 C   0  0  2  0  0  0  0  0  0  0  0  0
  152.2707  135.6665  156.5168 N   0  0  0  0  0  0  0  0  0  0  0  0
  151.4632  134.7867  156.8426 N   0  3  0  0  0  0  0  0  0  0  0  0
  150.6723  134.0609  157.2203 N   0  5  0  0  0  0  0  0  0  0  0  0
  150.8385  137.1532  155.1198 C   0  0  1  0  0  0  0  0  0  0  0  0
  149.4044  136.6461  155.3391 C   0  0  0  0  0  0  0  0  0  0  0  0
  148.5845  137.0195  154.2523 O   0  0  0  0  0  0  0  0  0  0  0  0
  150.8280  138.5567  154.8646 O   0  0  0  0  0  0  0  0  0  0  0  0
  150.6819  141.2296  155.9781 C   0  0  0  0  0  0  0  0  0  0  0  0
  150.2129  141.1815  154.8406 O   0  0  0  0  0  0  0  0  0  0  0  0
  150.3540  142.1992  156.8789 N   0  5  0  0  0  0  0  0  0  0  0  0
  150.8955  142.2593  158.1293 C   0  0  0  0  0  0  0  0  0  0  0  0
  150.5869  143.1372  158.9344 O   0  0  0  0  0  0  0  0  0  0  0  0
  152.5246  139.6492  154.5568 H   0  0  0  0  0  0  0  0  0  0  0  0
  151.1663  137.3244  157.2406 H   0  0  0  0  0  0  0  0  0  0  0  0
  151.3099  136.6447  154.2763 H   0  0  0  0  0  0  0  0  0  0  0  0
  153.2147  140.4786  160.0416 H   0  0  0  0  0  0  0  0  0  0  0  0
  151.7466  141.2330  160.6666 H   0  0  0  0  0  0  0  0  0  0  0  0
  153.0537  142.2359  160.0220 H   0  0  0  0  0  0  0  0  0  0  0  0
  152.9189  139.5320  157.8968 H   0  0  0  0  0  0  0  0  0  0  0  0
  153.5350  137.6640  155.3513 H   0  0  0  0  0  0  0  0  0  0  0  0
  153.3250  138.4143  156.9458 H   0  0  0  0  0  0  0  0  0  0  0  0
  149.3953  135.5572  155.3931 H   0  0  0  0  0  0  0  0  0  0  0  0
  148.9881  137.0187  156.2751 H   0  0  0  0  0  0  0  0  0  0  0  0
  148.9719  136.6887  153.4565 H   0  0  0  0  0  0  0  0  0  0  0  0
  1  2  1  0  0  0  0
  1 23  1  0  0  0  0
  1 24  1  0  0  0  0
  1 25  1  0  0  0  0
  2 18  1  0  0  0  0
  2  3  2  0  0  0  0
  3  4  1  0  0  0  0
  3 26  1  0  0  0  0
  4  5  1  0  0  0  0
  4 15  1  0  0  0  0
  5 20  1  0  0  0  0
  5 14  1  0  0  0  0
  5  6  1  0  0  0  0
  6  7  1  0  0  0  0
  6 27  1  0  0  0  0
  6 28  1  0  0  0  0
  7 21  1  0  0  0  0
  7  8  1  0  0  0  0
  7 11  1  0  0  0  0
  8  9  2  0  0  0  0
  9 10  2  0  0  0  0
 11 22  1  0  0  0  0
 11 12  1  0  0  0  0
 11 14  1  0  0  0  0
 12 13  1  0  0  0  0
 12 29  1  0  0  0  0
 12 30  1  0  0  0  0
 13 31  1  0  0  0  0
 15 16  2  0  0  0  0
 15 17  1  0  0  0  0
 17 18  1  0  0  0  0
 18 19  2  0  0  0  0
M  CHG  1   9   1
M  CHG  1  10  -1
M  CHG  1  17  -1
M  END
> <s_m_source_file>
AV-unprocessed.smi

> <i_m_source_file_index>
39

> <i_lp_mmshare_version>
43012

> <i_f3d_flags>
0

> <s_epik_input>
Tz1jMVtuSF1jKD1PKW4oW2NIXWMxW0NIM10pW0NASF0yW0NIMl1bQ0BIXShOPVtOK109W04tXSlbQ0BIXShPMilbQ0gyXVtPSF0=

> <s_epik_cmdline>
J2VwaWtfcHl0aG9uJywgJy1waCcsICc3LjAnLCAnLXRuJywgJzgnLCAnLW1hJywgJzIwMCcsICctbWV0YWxfYmluZGluZycsICctaW1hZScsICc8aW5maWxlLm1hZT4nLCAnLW9tYWUnLCAnPG91dGZpbGUubWFlPic=

> <r_lp_tautomer_probability>
0.999537

> <r_epik_Ionization_Penalty>
3.6393

> <r_epik_Ionization_Penalty_Charging>
9.76484e-08

> <r_epik_Ionization_Penalty_Neutral>
3.6393

> <r_epik_State_Penalty>
3.63887

> <r_epik_Charging_Adjusted_Penalty>
3.63887

> <i_epik_Tot_Q>
-1

> <i_epik_Tot_abs_Q>
3

> <r_epik_Metal_State_Penalty>
0.225911

> <b_epik_Metal_Only>
1

> <s_epik_Chemistry_Notes>
This compound contains an acetal/aminal-like group ( X-CH(R)-Y where X, Y are N, S, or O) that may be acid/base labile, releasing an aldehyde.

> <s_lp_Force_Field>
OPLS_2005

> <r_lp_Energy>
34.0218

> <b_lp_Chiralities_Consistent>
1

> <s_lp_Variant>
AV-unprocessed.smi:39-9

> <Gold.Version>
5.8.1

> <Gold.Id.Protein>
6NUR|6NUR_protein|mol2

> <Gold.PLP.Fitness>
37.0037

> <Gold.PLP.PLP>
-28.2558

> <Gold.PLP.part.hbond>
-4.9646

> <Gold.PLP.part.metal>
0.0000

> <Gold.PLP.part.buried>
-4.4001

> <Gold.PLP.part.nonpolar>
-20.0111

> <Gold.PLP.part.repulsive>
0.4653

> <Gold.PLP.ligand.clash>
0.0000

> <Gold.PLP.ligand.torsion>
0.2905

> <Gold.PLP.Chemscore.Hbond>
3.0985

> <Gold.PLP.Chemscore.CHOScore>
0.0000

> <Gold.PLP.Chemscore.Metal>
0.0000

> <Gold.Chemscore.Hbonds>
donor molecule, donor type, donor heavy atom, donor atom, acceptor molecule, acceptor atom, score
      L1  H    13    31       P1  7948  1.00
      P1  H  6896  6909       L1    10  0.57
      P1  H  7989  7998       L1    16  0.59
      P1  H 10752 10764       L1     8  1.00

> <Gold.PLP.Chemscore.Internal.Correction>
0.0333

> <Gold.Rescore>
     Score         DG    S(hbond)    S(metal)    S(lipo)     H(rot)  DE(clash)    DE(int)     intcor
      9.99     -12.12       2.62        0.00      41.26       2.72       0.24       1.88       ----

> <Gold.Chemscore.Fitness>
9.9939

> <Gold.Chemscore.DG>
-12.1185

> <Gold.Chemscore.ZeroCoef>
-5.4800

> <Gold.Chemscore.Hbond>
2.6234

> <Gold.Chemscore.Metal>
0.0000

> <Gold.Chemscore.Lipo>
41.2608

> <Gold.Chemscore.Internal_Hbond>
0.0000

> <Gold.Chemscore.DEClash>
0.2428

> <Gold.Chemscore.DEInternal>
1.8818

> <Gold.Chemscore.Rot>
2.7153

> <Gold.Chemscore.Internal.Correction>
   9.000000E+99

> <Gold.Chemscore.Hbonds>
donor molecule, donor type, donor heavy atom, donor atom, acceptor molecule, acceptor atom, score
      L1  H    13    31       P1  7948  0.98
      P1  H  6896  6909       L1    10  0.42
      P1  H  7989  7998       L1    16  0.47
      P1  H 10752 10764       L1     8  0.72

> <Gold.Chemscore.Hbond.Weighted>
-8.7622

> <Gold.Chemscore.Metal.Weighted>
-0.0000

> <Gold.Chemscore.Lipo.Weighted>
-4.8275

> <Gold.Chemscore.Internal_Hbond.Weighted>
0.0000

> <Gold.Chemscore.DEClash.Weighted>
0.2428

> <Gold.Chemscore.DEInternal.Weighted>
1.8818

> <Gold.Chemscore.Rot.Weighted>
6.9512

> <Gold.Chemscore.Internal.Correction.Weighted>
   9.000000E+99

> <Gold.Protein.RotatedTorsions>
[ 6907 6896 6895 6894 ] final  -13.67 input  -60.11 | X-H torsion
[ 7974 7965 7964 7962 ] final  128.41 input  175.53 | X-H torsion
[ 8008 7997 7996 7995 ] final  123.80 input   59.86 | X-H torsion
[ 10167 10162 10161 10158 ] final  -60.60 input  -65.29 | X-H torsion
[ 10718 10713 10712 10709 ] final   78.57 input   66.30 | X-H torsion
[ 10763 10752 10751 10750 ] final   -2.07 input  -60.55 | X-H torsion
[ 11005 11000 10999 10996 ] final -151.90 input  -57.11 | X-H torsion

> <Gold.Protein.ActiveResidues>
 VAL166  LYS551  ARG553  GLY616  TRP617  ASP618  TYR619  PRO620  LYS621  CYS622 
 ASP623  PHE694  ASN695  SER759  ASP760  ASP761  ALA762  ILE779  LEU786  VAL792 
 PHE793  MET794  SER795  GLU796  ALA797  LYS798  CYS799  TRP800  GLU811  SER814 

> <Gold.Protein.RotatedAtoms>
  151.3514  135.0885  159.9403 H   0  0  0  0  0  0  0  0  0  0  0  0  # atno 6907 bound_to 6896
  152.5186  133.9349  159.7609 H   0  0  0  0  0  0  0  0  0  0  0  0  # atno 6908 bound_to 6896
  150.9725  133.6275  159.2765 H   0  0  0  0  0  0  0  0  0  0  0  0  # atno 6909 bound_to 6896
  145.0399  139.3973  143.5107 H   0  0  0  0  0  0  0  0  0  0  0  0  # atno 7974 bound_to 7965
  156.2779  140.2754  156.1685 H   0  0  0  0  0  0  0  0  0  0  0  0  # atno 8008 bound_to 7997
  155.0679  140.0387  157.2617 H   0  0  0  0  0  0  0  0  0  0  0  0  # atno 8009 bound_to 7997
  154.7063  140.2659  155.6676 H   0  0  0  0  0  0  0  0  0  0  0  0  # atno 8010 bound_to 7997
  140.6061  143.2374  151.5818 H   0  0  0  0  0  0  0  0  0  0  0  0  # atno 10167 bound_to 10162
  157.6749  130.9874  150.1806 H   0  0  0  0  0  0  0  0  0  0  0  0  # atno 10718 bound_to 10713
  153.3532  135.6986  153.6771 H   0  0  0  0  0  0  0  0  0  0  0  0  # atno 10763 bound_to 10752
  153.5490  135.3557  155.2752 H   0  0  0  0  0  0  0  0  0  0  0  0  # atno 10764 bound_to 10752
  154.8656  135.4222  154.2772 H   0  0  0  0  0  0  0  0  0  0  0  0  # atno 10765 bound_to 10752
  140.7246  134.3689  157.5177 H   0  0  0  0  0  0  0  0  0  0  0  0  # atno 11005 bound_to 11000
  146.3508  139.9993  142.8677 LP  0  0  0  0  0  0  0  0  0  0  0  0  # atno 17320 bound_to 7965
  145.1662  140.9698  143.4348 LP  0  0  0  0  0  0  0  0  0  0  0  0  # atno 17321 bound_to 7965
  139.5326  144.2873  152.1181 LP  0  0  0  0  0  0  0  0  0  0  0  0  # atno 17342 bound_to 10162
  140.2063  144.4608  150.6407 LP  0  0  0  0  0  0  0  0  0  0  0  0  # atno 17343 bound_to 10162
  156.2539  130.3703  149.8202 LP  0  0  0  0  0  0  0  0  0  0  0  0  # atno 17370 bound_to 10713
  156.5967  130.8529  151.3421 LP  0  0  0  0  0  0  0  0  0  0  0  0  # atno 17371 bound_to 10713
  139.8840  134.8978  156.2730 LP  0  0  0  0  0  0  0  0  0  0  0  0  # atno 17394 bound_to 11000
  140.9974  133.7172  156.0907 LP  0  0  0  0  0  0  0  0  0  0  0  0  # atno 17395 bound_to 11000

$$$$
