#       Name:                AV-unprocessed.smi:2493
#       Creating user name   scv26
#       Creation time:       Fri Mar 27 13:45:04 2020


#       File generated by GOLD software.
#

@<TRIPOS>MOLECULE
AV-unprocessed.smi:2493
    44    45     1
SMALL
NO_CHARGES


@<TRIPOS>ATOM
      1 ****        -0.5265   2.0681   1.2095 C.3            1 S1                 0.0000
      2 ****        -1.0313   0.9330   0.2889 C.3            1 S1                 0.0000
      3 ****        -0.5173  -0.4328   0.8267 C.3            1 S1                 0.0000
      4 ****         0.9372  -0.5729   0.7719 N.am           1 S1                 0.0000
      5 ****         1.7752  -0.4867   1.8171 C.2            1 S1                 0.0000
      6 ****         1.4067  -0.2626   2.9697 O.2            1 S1                 0.0000
      7 ****         3.2621  -0.6738   1.5143 C.3            1 S1                 0.0000
      8 ****         3.5771  -2.1054   1.2190 C.2            1 S1                 0.0000
      9 ****         3.7684  -2.7623   0.0353 C.2            1 S1                 0.0000
     10 ****         4.0329  -4.1077   0.4230 C.2            1 S1                 0.0000
     11 ****         4.0110  -4.2774   1.7354 N.2            1 S1                 0.0000
     12 ****         3.7338  -3.0487   2.2106 N.pl3          1 S1                 0.0000
     13 ****        -2.5838   0.9338   0.3547 C.3            1 S1                 0.0000
     14 ****        -3.3207   0.2233  -0.7963 C.3            1 S1                 0.0000
     15 ****        -3.6200   1.1588  -1.9798 C.3            1 S1                 0.0000
     16 ****        -2.3927   1.5412  -2.8191 C.3            1 S1                 0.0000
     17 ****        -1.2427   2.1796  -2.0212 C.3            1 S1                 0.0000
     18 ****        -0.4839   1.1623  -1.1488 C.3            1 S1                 0.0000
     19 ****         3.6504  -2.8703   3.2015 H              1 S1                 0.0000
     20 ****        -0.8476   1.9125   2.2402 H              1 S1                 0.0000
     21 ****        -0.9056   3.0403   0.8936 H              1 S1                 0.0000
     22 ****         0.5610   2.1401   1.2149 H              1 S1                 0.0000
     23 ****        -0.8784  -0.6025   1.8427 H              1 S1                 0.0000
     24 ****        -0.9337  -1.2461   0.2323 H              1 S1                 0.0000
     25 ****         1.3377  -0.7591  -0.1361 H              1 S1                 0.0000
     26 ****         3.5379  -0.0455   0.6665 H              1 S1                 0.0000
     27 ****         3.8535  -0.3270   2.3629 H              1 S1                 0.0000
     28 ****         3.7240  -2.3457  -0.9601 H              1 S1                 0.0000
     29 ****         4.2386  -4.9603  -0.2075 H              1 S1                 0.0000
     30 ****        -2.8929   0.4780   1.2965 H              1 S1                 0.0000
     31 ****        -2.9561   1.9573   0.4186 H              1 S1                 0.0000
     32 ****        -2.7864  -0.6677  -1.1266 H              1 S1                 0.0000
     33 ****        -4.2770  -0.1329  -0.4115 H              1 S1                 0.0000
     34 ****        -4.3428   0.6724  -2.6355 H              1 S1                 0.0000
     35 ****        -4.1130   2.0623  -1.6190 H              1 S1                 0.0000
     36 ****        -2.0270   0.6639  -3.3537 H              1 S1                 0.0000
     37 ****        -2.7132   2.2418  -3.5907 H              1 S1                 0.0000
     38 ****        -0.5366   2.5933  -2.7420 H              1 S1                 0.0000
     39 ****        -1.5940   3.0279  -1.4336 H              1 S1                 0.0000
     40 ****         0.5567   1.4827  -1.0799 H              1 S1                 0.0000
     41 ****        -0.4410   0.2133  -1.6851 H              1 S1                 0.0000
     42 ****         0.4351  -0.1334   3.1678 LP             1 S1                 0.0000
     43 ****         2.0789  -0.2097   3.7082 LP             1 S1                 0.0000
     44 ****         4.1642  -5.1197   2.2522 LP             1 S1                 0.0000
@<TRIPOS>BOND
    1    1    2 1     
    2    1   20 1     
    3    1   21 1     
    4    1   22 1     
    5    2   18 1     
    6    2    3 1     
    7    2   13 1     
    8    3    4 1     
    9    3   23 1     
   10    3   24 1     
   11    4    5 am    
   12    4   25 1     
   13    5    6 2     
   14    5    7 1     
   15    7    8 1     
   16    7   26 1     
   17    7   27 1     
   18    8   12 1     
   19    8    9 2     
   20    9   10 1     
   21    9   28 1     
   22   10   11 2     
   23   10   29 1     
   24   11   12 1     
   25   12   19 1     
   26   13   14 1     
   27   13   30 1     
   28   13   31 1     
   29   14   15 1     
   30   14   32 1     
   31   14   33 1     
   32   15   16 1     
   33   15   34 1     
   34   15   35 1     
   35   16   17 1     
   36   16   36 1     
   37   16   37 1     
   38   17   18 1     
   39   17   38 1     
   40   17   39 1     
   41   18   40 1     
   42   18   41 1     
   43    6   42 1     
   44    6   43 1     
   45   11   44 1     
@<TRIPOS>SUBSTRUCTURE
      1 S1             1
@<TRIPOS>SET
LONE_PAIRS      STATIC     ATOMS    <user>   **** ""
3 42 43 44
DONOR_HYDROGENS      STATIC     ATOMS    <user>   **** ""
2 25 19
ATOM$BLUE        STATIC     ATOMS    COLORGROUP SYSTEM
3 42 43 44
ATOM$RED        STATIC     ATOMS    COLORGROUP SYSTEM
2 25 19
