AV-unprocessed.smi:3293|AV-procd|sdf|12631|dock8
  -GOLD-   2272018563D 1   1.00000     0.00000
 Structure written by MMmdl.
 44 45  0  0  0  0  0  0  0  0  2 V2000
  153.9689  140.7487  161.1450 C   0  0  0  0  0  0  0  0  0  0  0  0
  153.1564  141.9774  160.7715 C   0  0  0  0  0  0  0  0  0  0  0  0
  152.8776  142.9040  161.7081 C   0  0  0  0  0  0  0  0  0  0  0  0
  152.1430  144.1962  161.4361 C   0  0  0  0  0  0  0  0  0  0  0  0
  152.2116  144.5627  159.9519 C   0  0  0  0  0  0  0  0  0  0  0  0
  151.8081  143.3757  159.0619 C   0  0  1  0  0  0  0  0  0  0  0  0
  151.8066  143.8197  157.5865 C   0  0  0  0  0  0  0  0  0  0  0  0
  152.6993  142.1182  159.3049 C   0  0  2  0  0  0  0  0  0  0  0  0
  151.9785  140.8488  158.7782 C   0  0  0  0  0  0  0  0  0  0  0  0
  151.9041  140.7955  157.3034 N   0  3  0  0  0  0  0  0  0  0  0  0
  150.5333  140.9011  156.7672 C   0  0  0  0  0  0  0  0  0  0  0  0
  150.4738  140.4446  155.3037 C   0  0  0  0  0  0  0  0  0  0  0  0
  149.2109  140.9095  154.6340 C   0  0  0  0  0  0  0  0  0  0  0  0
  148.5213  140.2970  153.5487 C   0  0  0  0  0  0  0  0  0  0  0  0
  147.4302  140.9558  153.1950 N   0  0  0  0  0  0  0  0  0  0  0  0
  147.3844  142.0081  154.0373 N   0  0  0  0  0  0  0  0  0  0  0  0
  146.2985  142.9591  153.9332 C   0  0  0  0  0  0  0  0  0  0  0  0
  148.4476  142.0083  154.9143 C   0  0  0  0  0  0  0  0  0  0  0  0
  154.8017  140.6159  160.4540 H   0  0  0  0  0  0  0  0  0  0  0  0
  153.3494  139.8525  161.1322 H   0  0  0  0  0  0  0  0  0  0  0  0
  154.3852  140.8398  162.1488 H   0  0  0  0  0  0  0  0  0  0  0  0
  153.1974  142.7527  162.7290 H   0  0  0  0  0  0  0  0  0  0  0  0
  151.1086  144.0865  161.7629 H   0  0  0  0  0  0  0  0  0  0  0  0
  152.5863  144.9934  162.0333 H   0  0  0  0  0  0  0  0  0  0  0  0
  151.5654  145.4205  159.7616 H   0  0  0  0  0  0  0  0  0  0  0  0
  153.2253  144.8791  159.7016 H   0  0  0  0  0  0  0  0  0  0  0  0
  150.7818  143.1185  159.3298 H   0  0  0  0  0  0  0  0  0  0  0  0
  152.8097  144.0894  157.2545 H   0  0  0  0  0  0  0  0  0  0  0  0
  151.1690  144.6925  157.4434 H   0  0  0  0  0  0  0  0  0  0  0  0
  151.4349  143.0447  156.9178 H   0  0  0  0  0  0  0  0  0  0  0  0
  153.6152  142.2567  158.7281 H   0  0  0  0  0  0  0  0  0  0  0  0
  152.4848  139.9582  159.1535 H   0  0  0  0  0  0  0  0  0  0  0  0
  150.9557  140.7955  159.1477 H   0  0  0  0  0  0  0  0  0  0  0  0
  152.4606  141.5491  156.9259 H   0  0  0  0  0  0  0  0  0  0  0  0
  149.8645  140.2898  157.3749 H   0  0  0  0  0  0  0  0  0  0  0  0
  150.1937  141.9344  156.8513 H   0  0  0  0  0  0  0  0  0  0  0  0
  151.3472  140.8229  154.7713 H   0  0  0  0  0  0  0  0  0  0  0  0
  150.5490  139.3573  155.2616 H   0  0  0  0  0  0  0  0  0  0  0  0
  148.7788  139.3960  153.0116 H   0  0  0  0  0  0  0  0  0  0  0  0
  146.2899  143.6127  154.8059 H   0  0  0  0  0  0  0  0  0  0  0  0
  145.3455  142.4321  153.8777 H   0  0  0  0  0  0  0  0  0  0  0  0
  146.4260  143.5651  153.0359 H   0  0  0  0  0  0  0  0  0  0  0  0
  148.5704  142.7806  155.6595 H   0  0  0  0  0  0  0  0  0  0  0  0
  152.2986  139.9176  156.9969 H   0  0  0  0  0  0  0  0  0  0  0  0
  1  2  1  0  0  0  0
  1 19  1  0  0  0  0
  1 20  1  0  0  0  0
  1 21  1  0  0  0  0
  2  8  1  0  0  0  0
  2  3  2  0  0  0  0
  3  4  1  0  0  0  0
  3 22  1  0  0  0  0
  4  5  1  0  0  0  0
  4 23  1  0  0  0  0
  4 24  1  0  0  0  0
  5  6  1  0  0  0  0
  5 25  1  0  0  0  0
  5 26  1  0  0  0  0
  6  7  1  0  0  0  0
  6  8  1  0  0  0  0
  6 27  1  0  0  0  0
  7 28  1  0  0  0  0
  7 29  1  0  0  0  0
  7 30  1  0  0  0  0
  8  9  1  0  0  0  0
  8 31  1  0  0  0  0
  9 10  1  0  0  0  0
  9 32  1  0  0  0  0
  9 33  1  0  0  0  0
 10 11  1  0  0  0  0
 10 34  1  0  0  0  0
 10 44  1  0  0  0  0
 11 12  1  0  0  0  0
 11 35  1  0  0  0  0
 11 36  1  0  0  0  0
 12 13  1  0  0  0  0
 12 37  1  0  0  0  0
 12 38  1  0  0  0  0
 13 18  2  0  0  0  0
 13 14  1  0  0  0  0
 14 15  2  0  0  0  0
 14 39  1  0  0  0  0
 15 16  1  0  0  0  0
 16 17  1  0  0  0  0
 16 18  1  0  0  0  0
 17 40  1  0  0  0  0
 17 41  1  0  0  0  0
 17 42  1  0  0  0  0
 18 43  1  0  0  0  0
M  CHG  1  10   1
M  END
> <s_m_source_file>
AV-unprocessed.smi

> <i_m_source_file_index>
3293

> <i_lp_mmshare_version>
43012

> <i_f3d_flags>
0

> <s_epik_input>
W0NIM11DMT1bQ0hdW0NIMl1bQ0gyXVtDQEBIXShbQ0gzXSlbQ0BIXTFbQ0gyXVtOSF1bQ0gyXVtDSDJdYzJbY0hdbm4oW0NIM10pW2NIXTI=

> <s_epik_cmdline>
J2VwaWtfcHl0aG9uJywgJy1waCcsICc3LjAnLCAnLXRuJywgJzgnLCAnLW1hJywgJzIwMCcsICctbWV0YWxfYmluZGluZycsICctaW1hZScsICc8aW5maWxlLm1hZT4nLCAnLW9tYWUnLCAnPG91dGZpbGUubWFlPic=

> <r_lp_tautomer_probability>
1

> <r_epik_Ionization_Penalty>
0.000598621

> <r_epik_Ionization_Penalty_Charging>
0.000582095

> <r_epik_Ionization_Penalty_Neutral>
1.65262e-05

> <r_epik_State_Penalty>
-0

> <r_epik_Charging_Adjusted_Penalty>
0.000582095

> <i_epik_Tot_Q>
1

> <i_epik_Tot_abs_Q>
1

> <r_epik_Metal_State_Penalty>
-0

> <b_epik_Metal_Only>
0

> <s_lp_Force_Field>
OPLS_2005

> <r_lp_Energy>
11.8092

> <b_lp_Chiralities_Consistent>
1

> <s_lp_Variant>
AV-unprocessed.smi:3293-3

> <Gold.Version>
5.8.1

> <Gold.Id.Protein>
6NUR|6NUR_protein|mol2

> <Gold.PLP.Fitness>
50.3092

> <Gold.PLP.PLP>
-47.3501

> <Gold.PLP.part.hbond>
0.0000

> <Gold.PLP.part.metal>
0.0000

> <Gold.PLP.part.buried>
0.8004

> <Gold.PLP.part.nonpolar>
-47.8930

> <Gold.PLP.part.repulsive>
0.2778

> <Gold.PLP.ligand.clash>
0.0000

> <Gold.PLP.ligand.torsion>
0.9656

> <Gold.PLP.Chemscore.Hbond>
0.0000

> <Gold.PLP.Chemscore.CHOScore>
1.6120

> <Gold.PLP.Chemscore.Metal>
0.0000

> <Gold.Chemscore.Hbonds>
donor molecule, donor type, donor heavy atom, donor atom, acceptor molecule, acceptor atom, score
      L1  C    14    39       P1  7957  0.53
      L1  C    18    43       P1  8028  0.81

> <Gold.PLP.Chemscore.Internal.Correction>
0.0544

> <Gold.Rescore>
     Score         DG    S(hbond)    S(metal)    S(lipo)     H(rot)  DE(clash)    DE(int)     intcor
     15.73     -17.64       0.00        0.00     136.44       1.48       0.02       1.88       ----

> <Gold.Chemscore.Fitness>
15.7347

> <Gold.Chemscore.DG>
-17.6426

> <Gold.Chemscore.ZeroCoef>
-5.4800

> <Gold.Chemscore.Hbond>
0.0000

> <Gold.Chemscore.Metal>
0.0000

> <Gold.Chemscore.Lipo>
136.4393

> <Gold.Chemscore.Internal_Hbond>
0.0000

> <Gold.Chemscore.DEClash>
0.0239

> <Gold.Chemscore.DEInternal>
1.8839

> <Gold.Chemscore.Rot>
1.4847

> <Gold.Chemscore.Internal.Correction>
   9.000000E+99

> <Gold.Chemscore.Hbond.Weighted>
-0.0000

> <Gold.Chemscore.Metal.Weighted>
-0.0000

> <Gold.Chemscore.Lipo.Weighted>
-15.9634

> <Gold.Chemscore.Internal_Hbond.Weighted>
0.0000

> <Gold.Chemscore.DEClash.Weighted>
0.0239

> <Gold.Chemscore.DEInternal.Weighted>
1.8839

> <Gold.Chemscore.Rot.Weighted>
3.8008

> <Gold.Chemscore.Internal.Correction.Weighted>
   9.000000E+99

> <Gold.Protein.RotatedTorsions>
[ 6907 6896 6895 6894 ] final   56.27 input  -60.11 | X-H torsion
[ 7974 7965 7964 7962 ] final  150.74 input  175.53 | X-H torsion
[ 8008 7997 7996 7995 ] final  148.94 input   59.86 | X-H torsion
[ 10167 10162 10161 10158 ] final -116.21 input  -65.29 | X-H torsion
[ 10718 10713 10712 10709 ] final -118.62 input   66.30 | X-H torsion
[ 10763 10752 10751 10750 ] final   73.62 input  -60.55 | X-H torsion
[ 11005 11000 10999 10996 ] final  109.88 input  -57.11 | X-H torsion

> <Gold.Protein.ActiveResidues>
 VAL166  LYS551  ARG553  GLY616  TRP617  ASP618  TYR619  PRO620  LYS621  CYS622 
 ASP623  PHE694  ASN695  SER759  ASP760  ASP761  ALA762  ILE779  LEU786  VAL792 
 PHE793  MET794  SER795  GLU796  ALA797  LYS798  CYS799  TRP800  GLU811  SER814 

> <Gold.Protein.RotatedAtoms>
  152.3620  134.6859  160.0203 H   0  0  0  0  0  0  0  0  0  0  0  0  # atno 6907 bound_to 6896
  151.7179  133.3308  159.3316 H   0  0  0  0  0  0  0  0  0  0  0  0  # atno 6908 bound_to 6896
  150.7611  134.6408  159.6280 H   0  0  0  0  0  0  0  0  0  0  0  0  # atno 6909 bound_to 6896
  144.8342  139.6448  143.6045 H   0  0  0  0  0  0  0  0  0  0  0  0  # atno 7974 bound_to 7965
  156.2773  140.2115  156.5779 H   0  0  0  0  0  0  0  0  0  0  0  0  # atno 8008 bound_to 7997
  154.7082  140.0514  157.0548 H   0  0  0  0  0  0  0  0  0  0  0  0  # atno 8009 bound_to 7997
  155.0641  140.3169  155.4654 H   0  0  0  0  0  0  0  0  0  0  0  0  # atno 8010 bound_to 7997
  140.0816  143.4782  152.1922 H   0  0  0  0  0  0  0  0  0  0  0  0  # atno 10167 bound_to 10162
  156.1120  130.6256  150.9314 H   0  0  0  0  0  0  0  0  0  0  0  0  # atno 10718 bound_to 10713
  153.0533  135.5056  154.7921 H   0  0  0  0  0  0  0  0  0  0  0  0  # atno 10763 bound_to 10752
  154.6766  135.2961  154.9672 H   0  0  0  0  0  0  0  0  0  0  0  0  # atno 10764 bound_to 10752
  154.0473  135.6709  153.4849 H   0  0  0  0  0  0  0  0  0  0  0  0  # atno 10765 bound_to 10752
  139.8870  134.9470  156.6193 H   0  0  0  0  0  0  0  0  0  0  0  0  # atno 11005 bound_to 11000
  146.2642  139.6482  142.9341 LP  0  0  0  0  0  0  0  0  0  0  0  0  # atno 17320 bound_to 7965
  145.4830  141.0438  143.2635 LP  0  0  0  0  0  0  0  0  0  0  0  0  # atno 17321 bound_to 7965
  139.5776  144.7495  151.3724 LP  0  0  0  0  0  0  0  0  0  0  0  0  # atno 17342 bound_to 10162
  140.7074  143.7477  150.7507 LP  0  0  0  0  0  0  0  0  0  0  0  0  # atno 17343 bound_to 10162
  157.6301  131.0922  150.8457 LP  0  0  0  0  0  0  0  0  0  0  0  0  # atno 17370 bound_to 10713
  156.8567  130.5099  149.5307 LP  0  0  0  0  0  0  0  0  0  0  0  0  # atno 17371 bound_to 10713
  140.7751  133.8706  155.8523 LP  0  0  0  0  0  0  0  0  0  0  0  0  # atno 17394 bound_to 11000
  140.9808  134.1408  157.4496 LP  0  0  0  0  0  0  0  0  0  0  0  0  # atno 17395 bound_to 11000

$$$$
