AV-unprocessed.smi:432|AV-procd|sdf|2549|dock7
  -GOLD-   2262022513D 1   1.00000     0.00000
 Structure written by MMmdl.
 31 32  0  0  0  0  0  0  0  0  1 V2000
  152.4251  140.2692  157.0030 O   0  0  0  0  0  0  0  0  0  0  0  0
  151.3388  140.6382  157.4523 C   0  0  0  0  0  0  0  0  0  0  0  0
  150.0699  139.7977  157.2434 C   0  0  0  0  0  0  0  0  0  0  0  0
  148.9321  140.5669  156.7165 N   0  0  0  0  0  0  0  0  0  0  0  0
  148.9214  140.6837  155.3375 N   0  0  0  0  0  0  0  0  0  0  0  0
  147.9643  141.3268  154.7628 C   0  0  0  0  0  0  0  0  0  0  0  0
  146.8894  141.9398  155.5114 C   0  0  0  0  0  0  0  0  0  0  0  0
  145.6306  142.7879  154.6844 Cl  0  0  0  0  0  0  0  0  0  0  0  0
  146.9126  141.8249  156.8631 C   0  0  0  0  0  0  0  0  0  0  0  0
  145.6612  142.5319  157.8268 Cl  0  0  0  0  0  0  0  0  0  0  0  0
  147.9904  141.1026  157.5531 C   0  0  0  0  0  0  0  0  0  0  0  0
  148.0510  140.9820  158.7777 O   0  0  0  0  0  0  0  0  0  0  0  0
  151.1766  141.7811  158.1355 N   0  0  0  0  0  0  0  0  0  0  0  0
  152.2431  142.7229  158.4660 C   0  0  0  0  0  0  0  0  0  0  0  0
  152.6125  142.6463  159.9608 C   0  0  0  0  0  0  0  0  0  0  0  0
  152.0747  143.9303  160.5930 C   0  0  0  0  0  0  0  0  0  0  0  0
  152.1559  144.9600  159.4707 C   0  0  0  0  0  0  0  0  0  0  0  0
  151.7932  144.1742  158.2093 C   0  0  0  0  0  0  0  0  0  0  0  0
  150.2942  138.9649  156.5740 H   0  0  0  0  0  0  0  0  0  0  0  0
  149.8074  139.3410  158.1994 H   0  0  0  0  0  0  0  0  0  0  0  0
  147.9137  141.4437  153.6802 H   0  0  0  0  0  0  0  0  0  0  0  0
  150.2497  142.0098  158.4642 H   0  0  0  0  0  0  0  0  0  0  0  0
  153.1271  142.5076  157.8627 H   0  0  0  0  0  0  0  0  0  0  0  0
  152.2293  141.7544  160.4591 H   0  0  0  0  0  0  0  0  0  0  0  0
  153.6985  142.6248  160.0607 H   0  0  0  0  0  0  0  0  0  0  0  0
  151.0336  143.7883  160.8863 H   0  0  0  0  0  0  0  0  0  0  0  0
  152.6344  144.2286  161.4799 H   0  0  0  0  0  0  0  0  0  0  0  0
  151.5002  145.8153  159.6356 H   0  0  0  0  0  0  0  0  0  0  0  0
  153.1776  145.3334  159.3899 H   0  0  0  0  0  0  0  0  0  0  0  0
  152.2594  144.5976  157.3191 H   0  0  0  0  0  0  0  0  0  0  0  0
  150.7133  144.2229  158.0598 H   0  0  0  0  0  0  0  0  0  0  0  0
  1  2  2  0  0  0  0
  2  3  1  0  0  0  0
  2 13  1  0  0  0  0
  3  4  1  0  0  0  0
  3 19  1  0  0  0  0
  3 20  1  0  0  0  0
  4 11  1  0  0  0  0
  4  5  1  0  0  0  0
  5  6  2  0  0  0  0
  6  7  1  0  0  0  0
  6 21  1  0  0  0  0
  7  8  1  0  0  0  0
  7  9  2  0  0  0  0
  9 10  1  0  0  0  0
  9 11  1  0  0  0  0
 11 12  2  0  0  0  0
 13 14  1  0  0  0  0
 13 22  1  0  0  0  0
 14 18  1  0  0  0  0
 14 15  1  0  0  0  0
 14 23  1  0  0  0  0
 15 16  1  0  0  0  0
 15 24  1  0  0  0  0
 15 25  1  0  0  0  0
 16 17  1  0  0  0  0
 16 26  1  0  0  0  0
 16 27  1  0  0  0  0
 17 18  1  0  0  0  0
 17 28  1  0  0  0  0
 17 29  1  0  0  0  0
 18 30  1  0  0  0  0
 18 31  1  0  0  0  0
M  END
> <s_m_source_file>
AV-unprocessed.smi

> <i_m_source_file_index>
432

> <i_lp_mmshare_version>
43012

> <i_f3d_flags>
0

> <s_epik_input>
W0NIMl0xW0NIMl1bQ0gyXVtDSDJdW0NIXTFbTkhdQyg9TylbQ0gyXW4ybltjSF1jKENsKWMoQ2wpYzI9Tw==

> <s_epik_cmdline>
J2VwaWtfcHl0aG9uJywgJy1waCcsICc3LjAnLCAnLXRuJywgJzgnLCAnLW1hJywgJzIwMCcsICctbWV0YWxfYmluZGluZycsICctaW1hZScsICc8aW5maWxlLm1hZT4nLCAnLW9tYWUnLCAnPG91dGZpbGUubWFlPic=

> <r_lp_tautomer_probability>
1

> <r_epik_Ionization_Penalty>
1.93318e-08

> <r_epik_Ionization_Penalty_Charging>
3.01013e-11

> <r_epik_Ionization_Penalty_Neutral>
1.93017e-08

> <r_epik_State_Penalty>
-0

> <r_epik_Charging_Adjusted_Penalty>
3.01013e-11

> <i_epik_Tot_Q>
0

> <i_epik_Tot_abs_Q>
0

> <r_epik_Metal_State_Penalty>
-0

> <b_epik_Metal_Only>
0

> <s_lp_Force_Field>
OPLS_2005

> <r_lp_Energy>
31.6968

> <b_lp_Chiralities_Consistent>
1

> <s_lp_Variant>
AV-unprocessed.smi:432-1

> <Gold.Version>
5.8.1

> <Gold.Id.Protein>
6NUR|6NUR_protein|mol2

> <Gold.PLP.Fitness>
42.2781

> <Gold.PLP.PLP>
-37.6393

> <Gold.PLP.part.hbond>
-1.9772

> <Gold.PLP.part.metal>
0.0000

> <Gold.PLP.part.buried>
-4.6342

> <Gold.PLP.part.nonpolar>
-30.5023

> <Gold.PLP.part.repulsive>
0.1968

> <Gold.PLP.ligand.clash>
0.0000

> <Gold.PLP.ligand.torsion>
0.6272

> <Gold.PLP.Chemscore.Hbond>
0.9760

> <Gold.PLP.Chemscore.CHOScore>
0.9872

> <Gold.PLP.Chemscore.Metal>
0.0000

> <Gold.Chemscore.Hbonds>
donor molecule, donor type, donor heavy atom, donor atom, acceptor molecule, acceptor atom, score
      P1  H  7997  8008       L1     1  0.87

> <Gold.PLP.Chemscore.Internal.Correction>
0.0035

> <Gold.Rescore>
     Score         DG    S(hbond)    S(metal)    S(lipo)     H(rot)  DE(clash)    DE(int)     intcor
     14.38     -15.26       0.91        0.00      91.14       1.53       0.06       0.82       ----

> <Gold.Chemscore.Fitness>
14.3753

> <Gold.Chemscore.DG>
-15.2579

> <Gold.Chemscore.ZeroCoef>
-5.4800

> <Gold.Chemscore.Hbond>
0.9077

> <Gold.Chemscore.Metal>
0.0000

> <Gold.Chemscore.Lipo>
91.1436

> <Gold.Chemscore.Internal_Hbond>
0.0000

> <Gold.Chemscore.DEClash>
0.0605

> <Gold.Chemscore.DEInternal>
0.8221

> <Gold.Chemscore.Rot>
1.5303

> <Gold.Chemscore.Internal.Correction>
   9.000000E+99

> <Gold.Chemscore.Hbonds>
donor molecule, donor type, donor heavy atom, donor atom, acceptor molecule, acceptor atom, score
      P1  H  6934  6946       L1    12  0.01
      P1  H  7997  8008       L1     1  0.80

> <Gold.Chemscore.Hbond.Weighted>
-3.0317

> <Gold.Chemscore.Metal.Weighted>
-0.0000

> <Gold.Chemscore.Lipo.Weighted>
-10.6638

> <Gold.Chemscore.Internal_Hbond.Weighted>
0.0000

> <Gold.Chemscore.DEClash.Weighted>
0.0605

> <Gold.Chemscore.DEInternal.Weighted>
0.8221

> <Gold.Chemscore.Rot.Weighted>
3.9176

> <Gold.Chemscore.Internal.Correction.Weighted>
   9.000000E+99

> <Gold.Protein.RotatedTorsions>
[ 6907 6896 6895 6894 ] final   15.08 input  -60.11 | X-H torsion
[ 7974 7965 7964 7962 ] final -134.75 input  175.53 | X-H torsion
[ 8008 7997 7996 7995 ] final  -71.35 input   59.86 | X-H torsion
[ 10167 10162 10161 10158 ] final  -97.47 input  -65.29 | X-H torsion
[ 10718 10713 10712 10709 ] final  174.10 input   66.30 | X-H torsion
[ 10763 10752 10751 10750 ] final -146.58 input  -60.55 | X-H torsion
[ 11005 11000 10999 10996 ] final   84.45 input  -57.11 | X-H torsion

> <Gold.Protein.ActiveResidues>
 VAL166  LYS551  ARG553  GLY616  TRP617  ASP618  TYR619  PRO620  LYS621  CYS622 
 ASP623  PHE694  ASN695  SER759  ASP760  ASP761  ALA762  ILE779  LEU786  VAL792 
 PHE793  MET794  SER795  GLU796  ALA797  LYS798  CYS799  TRP800  GLU811  SER814 

> <Gold.Protein.RotatedAtoms>
  151.8124  135.0677  160.0414 H   0  0  0  0  0  0  0  0  0  0  0  0  # atno 6907 bound_to 6896
  152.3011  133.5652  159.5627 H   0  0  0  0  0  0  0  0  0  0  0  0  # atno 6908 bound_to 6896
  150.7274  134.0206  159.3742 H   0  0  0  0  0  0  0  0  0  0  0  0  # atno 6909 bound_to 6896
  144.9075  140.6852  143.5046 H   0  0  0  0  0  0  0  0  0  0  0  0  # atno 7974 bound_to 7965
  154.5081  140.0817  156.7935 H   0  0  0  0  0  0  0  0  0  0  0  0  # atno 8008 bound_to 7997
  155.3848  140.3429  155.4230 H   0  0  0  0  0  0  0  0  0  0  0  0  # atno 8009 bound_to 7997
  156.1540  140.1567  156.8711 H   0  0  0  0  0  0  0  0  0  0  0  0  # atno 8010 bound_to 7997
  140.2831  143.3269  152.0422 H   0  0  0  0  0  0  0  0  0  0  0  0  # atno 10167 bound_to 10162
  156.9546  131.0042  151.2941 H   0  0  0  0  0  0  0  0  0  0  0  0  # atno 10718 bound_to 10713
  154.8329  135.3383  154.6684 H   0  0  0  0  0  0  0  0  0  0  0  0  # atno 10763 bound_to 10752
  153.7302  135.6952  153.4996 H   0  0  0  0  0  0  0  0  0  0  0  0  # atno 10764 bound_to 10752
  153.2318  135.4414  155.0555 H   0  0  0  0  0  0  0  0  0  0  0  0  # atno 10765 bound_to 10752
  139.9000  134.8217  156.2446 H   0  0  0  0  0  0  0  0  0  0  0  0  # atno 11005 bound_to 11000
  145.3510  139.1706  143.4434 LP  0  0  0  0  0  0  0  0  0  0  0  0  # atno 17320 bound_to 7965
  146.3141  140.3562  142.8660 LP  0  0  0  0  0  0  0  0  0  0  0  0  # atno 17321 bound_to 7965
  139.4957  144.6578  151.6533 LP  0  0  0  0  0  0  0  0  0  0  0  0  # atno 17342 bound_to 10162
  140.5795  143.9970  150.6260 LP  0  0  0  0  0  0  0  0  0  0  0  0  # atno 17343 bound_to 10162
  157.5699  130.8303  149.8377 LP  0  0  0  0  0  0  0  0  0  0  0  0  # atno 17370 bound_to 10713
  156.0348  130.3754  150.1590 LP  0  0  0  0  0  0  0  0  0  0  0  0  # atno 17371 bound_to 10713
  141.0263  133.7013  156.1353 LP  0  0  0  0  0  0  0  0  0  0  0  0  # atno 17394 bound_to 11000
  140.7162  134.4408  157.5578 LP  0  0  0  0  0  0  0  0  0  0  0  0  # atno 17395 bound_to 11000

$$$$
