AV-unprocessed.smi:1427|AV-procd|sdf|5809|dock6
  -GOLD-   22720 5463D 1   1.00000     0.00000
 Structure written by MMmdl.
 33 34  0  0  0  0  0  0  0  0  1 V2000
  149.2677  140.6430  157.2906 C   0  0  0  0  0  0  0  0  0  0  0  0
  150.2172  141.3264  156.2954 C   0  0  2  0  0  0  0  0  0  0  0  0
  151.5348  140.5428  156.1340 C   0  0  0  0  0  0  0  0  0  0  0  0
  151.3143  139.1882  155.6560 N   0  0  0  0  0  0  0  0  0  0  0  0
  150.8573  138.0954  156.3617 C   0  0  0  0  0  0  0  0  0  0  0  0
  150.7921  137.0468  155.4896 C   0  0  0  0  0  0  0  0  0  0  0  0
  151.2339  137.6035  154.2569 C   0  0  0  0  0  0  0  0  0  0  0  0
  151.5495  138.8842  154.3605 N   0  0  0  0  0  0  0  0  0  0  0  0
  150.5076  142.6882  156.7336 N   0  0  0  0  0  0  0  0  0  0  0  0
  151.3176  143.0380  157.7461 C   0  0  0  0  0  0  0  0  0  0  0  0
  151.9923  142.2218  158.3732 O   0  0  0  0  0  0  0  0  0  0  0  0
  151.3864  144.5297  158.1276 C   0  0  2  0  0  0  0  0  0  0  0  0
  152.2969  144.8243  159.3361 C   0  0  0  0  0  0  0  0  0  0  0  0
  151.3393  144.9906  160.5237 C   0  0  0  0  0  0  0  0  0  0  0  0
  150.0226  145.3240  159.8409 C   0  0  0  0  0  0  0  0  0  0  0  0
  149.0351  145.7471  160.4370 O   0  0  0  0  0  0  0  0  0  0  0  0
  150.1042  145.0937  158.5295 N   0  0  0  0  0  0  0  0  0  0  0  0
  149.0305  139.6283  156.9703 H   0  0  0  0  0  0  0  0  0  0  0  0
  148.3266  141.1871  157.3763 H   0  0  0  0  0  0  0  0  0  0  0  0
  149.7107  140.5834  158.2853 H   0  0  0  0  0  0  0  0  0  0  0  0
  149.7246  141.3591  155.3218 H   0  0  0  0  0  0  0  0  0  0  0  0
  152.2095  141.0583  155.4479 H   0  0  0  0  0  0  0  0  0  0  0  0
  152.0537  140.4806  157.0912 H   0  0  0  0  0  0  0  0  0  0  0  0
  150.6160  138.1560  157.4127 H   0  0  0  0  0  0  0  0  0  0  0  0
  150.4746  136.0364  155.6999 H   0  0  0  0  0  0  0  0  0  0  0  0
  151.3343  137.1189  153.2971 H   0  0  0  0  0  0  0  0  0  0  0  0
  149.9920  143.4263  156.2758 H   0  0  0  0  0  0  0  0  0  0  0  0
  151.7477  145.0737  157.2540 H   0  0  0  0  0  0  0  0  0  0  0  0
  153.0389  144.0454  159.5178 H   0  0  0  0  0  0  0  0  0  0  0  0
  152.8420  145.7549  159.1712 H   0  0  0  0  0  0  0  0  0  0  0  0
  151.2285  144.0593  161.0802 H   0  0  0  0  0  0  0  0  0  0  0  0
  151.6561  145.7779  161.2082 H   0  0  0  0  0  0  0  0  0  0  0  0
  149.3477  145.2466  157.8784 H   0  0  0  0  0  0  0  0  0  0  0  0
  1  2  1  0  0  0  0
  1 18  1  0  0  0  0
  1 19  1  0  0  0  0
  1 20  1  0  0  0  0
  2  3  1  0  0  0  0
  2  9  1  0  0  0  0
  2 21  1  0  0  0  0
  3  4  1  0  0  0  0
  3 22  1  0  0  0  0
  3 23  1  0  0  0  0
  4  8  1  0  0  0  0
  4  5  1  0  0  0  0
  5  6  2  0  0  0  0
  5 24  1  0  0  0  0
  6  7  1  0  0  0  0
  6 25  1  0  0  0  0
  7  8  2  0  0  0  0
  7 26  1  0  0  0  0
  9 10  1  0  0  0  0
  9 27  1  0  0  0  0
 10 11  2  0  0  0  0
 10 12  1  0  0  0  0
 12 17  1  0  0  0  0
 12 13  1  0  0  0  0
 12 28  1  0  0  0  0
 13 14  1  0  0  0  0
 13 29  1  0  0  0  0
 13 30  1  0  0  0  0
 14 15  1  0  0  0  0
 14 31  1  0  0  0  0
 14 32  1  0  0  0  0
 15 16  2  0  0  0  0
 15 17  1  0  0  0  0
 17 33  1  0  0  0  0
M  END
> <s_m_source_file>
AV-unprocessed.smi

> <i_m_source_file_index>
1427

> <i_lp_mmshare_version>
43012

> <i_f3d_flags>
0

> <s_epik_input>
bjFbY0hdW2NIXVtjSF1uMVtDSDJdW0NAQEhdKFtDSDNdKVtOSF1DKD1PKVtDQEBIXTJbQ0gyXVtDSDJdQyg9TylbTkhdMg==

> <s_epik_cmdline>
J2VwaWtfcHl0aG9uJywgJy1waCcsICc3LjAnLCAnLXRuJywgJzgnLCAnLW1hJywgJzIwMCcsICctbWV0YWxfYmluZGluZycsICctaW1hZScsICc8aW5maWxlLm1hZT4nLCAnLW9tYWUnLCAnPG91dGZpbGUubWFlPic=

> <r_lp_tautomer_probability>
1

> <r_epik_Ionization_Penalty>
0.000310707

> <r_epik_Ionization_Penalty_Charging>
0

> <r_epik_Ionization_Penalty_Neutral>
0.000310707

> <r_epik_State_Penalty>
-0

> <r_epik_Charging_Adjusted_Penalty>
0

> <i_epik_Tot_Q>
0

> <i_epik_Tot_abs_Q>
0

> <r_epik_Metal_State_Penalty>
-0

> <b_epik_Metal_Only>
0

> <s_lp_Force_Field>
OPLS_2005

> <r_lp_Energy>
13.3236

> <b_lp_Chiralities_Consistent>
1

> <s_lp_Variant>
AV-unprocessed.smi:1427-1

> <Gold.Version>
5.8.1

> <Gold.Id.Protein>
6NUR|6NUR_protein|mol2

> <Gold.PLP.Fitness>
44.3360

> <Gold.PLP.PLP>
-33.0758

> <Gold.PLP.part.hbond>
-4.5490

> <Gold.PLP.part.metal>
0.0000

> <Gold.PLP.part.buried>
-2.1062

> <Gold.PLP.part.nonpolar>
-27.4811

> <Gold.PLP.part.repulsive>
0.6782

> <Gold.PLP.ligand.clash>
0.0000

> <Gold.PLP.ligand.torsion>
0.3811

> <Gold.PLP.Chemscore.Hbond>
3.0000

> <Gold.PLP.Chemscore.CHOScore>
1.0000

> <Gold.PLP.Chemscore.Metal>
0.0000

> <Gold.Chemscore.Hbonds>
donor molecule, donor type, donor heavy atom, donor atom, acceptor molecule, acceptor atom, score
      L1  H     9    27       P1  8028  1.00
      L1  H    17    33       P1  8029  0.85
      P1  H  7989  7998       L1     8  0.70
      L1  C     7    26       P1  7949  1.00

> <Gold.PLP.Chemscore.Internal.Correction>
0.0225

> <Gold.Rescore>
     Score         DG    S(hbond)    S(metal)    S(lipo)     H(rot)  DE(clash)    DE(int)     intcor
     14.85     -17.89       2.84        0.00      66.14       1.88       1.64       1.40       ----

> <Gold.Chemscore.Fitness>
14.8509

> <Gold.Chemscore.DG>
-17.8872

> <Gold.Chemscore.ZeroCoef>
-5.4800

> <Gold.Chemscore.Hbond>
2.8402

> <Gold.Chemscore.Metal>
0.0000

> <Gold.Chemscore.Lipo>
66.1439

> <Gold.Chemscore.Internal_Hbond>
0.0000

> <Gold.Chemscore.DEClash>
1.6392

> <Gold.Chemscore.DEInternal>
1.3971

> <Gold.Chemscore.Rot>
1.8821

> <Gold.Chemscore.Internal.Correction>
   9.000000E+99

> <Gold.Chemscore.Hbonds>
donor molecule, donor type, donor heavy atom, donor atom, acceptor molecule, acceptor atom, score
      L1  H     9    27       P1  8028  1.00
      L1  H    17    33       P1  8029  0.14
      P1  H  7989  7998       L1     8  0.20

> <Gold.Chemscore.Hbond.Weighted>
-9.4864

> <Gold.Chemscore.Metal.Weighted>
-0.0000

> <Gold.Chemscore.Lipo.Weighted>
-7.7388

> <Gold.Chemscore.Internal_Hbond.Weighted>
0.0000

> <Gold.Chemscore.DEClash.Weighted>
1.6392

> <Gold.Chemscore.DEInternal.Weighted>
1.3971

> <Gold.Chemscore.Rot.Weighted>
4.8181

> <Gold.Chemscore.Internal.Correction.Weighted>
   9.000000E+99

> <Gold.Protein.RotatedTorsions>
[ 6907 6896 6895 6894 ] final -174.21 input  -60.11 | X-H torsion
[ 7974 7965 7964 7962 ] final -145.64 input  175.53 | X-H torsion
[ 8008 7997 7996 7995 ] final -111.99 input   59.86 | X-H torsion
[ 10167 10162 10161 10158 ] final -164.13 input  -65.29 | X-H torsion
[ 10718 10713 10712 10709 ] final  -13.98 input   66.30 | X-H torsion
[ 10763 10752 10751 10750 ] final  179.37 input  -60.55 | X-H torsion
[ 11005 11000 10999 10996 ] final   12.80 input  -57.11 | X-H torsion

> <Gold.Protein.ActiveResidues>
 VAL166  LYS551  ARG553  GLY616  TRP617  ASP618  TYR619  PRO620  LYS621  CYS622 
 ASP623  PHE694  ASN695  SER759  ASP760  ASP761  ALA762  ILE779  LEU786  VAL792 
 PHE793  MET794  SER795  GLU796  ALA797  LYS798  CYS799  TRP800  GLU811  SER814 

> <Gold.Protein.RotatedAtoms>
  151.5686  133.3393  159.2984 H   0  0  0  0  0  0  0  0  0  0  0  0  # atno 6907 bound_to 6896
  150.8380  134.7664  159.6920 H   0  0  0  0  0  0  0  0  0  0  0  0  # atno 6908 bound_to 6896
  152.4453  134.5514  159.9919 H   0  0  0  0  0  0  0  0  0  0  0  0  # atno 6909 bound_to 6896
  144.8213  140.5557  143.5576 H   0  0  0  0  0  0  0  0  0  0  0  0  # atno 7974 bound_to 7965
  154.9983  140.0394  157.2349 H   0  0  0  0  0  0  0  0  0  0  0  0  # atno 8008 bound_to 7997
  154.7566  140.2777  155.6225 H   0  0  0  0  0  0  0  0  0  0  0  0  # atno 8009 bound_to 7997
  156.2896  140.2636  156.2334 H   0  0  0  0  0  0  0  0  0  0  0  0  # atno 8010 bound_to 7997
  139.6272  144.0509  152.1985 H   0  0  0  0  0  0  0  0  0  0  0  0  # atno 10167 bound_to 10162
  156.6225  130.4879  149.6159 H   0  0  0  0  0  0  0  0  0  0  0  0  # atno 10718 bound_to 10713
  154.5198  135.2793  155.1272 H   0  0  0  0  0  0  0  0  0  0  0  0  # atno 10763 bound_to 10752
  154.2834  135.6281  153.5360 H   0  0  0  0  0  0  0  0  0  0  0  0  # atno 10764 bound_to 10752
  152.9934  135.5656  154.5684 H   0  0  0  0  0  0  0  0  0  0  0  0  # atno 10765 bound_to 10752
  140.4879  134.0869  155.7765 H   0  0  0  0  0  0  0  0  0  0  0  0  # atno 11005 bound_to 11000
  145.5099  139.1480  143.3611 LP  0  0  0  0  0  0  0  0  0  0  0  0  # atno 17320 bound_to 7965
  146.2518  140.5239  142.8890 LP  0  0  0  0  0  0  0  0  0  0  0  0  # atno 17321 bound_to 7965
  140.0165  144.6185  150.7602 LP  0  0  0  0  0  0  0  0  0  0  0  0  # atno 17342 bound_to 10162
  140.7418  143.2823  151.3563 LP  0  0  0  0  0  0  0  0  0  0  0  0  # atno 17343 bound_to 10162
  156.2300  130.6789  151.1454 LP  0  0  0  0  0  0  0  0  0  0  0  0  # atno 17370 bound_to 10713
  157.7223  131.0673  150.6081 LP  0  0  0  0  0  0  0  0  0  0  0  0  # atno 17371 bound_to 10713
  141.1498  133.8988  157.2125 LP  0  0  0  0  0  0  0  0  0  0  0  0  # atno 17394 bound_to 11000
  139.9786  135.0105  156.9694 LP  0  0  0  0  0  0  0  0  0  0  0  0  # atno 17395 bound_to 11000

$$$$
