#       Name:                AV-unprocessed.smi:915
#       Creating user name   scv26
#       Creation time:       Fri Mar 27 02:05:59 2020


#       File generated by GOLD software.
#

@<TRIPOS>MOLECULE
AV-unprocessed.smi:915
    37    38     1
SMALL
NO_CHARGES


@<TRIPOS>ATOM
      1 ****        -5.0186   1.0941   0.4676 C.3            1 S1                 0.0000
      2 ****        -4.8069   0.9921  -1.0469 C.3            1 S1                 0.0000
      3 ****        -3.8902  -0.1335  -1.4189 C.2            1 S1                 0.0000
      4 ****        -4.2533  -1.3661  -1.9040 C.2            1 S1                 0.0000
      5 ****        -2.8706  -2.3862  -2.1993 S.3            1 S1                 0.0000
      6 ****        -1.8367  -1.0784  -1.6462 C.2            1 S1                 0.0000
      7 ****        -0.4234  -1.2046  -1.6043 N.am           1 S1                 0.0000
      8 ****         0.4817  -0.2841  -1.2288 C.2            1 S1                 0.0000
      9 ****         0.2197   0.8580  -0.8502 O.2            1 S1                 0.0000
     10 ****         1.7295  -0.7678  -1.3158 N.am           1 S1                 0.0000
     11 ****         2.9475  -0.0316  -0.9898 C.3            1 S1                 0.0000
     12 ****         3.4583  -0.3560   0.4259 C.3            1 S1                 0.0000
     13 ****         2.5052   0.0612   1.5563 C.3            1 S1                 0.0000
     14 ****         3.3472   0.1842   2.8260 C.3            1 S1                 0.0000
     15 ****         4.6024   0.9632   2.4332 C.3            1 S1                 0.0000
     16 ****         5.0531   0.4450   0.7575 S.3            1 S1                 0.0000
     17 ****        -2.5075   0.0183  -1.2761 N.2            1 S1                 0.0000
     18 ****        -5.6914   1.9163   0.7114 H              1 S1                 0.0000
     19 ****        -4.0760   1.2707   0.9864 H              1 S1                 0.0000
     20 ****        -5.4544   0.1774   0.8659 H              1 S1                 0.0000
     21 ****        -5.7734   0.8643  -1.5356 H              1 S1                 0.0000
     22 ****        -4.4075   1.9364  -1.4186 H              1 S1                 0.0000
     23 ****        -5.2484  -1.7351  -2.1030 H              1 S1                 0.0000
     24 ****        -0.0595  -2.0993  -1.8967 H              1 S1                 0.0000
     25 ****         1.8482  -1.7179  -1.6355 H              1 S1                 0.0000
     26 ****         3.7047  -0.3126  -1.7222 H              1 S1                 0.0000
     27 ****         2.7995   1.0435  -1.1058 H              1 S1                 0.0000
     28 ****         3.6352  -1.4294   0.5058 H              1 S1                 0.0000
     29 ****         2.0590   1.0306   1.3294 H              1 S1                 0.0000
     30 ****         1.6880  -0.6498   1.6809 H              1 S1                 0.0000
     31 ****         2.8014   0.6746   3.6325 H              1 S1                 0.0000
     32 ****         3.6257  -0.8102   3.1773 H              1 S1                 0.0000
     33 ****         4.3869   2.0318   2.4121 H              1 S1                 0.0000
     34 ****         5.4245   0.8018   3.1308 H              1 S1                 0.0000
     35 ****        -0.7313   1.1637  -0.8044 LP             1 S1                 0.0000
     36 ****         0.9579   1.4797  -0.5886 LP             1 S1                 0.0000
     37 ****        -2.0703   0.8510  -0.9364 LP             1 S1                 0.0000
@<TRIPOS>BOND
    1    1    2 1     
    2    1   18 1     
    3    1   19 1     
    4    1   20 1     
    5    2    3 1     
    6    2   21 1     
    7    2   22 1     
    8    3   17 1     
    9    3    4 2     
   10    4    5 1     
   11    4   23 1     
   12    5    6 1     
   13    6    7 1     
   14    6   17 2     
   15    7    8 am    
   16    7   24 1     
   17    8    9 2     
   18    8   10 am    
   19   10   11 1     
   20   10   25 1     
   21   11   12 1     
   22   11   26 1     
   23   11   27 1     
   24   12   16 1     
   25   12   13 1     
   26   12   28 1     
   27   13   14 1     
   28   13   29 1     
   29   13   30 1     
   30   14   15 1     
   31   14   31 1     
   32   14   32 1     
   33   15   16 1     
   34   15   33 1     
   35   15   34 1     
   36    9   35 1     
   37    9   36 1     
   38   17   37 1     
@<TRIPOS>SUBSTRUCTURE
      1 S1             1
@<TRIPOS>SET
LONE_PAIRS      STATIC     ATOMS    <user>   **** ""
3 35 36 37
DONOR_HYDROGENS      STATIC     ATOMS    <user>   **** ""
2 24 25
ATOM$BLUE        STATIC     ATOMS    COLORGROUP SYSTEM
3 35 36 37
ATOM$RED        STATIC     ATOMS    COLORGROUP SYSTEM
2 24 25
