AV-unprocessed.smi:3154|AV-procd|sdf|12022|dock5
  -GOLD-   2272017433D 1   1.00000     0.00000
 Structure written by MMmdl.
 35 36  0  0  0  0  0  0  0  0  2 V2000
  149.5070  137.7125  155.1707 C   0  0  0  0  0  0  0  0  0  0  0  0
  148.9672  139.0467  154.6282 C   0  0  1  0  0  0  0  0  0  0  0  0
  150.0808  140.1044  154.4470 C   0  0  0  0  0  0  0  0  0  0  0  0
  150.4655  140.7419  155.6934 N   0  0  0  0  0  0  0  0  0  0  0  0
  150.2376  142.0394  156.1020 C   0  0  0  0  0  0  0  0  0  0  0  0
  150.7746  142.1716  157.3505 C   0  0  0  0  0  0  0  0  0  0  0  0
  151.3091  140.8823  157.6274 C   0  0  0  0  0  0  0  0  0  0  0  0
  151.1192  140.0278  156.6347 N   0  0  0  0  0  0  0  0  0  0  0  0
  148.2496  138.8024  153.3574 N   0  3  0  0  0  0  0  0  0  0  0  0
  146.8052  138.5081  153.4878 C   0  0  0  0  0  0  0  0  0  0  0  0
  146.2660  137.7143  152.2961 C   0  0  0  0  0  0  0  0  0  0  0  0
  146.3191  138.1774  151.1559 O   0  0  0  0  0  0  0  0  0  0  0  0
  145.7462  136.5116  152.5819 N   0  0  0  0  0  0  0  0  0  0  0  0
  145.1906  135.6016  151.6329 C   0  0  0  0  0  0  0  0  0  0  0  0
  144.5158  134.3558  152.1654 C   0  0  0  0  0  0  0  0  0  0  0  0
  145.8531  134.2487  151.4857 C   0  0  0  0  0  0  0  0  0  0  0  0
  149.9580  137.8319  156.1562 H   0  0  0  0  0  0  0  0  0  0  0  0
  150.2636  137.2915  154.5076 H   0  0  0  0  0  0  0  0  0  0  0  0
  148.7071  136.9782  155.2718 H   0  0  0  0  0  0  0  0  0  0  0  0
  148.2400  139.4183  155.3518 H   0  0  0  0  0  0  0  0  0  0  0  0
  150.9682  139.6444  154.0096 H   0  0  0  0  0  0  0  0  0  0  0  0
  149.7672  140.8898  153.7592 H   0  0  0  0  0  0  0  0  0  0  0  0
  149.7206  142.7535  155.4780 H   0  0  0  0  0  0  0  0  0  0  0  0
  150.7819  143.0541  157.9730 H   0  0  0  0  0  0  0  0  0  0  0  0
  151.8240  140.5440  158.5145 H   0  0  0  0  0  0  0  0  0  0  0  0
  148.3714  139.5981  152.7474 H   0  0  0  0  0  0  0  0  0  0  0  0
  146.6308  137.9343  154.3990 H   0  0  0  0  0  0  0  0  0  0  0  0
  146.2398  139.4363  153.5702 H   0  0  0  0  0  0  0  0  0  0  0  0
  145.7434  136.2134  153.5467 H   0  0  0  0  0  0  0  0  0  0  0  0
  144.7643  136.0240  150.7239 H   0  0  0  0  0  0  0  0  0  0  0  0
  144.4884  134.2116  153.2440 H   0  0  0  0  0  0  0  0  0  0  0  0
  143.6471  133.9855  151.6246 H   0  0  0  0  0  0  0  0  0  0  0  0
  145.8770  133.8084  150.4907 H   0  0  0  0  0  0  0  0  0  0  0  0
  146.7174  134.0320  152.1110 H   0  0  0  0  0  0  0  0  0  0  0  0
  148.6738  137.9992  152.9156 H   0  0  0  0  0  0  0  0  0  0  0  0
  1  2  1  0  0  0  0
  1 17  1  0  0  0  0
  1 18  1  0  0  0  0
  1 19  1  0  0  0  0
  2  3  1  0  0  0  0
  2  9  1  0  0  0  0
  2 20  1  0  0  0  0
  3  4  1  0  0  0  0
  3 21  1  0  0  0  0
  3 22  1  0  0  0  0
  4  8  1  0  0  0  0
  4  5  1  0  0  0  0
  5  6  2  0  0  0  0
  5 23  1  0  0  0  0
  6  7  1  0  0  0  0
  6 24  1  0  0  0  0
  7  8  2  0  0  0  0
  7 25  1  0  0  0  0
  9 10  1  0  0  0  0
  9 26  1  0  0  0  0
  9 35  1  0  0  0  0
 10 11  1  0  0  0  0
 10 27  1  0  0  0  0
 10 28  1  0  0  0  0
 11 12  2  0  0  0  0
 11 13  1  0  0  0  0
 13 14  1  0  0  0  0
 13 29  1  0  0  0  0
 14 16  1  0  0  0  0
 14 15  1  0  0  0  0
 14 30  1  0  0  0  0
 15 16  1  0  0  0  0
 15 31  1  0  0  0  0
 15 32  1  0  0  0  0
 16 33  1  0  0  0  0
 16 34  1  0  0  0  0
M  CHG  1   9   1
M  END
> <s_m_source_file>
AV-unprocessed.smi

> <i_m_source_file_index>
3154

> <i_lp_mmshare_version>
43012

> <i_f3d_flags>
0

> <s_epik_input>
bjFbY0hdW2NIXVtjSF1uMVtDSDJdW0NAQEhdKFtDSDNdKVtOSF1bQ0gyXUMoPU8pW05IXVtDSF0yW0NIMl1bQ0gyXTI=

> <s_epik_cmdline>
J2VwaWtfcHl0aG9uJywgJy1waCcsICc3LjAnLCAnLXRuJywgJzgnLCAnLW1hJywgJzIwMCcsICctbWV0YWxfYmluZGluZycsICctaW1hZScsICc8aW5maWxlLm1hZT4nLCAnLW9tYWUnLCAnPG91dGZpbGUubWFlPic=

> <r_lp_tautomer_probability>
1

> <r_epik_Ionization_Penalty>
0.12065

> <r_epik_Ionization_Penalty_Charging>
0.120646

> <r_epik_Ionization_Penalty_Neutral>
4.1343e-06

> <r_epik_State_Penalty>
0.110186

> <r_epik_Charging_Adjusted_Penalty>
0.230832

> <i_epik_Tot_Q>
1

> <i_epik_Tot_abs_Q>
1

> <r_epik_Metal_State_Penalty>
0.110197

> <b_epik_Metal_Only>
0

> <s_lp_Force_Field>
OPLS_2005

> <r_lp_Energy>
15.3554

> <b_lp_Chiralities_Consistent>
1

> <s_lp_Variant>
AV-unprocessed.smi:3154-2

> <Gold.Version>
5.8.1

> <Gold.Id.Protein>
6NUR|6NUR_protein|mol2

> <Gold.PLP.Fitness>
42.7156

> <Gold.PLP.PLP>
-29.5298

> <Gold.PLP.part.hbond>
-3.5941

> <Gold.PLP.part.metal>
0.0000

> <Gold.PLP.part.buried>
-0.2081

> <Gold.PLP.part.nonpolar>
-26.8510

> <Gold.PLP.part.repulsive>
0.9087

> <Gold.PLP.ligand.clash>
0.0000

> <Gold.PLP.ligand.torsion>
0.8483

> <Gold.PLP.Chemscore.Hbond>
3.9360

> <Gold.PLP.Chemscore.CHOScore>
1.0000

> <Gold.PLP.Chemscore.Metal>
0.0000

> <Gold.Chemscore.Hbonds>
donor molecule, donor type, donor heavy atom, donor atom, acceptor molecule, acceptor atom, score
      L1  H     9    26       P1  7957  0.66
      L1  H     9    35       P1  7948  1.89
      P1  H  7954  7966       L1    12  0.44
      L1  C     5    23       P1  8028  1.00

> <Gold.PLP.Chemscore.Internal.Correction>
0.0743

> <Gold.Rescore>
     Score         DG    S(hbond)    S(metal)    S(lipo)     H(rot)  DE(clash)    DE(int)     intcor
     13.93     -16.07       2.91        0.00      55.78       2.20       1.08       1.06       ----

> <Gold.Chemscore.Fitness>
13.9304

> <Gold.Chemscore.DG>
-16.0684

> <Gold.Chemscore.ZeroCoef>
-5.4800

> <Gold.Chemscore.Hbond>
2.9058

> <Gold.Chemscore.Metal>
0.0000

> <Gold.Chemscore.Lipo>
55.7762

> <Gold.Chemscore.Internal_Hbond>
0.0000

> <Gold.Chemscore.DEClash>
1.0814

> <Gold.Chemscore.DEInternal>
1.0567

> <Gold.Chemscore.Rot>
2.2042

> <Gold.Chemscore.Internal.Correction>
   9.000000E+99

> <Gold.Chemscore.Hbonds>
donor molecule, donor type, donor heavy atom, donor atom, acceptor molecule, acceptor atom, score
      L1  H     9    26       P1  7957  0.63
      L1  H     9    35       P1  7948  0.90
      P1  H  7954  7966       L1    12  0.42

> <Gold.Chemscore.Hbond.Weighted>
-9.7053

> <Gold.Chemscore.Metal.Weighted>
-0.0000

> <Gold.Chemscore.Lipo.Weighted>
-6.5258

> <Gold.Chemscore.Internal_Hbond.Weighted>
0.0000

> <Gold.Chemscore.DEClash.Weighted>
1.0814

> <Gold.Chemscore.DEInternal.Weighted>
1.0567

> <Gold.Chemscore.Rot.Weighted>
5.6427

> <Gold.Chemscore.Internal.Correction.Weighted>
   9.000000E+99

> <Gold.Protein.RotatedTorsions>
[ 6907 6896 6895 6894 ] final   57.87 input  -60.11 | X-H torsion
[ 7974 7965 7964 7962 ] final  162.21 input  175.53 | X-H torsion
[ 8008 7997 7996 7995 ] final  -70.71 input   59.86 | X-H torsion
[ 10167 10162 10161 10158 ] final -161.63 input  -65.29 | X-H torsion
[ 10718 10713 10712 10709 ] final  -55.12 input   66.30 | X-H torsion
[ 10763 10752 10751 10750 ] final   30.91 input  -60.55 | X-H torsion
[ 11005 11000 10999 10996 ] final   -4.80 input  -57.11 | X-H torsion

> <Gold.Protein.ActiveResidues>
 VAL166  LYS551  ARG553  GLY616  TRP617  ASP618  TYR619  PRO620  LYS621  CYS622 
 ASP623  PHE694  ASN695  SER759  ASP760  ASP761  ALA762  ILE779  LEU786  VAL792 
 PHE793  MET794  SER795  GLU796  ALA797  LYS798  CYS799  TRP800  GLU811  SER814 

> <Gold.Protein.RotatedAtoms>
  152.3772  134.6646  160.0155 H   0  0  0  0  0  0  0  0  0  0  0  0  # atno 6907 bound_to 6896
  151.6920  133.3305  159.3253 H   0  0  0  0  0  0  0  0  0  0  0  0  # atno 6908 bound_to 6896
  150.7718  134.6625  159.6392 H   0  0  0  0  0  0  0  0  0  0  0  0  # atno 6909 bound_to 6896
  144.7647  139.8008  143.6319 H   0  0  0  0  0  0  0  0  0  0  0  0  # atno 7974 bound_to 7965
  154.5033  140.0829  156.7842 H   0  0  0  0  0  0  0  0  0  0  0  0  # atno 8008 bound_to 7997
  155.3953  140.3434  155.4235 H   0  0  0  0  0  0  0  0  0  0  0  0  # atno 8009 bound_to 7997
  156.1483  140.1550  156.8798 H   0  0  0  0  0  0  0  0  0  0  0  0  # atno 8010 bound_to 7997
  139.6451  144.0187  152.2121 H   0  0  0  0  0  0  0  0  0  0  0  0  # atno 10167 bound_to 10162
  156.1395  130.4155  150.0128 H   0  0  0  0  0  0  0  0  0  0  0  0  # atno 10718 bound_to 10713
  153.0345  135.6452  154.1117 H   0  0  0  0  0  0  0  0  0  0  0  0  # atno 10763 bound_to 10752
  154.0834  135.2871  155.3287 H   0  0  0  0  0  0  0  0  0  0  0  0  # atno 10764 bound_to 10752
  154.6514  135.5424  153.7970 H   0  0  0  0  0  0  0  0  0  0  0  0  # atno 10765 bound_to 10752
  140.6842  133.9127  155.8575 H   0  0  0  0  0  0  0  0  0  0  0  0  # atno 11005 bound_to 11000
  146.1744  139.4909  142.9906 LP  0  0  0  0  0  0  0  0  0  0  0  0  # atno 17320 bound_to 7965
  145.6506  141.0264  143.1762 LP  0  0  0  0  0  0  0  0  0  0  0  0  # atno 17321 bound_to 7965
  139.9887  144.6377  150.7834 LP  0  0  0  0  0  0  0  0  0  0  0  0  # atno 17342 bound_to 10162
  140.7510  143.2966  151.3189 LP  0  0  0  0  0  0  0  0  0  0  0  0  # atno 17343 bound_to 10162
  156.8017  130.9293  151.3646 LP  0  0  0  0  0  0  0  0  0  0  0  0  # atno 17370 bound_to 10713
  157.6562  130.8927  149.9735 LP  0  0  0  0  0  0  0  0  0  0  0  0  # atno 17371 bound_to 10713
  141.0293  134.0778  157.4032 LP  0  0  0  0  0  0  0  0  0  0  0  0  # atno 17394 bound_to 11000
  139.8942  135.0135  156.6941 LP  0  0  0  0  0  0  0  0  0  0  0  0  # atno 17395 bound_to 11000

$$$$
