AV-unprocessed.smi:2567|AV-procd|sdf|10076|dock8
  -GOLD-   2272014103D 1   1.00000     0.00000
 Structure written by MMmdl.
 34 35  0  0  0  0  0  0  0  0  2 V2000
  150.2897  143.9029  159.1220 C   0  0  0  0  0  0  0  0  0  0  0  0
  151.6037  143.3626  158.5245 C   0  0  0  0  0  0  0  0  0  0  0  0
  152.3144  144.4791  157.7359 C   0  0  0  0  0  0  0  0  0  0  0  0
  152.5204  142.9381  159.6937 C   0  0  0  0  0  0  0  0  0  0  0  0
  151.3031  142.2050  157.6021 C   0  0  0  0  0  0  0  0  0  0  0  0
  151.8798  141.0028  157.7118 N   0  0  0  0  0  0  0  0  0  0  0  0
  151.4254  140.1888  156.7363 N   0  0  0  0  0  0  0  0  0  0  0  0
  150.5684  140.9791  156.0936 C   0  0  0  0  0  0  0  0  0  0  0  0
  149.8423  140.4954  154.8773 C   0  0  2  0  0  0  0  0  0  0  0  0
  148.8585  141.5475  154.3312 C   0  0  0  0  0  0  0  0  0  0  0  0
  148.0979  140.9830  153.1993 N   0  3  0  0  0  0  0  0  0  0  0  0
  147.4220  139.7257  153.5764 C   0  0  0  0  0  0  0  0  0  0  0  0
  148.4405  138.7294  154.1586 C   0  0  0  0  0  0  0  0  0  0  0  0
  149.1226  139.3243  155.2580 O   0  0  0  0  0  0  0  0  0  0  0  0
  150.4630  142.2567  156.5705 N   0  0  0  0  0  0  0  0  0  0  0  0
  150.4744  144.7363  159.8009 H   0  0  0  0  0  0  0  0  0  0  0  0
  149.7633  143.1311  159.6847 H   0  0  0  0  0  0  0  0  0  0  0  0
  149.6135  144.2614  158.3452 H   0  0  0  0  0  0  0  0  0  0  0  0
  151.6937  144.8498  156.9192 H   0  0  0  0  0  0  0  0  0  0  0  0
  153.2495  144.1234  157.3017 H   0  0  0  0  0  0  0  0  0  0  0  0
  152.5517  145.3296  158.3760 H   0  0  0  0  0  0  0  0  0  0  0  0
  152.7266  143.7769  160.3596 H   0  0  0  0  0  0  0  0  0  0  0  0
  153.4820  142.5673  159.3363 H   0  0  0  0  0  0  0  0  0  0  0  0
  152.0634  142.1522  160.2964 H   0  0  0  0  0  0  0  0  0  0  0  0
  150.5759  140.2329  154.1124 H   0  0  0  0  0  0  0  0  0  0  0  0
  148.1601  141.8574  155.1100 H   0  0  0  0  0  0  0  0  0  0  0  0
  149.3905  142.4400  154.0008 H   0  0  0  0  0  0  0  0  0  0  0  0
  147.4110  141.6546  152.8871 H   0  0  0  0  0  0  0  0  0  0  0  0
  146.6456  139.9426  154.3111 H   0  0  0  0  0  0  0  0  0  0  0  0
  146.9283  139.3037  152.7010 H   0  0  0  0  0  0  0  0  0  0  0  0
  147.9313  137.8296  154.5040 H   0  0  0  0  0  0  0  0  0  0  0  0
  149.1580  138.4169  153.3982 H   0  0  0  0  0  0  0  0  0  0  0  0
  148.7392  140.7913  152.4428 H   0  0  0  0  0  0  0  0  0  0  0  0
  152.5598  140.7119  158.4001 H   0  0  0  0  0  0  0  0  0  0  0  0
  1  2  1  0  0  0  0
  1 16  1  0  0  0  0
  1 17  1  0  0  0  0
  1 18  1  0  0  0  0
  2  3  1  0  0  0  0
  2  4  1  0  0  0  0
  2  5  1  0  0  0  0
  3 19  1  0  0  0  0
  3 20  1  0  0  0  0
  3 21  1  0  0  0  0
  4 22  1  0  0  0  0
  4 23  1  0  0  0  0
  4 24  1  0  0  0  0
  5 15  2  0  0  0  0
  5  6  1  0  0  0  0
  6  7  1  0  0  0  0
  6 34  1  0  0  0  0
  7  8  2  0  0  0  0
  8  9  1  0  0  0  0
  8 15  1  0  0  0  0
  9 14  1  0  0  0  0
  9 10  1  0  0  0  0
  9 25  1  0  0  0  0
 10 11  1  0  0  0  0
 10 26  1  0  0  0  0
 10 27  1  0  0  0  0
 11 12  1  0  0  0  0
 11 28  1  0  0  0  0
 11 33  1  0  0  0  0
 12 13  1  0  0  0  0
 12 29  1  0  0  0  0
 12 30  1  0  0  0  0
 13 14  1  0  0  0  0
 13 31  1  0  0  0  0
 13 32  1  0  0  0  0
M  CHG  1  11   1
M  END
> <s_m_source_file>
AV-unprocessed.smi

> <i_m_source_file_index>
2567

> <i_lp_mmshare_version>
43012

> <i_f3d_flags>
0

> <s_epik_input>
W0NIM11DKFtDSDNdKShbQ0gzXSljMW5bbkhdYyhuMSlbQ0BASF0yW0NIMl1bTkhdW0NIMl1bQ0gyXU8y

> <s_epik_cmdline>
J2VwaWtfcHl0aG9uJywgJy1waCcsICc3LjAnLCAnLXRuJywgJzgnLCAnLW1hJywgJzIwMCcsICctbWV0YWxfYmluZGluZycsICctaW1hZScsICc8aW5maWxlLm1hZT4nLCAnLW9tYWUnLCAnPG91dGZpbGUubWFlPic=

> <r_lp_tautomer_probability>
0.948284

> <r_epik_Ionization_Penalty>
0.108767

> <r_epik_Ionization_Penalty_Charging>
0.100865

> <r_epik_Ionization_Penalty_Neutral>
0.00790271

> <r_epik_State_Penalty>
0.197684

> <r_epik_Charging_Adjusted_Penalty>
0.298549

> <i_epik_Tot_Q>
1

> <i_epik_Tot_abs_Q>
1

> <r_epik_Metal_State_Penalty>
0.508163

> <b_epik_Metal_Only>
0

> <s_lp_Force_Field>
OPLS_2005

> <r_lp_Energy>
13.5153

> <b_lp_Chiralities_Consistent>
1

> <s_lp_Variant>
AV-unprocessed.smi:2567-1

> <Gold.Version>
5.8.1

> <Gold.Id.Protein>
6NUR|6NUR_protein|mol2

> <Gold.PLP.Fitness>
31.1283

> <Gold.PLP.PLP>
-28.4058

> <Gold.PLP.part.hbond>
-1.0000

> <Gold.PLP.part.metal>
0.0000

> <Gold.PLP.part.buried>
-2.8325

> <Gold.PLP.part.nonpolar>
-25.1574

> <Gold.PLP.part.repulsive>
0.8278

> <Gold.PLP.ligand.clash>
0.0000

> <Gold.PLP.ligand.torsion>
0.1482

> <Gold.PLP.Chemscore.Hbond>
1.0000

> <Gold.PLP.Chemscore.CHOScore>
0.0000

> <Gold.PLP.Chemscore.Metal>
0.0000

> <Gold.Chemscore.Hbonds>
donor molecule, donor type, donor heavy atom, donor atom, acceptor molecule, acceptor atom, score
      L1  H    11    33       P1  7957  1.00

> <Gold.PLP.Chemscore.Internal.Correction>
0.0188

> <Gold.Rescore>
     Score         DG    S(hbond)    S(metal)    S(lipo)     H(rot)  DE(clash)    DE(int)     intcor
     13.35     -13.85       1.00        0.00      70.69       1.26       0.45       0.06       ----

> <Gold.Chemscore.Fitness>
13.3459

> <Gold.Chemscore.DG>
-13.8537

> <Gold.Chemscore.ZeroCoef>
-5.4800

> <Gold.Chemscore.Hbond>
1.0000

> <Gold.Chemscore.Metal>
0.0000

> <Gold.Chemscore.Lipo>
70.6947

> <Gold.Chemscore.Internal_Hbond>
0.0000

> <Gold.Chemscore.DEClash>
0.4463

> <Gold.Chemscore.DEInternal>
0.0615

> <Gold.Chemscore.Rot>
1.2647

> <Gold.Chemscore.Internal.Correction>
   9.000000E+99

> <Gold.Chemscore.Hbonds>
donor molecule, donor type, donor heavy atom, donor atom, acceptor molecule, acceptor atom, score
      L1  H    11    33       P1  7957  1.00

> <Gold.Chemscore.Hbond.Weighted>
-3.3399

> <Gold.Chemscore.Metal.Weighted>
-0.0000

> <Gold.Chemscore.Lipo.Weighted>
-8.2713

> <Gold.Chemscore.Internal_Hbond.Weighted>
0.0000

> <Gold.Chemscore.DEClash.Weighted>
0.4463

> <Gold.Chemscore.DEInternal.Weighted>
0.0615

> <Gold.Chemscore.Rot.Weighted>
3.2375

> <Gold.Chemscore.Internal.Correction.Weighted>
   9.000000E+99

> <Gold.Protein.RotatedTorsions>
[ 6907 6896 6895 6894 ] final -147.08 input  -60.11 | X-H torsion
[ 7974 7965 7964 7962 ] final -178.19 input  175.53 | X-H torsion
[ 8008 7997 7996 7995 ] final -129.97 input   59.86 | X-H torsion
[ 10167 10162 10161 10158 ] final  -64.80 input  -65.29 | X-H torsion
[ 10718 10713 10712 10709 ] final -115.93 input   66.30 | X-H torsion
[ 10763 10752 10751 10750 ] final   -8.42 input  -60.55 | X-H torsion
[ 11005 11000 10999 10996 ] final  -31.60 input  -57.11 | X-H torsion

> <Gold.Protein.ActiveResidues>
 VAL166  LYS551  ARG553  GLY616  TRP617  ASP618  TYR619  PRO620  LYS621  CYS622 
 ASP623  PHE694  ASN695  SER759  ASP760  ASP761  ALA762  ILE779  LEU786  VAL792 
 PHE793  MET794  SER795  GLU796  ALA797  LYS798  CYS799  TRP800  GLU811  SER814 

> <Gold.Protein.RotatedAtoms>
  151.1506  133.4910  159.2595 H   0  0  0  0  0  0  0  0  0  0  0  0  # atno 6907 bound_to 6896
  151.1558  135.0249  159.8698 H   0  0  0  0  0  0  0  0  0  0  0  0  # atno 6908 bound_to 6896
  152.5463  134.1385  159.8522 H   0  0  0  0  0  0  0  0  0  0  0  0  # atno 6909 bound_to 6896
  144.7130  140.0906  143.6421 H   0  0  0  0  0  0  0  0  0  0  0  0  # atno 7974 bound_to 7965
  155.2880  140.0447  157.3021 H   0  0  0  0  0  0  0  0  0  0  0  0  # atno 8008 bound_to 7997
  154.5557  140.2331  155.8381 H   0  0  0  0  0  0  0  0  0  0  0  0  # atno 8009 bound_to 7997
  156.2005  140.3027  155.9525 H   0  0  0  0  0  0  0  0  0  0  0  0  # atno 8010 bound_to 7997
  140.5775  143.2323  151.6411 H   0  0  0  0  0  0  0  0  0  0  0  0  # atno 10167 bound_to 10162
  156.0929  130.6107  150.8970 H   0  0  0  0  0  0  0  0  0  0  0  0  # atno 10718 bound_to 10713
  153.4402  135.7013  153.6174 H   0  0  0  0  0  0  0  0  0  0  0  0  # atno 10763 bound_to 10752
  153.4552  135.3749  155.2307 H   0  0  0  0  0  0  0  0  0  0  0  0  # atno 10764 bound_to 10752
  154.8727  135.4006  154.3799 H   0  0  0  0  0  0  0  0  0  0  0  0  # atno 10765 bound_to 10752
  140.9482  133.7237  156.1179 H   0  0  0  0  0  0  0  0  0  0  0  0  # atno 11005 bound_to 11000
  145.9623  139.2809  143.1148 LP  0  0  0  0  0  0  0  0  0  0  0  0  # atno 17320 bound_to 7965
  145.9207  140.9117  143.0406 LP  0  0  0  0  0  0  0  0  0  0  0  0  # atno 17321 bound_to 7965
  139.5151  144.3390  152.0758 LP  0  0  0  0  0  0  0  0  0  0  0  0  # atno 17342 bound_to 10162
  140.2535  144.4143  150.6212 LP  0  0  0  0  0  0  0  0  0  0  0  0  # atno 17343 bound_to 10162
  157.6082  131.0938  150.8841 LP  0  0  0  0  0  0  0  0  0  0  0  0  # atno 17370 bound_to 10713
  156.8986  130.5238  149.5283 LP  0  0  0  0  0  0  0  0  0  0  0  0  # atno 17371 bound_to 10713
  140.7639  134.3908  157.5520 LP  0  0  0  0  0  0  0  0  0  0  0  0  # atno 17394 bound_to 11000
  139.8839  134.8979  156.2734 LP  0  0  0  0  0  0  0  0  0  0  0  0  # atno 17395 bound_to 11000

$$$$
