AV-unprocessed.smi:271|AV-procd|sdf|2051|dock7
  -GOLD-   2262021283D 1   1.00000     0.00000
 Structure written by MMmdl.
 58 60  0  0  0  0  0  0  0  0  1 V2000
  152.5614  144.2629  158.1713 C   0  0  0  0  0  0  0  0  0  0  0  0
  151.9486  143.1469  159.0309 C   0  0  0  0  0  0  0  0  0  0  0  0
  152.9464  142.6994  160.1129 C   0  0  0  0  0  0  0  0  0  0  0  0
  151.4852  141.9716  158.1489 C   0  0  0  0  0  0  0  0  0  0  0  0
  150.3528  142.3420  157.1654 C   0  0  0  0  0  0  0  0  0  0  0  0
  149.7416  141.1870  156.5050 N   0  0  0  0  0  0  0  0  0  0  0  0
  150.6891  140.2143  155.9661 C   0  0  0  0  0  0  0  0  0  0  0  0
  150.0216  138.9164  155.4844 C   0  0  0  0  0  0  0  0  0  0  0  0
  150.9834  137.9868  154.8744 C   0  0  0  0  0  0  0  0  0  0  0  0
  151.7405  137.2552  154.3946 N   0  0  0  0  0  0  0  0  0  0  0  0
  148.7705  141.5161  155.6228 C   0  0  0  0  0  0  0  0  0  0  0  0
  149.0120  141.2653  154.3124 N   0  0  0  0  0  0  0  0  0  0  0  0
  148.0677  141.5150  153.4004 C   0  0  0  0  0  0  0  0  0  0  0  0
  146.8346  141.9921  153.5839 N   0  0  0  0  0  0  0  0  0  0  0  0
  146.5938  142.2510  154.9013 C   0  0  0  0  0  0  0  0  0  0  0  0
  147.5046  142.0621  155.9773 C   0  0  0  0  0  0  0  0  0  0  0  0
  146.9148  142.4529  157.1734 N   0  0  0  0  0  0  0  0  0  0  0  0
  145.7138  142.8279  156.8280 C   0  0  0  0  0  0  0  0  0  0  0  0
  145.4255  142.7047  155.4872 N   0  0  0  0  0  0  0  0  0  0  0  0
  144.1627  143.0080  154.8399 C   0  0  0  0  0  0  0  0  0  0  0  0
  143.1611  143.7952  155.7274 C   0  0  2  0  0  0  0  0  0  0  0  0
  141.7318  143.2610  155.4765 C   0  0  0  0  0  0  0  0  0  0  0  0
  141.3311  143.4475  154.1338 O   0  0  0  0  0  0  0  0  0  0  0  0
  143.2556  145.3458  155.5973 C   0  0  1  0  0  0  0  0  0  0  0  0
  144.5588  145.9481  156.1006 C   0  0  0  0  0  0  0  0  0  0  0  0
  144.5547  147.3206  155.4444 C   0  0  0  0  0  0  0  0  0  0  0  0
  144.0279  147.0857  154.1486 O   0  0  0  0  0  0  0  0  0  0  0  0
  143.2291  145.9060  154.1633 C   0  0  0  0  0  0  0  0  0  0  0  0
  153.4460  143.9121  157.6387 H   0  0  0  0  0  0  0  0  0  0  0  0
  152.8582  145.1141  158.7846 H   0  0  0  0  0  0  0  0  0  0  0  0
  151.8488  144.6266  157.4304 H   0  0  0  0  0  0  0  0  0  0  0  0
  151.0730  143.5653  159.5290 H   0  0  0  0  0  0  0  0  0  0  0  0
  153.8319  142.2415  159.6703 H   0  0  0  0  0  0  0  0  0  0  0  0
  152.5043  141.9756  160.7966 H   0  0  0  0  0  0  0  0  0  0  0  0
  153.2782  143.5464  160.7138 H   0  0  0  0  0  0  0  0  0  0  0  0
  152.3310  141.6005  157.5686 H   0  0  0  0  0  0  0  0  0  0  0  0
  151.1829  141.1503  158.8001 H   0  0  0  0  0  0  0  0  0  0  0  0
  149.5783  142.9185  157.6694 H   0  0  0  0  0  0  0  0  0  0  0  0
  150.7601  142.9976  156.3950 H   0  0  0  0  0  0  0  0  0  0  0  0
  151.2548  140.6667  155.1504 H   0  0  0  0  0  0  0  0  0  0  0  0
  151.4131  139.9708  156.7445 H   0  0  0  0  0  0  0  0  0  0  0  0
  149.5447  138.4011  156.3187 H   0  0  0  0  0  0  0  0  0  0  0  0
  149.2505  139.1204  154.7417 H   0  0  0  0  0  0  0  0  0  0  0  0
  148.3341  141.2890  152.3785 H   0  0  0  0  0  0  0  0  0  0  0  0
  144.9922  143.1795  157.5510 H   0  0  0  0  0  0  0  0  0  0  0  0
  144.3727  143.5646  153.9259 H   0  0  0  0  0  0  0  0  0  0  0  0
  143.7211  142.0609  154.5276 H   0  0  0  0  0  0  0  0  0  0  0  0
  143.3856  143.5492  156.7658 H   0  0  0  0  0  0  0  0  0  0  0  0
  141.6781  142.1973  155.7105 H   0  0  0  0  0  0  0  0  0  0  0  0
  141.0087  143.7488  156.1300 H   0  0  0  0  0  0  0  0  0  0  0  0
  142.0741  143.2856  153.5729 H   0  0  0  0  0  0  0  0  0  0  0  0
  142.4396  145.8021  156.1604 H   0  0  0  0  0  0  0  0  0  0  0  0
  144.6138  146.0094  157.1879 H   0  0  0  0  0  0  0  0  0  0  0  0
  145.4124  145.3689  155.7449 H   0  0  0  0  0  0  0  0  0  0  0  0
  143.8913  148.0005  155.9808 H   0  0  0  0  0  0  0  0  0  0  0  0
  145.5458  147.7722  155.3995 H   0  0  0  0  0  0  0  0  0  0  0  0
  143.6611  145.2021  153.4513 H   0  0  0  0  0  0  0  0  0  0  0  0
  142.2186  146.1431  153.8336 H   0  0  0  0  0  0  0  0  0  0  0  0
  1  2  1  0  0  0  0
  1 29  1  0  0  0  0
  1 30  1  0  0  0  0
  1 31  1  0  0  0  0
  2  3  1  0  0  0  0
  2  4  1  0  0  0  0
  2 32  1  0  0  0  0
  3 33  1  0  0  0  0
  3 34  1  0  0  0  0
  3 35  1  0  0  0  0
  4  5  1  0  0  0  0
  4 36  1  0  0  0  0
  4 37  1  0  0  0  0
  5  6  1  0  0  0  0
  5 38  1  0  0  0  0
  5 39  1  0  0  0  0
  6  7  1  0  0  0  0
  6 11  1  0  0  0  0
  7  8  1  0  0  0  0
  7 40  1  0  0  0  0
  7 41  1  0  0  0  0
  8  9  1  0  0  0  0
  8 42  1  0  0  0  0
  8 43  1  0  0  0  0
  9 10  3  0  0  0  0
 11 16  1  0  0  0  0
 11 12  2  0  0  0  0
 12 13  1  0  0  0  0
 13 14  2  0  0  0  0
 13 44  1  0  0  0  0
 14 15  1  0  0  0  0
 15 19  1  0  0  0  0
 15 16  2  0  0  0  0
 16 17  1  0  0  0  0
 17 18  2  0  0  0  0
 18 19  1  0  0  0  0
 18 45  1  0  0  0  0
 19 20  1  0  0  0  0
 20 21  1  0  0  0  0
 20 46  1  0  0  0  0
 20 47  1  0  0  0  0
 21 22  1  0  0  0  0
 21 24  1  0  0  0  0
 21 48  1  0  0  0  0
 22 23  1  0  0  0  0
 22 49  1  0  0  0  0
 22 50  1  0  0  0  0
 23 51  1  0  0  0  0
 24 28  1  0  0  0  0
 24 25  1  0  0  0  0
 24 52  1  0  0  0  0
 25 26  1  0  0  0  0
 25 53  1  0  0  0  0
 25 54  1  0  0  0  0
 26 27  1  0  0  0  0
 26 55  1  0  0  0  0
 26 56  1  0  0  0  0
 27 28  1  0  0  0  0
 28 57  1  0  0  0  0
 28 58  1  0  0  0  0
M  END
> <s_m_source_file>
AV-unprocessed.smi

> <i_m_source_file_index>
271

> <i_lp_mmshare_version>
43012

> <i_f3d_flags>
0

> <s_epik_input>
W0NIM11bQ0hdKFtDSDNdKVtDSDJdW0NIMl1OKFtDSDJdW0NIMl1DI04pYyhuW2NIXW4xKWMoYzEyKW5bY0hdbjJbQ0gyXVtDQEhdKFtDSDJdW09IXSlbQ0BASF0zW0NIMl1bQ0gyXU9bQ0gyXTM=

> <s_epik_cmdline>
J2VwaWtfcHl0aG9uJywgJy1waCcsICc3LjAnLCAnLXRuJywgJzgnLCAnLW1hJywgJzIwMCcsICctbWV0YWxfYmluZGluZycsICctaW1hZScsICc8aW5maWxlLm1hZT4nLCAnLW9tYWUnLCAnPG91dGZpbGUubWFlPic=

> <r_lp_tautomer_probability>
1

> <r_epik_Ionization_Penalty>
0.000825874

> <r_epik_Ionization_Penalty_Charging>
0

> <r_epik_Ionization_Penalty_Neutral>
0.000825874

> <r_epik_State_Penalty>
0.000396768

> <r_epik_Charging_Adjusted_Penalty>
0.000396768

> <i_epik_Tot_Q>
0

> <i_epik_Tot_abs_Q>
0

> <r_epik_Metal_State_Penalty>
-0

> <b_epik_Metal_Only>
0

> <s_lp_Force_Field>
OPLS_2005

> <r_lp_Energy>
35.9661

> <b_lp_Chiralities_Consistent>
1

> <s_lp_Variant>
AV-unprocessed.smi:271-3

> <Gold.Version>
5.8.1

> <Gold.Id.Protein>
6NUR|6NUR_protein|mol2

> <Gold.PLP.Fitness>
51.2900

> <Gold.PLP.PLP>
-44.1980

> <Gold.PLP.part.hbond>
-3.2244

> <Gold.PLP.part.metal>
0.0000

> <Gold.PLP.part.buried>
-6.2458

> <Gold.PLP.part.nonpolar>
-36.0714

> <Gold.PLP.part.repulsive>
0.7025

> <Gold.PLP.ligand.clash>
0.0000

> <Gold.PLP.ligand.torsion>
1.2191

> <Gold.PLP.Chemscore.Hbond>
1.8960

> <Gold.PLP.Chemscore.CHOScore>
1.0000

> <Gold.PLP.Chemscore.Metal>
0.0000

> <Gold.Chemscore.Hbonds>
donor molecule, donor type, donor heavy atom, donor atom, acceptor molecule, acceptor atom, score
      L1  H    23    51       P1 10174  0.91
      P1  H 10162 10167       L1    23  0.12
      P1  H 10752 10763       L1    10  0.99
      L1  C    13    44       P1  7957  1.00

> <Gold.PLP.Chemscore.Internal.Correction>
0.8422

> <Gold.Rescore>
     Score         DG    S(hbond)    S(metal)    S(lipo)     H(rot)  DE(clash)    DE(int)     intcor
     11.35     -12.89       1.89        0.00      91.76       3.77       0.09       1.45       ----

> <Gold.Chemscore.Fitness>
11.3462

> <Gold.Chemscore.DG>
-12.8865

> <Gold.Chemscore.ZeroCoef>
-5.4800

> <Gold.Chemscore.Hbond>
1.8913

> <Gold.Chemscore.Metal>
0.0000

> <Gold.Chemscore.Lipo>
91.7640

> <Gold.Chemscore.Internal_Hbond>
0.0000

> <Gold.Chemscore.DEClash>
0.0940

> <Gold.Chemscore.DEInternal>
1.4463

> <Gold.Chemscore.Rot>
3.7683

> <Gold.Chemscore.Internal.Correction>
   9.000000E+99

> <Gold.Chemscore.Hbonds>
donor molecule, donor type, donor heavy atom, donor atom, acceptor molecule, acceptor atom, score
      L1  H    23    51       P1 10174  0.88
      P1  H 10752 10763       L1    10  0.88

> <Gold.Chemscore.Hbond.Weighted>
-6.3169

> <Gold.Chemscore.Metal.Weighted>
-0.0000

> <Gold.Chemscore.Lipo.Weighted>
-10.7364

> <Gold.Chemscore.Internal_Hbond.Weighted>
0.0000

> <Gold.Chemscore.DEClash.Weighted>
0.0940

> <Gold.Chemscore.DEInternal.Weighted>
1.4463

> <Gold.Chemscore.Rot.Weighted>
9.6468

> <Gold.Chemscore.Internal.Correction.Weighted>
   9.000000E+99

> <Gold.Protein.RotatedTorsions>
[ 6907 6896 6895 6894 ] final  150.43 input  -60.11 | X-H torsion
[ 7974 7965 7964 7962 ] final  -86.15 input  175.53 | X-H torsion
[ 8008 7997 7996 7995 ] final   85.18 input   59.86 | X-H torsion
[ 10167 10162 10161 10158 ] final -113.13 input  -65.29 | X-H torsion
[ 10718 10713 10712 10709 ] final   58.93 input   66.30 | X-H torsion
[ 10763 10752 10751 10750 ] final   30.52 input  -60.55 | X-H torsion
[ 11005 11000 10999 10996 ] final   46.31 input  -57.11 | X-H torsion

> <Gold.Protein.ActiveResidues>
 VAL166  LYS551  ARG553  GLY616  TRP617  ASP618  TYR619  PRO620  LYS621  CYS622 
 ASP623  PHE694  ASN695  SER759  ASP760  ASP761  ALA762  ILE779  LEU786  VAL792 
 PHE793  MET794  SER795  GLU796  ALA797  LYS798  CYS799  TRP800  GLU811  SER814 

> <Gold.Protein.RotatedAtoms>
  152.1145  133.4319  159.4646 H   0  0  0  0  0  0  0  0  0  0  0  0  # atno 6907 bound_to 6896
  150.6869  134.2609  159.4558 H   0  0  0  0  0  0  0  0  0  0  0  0  # atno 6908 bound_to 6896
  152.0480  134.9670  160.0625 H   0  0  0  0  0  0  0  0  0  0  0  0  # atno 6909 bound_to 6896
  145.4838  140.9556  143.1850 H   0  0  0  0  0  0  0  0  0  0  0  0  # atno 7974 bound_to 7965
  155.9467  140.3404  155.6373 H   0  0  0  0  0  0  0  0  0  0  0  0  # atno 8008 bound_to 7997
  155.6972  140.0756  157.2443 H   0  0  0  0  0  0  0  0  0  0  0  0  # atno 8009 bound_to 7997
  154.4113  140.1646  156.2138 H   0  0  0  0  0  0  0  0  0  0  0  0  # atno 8010 bound_to 7997
  140.1152  143.4492  152.1727 H   0  0  0  0  0  0  0  0  0  0  0  0  # atno 10167 bound_to 10162
  157.5636  130.8854  149.9151 H   0  0  0  0  0  0  0  0  0  0  0  0  # atno 10718 bound_to 10713
  153.0367  135.6462  154.1058 H   0  0  0  0  0  0  0  0  0  0  0  0  # atno 10763 bound_to 10752
  154.0772  135.2876  155.3299 H   0  0  0  0  0  0  0  0  0  0  0  0  # atno 10764 bound_to 10752
  154.6555  135.5410  153.8017 H   0  0  0  0  0  0  0  0  0  0  0  0  # atno 10765 bound_to 10752
  140.1380  134.4619  155.8470 H   0  0  0  0  0  0  0  0  0  0  0  0  # atno 11005 bound_to 11000
  144.7874  139.6399  143.7128 LP  0  0  0  0  0  0  0  0  0  0  0  0  # atno 17320 bound_to 7965
  146.2325  139.5842  142.9545 LP  0  0  0  0  0  0  0  0  0  0  0  0  # atno 17321 bound_to 7965
  139.5598  144.7398  151.4188 LP  0  0  0  0  0  0  0  0  0  0  0  0  # atno 17342 bound_to 10162
  140.6903  143.7876  150.7246 LP  0  0  0  0  0  0  0  0  0  0  0  0  # atno 17343 bound_to 10162
  156.0686  130.3688  150.0824 LP  0  0  0  0  0  0  0  0  0  0  0  0  # atno 17370 bound_to 10713
  156.8986  130.9612  151.3579 LP  0  0  0  0  0  0  0  0  0  0  0  0  # atno 17371 bound_to 10713
  141.2181  133.6822  156.7194 LP  0  0  0  0  0  0  0  0  0  0  0  0  # atno 17394 bound_to 11000
  140.2757  134.8356  157.3888 LP  0  0  0  0  0  0  0  0  0  0  0  0  # atno 17395 bound_to 11000

$$$$
