AV-unprocessed.smi:177|AV-procd|sdf|1442|dock6
  -GOLD-   2262019233D 1   1.00000     0.00000
 Structure written by MMmdl.
 61 65  0  0  0  0  0  0  0  0  1 V2000
  151.5800  144.3787  160.8765 C   0  0  0  0  0  0  0  0  0  0  0  0
  151.2406  143.0834  160.4054 O   0  0  0  0  0  0  0  0  0  0  0  0
  152.3588  142.2489  160.1306 C   0  0  1  0  0  0  0  0  0  0  0  0
  152.9729  141.8379  161.4785 C   0  0  0  0  0  0  0  0  0  0  0  0
  154.1715  140.8963  161.2836 C   0  0  0  0  0  0  0  0  0  0  0  0
  153.8084  139.6562  160.4483 C   0  0  1  0  0  0  0  0  0  0  0  0
  152.9490  138.8061  161.2034 O   0  0  0  0  0  0  0  0  0  0  0  0
  152.6846  137.5810  160.5280 C   0  0  0  0  0  0  0  0  0  0  0  0
  151.9690  137.8624  159.1970 C   0  0  0  0  0  0  0  0  0  0  0  0
  152.7350  138.8197  158.3974 N   0  0  0  0  0  0  0  0  0  0  0  0
  152.3982  138.9687  157.0873 C   0  0  0  0  0  0  0  0  0  0  0  0
  153.3238  138.7133  156.1232 N   0  0  0  0  0  0  0  0  0  0  0  0
  153.0117  138.8381  154.8306 C   0  0  0  0  0  0  0  0  0  0  0  0
  151.8502  139.1999  154.2850 N   0  0  0  0  0  0  0  0  0  0  0  0
  150.9153  139.4623  155.2423 C   0  0  0  0  0  0  0  0  0  0  0  0
  151.1043  139.3790  156.6519 C   0  0  0  0  0  0  0  0  0  0  0  0
  149.9326  139.7487  157.3025 N   0  0  0  0  0  0  0  0  0  0  0  0
  149.0982  140.0175  156.3368 C   0  0  0  0  0  0  0  0  0  0  0  0
  149.5996  139.8566  155.0650 N   0  0  0  0  0  0  0  0  0  0  0  0
  148.8934  140.0962  153.8140 C   0  0  0  0  0  0  0  0  0  0  0  0
  147.3531  140.3154  153.9505 C   0  0  0  0  0  0  0  0  0  0  0  0
  147.1099  141.6253  154.7506 C   0  0  0  0  0  0  0  0  0  0  0  0
  147.6205  142.7789  154.1112 O   0  0  0  0  0  0  0  0  0  0  0  0
  146.6521  140.4068  152.5700 C   0  0  0  0  0  0  0  0  0  0  0  0
  146.6536  139.0611  151.8236 C   0  0  0  0  0  0  0  0  0  0  0  0
  146.0249  138.0669  152.6230 O   0  0  0  0  0  0  0  0  0  0  0  0
  146.7063  137.8244  153.8481 C   0  0  0  0  0  0  0  0  0  0  0  0
  146.7384  139.1062  154.7031 C   0  0  0  0  0  0  0  0  0  0  0  0
  153.1240  140.0381  159.1142 C   0  0  1  0  0  0  0  0  0  0  0  0
  151.9320  140.9973  159.3401 C   0  0  0  0  0  0  0  0  0  0  0  0
  150.6680  144.9386  161.0826 H   0  0  0  0  0  0  0  0  0  0  0  0
  152.1546  144.9431  160.1428 H   0  0  0  0  0  0  0  0  0  0  0  0
  152.1530  144.3236  161.8028 H   0  0  0  0  0  0  0  0  0  0  0  0
  153.1081  142.8074  159.5660 H   0  0  0  0  0  0  0  0  0  0  0  0
  153.2894  142.7254  162.0273 H   0  0  0  0  0  0  0  0  0  0  0  0
  152.2181  141.3470  162.0947 H   0  0  0  0  0  0  0  0  0  0  0  0
  154.9732  141.4408  160.7835 H   0  0  0  0  0  0  0  0  0  0  0  0
  154.5681  140.5902  162.2522 H   0  0  0  0  0  0  0  0  0  0  0  0
  154.7314  139.1122  160.2386 H   0  0  0  0  0  0  0  0  0  0  0  0
  153.6156  137.0376  160.3598 H   0  0  0  0  0  0  0  0  0  0  0  0
  152.0606  136.9519  161.1630 H   0  0  0  0  0  0  0  0  0  0  0  0
  151.8499  136.9263  158.6498 H   0  0  0  0  0  0  0  0  0  0  0  0
  150.9687  138.2537  159.3854 H   0  0  0  0  0  0  0  0  0  0  0  0
  153.8066  138.6138  154.1344 H   0  0  0  0  0  0  0  0  0  0  0  0
  148.0856  140.3407  156.5290 H   0  0  0  0  0  0  0  0  0  0  0  0
  149.3743  140.9479  153.3358 H   0  0  0  0  0  0  0  0  0  0  0  0
  149.0880  139.2504  153.1533 H   0  0  0  0  0  0  0  0  0  0  0  0
  146.0425  141.7766  154.9145 H   0  0  0  0  0  0  0  0  0  0  0  0
  147.5768  141.5707  155.7339 H   0  0  0  0  0  0  0  0  0  0  0  0
  148.1227  143.2737  154.7406 H   0  0  0  0  0  0  0  0  0  0  0  0
  145.6111  140.7027  152.7031 H   0  0  0  0  0  0  0  0  0  0  0  0
  147.0967  141.1855  151.9514 H   0  0  0  0  0  0  0  0  0  0  0  0
  146.1000  139.1563  150.8894 H   0  0  0  0  0  0  0  0  0  0  0  0
  147.6632  138.7484  151.5565 H   0  0  0  0  0  0  0  0  0  0  0  0
  146.1788  137.0368  154.3862 H   0  0  0  0  0  0  0  0  0  0  0  0
  147.7080  137.4420  153.6512 H   0  0  0  0  0  0  0  0  0  0  0  0
  147.2790  138.9210  155.6320 H   0  0  0  0  0  0  0  0  0  0  0  0
  145.7109  139.3252  154.9940 H   0  0  0  0  0  0  0  0  0  0  0  0
  153.8678  140.5773  158.5315 H   0  0  0  0  0  0  0  0  0  0  0  0
  151.1336  140.4908  159.8829 H   0  0  0  0  0  0  0  0  0  0  0  0
  151.5130  141.2858  158.3766 H   0  0  0  0  0  0  0  0  0  0  0  0
  1  2  1  0  0  0  0
  1 31  1  0  0  0  0
  1 32  1  0  0  0  0
  1 33  1  0  0  0  0
  2  3  1  0  0  0  0
  3 30  1  0  0  0  0
  3  4  1  0  0  0  0
  3 34  1  0  0  0  0
  4  5  1  0  0  0  0
  4 35  1  0  0  0  0
  4 36  1  0  0  0  0
  5  6  1  0  0  0  0
  5 37  1  0  0  0  0
  5 38  1  0  0  0  0
  6 29  1  0  0  0  0
  6  7  1  0  0  0  0
  6 39  1  0  0  0  0
  7  8  1  0  0  0  0
  8  9  1  0  0  0  0
  8 40  1  0  0  0  0
  8 41  1  0  0  0  0
  9 10  1  0  0  0  0
  9 42  1  0  0  0  0
  9 43  1  0  0  0  0
 10 11  1  0  0  0  0
 10 29  1  0  0  0  0
 11 16  1  0  0  0  0
 11 12  2  0  0  0  0
 12 13  1  0  0  0  0
 13 14  2  0  0  0  0
 13 44  1  0  0  0  0
 14 15  1  0  0  0  0
 15 19  1  0  0  0  0
 15 16  2  0  0  0  0
 16 17  1  0  0  0  0
 17 18  2  0  0  0  0
 18 19  1  0  0  0  0
 18 45  1  0  0  0  0
 19 20  1  0  0  0  0
 20 21  1  0  0  0  0
 20 46  1  0  0  0  0
 20 47  1  0  0  0  0
 21 28  1  0  0  0  0
 21 22  1  0  0  0  0
 21 24  1  0  0  0  0
 22 23  1  0  0  0  0
 22 48  1  0  0  0  0
 22 49  1  0  0  0  0
 23 50  1  0  0  0  0
 24 25  1  0  0  0  0
 24 51  1  0  0  0  0
 24 52  1  0  0  0  0
 25 26  1  0  0  0  0
 25 53  1  0  0  0  0
 25 54  1  0  0  0  0
 26 27  1  0  0  0  0
 27 28  1  0  0  0  0
 27 55  1  0  0  0  0
 27 56  1  0  0  0  0
 28 57  1  0  0  0  0
 28 58  1  0  0  0  0
 29 30  1  0  0  0  0
 29 59  1  0  0  0  0
 30 60  1  0  0  0  0
 30 61  1  0  0  0  0
M  END
> <s_m_source_file>
AV-unprocessed.smi

> <i_m_source_file_index>
177

> <i_lp_mmshare_version>
43012

> <i_f3d_flags>
0

> <s_epik_input>
W0NIM11PW0NASF0oW0NIMl1bQ0gyXTEpW0NIMl1bQ0BIXShbQ0BASF0xMilOKFtDSDJdW0NIMl1PMiljKG5bY0hdbjMpYyhjMzQpbltjSF1uNFtDSDJdQzUoW0NIMl1bT0hdKVtDSDJdW0NIMl1PW0NIMl1bQ0gyXTU=

> <s_epik_cmdline>
J2VwaWtfcHl0aG9uJywgJy1waCcsICc3LjAnLCAnLXRuJywgJzgnLCAnLW1hJywgJzIwMCcsICctbWV0YWxfYmluZGluZycsICctaW1hZScsICc8aW5maWxlLm1hZT4nLCAnLW9tYWUnLCAnPG91dGZpbGUubWFlPic=

> <r_lp_tautomer_probability>
1

> <r_epik_Ionization_Penalty>
0.0065899

> <r_epik_Ionization_Penalty_Charging>
0

> <r_epik_Ionization_Penalty_Neutral>
0.0065899

> <r_epik_State_Penalty>
0.00470042

> <r_epik_Charging_Adjusted_Penalty>
0.00470042

> <i_epik_Tot_Q>
0

> <i_epik_Tot_abs_Q>
0

> <r_epik_Metal_State_Penalty>
-0

> <b_epik_Metal_Only>
0

> <s_lp_Force_Field>
OPLS_2005

> <r_lp_Energy>
44.6168

> <b_lp_Chiralities_Consistent>
1

> <s_lp_Variant>
AV-unprocessed.smi:177-6

> <Gold.Version>
5.8.1

> <Gold.Id.Protein>
6NUR|6NUR_protein|mol2

> <Gold.PLP.Fitness>
49.1320

> <Gold.PLP.PLP>
-42.4316

> <Gold.PLP.part.hbond>
-4.3981

> <Gold.PLP.part.metal>
0.0000

> <Gold.PLP.part.buried>
5.5406

> <Gold.PLP.part.nonpolar>
-45.1730

> <Gold.PLP.part.repulsive>
0.4404

> <Gold.PLP.ligand.clash>
0.0000

> <Gold.PLP.ligand.torsion>
0.5202

> <Gold.PLP.Chemscore.Hbond>
2.4184

> <Gold.PLP.Chemscore.CHOScore>
0.0000

> <Gold.PLP.Chemscore.Metal>
0.0000

> <Gold.Chemscore.Hbonds>
donor molecule, donor type, donor heavy atom, donor atom, acceptor molecule, acceptor atom, score
      L1  H    23    50       P1  8028  1.00
      P1  H  7989  7998       L1    14  0.64
      P1  H  7997  8008       L1    12  0.63

> <Gold.PLP.Chemscore.Internal.Correction>
0.4857

> <Gold.Rescore>
     Score         DG    S(hbond)    S(metal)    S(lipo)     H(rot)  DE(clash)    DE(int)     intcor
     11.73     -16.13       1.08        0.00     116.56       2.58       2.57       1.84       ----

> <Gold.Chemscore.Fitness>
11.7303

> <Gold.Chemscore.DG>
-16.1343

> <Gold.Chemscore.ZeroCoef>
-5.4800

> <Gold.Chemscore.Hbond>
1.0848

> <Gold.Chemscore.Metal>
0.0000

> <Gold.Chemscore.Lipo>
116.5574

> <Gold.Chemscore.Internal_Hbond>
0.0000

> <Gold.Chemscore.DEClash>
2.5654

> <Gold.Chemscore.DEInternal>
1.8387

> <Gold.Chemscore.Rot>
2.5806

> <Gold.Chemscore.Internal.Correction>
   9.000000E+99

> <Gold.Chemscore.Hbonds>
donor molecule, donor type, donor heavy atom, donor atom, acceptor molecule, acceptor atom, score
      L1  H    23    50       P1  8028  0.94
      P1  H  7989  7998       L1    14  0.06
      P1  H  7997  8008       L1    12  0.03

> <Gold.Chemscore.Hbond.Weighted>
-3.6233

> <Gold.Chemscore.Metal.Weighted>
-0.0000

> <Gold.Chemscore.Lipo.Weighted>
-13.6372

> <Gold.Chemscore.Internal_Hbond.Weighted>
0.0000

> <Gold.Chemscore.DEClash.Weighted>
2.5654

> <Gold.Chemscore.DEInternal.Weighted>
1.8387

> <Gold.Chemscore.Rot.Weighted>
6.6062

> <Gold.Chemscore.Internal.Correction.Weighted>
   9.000000E+99

> <Gold.Protein.RotatedTorsions>
[ 6907 6896 6895 6894 ] final  -37.29 input  -60.11 | X-H torsion
[ 7974 7965 7964 7962 ] final  161.85 input  175.53 | X-H torsion
[ 8008 7997 7996 7995 ] final  -29.89 input   59.86 | X-H torsion
[ 10167 10162 10161 10158 ] final   45.93 input  -65.29 | X-H torsion
[ 10718 10713 10712 10709 ] final -133.45 input   66.30 | X-H torsion
[ 10763 10752 10751 10750 ] final  153.62 input  -60.55 | X-H torsion
[ 11005 11000 10999 10996 ] final   98.07 input  -57.11 | X-H torsion

> <Gold.Protein.ActiveResidues>
 VAL166  LYS551  ARG553  GLY616  TRP617  ASP618  TYR619  PRO620  LYS621  CYS622 
 ASP623  PHE694  ASN695  SER759  ASP760  ASP761  ALA762  ILE779  LEU786  VAL792 
 PHE793  MET794  SER795  GLU796  ALA797  LYS798  CYS799  TRP800  GLU811  SER814 

> <Gold.Protein.RotatedAtoms>
  151.0166  134.9437  159.8036 H   0  0  0  0  0  0  0  0  0  0  0  0  # atno 6907 bound_to 6896
  152.5315  134.2959  159.9070 H   0  0  0  0  0  0  0  0  0  0  0  0  # atno 6908 bound_to 6896
  151.2965  133.4099  159.2671 H   0  0  0  0  0  0  0  0  0  0  0  0  # atno 6909 bound_to 6896
  144.7665  139.7957  143.6313 H   0  0  0  0  0  0  0  0  0  0  0  0  # atno 7974 bound_to 7965
  154.4272  140.1806  156.1320 H   0  0  0  0  0  0  0  0  0  0  0  0  # atno 8008 bound_to 7997
  156.0060  140.3355  155.6868 H   0  0  0  0  0  0  0  0  0  0  0  0  # atno 8009 bound_to 7997
  155.6177  140.0656  157.2678 H   0  0  0  0  0  0  0  0  0  0  0  0  # atno 8010 bound_to 7997
  140.3191  144.2727  150.6186 H   0  0  0  0  0  0  0  0  0  0  0  0  # atno 10167 bound_to 10162
  156.2450  130.7119  151.0995 H   0  0  0  0  0  0  0  0  0  0  0  0  # atno 10718 bound_to 10713
  154.1391  135.2822  155.3165 H   0  0  0  0  0  0  0  0  0  0  0  0  # atno 10763 bound_to 10752
  154.6300  135.5438  153.7673 H   0  0  0  0  0  0  0  0  0  0  0  0  # atno 10764 bound_to 10752
  153.0256  135.6460  154.1538 H   0  0  0  0  0  0  0  0  0  0  0  0  # atno 10765 bound_to 10752
  139.8773  134.9031  156.4401 H   0  0  0  0  0  0  0  0  0  0  0  0  # atno 11005 bound_to 11000
  146.1777  139.4954  142.9887 LP  0  0  0  0  0  0  0  0  0  0  0  0  # atno 17320 bound_to 7965
  145.6454  141.0275  143.1789 LP  0  0  0  0  0  0  0  0  0  0  0  0  # atno 17321 bound_to 7965
  140.5499  143.2208  151.7944 LP  0  0  0  0  0  0  0  0  0  0  0  0  # atno 17342 bound_to 10162
  139.4878  144.4490  151.9676 LP  0  0  0  0  0  0  0  0  0  0  0  0  # atno 17343 bound_to 10162
  157.7191  131.0692  150.6208 LP  0  0  0  0  0  0  0  0  0  0  0  0  # atno 17370 bound_to 10713
  156.6284  130.4425  149.5796 LP  0  0  0  0  0  0  0  0  0  0  0  0  # atno 17371 bound_to 10713
  140.9005  133.7783  155.9675 LP  0  0  0  0  0  0  0  0  0  0  0  0  # atno 17394 bound_to 11000
  140.8656  134.2788  157.5215 LP  0  0  0  0  0  0  0  0  0  0  0  0  # atno 17395 bound_to 11000

$$$$
