AV-unprocessed.smi:2560|AV-procd|sdf|10039|dock1
  -GOLD-   2272014 83D 1   1.00000     0.00000
 Structure written by MMmdl.
 31 32  0  0  0  0  0  0  0  0  1 V2000
  147.0767  123.6408  148.7283 C   0  0  0  0  0  0  0  0  0  0  0  0
  148.5709  123.8272  149.7390 S   0  0  0  0  0  0  0  0  0  0  0  0
  148.2453  125.1644  150.8419 C   0  0  0  0  0  0  0  0  0  0  0  0
  148.1919  124.9592  152.1704 N   0  0  0  0  0  0  0  0  0  0  0  0
  147.8665  126.4340  152.9304 S   0  0  0  0  0  0  0  0  0  0  0  0
  147.8236  127.2502  151.3954 C   0  0  0  0  0  0  0  0  0  0  0  0
  147.5820  128.6500  151.2797 N   0  0  0  0  0  0  0  0  0  0  0  0
  146.5176  129.4010  151.6357 C   0  0  0  0  0  0  0  0  0  0  0  0
  145.5289  128.8921  152.1607 O   0  0  0  0  0  0  0  0  0  0  0  0
  146.6105  130.7173  151.3837 N   0  0  0  0  0  0  0  0  0  0  0  0
  145.5981  131.7215  151.6880 C   0  0  1  0  0  0  0  0  0  0  0  0
  146.2829  133.0555  151.9416 C   0  0  0  0  0  0  0  0  0  0  0  0
  145.8523  134.2259  151.4408 C   0  0  0  0  0  0  0  0  0  0  0  0
  144.6154  134.3602  150.5726 C   0  0  0  0  0  0  0  0  0  0  0  0
  143.7254  133.1069  150.6375 C   0  0  0  0  0  0  0  0  0  0  0  0
  144.5546  131.8166  150.5500 C   0  0  0  0  0  0  0  0  0  0  0  0
  148.0469  126.4126  150.3830 N   0  0  0  0  0  0  0  0  0  0  0  0
  147.2056  122.8281  148.0138 H   0  0  0  0  0  0  0  0  0  0  0  0
  146.8704  124.5575  148.1758 H   0  0  0  0  0  0  0  0  0  0  0  0
  146.2175  123.4134  149.3597 H   0  0  0  0  0  0  0  0  0  0  0  0
  148.3273  129.1661  150.8348 H   0  0  0  0  0  0  0  0  0  0  0  0
  147.4590  131.0489  150.9475 H   0  0  0  0  0  0  0  0  0  0  0  0
  145.0971  131.4495  152.6186 H   0  0  0  0  0  0  0  0  0  0  0  0
  147.1688  133.0375  152.5599 H   0  0  0  0  0  0  0  0  0  0  0  0
  146.4046  135.1315  151.6441 H   0  0  0  0  0  0  0  0  0  0  0  0
  144.0470  135.2356  150.8875 H   0  0  0  0  0  0  0  0  0  0  0  0
  144.9388  134.5422  149.5474 H   0  0  0  0  0  0  0  0  0  0  0  0
  143.1684  133.1063  151.5753 H   0  0  0  0  0  0  0  0  0  0  0  0
  142.9832  133.1358  149.8394 H   0  0  0  0  0  0  0  0  0  0  0  0
  145.0597  131.7942  149.5830 H   0  0  0  0  0  0  0  0  0  0  0  0
  143.8959  130.9477  150.5713 H   0  0  0  0  0  0  0  0  0  0  0  0
  1  2  1  0  0  0  0
  1 18  1  0  0  0  0
  1 19  1  0  0  0  0
  1 20  1  0  0  0  0
  2  3  1  0  0  0  0
  3 17  1  0  0  0  0
  3  4  2  0  0  0  0
  4  5  1  0  0  0  0
  5  6  1  0  0  0  0
  6  7  1  0  0  0  0
  6 17  2  0  0  0  0
  7  8  1  0  0  0  0
  7 21  1  0  0  0  0
  8  9  2  0  0  0  0
  8 10  1  0  0  0  0
 10 11  1  0  0  0  0
 10 22  1  0  0  0  0
 11 16  1  0  0  0  0
 11 12  1  0  0  0  0
 11 23  1  0  0  0  0
 12 13  2  0  0  0  0
 12 24  1  0  0  0  0
 13 14  1  0  0  0  0
 13 25  1  0  0  0  0
 14 15  1  0  0  0  0
 14 26  1  0  0  0  0
 14 27  1  0  0  0  0
 15 16  1  0  0  0  0
 15 28  1  0  0  0  0
 15 29  1  0  0  0  0
 16 30  1  0  0  0  0
 16 31  1  0  0  0  0
M  END
> <s_m_source_file>
AV-unprocessed.smi

> <i_m_source_file_index>
2560

> <i_lp_mmshare_version>
43012

> <i_f3d_flags>
0

> <s_epik_input>
W0NIM11TYzFuc2MobjEpW05IXUMoPU8pW05IXVtDQEBIXTJbQ0hdPVtDSF1bQ0gyXVtDSDJdW0NIMl0y

> <s_epik_cmdline>
J2VwaWtfcHl0aG9uJywgJy1waCcsICc3LjAnLCAnLXRuJywgJzgnLCAnLW1hJywgJzIwMCcsICctbWV0YWxfYmluZGluZycsICctaW1hZScsICc8aW5maWxlLm1hZT4nLCAnLW9tYWUnLCAnPG91dGZpbGUubWFlPic=

> <r_lp_tautomer_probability>
1

> <r_epik_Ionization_Penalty>
2.65559e-05

> <r_epik_Ionization_Penalty_Charging>
0

> <r_epik_Ionization_Penalty_Neutral>
2.65559e-05

> <r_epik_State_Penalty>
-0

> <r_epik_Charging_Adjusted_Penalty>
0

> <i_epik_Tot_Q>
0

> <i_epik_Tot_abs_Q>
0

> <r_epik_Metal_State_Penalty>
-0

> <b_epik_Metal_Only>
0

> <s_lp_Force_Field>
OPLS_2005

> <r_lp_Energy>
8.24661

> <b_lp_Chiralities_Consistent>
1

> <s_lp_Variant>
AV-unprocessed.smi:2560-2

> <Gold.Version>
5.8.1

> <Gold.Id.Protein>
6NUR|6NUR_protein|mol2

> <Gold.PLP.Fitness>
38.0760

> <Gold.PLP.PLP>
-34.7433

> <Gold.PLP.part.hbond>
-2.1515

> <Gold.PLP.part.metal>
0.0000

> <Gold.PLP.part.buried>
-5.6606

> <Gold.PLP.part.nonpolar>
-26.9795

> <Gold.PLP.part.repulsive>
0.4011

> <Gold.PLP.ligand.clash>
0.0000

> <Gold.PLP.ligand.torsion>
0.9561

> <Gold.PLP.Chemscore.Hbond>
1.7440

> <Gold.PLP.Chemscore.CHOScore>
0.0000

> <Gold.PLP.Chemscore.Metal>
0.0000

> <Gold.Chemscore.Hbonds>
donor molecule, donor type, donor heavy atom, donor atom, acceptor molecule, acceptor atom, score
      L1  H     7    21       P1 10747  0.68
      L1  H    10    22       P1 10747  1.00

> <Gold.PLP.Chemscore.Internal.Correction>
0.0129

> <Gold.Rescore>
     Score         DG    S(hbond)    S(metal)    S(lipo)     H(rot)  DE(clash)    DE(int)     intcor
     12.18     -13.43       1.22        0.00      60.51       1.25       0.29       0.95       ----

> <Gold.Chemscore.Fitness>
12.1820

> <Gold.Chemscore.DG>
-13.4282

> <Gold.Chemscore.ZeroCoef>
-5.4800

> <Gold.Chemscore.Hbond>
1.2199

> <Gold.Chemscore.Metal>
0.0000

> <Gold.Chemscore.Lipo>
60.5126

> <Gold.Chemscore.Internal_Hbond>
0.0000

> <Gold.Chemscore.DEClash>
0.2928

> <Gold.Chemscore.DEInternal>
0.9534

> <Gold.Chemscore.Rot>
1.2524

> <Gold.Chemscore.Internal.Correction>
   9.000000E+99

> <Gold.Chemscore.Hbonds>
donor molecule, donor type, donor heavy atom, donor atom, acceptor molecule, acceptor atom, score
      L1  H     7    21       P1 10747  0.07
      L1  H    10    22       P1 10747  0.97

> <Gold.Chemscore.Hbond.Weighted>
-4.0743

> <Gold.Chemscore.Metal.Weighted>
-0.0000

> <Gold.Chemscore.Lipo.Weighted>
-7.0800

> <Gold.Chemscore.Internal_Hbond.Weighted>
0.0000

> <Gold.Chemscore.DEClash.Weighted>
0.2928

> <Gold.Chemscore.DEInternal.Weighted>
0.9534

> <Gold.Chemscore.Rot.Weighted>
3.2062

> <Gold.Chemscore.Internal.Correction.Weighted>
   9.000000E+99

> <Gold.Protein.RotatedTorsions>
[ 6907 6896 6895 6894 ] final  165.50 input  -60.11 | X-H torsion
[ 7974 7965 7964 7962 ] final   17.53 input  175.53 | X-H torsion
[ 8008 7997 7996 7995 ] final -101.13 input   59.86 | X-H torsion
[ 10167 10162 10161 10158 ] final  -77.59 input  -65.29 | X-H torsion
[ 10718 10713 10712 10709 ] final -160.54 input   66.30 | X-H torsion
[ 10763 10752 10751 10750 ] final  -51.04 input  -60.55 | X-H torsion
[ 11005 11000 10999 10996 ] final -172.80 input  -57.11 | X-H torsion

> <Gold.Protein.ActiveResidues>
 VAL166  LYS551  ARG553  GLY616  TRP617  ASP618  TYR619  PRO620  LYS621  CYS622 
 ASP623  PHE694  ASN695  SER759  ASP760  ASP761  ALA762  ILE779  LEU786  VAL792 
 PHE793  MET794  SER795  GLU796  ALA797  LYS798  CYS799  TRP800  GLU811  SER814 

> <Gold.Protein.RotatedAtoms>
  151.8934  133.3521  159.3805 H   0  0  0  0  0  0  0  0  0  0  0  0  # atno 6907 bound_to 6896
  150.7097  134.4901  159.5521 H   0  0  0  0  0  0  0  0  0  0  0  0  # atno 6908 bound_to 6896
  152.2475  134.8166  160.0502 H   0  0  0  0  0  0  0  0  0  0  0  0  # atno 6909 bound_to 6896
  146.2215  139.8589  142.8608 H   0  0  0  0  0  0  0  0  0  0  0  0  # atno 7974 bound_to 7965
  154.8383  140.0436  157.1524 H   0  0  0  0  0  0  0  0  0  0  0  0  # atno 8008 bound_to 7997
  154.9075  140.3009  155.5264 H   0  0  0  0  0  0  0  0  0  0  0  0  # atno 8009 bound_to 7997
  156.2991  140.2364  156.4110 H   0  0  0  0  0  0  0  0  0  0  0  0  # atno 8010 bound_to 7997
  140.4756  143.2415  151.8137 H   0  0  0  0  0  0  0  0  0  0  0  0  # atno 10167 bound_to 10162
  156.5836  130.8740  151.2871 H   0  0  0  0  0  0  0  0  0  0  0  0  # atno 10718 bound_to 10713
  154.1201  135.6536  153.4901 H   0  0  0  0  0  0  0  0  0  0  0  0  # atno 10763 bound_to 10752
  153.0228  135.5268  154.7105 H   0  0  0  0  0  0  0  0  0  0  0  0  # atno 10764 bound_to 10752
  154.6310  135.2976  155.0186 H   0  0  0  0  0  0  0  0  0  0  0  0  # atno 10765 bound_to 10752
  140.4929  134.5967  157.4961 H   0  0  0  0  0  0  0  0  0  0  0  0  # atno 11005 bound_to 11000
  145.2724  141.0113  143.3764 LP  0  0  0  0  0  0  0  0  0  0  0  0  # atno 17320 bound_to 7965
  144.9213  139.4408  143.6540 LP  0  0  0  0  0  0  0  0  0  0  0  0  # atno 17321 bound_to 7965
  139.4825  144.4837  151.9274 LP  0  0  0  0  0  0  0  0  0  0  0  0  # atno 17342 bound_to 10162
  140.3922  144.2601  150.5899 LP  0  0  0  0  0  0  0  0  0  0  0  0  # atno 17343 bound_to 10162
  157.7320  130.9709  150.1909 LP  0  0  0  0  0  0  0  0  0  0  0  0  # atno 17370 bound_to 10713
  156.2610  130.3711  149.8131 LP  0  0  0  0  0  0  0  0  0  0  0  0  # atno 17371 bound_to 10713
  139.9758  134.7217  155.9952 LP  0  0  0  0  0  0  0  0  0  0  0  0  # atno 17394 bound_to 11000
  141.1475  133.6553  156.3911 LP  0  0  0  0  0  0  0  0  0  0  0  0  # atno 17395 bound_to 11000

$$$$
