#       Name:                AV-unprocessed.smi:3031
#       Creating user name   scv26
#       Creation time:       Fri Mar 27 16:51:05 2020


#       File generated by GOLD software.
#

@<TRIPOS>MOLECULE
AV-unprocessed.smi:3031
    53    54     1
SMALL
NO_CHARGES


@<TRIPOS>ATOM
      1 ****        -2.4304   0.4417   4.8696 C.3            1 S1                 0.0000
      2 ****        -2.5181  -0.0789   3.4637 C.2            1 S1                 0.0000
      3 ****        -2.6908   0.6717   2.2670 C.2            1 S1                 0.0000
      4 ****        -2.7358  -0.0895   1.1862 N.2            1 S1                 0.0000
      5 ****        -2.5835  -1.3499   1.6498 N.pl3          1 S1                 0.0000
      6 ****        -2.6149  -2.4813   0.7341 C.3            1 S1                 0.0000
      7 ****        -1.7657  -2.2692  -0.5372 C.3            1 S1                 0.0000
      8 ****        -1.8569  -3.4849  -1.4724 C.3            1 S1                 0.0000
      9 ****        -0.3578  -1.9980  -0.1695 N.4            1 S1                 1.0000
     10 ****         0.3995  -1.1924  -1.1501 C.3            1 S1                 0.0000
     11 ****         1.8278  -0.9058  -0.6515 C.3            1 S1                 0.0000
     12 ****         2.5504  -2.1201  -0.6766 O.3            1 S1                 0.0000
     13 ****         2.5813   0.1082  -1.5392 C.3            1 S1                 0.0000
     14 ****         2.0050   1.4774  -1.4852 N.4            1 S1                 1.0000
     15 ****         2.2988   2.2003  -0.2222 C.3            1 S1                 0.0000
     16 ****         1.6466   3.5935  -0.2335 C.3            1 S1                 0.0000
     17 ****         2.1002   4.3248  -1.3652 O.3            1 S1                 0.0000
     18 ****         1.7439   3.6894  -2.5860 C.3            1 S1                 0.0000
     19 ****         2.4001   2.2998  -2.6541 C.3            1 S1                 0.0000
     20 ****        -2.4646  -1.3713   3.0236 C.2            1 S1                 0.0000
     21 ****        -3.2386   1.1391   5.0904 H              1 S1                 0.0000
     22 ****        -1.4930   0.9696   5.0448 H              1 S1                 0.0000
     23 ****        -2.4905  -0.3608   5.6052 H              1 S1                 0.0000
     24 ****        -2.7880   1.7416   2.1535 H              1 S1                 0.0000
     25 ****        -2.2727  -3.3678   1.2706 H              1 S1                 0.0000
     26 ****        -3.6562  -2.6628   0.4647 H              1 S1                 0.0000
     27 ****        -2.1635  -1.4040  -1.0701 H              1 S1                 0.0000
     28 ****        -2.8922  -3.6873  -1.7484 H              1 S1                 0.0000
     29 ****        -1.4604  -4.3828  -0.9972 H              1 S1                 0.0000
     30 ****        -1.3011  -3.3244  -2.3963 H              1 S1                 0.0000
     31 ****        -0.3672  -1.4802   0.6978 H              1 S1                 0.0000
     32 ****         0.4238  -1.6964  -2.1171 H              1 S1                 0.0000
     33 ****        -0.1339  -0.2522  -1.2946 H              1 S1                 0.0000
     34 ****         1.8030  -0.5618   0.3822 H              1 S1                 0.0000
     35 ****         3.4215  -1.9653  -0.3421 H              1 S1                 0.0000
     36 ****         3.6342   0.1580  -1.2562 H              1 S1                 0.0000
     37 ****         2.5608  -0.2529  -2.5690 H              1 S1                 0.0000
     38 ****         1.9286   1.6415   0.6364 H              1 S1                 0.0000
     39 ****         3.3785   2.2981  -0.0989 H              1 S1                 0.0000
     40 ****         0.5583   3.5144  -0.2475 H              1 S1                 0.0000
     41 ****         1.9142   4.1408   0.6705 H              1 S1                 0.0000
     42 ****         0.6585   3.6133  -2.6687 H              1 S1                 0.0000
     43 ****         2.0842   4.3071  -3.4175 H              1 S1                 0.0000
     44 ****         3.4863   2.4015  -2.6808 H              1 S1                 0.0000
     45 ****         2.1018   1.8009  -3.5771 H              1 S1                 0.0000
     46 ****        -2.3533  -2.2960   3.5712 H              1 S1                 0.0000
     47 ****         0.1186  -2.8750  -0.0128 H              1 S1                 0.0000
     48 ****         1.0017   1.3763  -1.5421 H              1 S1                 0.0000
     49 ****        -2.8558   0.2026   0.2373 LP             1 S1                 0.0000
     50 ****         2.6068  -2.4578  -1.6162 LP             1 S1                 0.0000
     51 ****         2.0873  -2.7981  -0.1059 LP             1 S1                 0.0000
     52 ****         3.0961   4.4040  -1.3208 LP             1 S1                 0.0000
     53 ****         1.6921   5.2375  -1.3449 LP             1 S1                 0.0000
@<TRIPOS>BOND
    1    1    2 1     
    2    1   21 1     
    3    1   22 1     
    4    1   23 1     
    5    2   20 2     
    6    2    3 1     
    7    3    4 2     
    8    3   24 1     
    9    4    5 1     
   10    5    6 1     
   11    5   20 1     
   12    6    7 1     
   13    6   25 1     
   14    6   26 1     
   15    7    8 1     
   16    7    9 1     
   17    7   27 1     
   18    8   28 1     
   19    8   29 1     
   20    8   30 1     
   21    9   10 1     
   22    9   31 1     
   23    9   47 1     
   24   10   11 1     
   25   10   32 1     
   26   10   33 1     
   27   11   12 1     
   28   11   13 1     
   29   11   34 1     
   30   12   35 1     
   31   13   14 1     
   32   13   36 1     
   33   13   37 1     
   34   14   19 1     
   35   14   15 1     
   36   14   48 1     
   37   15   16 1     
   38   15   38 1     
   39   15   39 1     
   40   16   17 1     
   41   16   40 1     
   42   16   41 1     
   43   17   18 1     
   44   18   19 1     
   45   18   42 1     
   46   18   43 1     
   47   19   44 1     
   48   19   45 1     
   49   20   46 1     
   50    4   49 1     
   51   12   50 1     
   52   12   51 1     
   53   17   52 1     
   54   17   53 1     
@<TRIPOS>SUBSTRUCTURE
      1 S1             1
@<TRIPOS>SET
LONE_PAIRS      STATIC     ATOMS    <user>   **** ""
5 49 50 51 52 53
DONOR_HYDROGENS      STATIC     ATOMS    <user>   **** ""
4 31 47 35 48
ATOM$BLUE        STATIC     ATOMS    COLORGROUP SYSTEM
5 49 50 51 52 53
ATOM$RED        STATIC     ATOMS    COLORGROUP SYSTEM
4 31 47 35 48
