AV-unprocessed.smi:3161|AV-procd|sdf|12062|dock1
  -GOLD-   2272017493D 1   1.00000     0.00000
 Structure written by MMmdl.
 40 41  0  0  0  0  0  0  0  0  1 V2000
  147.5319  142.2333  153.6147 C   0  0  0  0  0  0  0  0  0  0  0  0
  148.5545  141.2889  154.1777 C   0  0  0  0  0  0  0  0  0  0  0  0
  148.6034  139.8720  154.0468 C   0  0  0  0  0  0  0  0  0  0  0  0
  149.6416  139.3336  154.6643 N   0  0  0  0  0  0  0  0  0  0  0  0
  150.2875  140.3823  155.2180 N   0  0  0  0  0  0  0  0  0  0  0  0
  151.5015  140.1619  155.9882 C   0  0  0  0  0  0  0  0  0  0  0  0
  151.3604  140.4968  157.4953 C   0  0  1  0  0  0  0  0  0  0  0  0
  150.2837  139.6458  158.1867 C   0  0  0  0  0  0  0  0  0  0  0  0
  152.6219  140.3760  158.2346 N   0  0  0  0  0  0  0  0  0  0  0  0
  152.6016  140.8817  159.6060 C   0  0  0  0  0  0  0  0  0  0  0  0
  152.0609  142.3175  159.6514 C   0  0  1  0  0  0  0  0  0  0  0  0
  152.5049  143.0501  160.9323 C   0  0  0  0  0  0  0  0  0  0  0  0
  152.0368  144.5097  160.9103 C   0  0  0  0  0  0  0  0  0  0  0  0
  152.5018  145.1805  159.6138 C   0  0  0  0  0  0  0  0  0  0  0  0
  152.0716  144.3455  158.3976 C   0  0  0  0  0  0  0  0  0  0  0  0
  152.5742  143.0185  158.5195 O   0  0  0  0  0  0  0  0  0  0  0  0
  149.6559  141.5749  154.9338 C   0  0  0  0  0  0  0  0  0  0  0  0
  146.7617  141.7079  153.0495 H   0  0  0  0  0  0  0  0  0  0  0  0
  147.9845  142.9606  152.9405 H   0  0  0  0  0  0  0  0  0  0  0  0
  147.0261  142.7937  154.4013 H   0  0  0  0  0  0  0  0  0  0  0  0
  147.9186  139.2224  153.5216 H   0  0  0  0  0  0  0  0  0  0  0  0
  151.8384  139.1368  155.8346 H   0  0  0  0  0  0  0  0  0  0  0  0
  152.2832  140.7882  155.5568 H   0  0  0  0  0  0  0  0  0  0  0  0
  151.0290  141.5339  157.5602 H   0  0  0  0  0  0  0  0  0  0  0  0
  149.3305  139.7180  157.6625 H   0  0  0  0  0  0  0  0  0  0  0  0
  150.1199  139.9804  159.2114 H   0  0  0  0  0  0  0  0  0  0  0  0
  150.5645  138.5928  158.2265 H   0  0  0  0  0  0  0  0  0  0  0  0
  152.9215  139.4060  158.2395 H   0  0  0  0  0  0  0  0  0  0  0  0
  151.9651  140.2490  160.2239 H   0  0  0  0  0  0  0  0  0  0  0  0
  153.6004  140.8487  160.0431 H   0  0  0  0  0  0  0  0  0  0  0  0
  150.9700  142.2959  159.6095 H   0  0  0  0  0  0  0  0  0  0  0  0
  152.1072  142.5457  161.8136 H   0  0  0  0  0  0  0  0  0  0  0  0
  153.5918  143.0170  161.0174 H   0  0  0  0  0  0  0  0  0  0  0  0
  150.9486  144.5482  160.9740 H   0  0  0  0  0  0  0  0  0  0  0  0
  152.4222  145.0470  161.7772 H   0  0  0  0  0  0  0  0  0  0  0  0
  152.0959  146.1900  159.5432 H   0  0  0  0  0  0  0  0  0  0  0  0
  153.5882  145.2788  159.6217 H   0  0  0  0  0  0  0  0  0  0  0  0
  150.9850  144.3273  158.3010 H   0  0  0  0  0  0  0  0  0  0  0  0
  152.4650  144.7873  157.4821 H   0  0  0  0  0  0  0  0  0  0  0  0
  150.0372  142.5192  155.2935 H   0  0  0  0  0  0  0  0  0  0  0  0
  1  2  1  0  0  0  0
  1 18  1  0  0  0  0
  1 19  1  0  0  0  0
  1 20  1  0  0  0  0
  2 17  2  0  0  0  0
  2  3  1  0  0  0  0
  3  4  2  0  0  0  0
  3 21  1  0  0  0  0
  4  5  1  0  0  0  0
  5  6  1  0  0  0  0
  5 17  1  0  0  0  0
  6  7  1  0  0  0  0
  6 22  1  0  0  0  0
  6 23  1  0  0  0  0
  7  8  1  0  0  0  0
  7  9  1  0  0  0  0
  7 24  1  0  0  0  0
  8 25  1  0  0  0  0
  8 26  1  0  0  0  0
  8 27  1  0  0  0  0
  9 10  1  0  0  0  0
  9 28  1  0  0  0  0
 10 11  1  0  0  0  0
 10 29  1  0  0  0  0
 10 30  1  0  0  0  0
 11 16  1  0  0  0  0
 11 12  1  0  0  0  0
 11 31  1  0  0  0  0
 12 13  1  0  0  0  0
 12 32  1  0  0  0  0
 12 33  1  0  0  0  0
 13 14  1  0  0  0  0
 13 34  1  0  0  0  0
 13 35  1  0  0  0  0
 14 15  1  0  0  0  0
 14 36  1  0  0  0  0
 14 37  1  0  0  0  0
 15 16  1  0  0  0  0
 15 38  1  0  0  0  0
 15 39  1  0  0  0  0
 17 40  1  0  0  0  0
M  END
> <s_m_source_file>
AV-unprocessed.smi

> <i_m_source_file_index>
3161

> <i_lp_mmshare_version>
43012

> <i_f3d_flags>
0

> <s_epik_input>
W0NIM11jMVtjSF1ubihbY0hdMSlbQ0gyXVtDQEhdKFtDSDNdKVtOSF1bQ0gyXVtDQEBIXTJbQ0gyXVtDSDJdW0NIMl1bQ0gyXU8y

> <s_epik_cmdline>
J2VwaWtfcHl0aG9uJywgJy1waCcsICc3LjAnLCAnLXRuJywgJzgnLCAnLW1hJywgJzIwMCcsICctbWV0YWxfYmluZGluZycsICctaW1hZScsICc8aW5maWxlLm1hZT4nLCAnLW9tYWUnLCAnPG91dGZpbGUubWFlPic=

> <r_lp_tautomer_probability>
1

> <r_epik_Ionization_Penalty>
2.51986

> <r_epik_Ionization_Penalty_Charging>
0

> <r_epik_Ionization_Penalty_Neutral>
2.51986

> <r_epik_State_Penalty>
2.68614

> <r_epik_Charging_Adjusted_Penalty>
2.68614

> <i_epik_Tot_Q>
0

> <i_epik_Tot_abs_Q>
0

> <r_epik_Metal_State_Penalty>
2.68606

> <b_epik_Metal_Only>
0

> <s_lp_Force_Field>
OPLS_2005

> <r_lp_Energy>
14.0123

> <b_lp_Chiralities_Consistent>
1

> <s_lp_Variant>
AV-unprocessed.smi:3161-8

> <Gold.Version>
5.8.1

> <Gold.Id.Protein>
6NUR|6NUR_protein|mol2

> <Gold.PLP.Fitness>
44.5739

> <Gold.PLP.PLP>
-42.0227

> <Gold.PLP.part.hbond>
-1.0000

> <Gold.PLP.part.metal>
0.0000

> <Gold.PLP.part.buried>
-2.9311

> <Gold.PLP.part.nonpolar>
-37.4656

> <Gold.PLP.part.repulsive>
0.1334

> <Gold.PLP.ligand.clash>
0.0000

> <Gold.PLP.ligand.torsion>
0.2950

> <Gold.PLP.Chemscore.Hbond>
0.0000

> <Gold.PLP.Chemscore.CHOScore>
1.0000

> <Gold.PLP.Chemscore.Metal>
0.0000

> <Gold.Chemscore.Hbonds>
donor molecule, donor type, donor heavy atom, donor atom, acceptor molecule, acceptor atom, score
      L1  C    17    40       P1  8028  1.00

> <Gold.PLP.Chemscore.Internal.Correction>
0.1413

> <Gold.Rescore>
     Score         DG    S(hbond)    S(metal)    S(lipo)     H(rot)  DE(clash)    DE(int)     intcor
     12.29     -14.47       0.00        0.00     109.69       1.50       0.25       1.92       ----

> <Gold.Chemscore.Fitness>
12.2941

> <Gold.Chemscore.DG>
-14.4665

> <Gold.Chemscore.ZeroCoef>
-5.4800

> <Gold.Chemscore.Hbond>
0.0000

> <Gold.Chemscore.Metal>
0.0000

> <Gold.Chemscore.Lipo>
109.6945

> <Gold.Chemscore.Internal_Hbond>
0.0000

> <Gold.Chemscore.DEClash>
0.2494

> <Gold.Chemscore.DEInternal>
1.9230

> <Gold.Chemscore.Rot>
1.5030

> <Gold.Chemscore.Internal.Correction>
   9.000000E+99

> <Gold.Chemscore.Hbond.Weighted>
-0.0000

> <Gold.Chemscore.Metal.Weighted>
-0.0000

> <Gold.Chemscore.Lipo.Weighted>
-12.8343

> <Gold.Chemscore.Internal_Hbond.Weighted>
0.0000

> <Gold.Chemscore.DEClash.Weighted>
0.2494

> <Gold.Chemscore.DEInternal.Weighted>
1.9230

> <Gold.Chemscore.Rot.Weighted>
3.8477

> <Gold.Chemscore.Internal.Correction.Weighted>
   9.000000E+99

> <Gold.Protein.RotatedTorsions>
[ 6907 6896 6895 6894 ] final -122.39 input  -60.11 | X-H torsion
[ 7974 7965 7964 7962 ] final   61.21 input  175.53 | X-H torsion
[ 8008 7997 7996 7995 ] final   84.53 input   59.86 | X-H torsion
[ 10167 10162 10161 10158 ] final   10.11 input  -65.29 | X-H torsion
[ 10718 10713 10712 10709 ] final  177.54 input   66.30 | X-H torsion
[ 10763 10752 10751 10750 ] final   80.16 input  -60.55 | X-H torsion
[ 11005 11000 10999 10996 ] final -130.59 input  -57.11 | X-H torsion

> <Gold.Protein.ActiveResidues>
 VAL166  LYS551  ARG553  GLY616  TRP617  ASP618  TYR619  PRO620  LYS621  CYS622 
 ASP623  PHE694  ASN695  SER759  ASP760  ASP761  ALA762  ILE779  LEU786  VAL792 
 PHE793  MET794  SER795  GLU796  ALA797  LYS798  CYS799  TRP800  GLU811  SER814 

> <Gold.Protein.RotatedAtoms>
  150.8571  133.7699  159.3004 H   0  0  0  0  0  0  0  0  0  0  0  0  # atno 6907 bound_to 6896
  151.5352  135.1067  159.9922 H   0  0  0  0  0  0  0  0  0  0  0  0  # atno 6908 bound_to 6896
  152.4598  133.7755  159.6878 H   0  0  0  0  0  0  0  0  0  0  0  0  # atno 6909 bound_to 6896
  145.8873  139.3486  143.0670 H   0  0  0  0  0  0  0  0  0  0  0  0  # atno 7974 bound_to 7965
  155.9382  140.3410  155.6305 H   0  0  0  0  0  0  0  0  0  0  0  0  # atno 8008 bound_to 7997
  155.7072  140.0767  157.2404 H   0  0  0  0  0  0  0  0  0  0  0  0  # atno 8009 bound_to 7997
  154.4097  140.1629  156.2244 H   0  0  0  0  0  0  0  0  0  0  0  0  # atno 8010 bound_to 7997
  140.6214  143.8195  150.7180 H   0  0  0  0  0  0  0  0  0  0  0  0  # atno 10167 bound_to 10162
  156.9039  130.9888  151.3031 H   0  0  0  0  0  0  0  0  0  0  0  0  # atno 10718 bound_to 10713
  153.1011  135.4813  154.8868 H   0  0  0  0  0  0  0  0  0  0  0  0  # atno 10763 bound_to 10752
  154.7379  135.3075  154.8781 H   0  0  0  0  0  0  0  0  0  0  0  0  # atno 10764 bound_to 10752
  153.9397  135.6835  153.4798 H   0  0  0  0  0  0  0  0  0  0  0  0  # atno 10765 bound_to 10752
  140.9332  134.1292  157.4216 H   0  0  0  0  0  0  0  0  0  0  0  0  # atno 11005 bound_to 11000
  145.8951  140.9279  143.0532 LP  0  0  0  0  0  0  0  0  0  0  0  0  # atno 17320 bound_to 7965
  144.6729  140.0957  143.7463 LP  0  0  0  0  0  0  0  0  0  0  0  0  # atno 17321 bound_to 7965
  140.1786  143.4133  152.1949 LP  0  0  0  0  0  0  0  0  0  0  0  0  # atno 17342 bound_to 10162
  139.5442  144.7284  151.4636 LP  0  0  0  0  0  0  0  0  0  0  0  0  # atno 17343 bound_to 10162
  157.6009  130.8512  149.8801 LP  0  0  0  0  0  0  0  0  0  0  0  0  # atno 17370 bound_to 10713
  156.0568  130.3707  150.1072 LP  0  0  0  0  0  0  0  0  0  0  0  0  # atno 17371 bound_to 10713
  139.8801  135.0012  156.6054 LP  0  0  0  0  0  0  0  0  0  0  0  0  # atno 17394 bound_to 11000
  140.7834  133.8641  155.8586 LP  0  0  0  0  0  0  0  0  0  0  0  0  # atno 17395 bound_to 11000

$$$$
