AV-unprocessed.smi:1247|AV-procd|sdf|5245|dock4
  -GOLD-   22720 4353D 1   1.00000     0.00000
 Structure written by MMmdl.
 46 47  0  0  0  0  0  0  0  0  1 V2000
  143.8875  143.2546  162.3565 C   0  0  0  0  0  0  0  0  0  0  0  0
  145.0636  143.5727  161.4813 C   0  0  0  0  0  0  0  0  0  0  0  0
  145.3993  143.0006  160.2203 C   0  0  0  0  0  0  0  0  0  0  0  0
  146.5552  143.6543  159.8897 C   0  0  0  0  0  0  0  0  0  0  0  0
  147.3308  143.5073  158.7824 N   0  0  0  0  0  0  0  0  0  0  0  0
  147.8669  142.3833  158.2749 C   0  0  0  0  0  0  0  0  0  0  0  0
  147.7312  141.2527  158.7431 O   0  0  0  0  0  0  0  0  0  0  0  0
  148.5880  142.6430  157.1746 N   0  0  0  0  0  0  0  0  0  0  0  0
  149.3092  141.6439  156.3947 C   0  0  0  0  0  0  0  0  0  0  0  0
  150.5801  141.1727  157.1265 C   0  0  0  0  0  0  0  0  0  0  0  0
  151.0767  142.0875  158.1524 N   0  0  0  0  0  0  0  0  0  0  0  0
  152.1481  141.5066  158.9560 C   0  0  0  0  0  0  0  0  0  0  0  0
  152.6479  142.4816  160.0383 C   0  0  1  0  0  0  0  0  0  0  0  0
  153.8343  141.9136  160.8242 C   0  0  0  0  0  0  0  0  0  0  0  0
  153.0660  143.7007  159.4270 O   0  0  0  0  0  0  0  0  0  0  0  0
  152.0897  144.3304  158.5961 C   0  0  2  0  0  0  0  0  0  0  0  0
  150.9807  145.0015  159.4242 C   0  0  0  0  0  0  0  0  0  0  0  0
  151.5535  143.3298  157.5532 C   0  0  0  0  0  0  0  0  0  0  0  0
  146.8621  144.5482  160.8932 N   0  0  0  0  0  0  0  0  0  0  0  0
  147.9795  145.4640  161.0173 C   0  0  0  0  0  0  0  0  0  0  0  0
  145.9378  144.4911  161.8761 N   0  0  0  0  0  0  0  0  0  0  0  0
  143.2367  142.5154  161.8888 H   0  0  0  0  0  0  0  0  0  0  0  0
  143.2899  144.1453  162.5519 H   0  0  0  0  0  0  0  0  0  0  0  0
  144.2107  142.8514  163.3164 H   0  0  0  0  0  0  0  0  0  0  0  0
  144.8675  142.2384  159.6710 H   0  0  0  0  0  0  0  0  0  0  0  0
  147.5356  144.3613  158.2848 H   0  0  0  0  0  0  0  0  0  0  0  0
  148.6465  143.5989  156.8555 H   0  0  0  0  0  0  0  0  0  0  0  0
  148.6561  140.7968  156.1776 H   0  0  0  0  0  0  0  0  0  0  0  0
  149.5597  142.0983  155.4365 H   0  0  0  0  0  0  0  0  0  0  0  0
  150.4072  140.1878  157.5626 H   0  0  0  0  0  0  0  0  0  0  0  0
  151.3635  141.0343  156.3800 H   0  0  0  0  0  0  0  0  0  0  0  0
  151.8018  140.5971  159.4454 H   0  0  0  0  0  0  0  0  0  0  0  0
  152.9793  141.2183  158.3104 H   0  0  0  0  0  0  0  0  0  0  0  0
  151.8407  142.6884  160.7416 H   0  0  0  0  0  0  0  0  0  0  0  0
  153.5633  140.9857  161.3285 H   0  0  0  0  0  0  0  0  0  0  0  0
  154.1702  142.6189  161.5847 H   0  0  0  0  0  0  0  0  0  0  0  0
  154.6794  141.7046  160.1675 H   0  0  0  0  0  0  0  0  0  0  0  0
  152.6103  145.1247  158.0605 H   0  0  0  0  0  0  0  0  0  0  0  0
  150.3085  145.5706  158.7817 H   0  0  0  0  0  0  0  0  0  0  0  0
  151.4042  145.6921  160.1537 H   0  0  0  0  0  0  0  0  0  0  0  0
  150.3750  144.2743  159.9644 H   0  0  0  0  0  0  0  0  0  0  0  0
  152.3495  143.1047  156.8414 H   0  0  0  0  0  0  0  0  0  0  0  0
  150.7539  143.7987  156.9784 H   0  0  0  0  0  0  0  0  0  0  0  0
  148.4144  145.6696  160.0392 H   0  0  0  0  0  0  0  0  0  0  0  0
  148.7419  145.0238  161.6606 H   0  0  0  0  0  0  0  0  0  0  0  0
  147.6440  146.4054  161.4540 H   0  0  0  0  0  0  0  0  0  0  0  0
  1  2  1  0  0  0  0
  1 22  1  0  0  0  0
  1 23  1  0  0  0  0
  1 24  1  0  0  0  0
  2 21  2  0  0  0  0
  2  3  1  0  0  0  0
  3  4  2  0  0  0  0
  3 25  1  0  0  0  0
  4  5  1  0  0  0  0
  4 19  1  0  0  0  0
  5  6  1  0  0  0  0
  5 26  1  0  0  0  0
  6  7  2  0  0  0  0
  6  8  1  0  0  0  0
  8  9  1  0  0  0  0
  8 27  1  0  0  0  0
  9 10  1  0  0  0  0
  9 28  1  0  0  0  0
  9 29  1  0  0  0  0
 10 11  1  0  0  0  0
 10 30  1  0  0  0  0
 10 31  1  0  0  0  0
 11 18  1  0  0  0  0
 11 12  1  0  0  0  0
 12 13  1  0  0  0  0
 12 32  1  0  0  0  0
 12 33  1  0  0  0  0
 13 14  1  0  0  0  0
 13 15  1  0  0  0  0
 13 34  1  0  0  0  0
 14 35  1  0  0  0  0
 14 36  1  0  0  0  0
 14 37  1  0  0  0  0
 15 16  1  0  0  0  0
 16 17  1  0  0  0  0
 16 18  1  0  0  0  0
 16 38  1  0  0  0  0
 17 39  1  0  0  0  0
 17 40  1  0  0  0  0
 17 41  1  0  0  0  0
 18 42  1  0  0  0  0
 18 43  1  0  0  0  0
 19 20  1  0  0  0  0
 19 21  1  0  0  0  0
 20 44  1  0  0  0  0
 20 45  1  0  0  0  0
 20 46  1  0  0  0  0
M  END
> <s_m_source_file>
AV-unprocessed.smi

> <i_m_source_file_index>
1247

> <i_lp_mmshare_version>
43012

> <i_f3d_flags>
0

> <s_epik_input>
W0NIM11jMVtjSF1jKG4objEpW0NIM10pW05IXUMoPU8pW05IXVtDSDJdW0NIMl1OMltDSDJdW0NAQEhdKFtDSDNdKU9bQ0BASF0oW0NIM10pW0NIMl0y

> <s_epik_cmdline>
J2VwaWtfcHl0aG9uJywgJy1waCcsICc3LjAnLCAnLXRuJywgJzgnLCAnLW1hJywgJzIwMCcsICctbWV0YWxfYmluZGluZycsICctaW1hZScsICc8aW5maWxlLm1hZT4nLCAnLW9tYWUnLCAnPG91dGZpbGUubWFlPic=

> <r_lp_tautomer_probability>
1

> <r_epik_Ionization_Penalty>
0.233972

> <r_epik_Ionization_Penalty_Charging>
0

> <r_epik_Ionization_Penalty_Neutral>
0.233972

> <r_epik_State_Penalty>
0.224627

> <r_epik_Charging_Adjusted_Penalty>
0.224627

> <i_epik_Tot_Q>
0

> <i_epik_Tot_abs_Q>
0

> <r_epik_Metal_State_Penalty>
0.224624

> <b_epik_Metal_Only>
0

> <s_lp_Force_Field>
OPLS_2005

> <r_lp_Energy>
23.3755

> <b_lp_Chiralities_Consistent>
1

> <s_lp_Variant>
AV-unprocessed.smi:1247-3

> <Gold.Version>
5.8.1

> <Gold.Id.Protein>
6NUR|6NUR_protein|mol2

> <Gold.PLP.Fitness>
50.4216

> <Gold.PLP.PLP>
-45.7994

> <Gold.PLP.part.hbond>
-4.4342

> <Gold.PLP.part.metal>
0.0000

> <Gold.PLP.part.buried>
-5.7813

> <Gold.PLP.part.nonpolar>
-35.8163

> <Gold.PLP.part.repulsive>
0.3005

> <Gold.PLP.ligand.clash>
0.0000

> <Gold.PLP.ligand.torsion>
0.8707

> <Gold.PLP.Chemscore.Hbond>
2.1170

> <Gold.PLP.Chemscore.CHOScore>
0.0000

> <Gold.PLP.Chemscore.Metal>
0.0000

> <Gold.Chemscore.Hbonds>
donor molecule, donor type, donor heavy atom, donor atom, acceptor molecule, acceptor atom, score
      L1  H     5    26       P1  8029  1.00
      L1  H     8    27       P1  8028  1.00
      P1  H  6934  6946       L1     7  0.06

> <Gold.PLP.Chemscore.Internal.Correction>
0.0126

> <Gold.Rescore>
     Score         DG    S(hbond)    S(metal)    S(lipo)     H(rot)  DE(clash)    DE(int)     intcor
     14.77     -16.77       1.15        0.00      96.15       1.48       0.05       1.95       ----

> <Gold.Chemscore.Fitness>
14.7749

> <Gold.Chemscore.DG>
-16.7722

> <Gold.Chemscore.ZeroCoef>
-5.4800

> <Gold.Chemscore.Hbond>
1.1499

> <Gold.Chemscore.Metal>
0.0000

> <Gold.Chemscore.Lipo>
96.1538

> <Gold.Chemscore.Internal_Hbond>
0.0000

> <Gold.Chemscore.DEClash>
0.0467

> <Gold.Chemscore.DEInternal>
1.9506

> <Gold.Chemscore.Rot>
1.4838

> <Gold.Chemscore.Internal.Correction>
   9.000000E+99

> <Gold.Chemscore.Hbonds>
donor molecule, donor type, donor heavy atom, donor atom, acceptor molecule, acceptor atom, score
      L1  H     5    26       P1  8029  0.70
      L1  H     8    27       P1  8028  0.29
      P1  H  6934  6946       L1     7  0.08

> <Gold.Chemscore.Hbond.Weighted>
-3.8406

> <Gold.Chemscore.Metal.Weighted>
-0.0000

> <Gold.Chemscore.Lipo.Weighted>
-11.2500

> <Gold.Chemscore.Internal_Hbond.Weighted>
0.0000

> <Gold.Chemscore.DEClash.Weighted>
0.0467

> <Gold.Chemscore.DEInternal.Weighted>
1.9506

> <Gold.Chemscore.Rot.Weighted>
3.7985

> <Gold.Chemscore.Internal.Correction.Weighted>
   9.000000E+99

> <Gold.Protein.RotatedTorsions>
[ 6907 6896 6895 6894 ] final  -27.89 input  -60.11 | X-H torsion
[ 7974 7965 7964 7962 ] final   53.42 input  175.53 | X-H torsion
[ 8008 7997 7996 7995 ] final -144.15 input   59.86 | X-H torsion
[ 10167 10162 10161 10158 ] final  132.58 input  -65.29 | X-H torsion
[ 10718 10713 10712 10709 ] final  152.38 input   66.30 | X-H torsion
[ 10763 10752 10751 10750 ] final   45.66 input  -60.55 | X-H torsion
[ 11005 11000 10999 10996 ] final  122.65 input  -57.11 | X-H torsion

> <Gold.Protein.ActiveResidues>
 VAL166  LYS551  ARG553  GLY616  TRP617  ASP618  TYR619  PRO620  LYS621  CYS622 
 ASP623  PHE694  ASN695  SER759  ASP760  ASP761  ALA762  ILE779  LEU786  VAL792 
 PHE793  MET794  SER795  GLU796  ALA797  LYS798  CYS799  TRP800  GLU811  SER814 

> <Gold.Protein.RotatedAtoms>
  151.1406  135.0177  159.8623 H   0  0  0  0  0  0  0  0  0  0  0  0  # atno 6907 bound_to 6896
  152.5452  134.1504  159.8526 H   0  0  0  0  0  0  0  0  0  0  0  0  # atno 6908 bound_to 6896
  151.1579  133.4819  159.2627 H   0  0  0  0  0  0  0  0  0  0  0  0  # atno 6909 bound_to 6896
  145.9713  139.4152  143.0188 H   0  0  0  0  0  0  0  0  0  0  0  0  # atno 7974 bound_to 7965
  155.5223  140.0592  157.2904 H   0  0  0  0  0  0  0  0  0  0  0  0  # atno 8008 bound_to 7997
  154.4513  140.1950  156.0456 H   0  0  0  0  0  0  0  0  0  0  0  0  # atno 8009 bound_to 7997
  156.0710  140.3260  155.7580 H   0  0  0  0  0  0  0  0  0  0  0  0  # atno 8010 bound_to 7997
  139.5333  144.6655  151.4873 H   0  0  0  0  0  0  0  0  0  0  0  0  # atno 10167 bound_to 10162
  157.2586  131.0793  151.1681 H   0  0  0  0  0  0  0  0  0  0  0  0  # atno 10718 bound_to 10713
  152.9821  135.6032  154.3473 H   0  0  0  0  0  0  0  0  0  0  0  0  # atno 10763 bound_to 10752
  154.3165  135.2770  155.2542 H   0  0  0  0  0  0  0  0  0  0  0  0  # atno 10764 bound_to 10752
  154.4728  135.5937  153.6389 H   0  0  0  0  0  0  0  0  0  0  0  0  # atno 10765 bound_to 10752
  139.9278  134.9641  156.8142 H   0  0  0  0  0  0  0  0  0  0  0  0  # atno 11005 bound_to 11000
  145.7901  140.9818  143.1053 LP  0  0  0  0  0  0  0  0  0  0  0  0  # atno 17320 bound_to 7965
  144.6838  139.9672  143.7481 LP  0  0  0  0  0  0  0  0  0  0  0  0  # atno 17321 bound_to 7965
  140.6525  143.8667  150.6800 LP  0  0  0  0  0  0  0  0  0  0  0  0  # atno 17342 bound_to 10162
  140.2036  143.3939  152.1772 LP  0  0  0  0  0  0  0  0  0  0  0  0  # atno 17343 bound_to 10162
  157.3200  130.6932  149.6264 LP  0  0  0  0  0  0  0  0  0  0  0  0  # atno 17370 bound_to 10713
  155.9664  130.4338  150.5022 LP  0  0  0  0  0  0  0  0  0  0  0  0  # atno 17371 bound_to 10713
  140.6287  133.9926  155.7652 LP  0  0  0  0  0  0  0  0  0  0  0  0  # atno 17394 bound_to 11000
  141.0847  134.0009  157.3332 LP  0  0  0  0  0  0  0  0  0  0  0  0  # atno 17395 bound_to 11000

$$$$
