AV-unprocessed.smi:1040|AV-procd|sdf|4525|dock3
  -GOLD-   22720 2543D 1   1.00000     0.00000
 Structure written by MMmdl.
 54 55  0  0  0  0  0  0  0  0  1 V2000
  152.6343  138.0814  154.3712 C   0  0  0  0  0  0  0  0  0  0  0  0
  151.1142  138.3101  154.4209 C   0  0  1  0  0  0  0  0  0  0  0  0
  150.4570  137.0374  154.1300 N   0  0  0  0  0  0  0  0  0  0  0  0
  150.7119  135.8750  154.7478 C   0  0  0  0  0  0  0  0  0  0  0  0
  151.5187  135.7590  155.6701 O   0  0  0  0  0  0  0  0  0  0  0  0
  149.9674  134.8837  154.2306 N   0  0  0  0  0  0  0  0  0  0  0  0
  149.8612  133.5269  154.6533 C   0  0  0  0  0  0  0  0  0  0  0  0
  150.7665  132.9309  155.5655 C   0  0  0  0  0  0  0  0  0  0  0  0
  150.6112  131.5737  155.8996 C   0  0  0  0  0  0  0  0  0  0  0  0
  149.5628  130.8536  155.3012 C   0  0  0  0  0  0  0  0  0  0  0  0
  148.7008  131.4011  154.4209 N   0  0  0  0  0  0  0  0  0  0  0  0
  148.8405  132.7095  154.0959 C   0  0  0  0  0  0  0  0  0  0  0  0
  147.9112  133.2505  153.1851 N   0  0  0  0  0  0  0  0  0  0  0  0
  147.2135  132.3067  152.3122 C   0  0  0  0  0  0  0  0  0  0  0  0
  146.5029  133.0503  151.1684 C   0  0  0  0  0  0  0  0  0  0  0  0
  145.5725  134.1442  151.7176 C   0  0  0  0  0  0  0  0  0  0  0  0
  146.3488  135.0853  152.6533 C   0  0  0  0  0  0  0  0  0  0  0  0
  147.0637  134.2928  153.7610 C   0  0  0  0  0  0  0  0  0  0  0  0
  150.7548  138.7855  155.8374 C   0  0  0  0  0  0  0  0  0  0  0  0
  151.1169  138.1391  156.8218 O   0  0  0  0  0  0  0  0  0  0  0  0
  150.0572  139.9331  155.9104 N   0  0  0  0  0  0  0  0  0  0  0  0
  149.5864  140.6414  157.1066 C   0  0  0  0  0  0  0  0  0  0  0  0
  148.9786  139.5829  158.0438 C   0  0  0  0  0  0  0  0  0  0  0  0
  148.4945  141.6667  156.7358 C   0  0  0  0  0  0  0  0  0  0  0  0
  150.7611  141.3346  157.8289 C   0  0  0  0  0  0  0  0  0  0  0  0
  153.1806  139.0025  154.5787 H   0  0  0  0  0  0  0  0  0  0  0  0
  152.9424  137.7384  153.3830 H   0  0  0  0  0  0  0  0  0  0  0  0
  152.9584  137.3316  155.0950 H   0  0  0  0  0  0  0  0  0  0  0  0
  150.8308  139.0623  153.6817 H   0  0  0  0  0  0  0  0  0  0  0  0
  149.7799  137.0392  153.3816 H   0  0  0  0  0  0  0  0  0  0  0  0
  149.3152  135.1555  153.5094 H   0  0  0  0  0  0  0  0  0  0  0  0
  151.5861  133.4791  156.0024 H   0  0  0  0  0  0  0  0  0  0  0  0
  151.2863  131.0942  156.5927 H   0  0  0  0  0  0  0  0  0  0  0  0
  149.4150  129.8088  155.5305 H   0  0  0  0  0  0  0  0  0  0  0  0
  147.9230  131.5872  151.9011 H   0  0  0  0  0  0  0  0  0  0  0  0
  146.4839  131.7436  152.8959 H   0  0  0  0  0  0  0  0  0  0  0  0
  147.2467  133.5011  150.5100 H   0  0  0  0  0  0  0  0  0  0  0  0
  145.9362  132.3453  150.5597 H   0  0  0  0  0  0  0  0  0  0  0  0
  145.1286  134.7092  150.8974 H   0  0  0  0  0  0  0  0  0  0  0  0
  144.7479  133.6838  152.2630 H   0  0  0  0  0  0  0  0  0  0  0  0
  147.0836  135.6494  152.0770 H   0  0  0  0  0  0  0  0  0  0  0  0
  145.6725  135.8178  153.0947 H   0  0  0  0  0  0  0  0  0  0  0  0
  146.3291  133.8257  154.4181 H   0  0  0  0  0  0  0  0  0  0  0  0
  147.6494  134.9729  154.3799 H   0  0  0  0  0  0  0  0  0  0  0  0
  149.8223  140.3691  155.0304 H   0  0  0  0  0  0  0  0  0  0  0  0
  148.6038  140.0344  158.9632 H   0  0  0  0  0  0  0  0  0  0  0  0
  149.7160  138.8304  158.3261 H   0  0  0  0  0  0  0  0  0  0  0  0
  148.1437  139.0646  157.5701 H   0  0  0  0  0  0  0  0  0  0  0  0
  147.6758  141.1946  156.1918 H   0  0  0  0  0  0  0  0  0  0  0  0
  148.8824  142.4727  156.1130 H   0  0  0  0  0  0  0  0  0  0  0  0
  148.0711  142.1289  157.6283 H   0  0  0  0  0  0  0  0  0  0  0  0
  150.4345  141.7814  158.7686 H   0  0  0  0  0  0  0  0  0  0  0  0
  151.1970  142.1349  157.2310 H   0  0  0  0  0  0  0  0  0  0  0  0
  151.5573  140.6265  158.0622 H   0  0  0  0  0  0  0  0  0  0  0  0
  1  2  1  0  0  0  0
  1 26  1  0  0  0  0
  1 27  1  0  0  0  0
  1 28  1  0  0  0  0
  2  3  1  0  0  0  0
  2 19  1  0  0  0  0
  2 29  1  0  0  0  0
  3  4  1  0  0  0  0
  3 30  1  0  0  0  0
  4  5  2  0  0  0  0
  4  6  1  0  0  0  0
  6  7  1  0  0  0  0
  6 31  1  0  0  0  0
  7 12  1  0  0  0  0
  7  8  2  0  0  0  0
  8  9  1  0  0  0  0
  8 32  1  0  0  0  0
  9 10  2  0  0  0  0
  9 33  1  0  0  0  0
 10 11  1  0  0  0  0
 10 34  1  0  0  0  0
 11 12  2  0  0  0  0
 12 13  1  0  0  0  0
 13 18  1  0  0  0  0
 13 14  1  0  0  0  0
 14 15  1  0  0  0  0
 14 35  1  0  0  0  0
 14 36  1  0  0  0  0
 15 16  1  0  0  0  0
 15 37  1  0  0  0  0
 15 38  1  0  0  0  0
 16 17  1  0  0  0  0
 16 39  1  0  0  0  0
 16 40  1  0  0  0  0
 17 18  1  0  0  0  0
 17 41  1  0  0  0  0
 17 42  1  0  0  0  0
 18 43  1  0  0  0  0
 18 44  1  0  0  0  0
 19 20  2  0  0  0  0
 19 21  1  0  0  0  0
 21 22  1  0  0  0  0
 21 45  1  0  0  0  0
 22 23  1  0  0  0  0
 22 24  1  0  0  0  0
 22 25  1  0  0  0  0
 23 46  1  0  0  0  0
 23 47  1  0  0  0  0
 23 48  1  0  0  0  0
 24 49  1  0  0  0  0
 24 50  1  0  0  0  0
 24 51  1  0  0  0  0
 25 52  1  0  0  0  0
 25 53  1  0  0  0  0
 25 54  1  0  0  0  0
M  END
> <s_m_source_file>
AV-unprocessed.smi

> <i_m_source_file_index>
1040

> <i_lp_mmshare_version>
43012

> <i_f3d_flags>
0

> <s_epik_input>
W0NIM11DKFtDSDNdKShbQ0gzXSlbTkhdQyg9TylbQ0BIXShbQ0gzXSlbTkhdQyg9TylbTkhdYzFbY0hdW2NIXVtjSF1uYzFOMltDSDJdW0NIMl1bQ0gyXVtDSDJdW0NIMl0y

> <s_epik_cmdline>
J2VwaWtfcHl0aG9uJywgJy1waCcsICc3LjAnLCAnLXRuJywgJzgnLCAnLW1hJywgJzIwMCcsICctbWV0YWxfYmluZGluZycsICctaW1hZScsICc8aW5maWxlLm1hZT4nLCAnLW9tYWUnLCAnPG91dGZpbGUubWFlPic=

> <r_lp_tautomer_probability>
1

> <r_epik_Ionization_Penalty>
0.0878593

> <r_epik_Ionization_Penalty_Charging>
0

> <r_epik_Ionization_Penalty_Neutral>
0.0878593

> <r_epik_State_Penalty>
0.07381

> <r_epik_Charging_Adjusted_Penalty>
0.07381

> <i_epik_Tot_Q>
0

> <i_epik_Tot_abs_Q>
0

> <r_epik_Metal_State_Penalty>
0.0646628

> <b_epik_Metal_Only>
0

> <s_lp_Force_Field>
OPLS_2005

> <r_lp_Energy>
20.3339

> <b_lp_Chiralities_Consistent>
1

> <s_lp_Variant>
AV-unprocessed.smi:1040-2

> <Gold.Version>
5.8.1

> <Gold.Id.Protein>
6NUR|6NUR_protein|mol2

> <Gold.PLP.Fitness>
40.4657

> <Gold.PLP.PLP>
-33.1291

> <Gold.PLP.part.hbond>
-4.5071

> <Gold.PLP.part.metal>
0.0000

> <Gold.PLP.part.buried>
-0.3761

> <Gold.PLP.part.nonpolar>
-27.7968

> <Gold.PLP.part.repulsive>
0.4267

> <Gold.PLP.ligand.clash>
0.0000

> <Gold.PLP.ligand.torsion>
0.7496

> <Gold.PLP.Chemscore.Hbond>
2.8400

> <Gold.PLP.Chemscore.CHOScore>
0.0000

> <Gold.PLP.Chemscore.Metal>
0.0000

> <Gold.Chemscore.Hbonds>
donor molecule, donor type, donor heavy atom, donor atom, acceptor molecule, acceptor atom, score
      L1  H     3    30       P1  7948  1.00
      L1  H     6    31       P1  7948  0.80
      P1  H 10752 10764       L1     5  1.00

> <Gold.PLP.Chemscore.Internal.Correction>
0.3159

> <Gold.Rescore>
     Score         DG    S(hbond)    S(metal)    S(lipo)     H(rot)  DE(clash)    DE(int)     intcor
      9.05     -16.45       2.00        0.00      72.02       1.61       0.19       7.21       ----

> <Gold.Chemscore.Fitness>
9.0470

> <Gold.Chemscore.DG>
-16.4484

> <Gold.Chemscore.ZeroCoef>
-5.4800

> <Gold.Chemscore.Hbond>
1.9984

> <Gold.Chemscore.Metal>
0.0000

> <Gold.Chemscore.Lipo>
72.0210

> <Gold.Chemscore.Internal_Hbond>
0.0000

> <Gold.Chemscore.DEClash>
0.1896

> <Gold.Chemscore.DEInternal>
7.2118

> <Gold.Chemscore.Rot>
1.6143

> <Gold.Chemscore.Internal.Correction>
   9.000000E+99

> <Gold.Chemscore.Hbonds>
donor molecule, donor type, donor heavy atom, donor atom, acceptor molecule, acceptor atom, score
      L1  H     3    30       P1  7948  0.48
      L1  H     6    31       P1  7948  0.13
      P1  H 10752 10764       L1     5  0.55

> <Gold.Chemscore.Hbond.Weighted>
-6.6745

> <Gold.Chemscore.Metal.Weighted>
-0.0000

> <Gold.Chemscore.Lipo.Weighted>
-8.4265

> <Gold.Chemscore.Internal_Hbond.Weighted>
0.0000

> <Gold.Chemscore.DEClash.Weighted>
0.1896

> <Gold.Chemscore.DEInternal.Weighted>
7.2118

> <Gold.Chemscore.Rot.Weighted>
4.1326

> <Gold.Chemscore.Internal.Correction.Weighted>
   9.000000E+99

> <Gold.Protein.RotatedTorsions>
[ 6907 6896 6895 6894 ] final   58.26 input  -60.11 | X-H torsion
[ 7974 7965 7964 7962 ] final  -89.06 input  175.53 | X-H torsion
[ 8008 7997 7996 7995 ] final  157.38 input   59.86 | X-H torsion
[ 10167 10162 10161 10158 ] final   33.05 input  -65.29 | X-H torsion
[ 10718 10713 10712 10709 ] final -115.72 input   66.30 | X-H torsion
[ 10763 10752 10751 10750 ] final  -37.39 input  -60.55 | X-H torsion
[ 11005 11000 10999 10996 ] final   43.27 input  -57.11 | X-H torsion

> <Gold.Protein.ActiveResidues>
 VAL166  LYS551  ARG553  GLY616  TRP617  ASP618  TYR619  PRO620  LYS621  CYS622 
 ASP623  PHE694  ASN695  SER759  ASP760  ASP761  ALA762  ILE779  LEU786  VAL792 
 PHE793  MET794  SER795  GLU796  ALA797  LYS798  CYS799  TRP800  GLU811  SER814 

> <Gold.Protein.RotatedAtoms>
  152.3807  134.6594  160.0143 H   0  0  0  0  0  0  0  0  0  0  0  0  # atno 6907 bound_to 6896
  151.6858  133.3306  159.3238 H   0  0  0  0  0  0  0  0  0  0  0  0  # atno 6908 bound_to 6896
  150.7745  134.6677  159.6419 H   0  0  0  0  0  0  0  0  0  0  0  0  # atno 6909 bound_to 6896
  145.4448  140.9560  143.2055 H   0  0  0  0  0  0  0  0  0  0  0  0  # atno 7974 bound_to 7965
  156.2367  140.1887  156.7100 H   0  0  0  0  0  0  0  0  0  0  0  0  # atno 8008 bound_to 7997
  154.6120  140.0620  156.9533 H   0  0  0  0  0  0  0  0  0  0  0  0  # atno 8009 bound_to 7997
  155.2001  140.3291  155.4347 H   0  0  0  0  0  0  0  0  0  0  0  0  # atno 8010 bound_to 7997
  140.4442  144.1143  150.6179 H   0  0  0  0  0  0  0  0  0  0  0  0  # atno 10167 bound_to 10162
  156.0915  130.6096  150.8943 H   0  0  0  0  0  0  0  0  0  0  0  0  # atno 10718 bound_to 10713
  153.8956  135.6807  153.4758 H   0  0  0  0  0  0  0  0  0  0  0  0  # atno 10763 bound_to 10752
  153.1157  135.4762  154.9109 H   0  0  0  0  0  0  0  0  0  0  0  0  # atno 10764 bound_to 10752
  154.7601  135.3208  154.8349 H   0  0  0  0  0  0  0  0  0  0  0  0  # atno 10765 bound_to 10752
  140.1660  134.4281  155.8287 H   0  0  0  0  0  0  0  0  0  0  0  0  # atno 11005 bound_to 11000
  144.8098  139.5982  143.7034 LP  0  0  0  0  0  0  0  0  0  0  0  0  # atno 17320 bound_to 7965
  146.2537  139.6254  142.9410 LP  0  0  0  0  0  0  0  0  0  0  0  0  # atno 17321 bound_to 7965
  140.4283  143.2580  151.9628 LP  0  0  0  0  0  0  0  0  0  0  0  0  # atno 17342 bound_to 10162
  139.4791  144.5768  151.7999 LP  0  0  0  0  0  0  0  0  0  0  0  0  # atno 17343 bound_to 10162
  157.6065  131.0938  150.8870 LP  0  0  0  0  0  0  0  0  0  0  0  0  # atno 17370 bound_to 10713
  156.9017  130.5249  149.5282 LP  0  0  0  0  0  0  0  0  0  0  0  0  # atno 17371 bound_to 10713
  141.2213  133.6935  156.7679 LP  0  0  0  0  0  0  0  0  0  0  0  0  # atno 17394 bound_to 11000
  140.2433  134.8597  157.3595 LP  0  0  0  0  0  0  0  0  0  0  0  0  # atno 17395 bound_to 11000

$$$$
