AV-unprocessed.smi:40|AV-procd|sdf|369|dock1
  -GOLD-   2262016213D 1   1.00000     0.00000
 Structure written by MMmdl.
 47 48  0  0  0  0  0  0  0  0  1 V2000
  151.2565  145.4119  160.4939 C   0  0  0  0  0  0  0  0  0  0  0  0
  152.0007  145.2091  159.1697 C   0  0  0  0  0  0  0  0  0  0  0  0
  152.3793  143.7414  158.9247 C   0  0  0  0  0  0  0  0  0  0  0  0
  153.2226  143.1528  160.0634 C   0  0  0  0  0  0  0  0  0  0  0  0
  153.4362  141.6392  159.9086 C   0  0  0  0  0  0  0  0  0  0  0  0
  152.2876  141.0241  159.3416 O   0  0  0  0  0  0  0  0  0  0  0  0
  152.3641  139.7974  158.7783 C   0  0  0  0  0  0  0  0  0  0  0  0
  153.4174  139.2248  158.5005 O   0  0  0  0  0  0  0  0  0  0  0  0
  151.0434  139.2364  158.5791 N   0  0  0  0  0  0  0  0  0  0  0  0
  150.7544  138.0317  158.0416 C   0  0  0  0  0  0  0  0  0  0  0  0
  151.7536  137.1858  157.8703 N   0  0  0  0  0  0  0  0  0  0  0  0
  151.6026  135.9286  157.3488 C   0  0  0  0  0  0  0  0  0  0  0  0
  152.5656  135.1701  157.2449 O   0  0  0  0  0  0  0  0  0  0  0  0
  150.3013  135.5397  156.9534 N   0  0  0  0  0  0  0  0  0  0  0  0
  150.0894  134.1521  156.3974 C   0  0  2  0  0  0  0  0  0  0  0  0
  149.4948  134.2576  155.1337 O   0  0  0  0  0  0  0  0  0  0  0  0
  148.3425  133.4244  155.0483 C   0  0  1  0  0  0  0  0  0  0  0  0
  148.7418  132.0920  154.3880 C   0  0  0  0  0  0  0  0  0  0  0  0
  147.8632  133.3296  156.5005 C   0  0  1  0  0  0  0  0  0  0  0  0
  147.0233  132.2257  156.7789 O   0  0  0  0  0  0  0  0  0  0  0  0
  149.1496  133.3530  157.3165 C   0  0  1  0  0  0  0  0  0  0  0  0
  149.6636  132.0594  157.5757 O   0  0  0  0  0  0  0  0  0  0  0  0
  149.2395  136.4163  157.1215 C   0  0  0  0  0  0  0  0  0  0  0  0
  149.4107  137.6486  157.6451 C   0  0  0  0  0  0  0  0  0  0  0  0
  148.3641  138.4827  157.7756 F   0  0  0  0  0  0  0  0  0  0  0  0
  151.0797  133.7085  156.2811 H   0  0  0  0  0  0  0  0  0  0  0  0
  147.5877  133.9105  154.4293 H   0  0  0  0  0  0  0  0  0  0  0  0
  147.3010  134.2367  156.7271 H   0  0  0  0  0  0  0  0  0  0  0  0
  149.0076  133.8595  158.2725 H   0  0  0  0  0  0  0  0  0  0  0  0
  151.0058  146.4627  160.6414 H   0  0  0  0  0  0  0  0  0  0  0  0
  151.8648  145.0930  161.3407 H   0  0  0  0  0  0  0  0  0  0  0  0
  150.3270  144.8423  160.5144 H   0  0  0  0  0  0  0  0  0  0  0  0
  151.3779  145.5682  158.3496 H   0  0  0  0  0  0  0  0  0  0  0  0
  152.9008  145.8248  159.1661 H   0  0  0  0  0  0  0  0  0  0  0  0
  151.4722  143.1479  158.8024 H   0  0  0  0  0  0  0  0  0  0  0  0
  152.9307  143.6604  157.9871 H   0  0  0  0  0  0  0  0  0  0  0  0
  154.1916  143.6523  160.0948 H   0  0  0  0  0  0  0  0  0  0  0  0
  152.7365  143.3600  161.0175 H   0  0  0  0  0  0  0  0  0  0  0  0
  154.3257  141.4292  159.3125 H   0  0  0  0  0  0  0  0  0  0  0  0
  153.6062  141.1930  160.8886 H   0  0  0  0  0  0  0  0  0  0  0  0
  150.2787  139.8468  158.8276 H   0  0  0  0  0  0  0  0  0  0  0  0
  147.8882  131.4188  154.3069 H   0  0  0  0  0  0  0  0  0  0  0  0
  149.5234  131.5757  154.9443 H   0  0  0  0  0  0  0  0  0  0  0  0
  149.1187  132.2630  153.3794 H   0  0  0  0  0  0  0  0  0  0  0  0
  146.1263  132.5218  156.7440 H   0  0  0  0  0  0  0  0  0  0  0  0
  150.6077  132.1081  157.5792 H   0  0  0  0  0  0  0  0  0  0  0  0
  148.2411  136.1228  156.8317 H   0  0  0  0  0  0  0  0  0  0  0  0
  1  2  1  0  0  0  0
  1 30  1  0  0  0  0
  1 31  1  0  0  0  0
  1 32  1  0  0  0  0
  2  3  1  0  0  0  0
  2 33  1  0  0  0  0
  2 34  1  0  0  0  0
  3  4  1  0  0  0  0
  3 35  1  0  0  0  0
  3 36  1  0  0  0  0
  4  5  1  0  0  0  0
  4 37  1  0  0  0  0
  4 38  1  0  0  0  0
  5  6  1  0  0  0  0
  5 39  1  0  0  0  0
  5 40  1  0  0  0  0
  6  7  1  0  0  0  0
  7  8  2  0  0  0  0
  7  9  1  0  0  0  0
  9 10  1  0  0  0  0
  9 41  1  0  0  0  0
 10 24  1  0  0  0  0
 10 11  2  0  0  0  0
 11 12  1  0  0  0  0
 12 13  2  0  0  0  0
 12 14  1  0  0  0  0
 14 15  1  0  0  0  0
 14 23  1  0  0  0  0
 15 26  1  0  0  0  0
 15 21  1  0  0  0  0
 15 16  1  0  0  0  0
 16 17  1  0  0  0  0
 17 27  1  0  0  0  0
 17 18  1  0  0  0  0
 17 19  1  0  0  0  0
 18 42  1  0  0  0  0
 18 43  1  0  0  0  0
 18 44  1  0  0  0  0
 19 28  1  0  0  0  0
 19 20  1  0  0  0  0
 19 21  1  0  0  0  0
 20 45  1  0  0  0  0
 21 29  1  0  0  0  0
 21 22  1  0  0  0  0
 22 46  1  0  0  0  0
 23 24  2  0  0  0  0
 23 47  1  0  0  0  0
 24 25  1  0  0  0  0
M  END
> <s_m_source_file>
AV-unprocessed.smi

> <i_m_source_file_index>
40

> <i_lp_mmshare_version>
43012

> <i_f3d_flags>
0

> <s_epik_input>
W0NIM11bQ0gyXVtDSDJdW0NIMl1bQ0gyXU9DKD1PKVtOSF1jMW5jKD1PKW4oW2NIXWMxRilbQ0BASF0yT1tDQEhdKFtDSDNdKVtDQEBIXShbT0hdKVtDQEhdMltPSF0=

> <s_epik_cmdline>
J2VwaWtfcHl0aG9uJywgJy1waCcsICc3LjAnLCAnLXRuJywgJzgnLCAnLW1hJywgJzIwMCcsICctbWV0YWxfYmluZGluZycsICctaW1hZScsICc8aW5maWxlLm1hZT4nLCAnLW9tYWUnLCAnPG91dGZpbGUubWFlPic=

> <r_lp_tautomer_probability>
1

> <r_epik_Ionization_Penalty>
2.29506e-06

> <r_epik_Ionization_Penalty_Charging>
8.26867e-09

> <r_epik_Ionization_Penalty_Neutral>
2.2868e-06

> <r_epik_State_Penalty>
-0

> <r_epik_Charging_Adjusted_Penalty>
8.26867e-09

> <i_epik_Tot_Q>
0

> <i_epik_Tot_abs_Q>
0

> <r_epik_Metal_State_Penalty>
-0

> <b_epik_Metal_Only>
0

> <s_epik_Chemistry_Notes>
This compound has an ester and may undergo hydrolysis at high or low pH. This compound contains an acetal/aminal-like group ( X-CH(R)-Y where X, Y are N, S, or O) that may be acid/base labile, releasing an aldehyde.

> <s_lp_Force_Field>
OPLS_2005

> <r_lp_Energy>
36.9864

> <b_lp_Chiralities_Consistent>
1

> <s_lp_Variant>
AV-unprocessed.smi:40-3

> <Gold.Version>
5.8.1

> <Gold.Id.Protein>
6NUR|6NUR_protein|mol2

> <Gold.PLP.Fitness>
42.5856

> <Gold.PLP.PLP>
-37.2498

> <Gold.PLP.part.hbond>
-2.0000

> <Gold.PLP.part.metal>
0.0000

> <Gold.PLP.part.buried>
-6.1954

> <Gold.PLP.part.nonpolar>
-29.3347

> <Gold.PLP.part.repulsive>
0.2618

> <Gold.PLP.ligand.clash>
0.0000

> <Gold.PLP.ligand.torsion>
0.4483

> <Gold.PLP.Chemscore.Hbond>
2.0000

> <Gold.PLP.Chemscore.CHOScore>
0.0000

> <Gold.PLP.Chemscore.Metal>
0.0000

> <Gold.Chemscore.Hbonds>
donor molecule, donor type, donor heavy atom, donor atom, acceptor molecule, acceptor atom, score
      P1  H  7997  8010       L1     8  0.98
      P1  H 10752 10765       L1    13  0.71

> <Gold.PLP.Chemscore.Internal.Correction>
0.2323

> <Gold.Rescore>
     Score         DG    S(hbond)    S(metal)    S(lipo)     H(rot)  DE(clash)    DE(int)     intcor
     10.02     -12.25       1.93        0.00      83.58       3.70       0.02       2.20       ----

> <Gold.Chemscore.Fitness>
10.0227

> <Gold.Chemscore.DG>
-12.2485

> <Gold.Chemscore.ZeroCoef>
-5.4800

> <Gold.Chemscore.Hbond>
1.9314

> <Gold.Chemscore.Metal>
0.0000

> <Gold.Chemscore.Lipo>
83.5772

> <Gold.Chemscore.Internal_Hbond>
0.0000

> <Gold.Chemscore.DEClash>
0.0222

> <Gold.Chemscore.DEInternal>
2.2036

> <Gold.Chemscore.Rot>
3.6957

> <Gold.Chemscore.Internal.Correction>
   9.000000E+99

> <Gold.Chemscore.Hbonds>
donor molecule, donor type, donor heavy atom, donor atom, acceptor molecule, acceptor atom, score
      P1  H  7997  8010       L1     8  0.88
      P1  H 10752 10765       L1    13  0.58

> <Gold.Chemscore.Hbond.Weighted>
-6.4509

> <Gold.Chemscore.Metal.Weighted>
-0.0000

> <Gold.Chemscore.Lipo.Weighted>
-9.7785

> <Gold.Chemscore.Internal_Hbond.Weighted>
0.0000

> <Gold.Chemscore.DEClash.Weighted>
0.0222

> <Gold.Chemscore.DEInternal.Weighted>
2.2036

> <Gold.Chemscore.Rot.Weighted>
9.4610

> <Gold.Chemscore.Internal.Correction.Weighted>
   9.000000E+99

> <Gold.Protein.RotatedTorsions>
[ 6907 6896 6895 6894 ] final -164.55 input  -60.11 | X-H torsion
[ 7974 7965 7964 7962 ] final   91.25 input  175.53 | X-H torsion
[ 8008 7997 7996 7995 ] final   32.03 input   59.86 | X-H torsion
[ 10167 10162 10161 10158 ] final  -34.09 input  -65.29 | X-H torsion
[ 10718 10713 10712 10709 ] final  138.74 input   66.30 | X-H torsion
[ 10763 10752 10751 10750 ] final -122.08 input  -60.55 | X-H torsion
[ 11005 11000 10999 10996 ] final   92.34 input  -57.11 | X-H torsion

> <Gold.Protein.ActiveResidues>
 VAL166  LYS551  ARG553  GLY616  TRP617  ASP618  TYR619  PRO620  LYS621  CYS622 
 ASP623  PHE694  ASN695  SER759  ASP760  ASP761  ALA762  ILE779  LEU786  VAL792 
 PHE793  MET794  SER795  GLU796  ALA797  LYS798  CYS799  TRP800  GLU811  SER814 

> <Gold.Protein.RotatedAtoms>
  151.4137  133.3719  159.2746 H   0  0  0  0  0  0  0  0  0  0  0  0  # atno 6907 bound_to 6896
  150.9344  134.8759  159.7583 H   0  0  0  0  0  0  0  0  0  0  0  0  # atno 6908 bound_to 6896
  152.5043  134.4084  159.9492 H   0  0  0  0  0  0  0  0  0  0  0  0  # atno 6909 bound_to 6896
  145.5082  139.2276  143.2739 H   0  0  0  0  0  0  0  0  0  0  0  0  # atno 7974 bound_to 7965
  155.1159  140.3243  155.4509 H   0  0  0  0  0  0  0  0  0  0  0  0  # atno 8008 bound_to 7997
  156.2677  140.2036  156.6230 H   0  0  0  0  0  0  0  0  0  0  0  0  # atno 8009 bound_to 7997
  154.6720  140.0535  157.0163 H   0  0  0  0  0  0  0  0  0  0  0  0  # atno 8010 bound_to 7997
  140.7192  143.3573  151.2034 H   0  0  0  0  0  0  0  0  0  0  0  0  # atno 10167 bound_to 10162
  157.4220  131.1039  151.0343 H   0  0  0  0  0  0  0  0  0  0  0  0  # atno 10718 bound_to 10713
  154.8682  135.4145  154.2723 H   0  0  0  0  0  0  0  0  0  0  0  0  # atno 10763 bound_to 10752
  153.3631  135.7004  153.6702 H   0  0  0  0  0  0  0  0  0  0  0  0  # atno 10764 bound_to 10752
  153.5595  135.3613  155.2765 H   0  0  0  0  0  0  0  0  0  0  0  0  # atno 10765 bound_to 10752
  139.8825  134.8727  156.3558 H   0  0  0  0  0  0  0  0  0  0  0  0  # atno 11005 bound_to 11000
  146.2183  140.5887  142.9028 LP  0  0  0  0  0  0  0  0  0  0  0  0  # atno 17320 bound_to 7965
  144.7742  140.5703  143.6649 LP  0  0  0  0  0  0  0  0  0  0  0  0  # atno 17321 bound_to 7965
  139.7117  143.9366  152.2950 LP  0  0  0  0  0  0  0  0  0  0  0  0  # atno 17342 bound_to 10162
  139.9093  144.6866  150.8580 LP  0  0  0  0  0  0  0  0  0  0  0  0  # atno 17343 bound_to 10162
  157.1270  130.6086  149.5519 LP  0  0  0  0  0  0  0  0  0  0  0  0  # atno 17370 bound_to 10713
  155.9884  130.4927  150.7167 LP  0  0  0  0  0  0  0  0  0  0  0  0  # atno 17371 bound_to 10713
  140.9563  133.7418  156.0340 LP  0  0  0  0  0  0  0  0  0  0  0  0  # atno 17394 bound_to 11000
  140.8044  134.3471  157.5430 LP  0  0  0  0  0  0  0  0  0  0  0  0  # atno 17395 bound_to 11000

$$$$
