#       Name:                AV-unprocessed.smi:295
#       Creating user name   scv26
#       Creation time:       Thu Mar 26 22:14:27 2020


#       File generated by GOLD software.
#

@<TRIPOS>MOLECULE
AV-unprocessed.smi:295
    40    41     1
SMALL
NO_CHARGES


@<TRIPOS>ATOM
      1 ****        -0.9619  -0.1949   1.7717 C.3            1 S1                 0.0000
      2 ****        -1.2428  -0.9431   0.4554 C.3            1 S1                 0.0000
      3 ****        -2.7129  -1.4042   0.3929 C.3            1 S1                 0.0000
      4 ****        -3.0176  -2.1664  -0.9059 C.3            1 S1                 0.0000
      5 ****        -2.6721  -1.3176  -2.1372 C.3            1 S1                 0.0000
      6 ****        -1.2064  -0.8616  -2.0965 C.3            1 S1                 0.0000
      7 ****        -0.8840  -0.1008  -0.7941 C.3            1 S1                 0.0000
      8 ****         0.5317   0.2549  -0.7699 N.am           1 S1                 0.0000
      9 ****         1.0632   1.3939  -1.2416 C.2            1 S1                 0.0000
     10 ****         0.4070   2.2621  -1.8157 O.2            1 S1                 0.0000
     11 ****         2.5693   1.5832  -1.0404 C.3            1 S1                 0.0000
     12 ****         2.9503   1.4263   0.3530 N.pl3          1 S1                 0.0000
     13 ****         3.4474   0.3686   1.0028 C.2            1 S1                 0.0000
     14 ****         3.6602   0.5803   2.2954 N.2            1 S1                 0.0000
     15 ****         3.2458   1.8785   2.3681 C.2            1 S1                 0.0000
     16 ****         3.2730   2.6150   3.6203 C.1            1 S1                 0.0000
     17 ****         3.2948   3.2015   4.6177 N.1            1 S1                 0.0000
     18 ****         2.8119   2.4404   1.2418 N.2            1 S1                 0.0000
     19 ****        -1.5330   0.7323   1.8285 H              1 S1                 0.0000
     20 ****         0.0935   0.0581   1.8764 H              1 S1                 0.0000
     21 ****        -1.2333  -0.8048   2.6335 H              1 S1                 0.0000
     22 ****        -0.6186  -1.8384   0.4509 H              1 S1                 0.0000
     23 ****        -2.9411  -2.0408   1.2484 H              1 S1                 0.0000
     24 ****        -3.3734  -0.5391   0.4685 H              1 S1                 0.0000
     25 ****        -2.4457  -3.0949  -0.9288 H              1 S1                 0.0000
     26 ****        -4.0700  -2.4505  -0.9325 H              1 S1                 0.0000
     27 ****        -2.8593  -1.8873  -3.0479 H              1 S1                 0.0000
     28 ****        -3.3260  -0.4455  -2.1775 H              1 S1                 0.0000
     29 ****        -0.5555  -1.7325  -2.1859 H              1 S1                 0.0000
     30 ****        -0.9970  -0.2306  -2.9611 H              1 S1                 0.0000
     31 ****        -1.4848   0.8107  -0.7679 H              1 S1                 0.0000
     32 ****         1.1522  -0.4021  -0.3201 H              1 S1                 0.0000
     33 ****         3.1112   0.8517  -1.6411 H              1 S1                 0.0000
     34 ****         2.8751   2.5730  -1.3826 H              1 S1                 0.0000
     35 ****         3.6499  -0.5768   0.5213 H              1 S1                 0.0000
     36 ****        -0.5760   2.1381  -1.9513 LP             1 S1                 0.0000
     37 ****         0.8566   3.0918  -2.1466 LP             1 S1                 0.0000
     38 ****         4.0171  -0.0287   3.0037 LP             1 S1                 0.0000
     39 ****         3.3136   3.7083   5.4796 LP             1 S1                 0.0000
     40 ****         2.4723   3.3688   1.0908 LP             1 S1                 0.0000
@<TRIPOS>BOND
    1    1    2 1     
    2    1   19 1     
    3    1   20 1     
    4    1   21 1     
    5    2    7 1     
    6    2    3 1     
    7    2   22 1     
    8    3    4 1     
    9    3   23 1     
   10    3   24 1     
   11    4    5 1     
   12    4   25 1     
   13    4   26 1     
   14    5    6 1     
   15    5   27 1     
   16    5   28 1     
   17    6    7 1     
   18    6   29 1     
   19    6   30 1     
   20    7    8 1     
   21    7   31 1     
   22    8    9 am    
   23    8   32 1     
   24    9   10 2     
   25    9   11 1     
   26   11   12 1     
   27   11   33 1     
   28   11   34 1     
   29   12   18 1     
   30   12   13 1     
   31   13   14 2     
   32   13   35 1     
   33   14   15 1     
   34   15   16 1     
   35   15   18 2     
   36   16   17 3     
   37   10   36 1     
   38   10   37 1     
   39   14   38 1     
   40   17   39 1     
   41   18   40 1     
@<TRIPOS>SUBSTRUCTURE
      1 S1             1
@<TRIPOS>SET
LONE_PAIRS      STATIC     ATOMS    <user>   **** ""
5 36 37 38 39 40
DONOR_HYDROGENS      STATIC     ATOMS    <user>   **** ""
1 32
ATOM$BLUE        STATIC     ATOMS    COLORGROUP SYSTEM
5 36 37 38 39 40
ATOM$RED        STATIC     ATOMS    COLORGROUP SYSTEM
1 32
