AV-unprocessed.smi:372|AV-procd|sdf|2444|dock6
  -GOLD-   2262022383D 1   1.00000     0.00000
 Structure written by MMmdl.
 23 24  0  0  0  0  0  0  0  0  1 V2000
  152.7119  139.4094  157.8883 C   0  0  0  0  0  0  0  0  0  0  0  0
  151.4407  140.2754  157.7975 C   0  0  2  0  0  0  0  0  0  0  0  0
  151.7208  141.7429  158.1665 C   0  0  0  0  0  0  0  0  0  0  0  0
  152.3927  142.0979  159.3626 C   0  0  0  0  0  0  0  0  0  0  0  0
  152.6243  143.4599  159.6353 C   0  0  0  0  0  0  0  0  0  0  0  0
  152.1838  144.4236  158.7101 C   0  0  0  0  0  0  0  0  0  0  0  0
  151.5308  143.9794  157.5450 C   0  0  0  0  0  0  0  0  0  0  0  0
  151.3063  142.6763  157.2745 N   0  0  0  0  0  0  0  0  0  0  0  0
  150.3788  139.6755  158.5966 N   0  0  0  0  0  0  0  0  0  0  0  0
  149.2926  139.3586  157.8805 C   0  0  0  0  0  0  0  0  0  0  0  0
  148.2526  138.8747  158.3205 O   0  0  0  0  0  0  0  0  0  0  0  0
  149.5467  139.6493  156.6023 N   0  0  0  0  0  0  0  0  0  0  0  0
  150.7664  140.1556  156.4292 C   0  0  0  0  0  0  0  0  0  0  0  0
  151.2814  140.4612  155.3544 O   0  0  0  0  0  0  0  0  0  0  0  0
  153.5036  139.7906  157.2421 H   0  0  0  0  0  0  0  0  0  0  0  0
  152.5183  138.3772  157.5929 H   0  0  0  0  0  0  0  0  0  0  0  0
  153.1000  139.3919  158.9072 H   0  0  0  0  0  0  0  0  0  0  0  0
  152.7322  141.3549  160.0682 H   0  0  0  0  0  0  0  0  0  0  0  0
  153.1333  143.7597  160.5395 H   0  0  0  0  0  0  0  0  0  0  0  0
  152.3445  145.4767  158.8877 H   0  0  0  0  0  0  0  0  0  0  0  0
  151.1808  144.6885  156.8098 H   0  0  0  0  0  0  0  0  0  0  0  0
  150.4532  139.5557  159.5963 H   0  0  0  0  0  0  0  0  0  0  0  0
  148.8954  139.4840  155.8488 H   0  0  0  0  0  0  0  0  0  0  0  0
  1  2  1  0  0  0  0
  1 15  1  0  0  0  0
  1 16  1  0  0  0  0
  1 17  1  0  0  0  0
  2 13  1  0  0  0  0
  2  3  1  0  0  0  0
  2  9  1  0  0  0  0
  3  8  1  0  0  0  0
  3  4  2  0  0  0  0
  4  5  1  0  0  0  0
  4 18  1  0  0  0  0
  5  6  2  0  0  0  0
  5 19  1  0  0  0  0
  6  7  1  0  0  0  0
  6 20  1  0  0  0  0
  7  8  2  0  0  0  0
  7 21  1  0  0  0  0
  9 10  1  0  0  0  0
  9 22  1  0  0  0  0
 10 11  2  0  0  0  0
 10 12  1  0  0  0  0
 12 13  1  0  0  0  0
 12 23  1  0  0  0  0
 13 14  2  0  0  0  0
M  END
> <s_m_source_file>
AV-unprocessed.smi

> <i_m_source_file_index>
372

> <i_lp_mmshare_version>
43012

> <i_f3d_flags>
0

> <s_epik_input>
Tz1DMVtOSF1DKD1PKVtOSF1bQ0BAXTEoW0NIM10pYzJbY0hdW2NIXVtjSF1bY0hdbjI=

> <s_epik_cmdline>
J2VwaWtfcHl0aG9uJywgJy1waCcsICc3LjAnLCAnLXRuJywgJzgnLCAnLW1hJywgJzIwMCcsICctbWV0YWxfYmluZGluZycsICctaW1hZScsICc8aW5maWxlLm1hZT4nLCAnLW9tYWUnLCAnPG91dGZpbGUubWFlPic=

> <r_lp_tautomer_probability>
1

> <r_epik_Ionization_Penalty>
0.0293563

> <r_epik_Ionization_Penalty_Charging>
0

> <r_epik_Ionization_Penalty_Neutral>
0.0293563

> <r_epik_State_Penalty>
0.034944

> <r_epik_Charging_Adjusted_Penalty>
0.034944

> <i_epik_Tot_Q>
0

> <i_epik_Tot_abs_Q>
0

> <r_epik_Metal_State_Penalty>
0.534399

> <b_epik_Metal_Only>
0

> <s_lp_Force_Field>
OPLS_2005

> <r_lp_Energy>
17.2904

> <b_lp_Chiralities_Consistent>
1

> <s_lp_Variant>
AV-unprocessed.smi:372-2

> <Gold.Version>
5.8.1

> <Gold.Id.Protein>
6NUR|6NUR_protein|mol2

> <Gold.PLP.Fitness>
30.3028

> <Gold.PLP.PLP>
-24.9558

> <Gold.PLP.part.hbond>
-2.0000

> <Gold.PLP.part.metal>
0.0000

> <Gold.PLP.part.buried>
-1.7214

> <Gold.PLP.part.nonpolar>
-21.5033

> <Gold.PLP.part.repulsive>
0.3275

> <Gold.PLP.ligand.clash>
0.0000

> <Gold.PLP.ligand.torsion>
0.2227

> <Gold.PLP.Chemscore.Hbond>
0.9280

> <Gold.PLP.Chemscore.CHOScore>
0.9638

> <Gold.PLP.Chemscore.Metal>
0.0000

> <Gold.Chemscore.Hbonds>
donor molecule, donor type, donor heavy atom, donor atom, acceptor molecule, acceptor atom, score
      P1  H  7989  7998       L1    14  0.93
      L1  C     7    21       P1  8028  0.97

> <Gold.PLP.Chemscore.Internal.Correction>
0.1171

> <Gold.Rescore>
     Score         DG    S(hbond)    S(metal)    S(lipo)     H(rot)  DE(clash)    DE(int)     intcor
     12.62     -14.02       0.95        0.00      67.88       1.00       0.01       1.39       ----

> <Gold.Chemscore.Fitness>
12.6221

> <Gold.Chemscore.DG>
-14.0200

> <Gold.Chemscore.ZeroCoef>
-5.4800

> <Gold.Chemscore.Hbond>
0.9455

> <Gold.Chemscore.Metal>
0.0000

> <Gold.Chemscore.Lipo>
67.8800

> <Gold.Chemscore.Internal_Hbond>
0.0000

> <Gold.Chemscore.DEClash>
0.0073

> <Gold.Chemscore.DEInternal>
1.3906

> <Gold.Chemscore.Rot>
1.0000

> <Gold.Chemscore.Internal.Correction>
   9.000000E+99

> <Gold.Chemscore.Hbonds>
donor molecule, donor type, donor heavy atom, donor atom, acceptor molecule, acceptor atom, score
      P1  H  7989  7998       L1    14  0.89

> <Gold.Chemscore.Hbond.Weighted>
-3.1580

> <Gold.Chemscore.Metal.Weighted>
-0.0000

> <Gold.Chemscore.Lipo.Weighted>
-7.9420

> <Gold.Chemscore.Internal_Hbond.Weighted>
0.0000

> <Gold.Chemscore.DEClash.Weighted>
0.0073

> <Gold.Chemscore.DEInternal.Weighted>
1.3906

> <Gold.Chemscore.Rot.Weighted>
2.5600

> <Gold.Chemscore.Internal.Correction.Weighted>
   9.000000E+99

> <Gold.Protein.RotatedTorsions>
[ 6907 6896 6895 6894 ] final  138.34 input  -60.11 | X-H torsion
[ 7974 7965 7964 7962 ] final    6.21 input  175.53 | X-H torsion
[ 8008 7997 7996 7995 ] final -158.29 input   59.86 | X-H torsion
[ 10167 10162 10161 10158 ] final   13.44 input  -65.29 | X-H torsion
[ 10718 10713 10712 10709 ] final   13.42 input   66.30 | X-H torsion
[ 10763 10752 10751 10750 ] final  -44.27 input  -60.55 | X-H torsion
[ 11005 11000 10999 10996 ] final  -99.04 input  -57.11 | X-H torsion

> <Gold.Protein.ActiveResidues>
 VAL166  LYS551  ARG553  GLY616  TRP617  ASP618  TYR619  PRO620  LYS621  CYS622 
 ASP623  PHE694  ASN695  SER759  ASP760  ASP761  ALA762  ILE779  LEU786  VAL792 
 PHE793  MET794  SER795  GLU796  ALA797  LYS798  CYS799  TRP800  GLU811  SER814 

> <Gold.Protein.RotatedAtoms>
  152.2677  133.5354  159.5419 H   0  0  0  0  0  0  0  0  0  0  0  0  # atno 6907 bound_to 6896
  150.7148  134.0741  159.3884 H   0  0  0  0  0  0  0  0  0  0  0  0  # atno 6908 bound_to 6896
  151.8657  135.0508  160.0525 H   0  0  0  0  0  0  0  0  0  0  0  0  # atno 6909 bound_to 6896
  146.2436  140.0267  142.8393 H   0  0  0  0  0  0  0  0  0  0  0  0  # atno 7974 bound_to 7965
  155.7453  140.0819  157.2226 H   0  0  0  0  0  0  0  0  0  0  0  0  # atno 8008 bound_to 7997
  154.4017  140.1570  156.2718 H   0  0  0  0  0  0  0  0  0  0  0  0  # atno 8009 bound_to 7997
  155.8981  140.3411  155.6009 H   0  0  0  0  0  0  0  0  0  0  0  0  # atno 8010 bound_to 7997
  140.6002  143.8620  150.6957 H   0  0  0  0  0  0  0  0  0  0  0  0  # atno 10167 bound_to 10162
  157.0245  130.6168  149.5726 H   0  0  0  0  0  0  0  0  0  0  0  0  # atno 10718 bound_to 10713
  154.0093  135.6683  153.4764 H   0  0  0  0  0  0  0  0  0  0  0  0  # atno 10763 bound_to 10752
  153.0628  135.5018  154.8128 H   0  0  0  0  0  0  0  0  0  0  0  0  # atno 10764 bound_to 10752
  154.7005  135.3078  154.9311 H   0  0  0  0  0  0  0  0  0  0  0  0  # atno 10765 bound_to 10752
  141.1323  133.8291  157.0919 H   0  0  0  0  0  0  0  0  0  0  0  0  # atno 11005 bound_to 11000
  145.1191  140.9452  143.4611 LP  0  0  0  0  0  0  0  0  0  0  0  0  # atno 17320 bound_to 7965
  145.0499  139.3190  143.5934 LP  0  0  0  0  0  0  0  0  0  0  0  0  # atno 17321 bound_to 7965
  140.2164  143.3843  152.1677 LP  0  0  0  0  0  0  0  0  0  0  0  0  # atno 17342 bound_to 10162
  139.5286  144.7132  151.5139 LP  0  0  0  0  0  0  0  0  0  0  0  0  # atno 17343 bound_to 10162
  156.0091  130.5181  150.7928 LP  0  0  0  0  0  0  0  0  0  0  0  0  # atno 17370 bound_to 10713
  157.5225  131.0932  151.0060 LP  0  0  0  0  0  0  0  0  0  0  0  0  # atno 17371 bound_to 10713
  140.0387  134.9865  157.0920 LP  0  0  0  0  0  0  0  0  0  0  0  0  # atno 17394 bound_to 11000
  140.4170  134.1921  155.7163 LP  0  0  0  0  0  0  0  0  0  0  0  0  # atno 17395 bound_to 11000

$$$$
