AV-unprocessed.smi:3237|AV-procd|sdf|12365|dock8
  -GOLD-   2272018223D 1   1.00000     0.00000
 Structure written by MMmdl.
 37 39  0  0  0  0  0  0  0  0  2 V2000
  151.9574  140.9101  156.0490 C   0  0  0  0  0  0  0  0  0  0  0  0
  151.4277  139.5344  155.8303 C   0  0  0  0  0  0  0  0  0  0  0  0
  150.8322  138.9261  154.7617 C   0  0  0  0  0  0  0  0  0  0  0  0
  150.5822  137.6080  155.2437 C   0  0  0  0  0  0  0  0  0  0  0  0
  149.9706  136.5504  154.5220 N   0  0  0  0  0  0  0  0  0  0  0  0
  149.6702  135.3126  154.9496 C   0  0  0  0  0  0  0  0  0  0  0  0
  149.8872  134.8738  156.0787 O   0  0  0  0  0  0  0  0  0  0  0  0
  149.0918  134.5900  153.9796 N   0  0  0  0  0  0  0  0  0  0  0  0
  148.6460  133.2089  154.1293 C   0  0  2  0  0  0  0  0  0  0  0  0
  149.7720  132.1855  154.2406 C   0  0  0  0  0  0  0  0  0  0  0  0
  149.0689  130.8771  153.8624 C   0  0  0  0  0  0  0  0  0  0  0  0
  147.9528  131.2391  152.9530 N   0  3  1  0  0  0  0  0  0  0  0  0
  146.6678  130.5993  153.3101 C   0  0  0  0  0  0  0  0  0  0  0  0
  146.4404  129.2740  152.6227 C   0  0  0  0  0  0  0  0  0  0  0  0
  145.6982  130.5075  152.1562 C   0  0  0  0  0  0  0  0  0  0  0  0
  147.8840  132.7163  152.8998 C   0  0  0  0  0  0  0  0  0  0  0  0
  150.9875  137.4356  156.4882 N   0  0  0  0  0  0  0  0  0  0  0  0
  151.5317  138.6666  156.8728 O   0  0  0  0  0  0  0  0  0  0  0  0
  151.8965  141.5012  155.1350 H   0  0  0  0  0  0  0  0  0  0  0  0
  153.0014  140.8774  156.3611 H   0  0  0  0  0  0  0  0  0  0  0  0
  151.3879  141.4243  156.8232 H   0  0  0  0  0  0  0  0  0  0  0  0
  150.6191  139.3684  153.8003 H   0  0  0  0  0  0  0  0  0  0  0  0
  149.7314  136.7668  153.5657 H   0  0  0  0  0  0  0  0  0  0  0  0
  148.9488  135.0260  153.0801 H   0  0  0  0  0  0  0  0  0  0  0  0
  147.9950  133.1266  155.0024 H   0  0  0  0  0  0  0  0  0  0  0  0
  150.5604  132.4078  153.5195 H   0  0  0  0  0  0  0  0  0  0  0  0
  150.2211  132.1512  155.2338 H   0  0  0  0  0  0  0  0  0  0  0  0
  149.7479  130.1693  153.3865 H   0  0  0  0  0  0  0  0  0  0  0  0
  148.6798  130.4022  154.7648 H   0  0  0  0  0  0  0  0  0  0  0  0
  146.3076  130.7659  154.3240 H   0  0  0  0  0  0  0  0  0  0  0  0
  147.2268  128.8863  151.9773 H   0  0  0  0  0  0  0  0  0  0  0  0
  145.8669  128.5213  153.1599 H   0  0  0  0  0  0  0  0  0  0  0  0
  144.6365  130.5675  152.3869 H   0  0  0  0  0  0  0  0  0  0  0  0
  145.9914  130.9387  151.2007 H   0  0  0  0  0  0  0  0  0  0  0  0
  146.8605  133.0929  152.8653 H   0  0  0  0  0  0  0  0  0  0  0  0
  148.3844  133.0415  151.9863 H   0  0  0  0  0  0  0  0  0  0  0  0
  148.1952  130.9217  152.0252 H   0  0  0  0  0  0  0  0  0  0  0  0
  1  2  1  0  0  0  0
  1 19  1  0  0  0  0
  1 20  1  0  0  0  0
  1 21  1  0  0  0  0
  2 18  1  0  0  0  0
  2  3  2  0  0  0  0
  3  4  1  0  0  0  0
  3 22  1  0  0  0  0
  4  5  1  0  0  0  0
  4 17  2  0  0  0  0
  5  6  1  0  0  0  0
  5 23  1  0  0  0  0
  6  7  2  0  0  0  0
  6  8  1  0  0  0  0
  8  9  1  0  0  0  0
  8 24  1  0  0  0  0
  9 16  1  0  0  0  0
  9 10  1  0  0  0  0
  9 25  1  0  0  0  0
 10 11  1  0  0  0  0
 10 26  1  0  0  0  0
 10 27  1  0  0  0  0
 11 12  1  0  0  0  0
 11 28  1  0  0  0  0
 11 29  1  0  0  0  0
 12 13  1  0  0  0  0
 12 16  1  0  0  0  0
 12 37  1  0  0  0  0
 13 15  1  0  0  0  0
 13 14  1  0  0  0  0
 13 30  1  0  0  0  0
 14 15  1  0  0  0  0
 14 31  1  0  0  0  0
 14 32  1  0  0  0  0
 15 33  1  0  0  0  0
 15 34  1  0  0  0  0
 16 35  1  0  0  0  0
 16 36  1  0  0  0  0
 17 18  1  0  0  0  0
M  CHG  1  12   1
M  END
> <s_m_source_file>
AV-unprocessed.smi

> <i_m_source_file_index>
3237

> <i_lp_mmshare_version>
43012

> <i_f3d_flags>
0

> <s_epik_input>
W0NIM11jMVtjSF1jKG5vMSlbTkhdQyg9TylbTkhdW0NAQEhdMltDSDJdW0NIMl1OKFtDSDJdMilbQ0hdM1tDSDJdW0NIMl0z

> <s_epik_cmdline>
J2VwaWtfcHl0aG9uJywgJy1waCcsICc3LjAnLCAnLXRuJywgJzgnLCAnLW1hJywgJzIwMCcsICctbWV0YWxfYmluZGluZycsICctaW1hZScsICc8aW5maWxlLm1hZT4nLCAnLW9tYWUnLCAnPG91dGZpbGUubWFlPic=

> <r_epik_Ionization_Penalty>
0.000720579

> <r_epik_Ionization_Penalty_Charging>
0.000680516

> <r_epik_Ionization_Penalty_Neutral>
4.00628e-05

> <r_epik_State_Penalty>
0.000432256

> <r_epik_Charging_Adjusted_Penalty>
0.00111277

> <i_epik_Tot_Q>
1

> <i_epik_Tot_abs_Q>
1

> <r_epik_Metal_State_Penalty>
0.0255091

> <b_epik_Metal_Only>
0

> <s_lp_Force_Field>
OPLS_2005

> <r_lp_Energy>
36.5214

> <b_lp_Chiralities_Consistent>
1

> <s_lp_Variant>
AV-unprocessed.smi:3237-3

> <Gold.Version>
5.8.1

> <Gold.Id.Protein>
6NUR|6NUR_protein|mol2

> <Gold.PLP.Fitness>
38.3705

> <Gold.PLP.PLP>
-29.5295

> <Gold.PLP.part.hbond>
-3.0000

> <Gold.PLP.part.metal>
0.0000

> <Gold.PLP.part.buried>
-3.3170

> <Gold.PLP.part.nonpolar>
-23.3742

> <Gold.PLP.part.repulsive>
0.0579

> <Gold.PLP.ligand.clash>
0.0000

> <Gold.PLP.ligand.torsion>
0.7118

> <Gold.PLP.Chemscore.Hbond>
3.0000

> <Gold.PLP.Chemscore.CHOScore>
0.0000

> <Gold.PLP.Chemscore.Metal>
0.0000

> <Gold.Chemscore.Hbonds>
donor molecule, donor type, donor heavy atom, donor atom, acceptor molecule, acceptor atom, score
      L1  H     5    23       P1  7948  1.00
      L1  H     8    24       P1  7948  0.95
      L1  H    12    37       P1 10747  1.00

> <Gold.PLP.Chemscore.Internal.Correction>
1.2644

> <Gold.Rescore>
     Score         DG    S(hbond)    S(metal)    S(lipo)     H(rot)  DE(clash)    DE(int)     intcor
     16.41     -18.60       2.63        0.00      64.57       1.26       0.00       2.19       ----

> <Gold.Chemscore.Fitness>
16.4130

> <Gold.Chemscore.DG>
-18.6014

> <Gold.Chemscore.ZeroCoef>
-5.4800

> <Gold.Chemscore.Hbond>
2.6319

> <Gold.Chemscore.Metal>
0.0000

> <Gold.Chemscore.Lipo>
64.5676

> <Gold.Chemscore.Internal_Hbond>
0.0000

> <Gold.Chemscore.DEClash>
0.0009

> <Gold.Chemscore.DEInternal>
2.1874

> <Gold.Chemscore.Rot>
1.2593

> <Gold.Chemscore.Internal.Correction>
   9.000000E+99

> <Gold.Chemscore.Hbonds>
donor molecule, donor type, donor heavy atom, donor atom, acceptor molecule, acceptor atom, score
      L1  H     5    23       P1  7948  0.52
      L1  H     8    24       P1  7948  0.21
      L1  H    12    37       P1 10747  0.99

> <Gold.Chemscore.Hbond.Weighted>
-8.7907

> <Gold.Chemscore.Metal.Weighted>
-0.0000

> <Gold.Chemscore.Lipo.Weighted>
-7.5544

> <Gold.Chemscore.Internal_Hbond.Weighted>
0.0000

> <Gold.Chemscore.DEClash.Weighted>
0.0009

> <Gold.Chemscore.DEInternal.Weighted>
2.1874

> <Gold.Chemscore.Rot.Weighted>
3.2237

> <Gold.Chemscore.Internal.Correction.Weighted>
   9.000000E+99

> <Gold.Protein.RotatedTorsions>
[ 6907 6896 6895 6894 ] final   10.11 input  -60.11 | X-H torsion
[ 7974 7965 7964 7962 ] final  109.86 input  175.53 | X-H torsion
[ 8008 7997 7996 7995 ] final  -53.98 input   59.86 | X-H torsion
[ 10167 10162 10161 10158 ] final   67.65 input  -65.29 | X-H torsion
[ 10718 10713 10712 10709 ] final  101.99 input   66.30 | X-H torsion
[ 10763 10752 10751 10750 ] final  117.22 input  -60.55 | X-H torsion
[ 11005 11000 10999 10996 ] final   55.33 input  -57.11 | X-H torsion

> <Gold.Protein.ActiveResidues>
 VAL166  LYS551  ARG553  GLY616  TRP617  ASP618  TYR619  PRO620  LYS621  CYS622 
 ASP623  PHE694  ASN695  SER759  ASP760  ASP761  ALA762  ILE779  LEU786  VAL792 
 PHE793  MET794  SER795  GLU796  ALA797  LYS798  CYS799  TRP800  GLU811  SER814 

> <Gold.Protein.RotatedAtoms>
  151.7330  135.0870  160.0303 H   0  0  0  0  0  0  0  0  0  0  0  0  # atno 6907 bound_to 6896
  152.3528  133.6197  159.5966 H   0  0  0  0  0  0  0  0  0  0  0  0  # atno 6908 bound_to 6896
  150.7551  133.9463  159.3513 H   0  0  0  0  0  0  0  0  0  0  0  0  # atno 6909 bound_to 6896
  145.2623  139.2697  143.4010 H   0  0  0  0  0  0  0  0  0  0  0  0  # atno 7974 bound_to 7965
  154.4149  140.1187  156.5242 H   0  0  0  0  0  0  0  0  0  0  0  0  # atno 8008 bound_to 7997
  155.6672  140.3496  155.4785 H   0  0  0  0  0  0  0  0  0  0  0  0  # atno 8009 bound_to 7997
  155.9664  140.1133  157.0841 H   0  0  0  0  0  0  0  0  0  0  0  0  # atno 8010 bound_to 7997
  140.0872  144.5019  150.7122 H   0  0  0  0  0  0  0  0  0  0  0  0  # atno 10167 bound_to 10162
  157.6814  131.0741  150.5336 H   0  0  0  0  0  0  0  0  0  0  0  0  # atno 10718 bound_to 10713
  153.5491  135.3543  155.2752 H   0  0  0  0  0  0  0  0  0  0  0  0  # atno 10763 bound_to 10752
  154.8709  135.4109  154.2957 H   0  0  0  0  0  0  0  0  0  0  0  0  # atno 10764 bound_to 10752
  153.3679  135.7063  153.6729 H   0  0  0  0  0  0  0  0  0  0  0  0  # atno 10765 bound_to 10752
  140.0615  134.5595  155.9146 H   0  0  0  0  0  0  0  0  0  0  0  0  # atno 11005 bound_to 11000
  146.3271  140.3044  142.8622 LP  0  0  0  0  0  0  0  0  0  0  0  0  # atno 17320 bound_to 7965
  144.9407  140.8075  143.5632 LP  0  0  0  0  0  0  0  0  0  0  0  0  # atno 17321 bound_to 7965
  140.7047  143.2459  151.4761 LP  0  0  0  0  0  0  0  0  0  0  0  0  # atno 17342 bound_to 10162
  139.5745  144.1850  152.1884 LP  0  0  0  0  0  0  0  0  0  0  0  0  # atno 17343 bound_to 10162
  156.5645  130.4264  149.6047 LP  0  0  0  0  0  0  0  0  0  0  0  0  # atno 17370 bound_to 10713
  156.2792  130.7061  151.1881 LP  0  0  0  0  0  0  0  0  0  0  0  0  # atno 17371 bound_to 10713
  141.1975  133.6597  156.5745 LP  0  0  0  0  0  0  0  0  0  0  0  0  # atno 17394 bound_to 11000
  140.3762  134.7562  157.4631 LP  0  0  0  0  0  0  0  0  0  0  0  0  # atno 17395 bound_to 11000

$$$$
