AV-unprocessed.smi:634|AV-procd|sdf|3134|dock4
  -GOLD-   22720 0 63D 1   1.00000     0.00000
 Structure written by MMmdl.
 33 34  0  0  0  0  0  0  0  0  1 V2000
  146.9175  134.7738  162.6572 C   0  0  0  0  0  0  0  0  0  0  0  0
  147.5480  135.2272  161.3852 C   0  0  0  0  0  0  0  0  0  0  0  0
  147.8086  136.4636  160.8643 C   0  0  0  0  0  0  0  0  0  0  0  0
  148.4229  136.1633  159.6193 C   0  0  0  0  0  0  0  0  0  0  0  0
  148.8564  137.1988  158.7521 N   0  0  0  0  0  0  0  0  0  0  0  0
  149.9986  137.9035  158.8239 C   0  0  0  0  0  0  0  0  0  0  0  0
  150.8762  137.7400  159.6715 O   0  0  0  0  0  0  0  0  0  0  0  0
  150.0635  138.8191  157.8425 N   0  0  0  0  0  0  0  0  0  0  0  0
  151.1352  139.7877  157.5703 C   0  0  2  0  0  0  0  0  0  0  0  0
  151.3834  140.6796  158.8058 C   0  0  0  0  0  0  0  0  0  0  0  0
  150.6703  140.6604  156.3793 C   0  0  0  0  0  0  0  0  0  0  0  0
  150.8095  139.8695  155.0733 C   0  0  0  0  0  0  0  0  0  0  0  0
  152.2747  138.7994  155.3015 S   0  0  0  0  0  0  0  0  0  0  0  0
  151.8889  137.4030  155.0484 O   0  0  0  0  0  0  0  0  0  0  0  0
  153.4333  139.4006  154.6238 O   0  0  0  0  0  0  0  0  0  0  0  0
  152.4297  139.0761  157.1081 C   0  0  0  0  0  0  0  0  0  0  0  0
  148.5278  134.8615  159.4002 N   0  0  0  0  0  0  0  0  0  0  0  0
  147.9670  134.2552  160.5303 O   0  0  0  0  0  0  0  0  0  0  0  0
  146.8724  135.5872  163.3815 H   0  0  0  0  0  0  0  0  0  0  0  0
  147.4859  133.9572  163.1026 H   0  0  0  0  0  0  0  0  0  0  0  0
  145.9014  134.4217  162.4797 H   0  0  0  0  0  0  0  0  0  0  0  0
  147.5931  137.4253  161.3059 H   0  0  0  0  0  0  0  0  0  0  0  0
  148.2248  137.4328  158.0007 H   0  0  0  0  0  0  0  0  0  0  0  0
  149.2804  138.8538  157.2064 H   0  0  0  0  0  0  0  0  0  0  0  0
  152.1013  141.4702  158.5850 H   0  0  0  0  0  0  0  0  0  0  0  0
  151.7860  140.1132  159.6455 H   0  0  0  0  0  0  0  0  0  0  0  0
  150.4626  141.1589  159.1397 H   0  0  0  0  0  0  0  0  0  0  0  0
  149.6540  141.0337  156.5124 H   0  0  0  0  0  0  0  0  0  0  0  0
  151.3131  141.5390  156.3088 H   0  0  0  0  0  0  0  0  0  0  0  0
  149.9437  139.2270  154.9121 H   0  0  0  0  0  0  0  0  0  0  0  0
  150.9391  140.5069  154.1987 H   0  0  0  0  0  0  0  0  0  0  0  0
  153.2952  139.7220  157.2589 H   0  0  0  0  0  0  0  0  0  0  0  0
  152.6353  138.1323  157.6124 H   0  0  0  0  0  0  0  0  0  0  0  0
  1  2  1  0  0  0  0
  1 19  1  0  0  0  0
  1 20  1  0  0  0  0
  1 21  1  0  0  0  0
  2 18  1  0  0  0  0
  2  3  2  0  0  0  0
  3  4  1  0  0  0  0
  3 22  1  0  0  0  0
  4  5  1  0  0  0  0
  4 17  2  0  0  0  0
  5  6  1  0  0  0  0
  5 23  1  0  0  0  0
  6  7  2  0  0  0  0
  6  8  1  0  0  0  0
  8  9  1  0  0  0  0
  8 24  1  0  0  0  0
  9 16  1  0  0  0  0
  9 10  1  0  0  0  0
  9 11  1  0  0  0  0
 10 25  1  0  0  0  0
 10 26  1  0  0  0  0
 10 27  1  0  0  0  0
 11 12  1  0  0  0  0
 11 28  1  0  0  0  0
 11 29  1  0  0  0  0
 12 13  1  0  0  0  0
 12 30  1  0  0  0  0
 12 31  1  0  0  0  0
 13 14  2  0  0  0  0
 13 15  2  0  0  0  0
 13 16  1  0  0  0  0
 16 32  1  0  0  0  0
 16 33  1  0  0  0  0
 17 18  1  0  0  0  0
M  END
> <s_m_source_file>
AV-unprocessed.smi

> <i_m_source_file_index>
634

> <i_lp_mmshare_version>
43012

> <i_f3d_flags>
0

> <s_epik_input>
W0NIM11jMVtjSF1jKG5vMSlbTkhdQyg9TylbTkhdW0NAQF0yKFtDSDNdKVtDSDJdW0NIMl1TKD1PKSg9TylbQ0gyXTI=

> <s_epik_cmdline>
J2VwaWtfcHl0aG9uJywgJy1waCcsICc3LjAnLCAnLXRuJywgJzgnLCAnLW1hJywgJzIwMCcsICctbWV0YWxfYmluZGluZycsICctaW1hZScsICc8aW5maWxlLm1hZT4nLCAnLW9tYWUnLCAnPG91dGZpbGUubWFlPic=

> <r_lp_tautomer_probability>
1

> <r_epik_Ionization_Penalty>
3.87281e-05

> <r_epik_Ionization_Penalty_Charging>
0

> <r_epik_Ionization_Penalty_Neutral>
3.87281e-05

> <r_epik_State_Penalty>
-0

> <r_epik_Charging_Adjusted_Penalty>
0

> <i_epik_Tot_Q>
0

> <i_epik_Tot_abs_Q>
0

> <r_epik_Metal_State_Penalty>
0.0249287

> <b_epik_Metal_Only>
0

> <s_lp_Force_Field>
OPLS_2005

> <r_lp_Energy>
3.31823

> <b_lp_Chiralities_Consistent>
1

> <s_lp_Variant>
AV-unprocessed.smi:634-2

> <Gold.Version>
5.8.1

> <Gold.Id.Protein>
6NUR|6NUR_protein|mol2

> <Gold.PLP.Fitness>
35.9755

> <Gold.PLP.PLP>
-28.9836

> <Gold.PLP.part.hbond>
-3.8915

> <Gold.PLP.part.metal>
0.0000

> <Gold.PLP.part.buried>
-3.3117

> <Gold.PLP.part.nonpolar>
-22.4427

> <Gold.PLP.part.repulsive>
0.3171

> <Gold.PLP.ligand.clash>
0.0000

> <Gold.PLP.ligand.torsion>
0.7699

> <Gold.PLP.Chemscore.Hbond>
2.8393

> <Gold.PLP.Chemscore.CHOScore>
0.0000

> <Gold.PLP.Chemscore.Metal>
0.0000

> <Gold.Chemscore.Hbonds>
donor molecule, donor type, donor heavy atom, donor atom, acceptor molecule, acceptor atom, score
      P1  H  6896  6909       L1    17  0.68
      P1  H  7997  8010       L1    15  1.00
      P1  H 10752 10764       L1    14  0.66

> <Gold.PLP.Chemscore.Internal.Correction>
0.0139

> <Gold.Rescore>
     Score         DG    S(hbond)    S(metal)    S(lipo)     H(rot)  DE(clash)    DE(int)     intcor
     16.16     -16.94       2.36        0.00      52.47       1.00       0.01       0.78       ----

> <Gold.Chemscore.Fitness>
16.1590

> <Gold.Chemscore.DG>
-16.9432

> <Gold.Chemscore.ZeroCoef>
-5.4800

> <Gold.Chemscore.Hbond>
2.3604

> <Gold.Chemscore.Metal>
0.0000

> <Gold.Chemscore.Lipo>
52.4733

> <Gold.Chemscore.Internal_Hbond>
0.0000

> <Gold.Chemscore.DEClash>
0.0062

> <Gold.Chemscore.DEInternal>
0.7779

> <Gold.Chemscore.Rot>
1.0000

> <Gold.Chemscore.Internal.Correction>
   9.000000E+99

> <Gold.Chemscore.Hbonds>
donor molecule, donor type, donor heavy atom, donor atom, acceptor molecule, acceptor atom, score
      P1  H  6896  6909       L1    17  0.23
      P1  H  7997  8010       L1    15  0.96
      P1  H 10752 10764       L1    14  0.63

> <Gold.Chemscore.Hbond.Weighted>
-7.8838

> <Gold.Chemscore.Metal.Weighted>
-0.0000

> <Gold.Chemscore.Lipo.Weighted>
-6.1394

> <Gold.Chemscore.Internal_Hbond.Weighted>
0.0000

> <Gold.Chemscore.DEClash.Weighted>
0.0062

> <Gold.Chemscore.DEInternal.Weighted>
0.7779

> <Gold.Chemscore.Rot.Weighted>
2.5600

> <Gold.Chemscore.Internal.Correction.Weighted>
   9.000000E+99

> <Gold.Protein.RotatedTorsions>
[ 6907 6896 6895 6894 ] final   32.99 input  -60.11 | X-H torsion
[ 7974 7965 7964 7962 ] final   37.85 input  175.53 | X-H torsion
[ 8008 7997 7996 7995 ] final  133.43 input   59.86 | X-H torsion
[ 10167 10162 10161 10158 ] final  158.38 input  -65.29 | X-H torsion
[ 10718 10713 10712 10709 ] final  -21.25 input   66.30 | X-H torsion
[ 10763 10752 10751 10750 ] final  -69.44 input  -60.55 | X-H torsion
[ 11005 11000 10999 10996 ] final  -95.24 input  -57.11 | X-H torsion

> <Gold.Protein.ActiveResidues>
 VAL166  LYS551  ARG553  GLY616  TRP617  ASP618  TYR619  PRO620  LYS621  CYS622 
 ASP623  PHE694  ASN695  SER759  ASP760  ASP761  ALA762  ILE779  LEU786  VAL792 
 PHE793  MET794  SER795  GLU796  ALA797  LYS798  CYS799  TRP800  GLU811  SER814 

> <Gold.Protein.RotatedAtoms>
  152.0822  134.9464  160.0573 H   0  0  0  0  0  0  0  0  0  0  0  0  # atno 6907 bound_to 6896
  152.0748  133.4119  159.4483 H   0  0  0  0  0  0  0  0  0  0  0  0  # atno 6908 bound_to 6896
  150.6836  134.2970  159.4734 H   0  0  0  0  0  0  0  0  0  0  0  0  # atno 6909 bound_to 6896
  146.1107  139.5844  142.9354 H   0  0  0  0  0  0  0  0  0  0  0  0  # atno 7974 bound_to 7965
  156.2992  140.2521  156.3252 H   0  0  0  0  0  0  0  0  0  0  0  0  # atno 8008 bound_to 7997
  154.9197  140.0401  157.2010 H   0  0  0  0  0  0  0  0  0  0  0  0  # atno 8009 bound_to 7997
  154.8323  140.2877  155.5718 H   0  0  0  0  0  0  0  0  0  0  0  0  # atno 8010 bound_to 7997
  139.4826  144.4830  151.8418 H   0  0  0  0  0  0  0  0  0  0  0  0  # atno 10167 bound_to 10162
  156.5207  130.4631  149.6598 H   0  0  0  0  0  0  0  0  0  0  0  0  # atno 10718 bound_to 10713
  154.4035  135.6025  153.5911 H   0  0  0  0  0  0  0  0  0  0  0  0  # atno 10763 bound_to 10752
  152.9788  135.5912  154.4156 H   0  0  0  0  0  0  0  0  0  0  0  0  # atno 10764 bound_to 10752
  154.3958  135.2842  155.2105 H   0  0  0  0  0  0  0  0  0  0  0  0  # atno 10765 bound_to 10752
  141.1447  133.8012  157.0408 H   0  0  0  0  0  0  0  0  0  0  0  0  # atno 11005 bound_to 11000
  145.5670  141.0398  143.2195 LP  0  0  0  0  0  0  0  0  0  0  0  0  # atno 17320 bound_to 7965
  144.7509  139.7197  143.7273 LP  0  0  0  0  0  0  0  0  0  0  0  0  # atno 17321 bound_to 7965
  140.4307  144.2119  150.5888 LP  0  0  0  0  0  0  0  0  0  0  0  0  # atno 17342 bound_to 10162
  140.4782  143.2388  151.8993 LP  0  0  0  0  0  0  0  0  0  0  0  0  # atno 17343 bound_to 10162
  156.3152  130.7251  151.2152 LP  0  0  0  0  0  0  0  0  0  0  0  0  # atno 17370 bound_to 10713
  157.7437  131.0470  150.4924 LP  0  0  0  0  0  0  0  0  0  0  0  0  # atno 17371 bound_to 10713
  140.0694  134.9711  157.1441 LP  0  0  0  0  0  0  0  0  0  0  0  0  # atno 17394 bound_to 11000
  140.3733  134.2367  155.7176 LP  0  0  0  0  0  0  0  0  0  0  0  0  # atno 17395 bound_to 11000

$$$$
