AV-unprocessed.smi:3254|AV-procd|sdf|12453|dock6
  -GOLD-   2272018353D 1   1.00000     0.00000
 Structure written by MMmdl.
 37 38  0  0  0  0  0  0  0  0  2 V2000
  150.3395  141.3705  157.5204 C   0  0  0  0  0  0  0  0  0  0  0  0
  151.4076  141.0188  156.4759 C   0  0  0  0  0  0  0  0  0  0  0  0
  150.9271  140.0071  155.5392 N   0  0  0  0  0  0  0  0  0  0  0  0
  151.6468  138.7566  155.3649 C   0  0  0  0  0  0  0  0  0  0  0  0
  150.7504  137.8833  154.4601 C   0  0  1  0  0  0  0  0  0  0  0  0
  150.1238  136.7040  155.2208 C   0  0  0  0  0  0  0  0  0  0  0  0
  150.3236  136.5697  156.4283 O   0  0  0  0  0  0  0  0  0  0  0  0
  149.3729  135.8595  154.4980 N   0  0  0  0  0  0  0  0  0  0  0  0
  148.6911  134.6765  155.0149 C   0  0  0  0  0  0  0  0  0  0  0  0
  148.4983  133.6187  153.9162 C   0  0  0  0  0  0  0  0  0  0  0  0
  147.0977  133.4813  153.5041 N   0  0  0  0  0  0  0  0  0  0  0  0
  146.5302  133.9152  152.3334 C   0  0  0  0  0  0  0  0  0  0  0  0
  145.2057  133.5649  152.3877 C   0  0  0  0  0  0  0  0  0  0  0  0
  145.0216  132.9287  153.5861 N   0  3  0  0  0  0  0  0  0  0  0  0
  146.1738  132.8764  154.2623 C   0  0  0  0  0  0  0  0  0  0  0  0
  149.6721  138.8434  153.9186 C   0  0  0  0  0  0  0  0  0  0  0  0
  149.8632  140.1106  154.7355 C   0  0  0  0  0  0  0  0  0  0  0  0
  149.1105  141.0795  154.6484 O   0  0  0  0  0  0  0  0  0  0  0  0
  150.7171  142.1092  158.2276 H   0  0  0  0  0  0  0  0  0  0  0  0
  150.0405  140.4890  158.0882 H   0  0  0  0  0  0  0  0  0  0  0  0
  149.4466  141.7866  157.0529 H   0  0  0  0  0  0  0  0  0  0  0  0
  151.7035  141.9143  155.9274 H   0  0  0  0  0  0  0  0  0  0  0  0
  152.3056  140.6542  156.9761 H   0  0  0  0  0  0  0  0  0  0  0  0
  152.6051  138.9556  154.8833 H   0  0  0  0  0  0  0  0  0  0  0  0
  151.8550  138.2984  156.3336 H   0  0  0  0  0  0  0  0  0  0  0  0
  151.3443  137.4951  153.6308 H   0  0  0  0  0  0  0  0  0  0  0  0
  149.2742  136.0477  153.5112 H   0  0  0  0  0  0  0  0  0  0  0  0
  149.2733  134.2674  155.8412 H   0  0  0  0  0  0  0  0  0  0  0  0
  147.7136  134.9376  155.4235 H   0  0  0  0  0  0  0  0  0  0  0  0
  149.0716  133.8920  153.0297 H   0  0  0  0  0  0  0  0  0  0  0  0
  148.8678  132.6458  154.2447 H   0  0  0  0  0  0  0  0  0  0  0  0
  147.0962  134.4284  151.5694 H   0  0  0  0  0  0  0  0  0  0  0  0
  144.4022  133.7154  151.6815 H   0  0  0  0  0  0  0  0  0  0  0  0
  146.3260  132.4337  155.2306 H   0  0  0  0  0  0  0  0  0  0  0  0
  149.8355  139.0641  152.8633 H   0  0  0  0  0  0  0  0  0  0  0  0
  148.6534  138.4682  154.0305 H   0  0  0  0  0  0  0  0  0  0  0  0
  144.1423  132.5485  153.9134 H   0  0  0  0  0  0  0  0  0  0  0  0
  1  2  1  0  0  0  0
  1 19  1  0  0  0  0
  1 20  1  0  0  0  0
  1 21  1  0  0  0  0
  2  3  1  0  0  0  0
  2 22  1  0  0  0  0
  2 23  1  0  0  0  0
  3 17  1  0  0  0  0
  3  4  1  0  0  0  0
  4  5  1  0  0  0  0
  4 24  1  0  0  0  0
  4 25  1  0  0  0  0
  5  6  1  0  0  0  0
  5 16  1  0  0  0  0
  5 26  1  0  0  0  0
  6  7  2  0  0  0  0
  6  8  1  0  0  0  0
  8  9  1  0  0  0  0
  8 27  1  0  0  0  0
  9 10  1  0  0  0  0
  9 28  1  0  0  0  0
  9 29  1  0  0  0  0
 10 11  1  0  0  0  0
 10 30  1  0  0  0  0
 10 31  1  0  0  0  0
 11 15  1  0  0  0  0
 11 12  1  0  0  0  0
 12 13  2  0  0  0  0
 12 32  1  0  0  0  0
 13 14  1  0  0  0  0
 13 33  1  0  0  0  0
 14 15  2  0  0  0  0
 14 37  1  0  0  0  0
 15 34  1  0  0  0  0
 16 17  1  0  0  0  0
 16 35  1  0  0  0  0
 16 36  1  0  0  0  0
 17 18  2  0  0  0  0
M  CHG  1  14   1
M  END
> <s_m_source_file>
AV-unprocessed.smi

> <i_m_source_file_index>
3254

> <i_lp_mmshare_version>
43012

> <i_f3d_flags>
0

> <s_epik_input>
W0NIM11bQ0gyXU4xW0NIMl1bQ0BIXShbQ0gyXUMxPU8pQyg9TylbTkhdW0NIMl1bQ0gyXW4yW2NIXVtjSF1uW2NIXTI=

> <s_epik_cmdline>
J2VwaWtfcHl0aG9uJywgJy1waCcsICc3LjAnLCAnLXRuJywgJzgnLCAnLW1hJywgJzIwMCcsICctbWV0YWxfYmluZGluZycsICctaW1hZScsICc8aW5maWxlLm1hZT4nLCAnLW9tYWUnLCAnPG91dGZpbGUubWFlPic=

> <r_lp_tautomer_probability>
1

> <r_epik_Ionization_Penalty>
0.274742

> <r_epik_Ionization_Penalty_Charging>
0

> <r_epik_Ionization_Penalty_Neutral>
0.274742

> <r_epik_State_Penalty>
0.267046

> <r_epik_Charging_Adjusted_Penalty>
0.267046

> <i_epik_Tot_Q>
1

> <i_epik_Tot_abs_Q>
1

> <r_epik_Metal_State_Penalty>
0.550456

> <b_epik_Metal_Only>
0

> <s_lp_Force_Field>
OPLS_2005

> <r_lp_Energy>
18.3055

> <b_lp_Chiralities_Consistent>
1

> <s_lp_Variant>
AV-unprocessed.smi:3254-1

> <Gold.Version>
5.8.1

> <Gold.Id.Protein>
6NUR|6NUR_protein|mol2

> <Gold.PLP.Fitness>
41.1210

> <Gold.PLP.PLP>
-30.5510

> <Gold.PLP.part.hbond>
-2.2558

> <Gold.PLP.part.metal>
0.0000

> <Gold.PLP.part.buried>
-3.4078

> <Gold.PLP.part.nonpolar>
-25.2910

> <Gold.PLP.part.repulsive>
0.1663

> <Gold.PLP.ligand.clash>
0.0000

> <Gold.PLP.ligand.torsion>
0.7249

> <Gold.PLP.Chemscore.Hbond>
3.0000

> <Gold.PLP.Chemscore.CHOScore>
1.0000

> <Gold.PLP.Chemscore.Metal>
0.0000

> <Gold.Chemscore.Hbonds>
donor molecule, donor type, donor heavy atom, donor atom, acceptor molecule, acceptor atom, score
      L1  H     8    27       P1  7948  1.00
      L1  H    14    37       P1 10957  2.00
      L1  C    12    32       P1  7948  0.95

> <Gold.PLP.Chemscore.Internal.Correction>
0.0199

> <Gold.Rescore>
     Score         DG    S(hbond)    S(metal)    S(lipo)     H(rot)  DE(clash)    DE(int)     intcor
     10.68     -11.48       1.87        0.00      47.72       2.28       0.02       0.78       ----

> <Gold.Chemscore.Fitness>
10.6829

> <Gold.Chemscore.DG>
-11.4792

> <Gold.Chemscore.ZeroCoef>
-5.4800

> <Gold.Chemscore.Hbond>
1.8702

> <Gold.Chemscore.Metal>
0.0000

> <Gold.Chemscore.Lipo>
47.7232

> <Gold.Chemscore.Internal_Hbond>
0.0000

> <Gold.Chemscore.DEClash>
0.0183

> <Gold.Chemscore.DEInternal>
0.7781

> <Gold.Chemscore.Rot>
2.2776

> <Gold.Chemscore.Internal.Correction>
   9.000000E+99

> <Gold.Chemscore.Hbonds>
donor molecule, donor type, donor heavy atom, donor atom, acceptor molecule, acceptor atom, score
      L1  H     8    27       P1  7948  0.74
      L1  H    14    37       P1 10957  0.60

> <Gold.Chemscore.Hbond.Weighted>
-6.2464

> <Gold.Chemscore.Metal.Weighted>
-0.0000

> <Gold.Chemscore.Lipo.Weighted>
-5.5836

> <Gold.Chemscore.Internal_Hbond.Weighted>
0.0000

> <Gold.Chemscore.DEClash.Weighted>
0.0183

> <Gold.Chemscore.DEInternal.Weighted>
0.7781

> <Gold.Chemscore.Rot.Weighted>
5.8307

> <Gold.Chemscore.Internal.Correction.Weighted>
   9.000000E+99

> <Gold.Protein.RotatedTorsions>
[ 6907 6896 6895 6894 ] final -123.61 input  -60.11 | X-H torsion
[ 7974 7965 7964 7962 ] final -105.66 input  175.53 | X-H torsion
[ 8008 7997 7996 7995 ] final   26.54 input   59.86 | X-H torsion
[ 10167 10162 10161 10158 ] final  -56.49 input  -65.29 | X-H torsion
[ 10718 10713 10712 10709 ] final   10.02 input   66.30 | X-H torsion
[ 10763 10752 10751 10750 ] final  -93.13 input  -60.55 | X-H torsion
[ 11005 11000 10999 10996 ] final   -6.64 input  -57.11 | X-H torsion

> <Gold.Protein.ActiveResidues>
 VAL166  LYS551  ARG553  GLY616  TRP617  ASP618  TYR619  PRO620  LYS621  CYS622 
 ASP623  PHE694  ASN695  SER759  ASP760  ASP761  ALA762  ILE779  LEU786  VAL792 
 PHE793  MET794  SER795  GLU796  ALA797  LYS798  CYS799  TRP800  GLU811  SER814 

> <Gold.Protein.RotatedAtoms>
  150.8688  133.7536  159.2967 H   0  0  0  0  0  0  0  0  0  0  0  0  # atno 6907 bound_to 6896
  151.5155  135.1064  159.9874 H   0  0  0  0  0  0  0  0  0  0  0  0  # atno 6908 bound_to 6896
  152.4680  133.7921  159.6963 H   0  0  0  0  0  0  0  0  0  0  0  0  # atno 6909 bound_to 6896
  145.2277  140.9158  143.3223 H   0  0  0  0  0  0  0  0  0  0  0  0  # atno 7974 bound_to 7965
  155.0288  140.3156  155.4766 H   0  0  0  0  0  0  0  0  0  0  0  0  # atno 8008 bound_to 7997
  156.2878  140.2184  156.5351 H   0  0  0  0  0  0  0  0  0  0  0  0  # atno 8009 bound_to 7997
  154.7388  140.0475  157.0780 H   0  0  0  0  0  0  0  0  0  0  0  0  # atno 8010 bound_to 7997
  140.6314  143.2461  151.5232 H   0  0  0  0  0  0  0  0  0  0  0  0  # atno 10167 bound_to 10162
  156.9748  130.5983  149.5671 H   0  0  0  0  0  0  0  0  0  0  0  0  # atno 10718 bound_to 10713
  154.6929  135.5205  153.8418 H   0  0  0  0  0  0  0  0  0  0  0  0  # atno 10763 bound_to 10752
  153.0646  135.6580  154.0394 H   0  0  0  0  0  0  0  0  0  0  0  0  # atno 10764 bound_to 10752
  154.0265  135.2989  155.3354 H   0  0  0  0  0  0  0  0  0  0  0  0  # atno 10765 bound_to 10752
  140.7041  133.8964  155.8704 H   0  0  0  0  0  0  0  0  0  0  0  0  # atno 11005 bound_to 11000
  144.9706  139.3884  143.6311 LP  0  0  0  0  0  0  0  0  0  0  0  0  # atno 17320 bound_to 7965
  146.3361  139.8802  142.8825 LP  0  0  0  0  0  0  0  0  0  0  0  0  # atno 17321 bound_to 7965
  139.5527  144.2353  152.1559 LP  0  0  0  0  0  0  0  0  0  0  0  0  # atno 17342 bound_to 10162
  140.1598  144.5037  150.6639 LP  0  0  0  0  0  0  0  0  0  0  0  0  # atno 17343 bound_to 10162
  156.0268  130.5361  150.8428 LP  0  0  0  0  0  0  0  0  0  0  0  0  # atno 17370 bound_to 10713
  157.5567  131.0945  150.9618 LP  0  0  0  0  0  0  0  0  0  0  0  0  # atno 17371 bound_to 10713
  141.0139  134.0982  157.4192 LP  0  0  0  0  0  0  0  0  0  0  0  0  # atno 17394 bound_to 11000
  139.8889  135.0101  156.6646 LP  0  0  0  0  0  0  0  0  0  0  0  0  # atno 17395 bound_to 11000

$$$$
