AV-unprocessed.smi:483|AV-procd|sdf|2686|dock9
  -GOLD-   2262023113D 1   1.00000     0.00000
 Structure written by MMmdl.
 44 44  0  0  0  0  0  0  0  0  1 V2000
  149.6668  132.9129  155.1552 C   0  0  0  0  0  0  0  0  0  0  0  0
  149.2957  134.3293  154.6905 C   0  0  0  0  0  0  0  0  0  0  0  0
  150.1331  135.4482  155.3374 C   0  0  0  0  0  0  0  0  0  0  0  0
  149.9301  136.7315  154.6721 N   0  0  0  0  0  0  0  0  0  0  0  0
  149.8255  137.9188  155.2888 C   0  0  0  0  0  0  0  0  0  0  0  0
  149.8255  138.0480  156.5142 O   0  0  0  0  0  0  0  0  0  0  0  0
  149.7402  139.1531  154.3766 C   0  0  1  0  0  0  0  0  0  0  0  0
  148.2829  139.6430  154.3270 C   0  0  0  0  0  0  0  0  0  0  0  0
  150.5639  140.2172  154.9462 N   0  0  0  0  0  0  0  0  0  0  0  0
  150.2662  140.9000  156.0634 C   0  0  0  0  0  0  0  0  0  0  0  0
  149.3157  140.6165  156.7939 O   0  0  0  0  0  0  0  0  0  0  0  0
  151.1743  142.0895  156.4013 C   0  0  0  0  0  0  0  0  0  0  0  0
  151.7723  141.9624  157.7385 N   0  0  0  0  0  0  0  0  0  0  0  0
  151.6071  143.0746  158.5408 N   0  0  0  0  0  0  0  0  0  0  0  0
  152.1272  143.1349  159.7225 C   0  0  0  0  0  0  0  0  0  0  0  0
  151.8891  144.4001  160.5019 C   0  0  0  0  0  0  0  0  0  0  0  0
  152.9010  142.0066  160.2311 C   0  0  0  0  0  0  0  0  0  0  0  0
  153.4975  142.1381  161.6257 C   0  0  0  0  0  0  0  0  0  0  0  0
  153.0440  140.9144  159.4395 C   0  0  0  0  0  0  0  0  0  0  0  0
  153.7908  139.7680  159.8462 C   0  0  0  0  0  0  0  0  0  0  0  0
  154.3936  138.8299  160.1571 N   0  0  0  0  0  0  0  0  0  0  0  0
  152.4490  140.8349  158.1041 C   0  0  0  0  0  0  0  0  0  0  0  0
  152.5496  139.8536  157.3657 O   0  0  0  0  0  0  0  0  0  0  0  0
  148.9929  132.1729  154.7230 H   0  0  0  0  0  0  0  0  0  0  0  0
  149.6069  132.8240  156.2401 H   0  0  0  0  0  0  0  0  0  0  0  0
  150.6790  132.6465  154.8524 H   0  0  0  0  0  0  0  0  0  0  0  0
  149.3868  134.3860  153.6052 H   0  0  0  0  0  0  0  0  0  0  0  0
  148.2434  134.5073  154.9145 H   0  0  0  0  0  0  0  0  0  0  0  0
  149.8373  135.5638  156.3801 H   0  0  0  0  0  0  0  0  0  0  0  0
  151.1881  135.1695  155.3520 H   0  0  0  0  0  0  0  0  0  0  0  0
  149.9253  136.7235  153.6624 H   0  0  0  0  0  0  0  0  0  0  0  0
  150.0774  138.9107  153.3665 H   0  0  0  0  0  0  0  0  0  0  0  0
  147.6215  138.8730  153.9276 H   0  0  0  0  0  0  0  0  0  0  0  0
  148.1895  140.5169  153.6816 H   0  0  0  0  0  0  0  0  0  0  0  0
  147.9104  139.9234  155.3135 H   0  0  0  0  0  0  0  0  0  0  0  0
  151.3641  140.5126  154.4060 H   0  0  0  0  0  0  0  0  0  0  0  0
  151.9509  142.1518  155.6369 H   0  0  0  0  0  0  0  0  0  0  0  0
  150.6147  143.0246  156.3320 H   0  0  0  0  0  0  0  0  0  0  0  0
  151.3164  144.1947  161.4063 H   0  0  0  0  0  0  0  0  0  0  0  0
  151.3339  145.1379  159.9206 H   0  0  0  0  0  0  0  0  0  0  0  0
  152.8339  144.8582  160.7954 H   0  0  0  0  0  0  0  0  0  0  0  0
  154.0005  141.2267  161.9468 H   0  0  0  0  0  0  0  0  0  0  0  0
  152.7199  142.3556  162.3585 H   0  0  0  0  0  0  0  0  0  0  0  0
  154.2305  142.9451  161.6517 H   0  0  0  0  0  0  0  0  0  0  0  0
  1  2  1  0  0  0  0
  1 24  1  0  0  0  0
  1 25  1  0  0  0  0
  1 26  1  0  0  0  0
  2  3  1  0  0  0  0
  2 27  1  0  0  0  0
  2 28  1  0  0  0  0
  3  4  1  0  0  0  0
  3 29  1  0  0  0  0
  3 30  1  0  0  0  0
  4  5  1  0  0  0  0
  4 31  1  0  0  0  0
  5  6  2  0  0  0  0
  5  7  1  0  0  0  0
  7  8  1  0  0  0  0
  7  9  1  0  0  0  0
  7 32  1  0  0  0  0
  8 33  1  0  0  0  0
  8 34  1  0  0  0  0
  8 35  1  0  0  0  0
  9 10  1  0  0  0  0
  9 36  1  0  0  0  0
 10 11  2  0  0  0  0
 10 12  1  0  0  0  0
 12 13  1  0  0  0  0
 12 37  1  0  0  0  0
 12 38  1  0  0  0  0
 13 22  1  0  0  0  0
 13 14  1  0  0  0  0
 14 15  2  0  0  0  0
 15 16  1  0  0  0  0
 15 17  1  0  0  0  0
 16 39  1  0  0  0  0
 16 40  1  0  0  0  0
 16 41  1  0  0  0  0
 17 18  1  0  0  0  0
 17 19  2  0  0  0  0
 18 42  1  0  0  0  0
 18 43  1  0  0  0  0
 18 44  1  0  0  0  0
 19 20  1  0  0  0  0
 19 22  1  0  0  0  0
 20 21  3  0  0  0  0
 22 23  2  0  0  0  0
M  END
> <s_m_source_file>
AV-unprocessed.smi

> <i_m_source_file_index>
483

> <i_lp_mmshare_version>
43012

> <i_f3d_flags>
0

> <s_epik_input>
W0NIM11bQ0gyXVtDSDJdW05IXUMoPU8pW0NASF0oW0NIM10pW05IXUMoPU8pW0NIMl1uMW5jKFtDSDNdKWMoW0NIM10pYyhDI04pYzE9Tw==

> <s_epik_cmdline>
J2VwaWtfcHl0aG9uJywgJy1waCcsICc3LjAnLCAnLXRuJywgJzgnLCAnLW1hJywgJzIwMCcsICctbWV0YWxfYmluZGluZycsICctaW1hZScsICc8aW5maWxlLm1hZT4nLCAnLW9tYWUnLCAnPG91dGZpbGUubWFlPic=

> <r_lp_tautomer_probability>
1

> <r_epik_Ionization_Penalty>
5.96698e-08

> <r_epik_Ionization_Penalty_Charging>
1.88177e-11

> <r_epik_Ionization_Penalty_Neutral>
5.9651e-08

> <r_epik_State_Penalty>
-0

> <r_epik_Charging_Adjusted_Penalty>
1.88177e-11

> <i_epik_Tot_Q>
0

> <i_epik_Tot_abs_Q>
0

> <r_epik_Metal_State_Penalty>
-0

> <b_epik_Metal_Only>
0

> <s_lp_Force_Field>
OPLS_2005

> <r_lp_Energy>
18.0289

> <b_lp_Chiralities_Consistent>
1

> <s_lp_Variant>
AV-unprocessed.smi:483-2

> <Gold.Version>
5.8.1

> <Gold.Id.Protein>
6NUR|6NUR_protein|mol2

> <Gold.PLP.Fitness>
44.6827

> <Gold.PLP.PLP>
-40.4941

> <Gold.PLP.part.hbond>
-2.0000

> <Gold.PLP.part.metal>
0.0000

> <Gold.PLP.part.buried>
-7.3337

> <Gold.PLP.part.nonpolar>
-32.9612

> <Gold.PLP.part.repulsive>
1.4770

> <Gold.PLP.ligand.clash>
0.0000

> <Gold.PLP.ligand.torsion>
0.8675

> <Gold.PLP.Chemscore.Hbond>
1.9516

> <Gold.PLP.Chemscore.CHOScore>
0.0000

> <Gold.PLP.Chemscore.Metal>
0.0000

> <Gold.Chemscore.Hbonds>
donor molecule, donor type, donor heavy atom, donor atom, acceptor molecule, acceptor atom, score
      L1  H     4    31       P1  7948  0.91
      P1  H  7997  8010       L1    23  1.00

> <Gold.PLP.Chemscore.Internal.Correction>
0.0687

> <Gold.Rescore>
     Score         DG    S(hbond)    S(metal)    S(lipo)     H(rot)  DE(clash)    DE(int)     intcor
      6.47     -12.70       0.91        0.00      87.86       2.38       0.01       6.22       ----

> <Gold.Chemscore.Fitness>
6.4739

> <Gold.Chemscore.DG>
-12.7018

> <Gold.Chemscore.ZeroCoef>
-5.4800

> <Gold.Chemscore.Hbond>
0.9075

> <Gold.Chemscore.Metal>
0.0000

> <Gold.Chemscore.Lipo>
87.8598

> <Gold.Chemscore.Internal_Hbond>
0.0000

> <Gold.Chemscore.DEClash>
0.0106

> <Gold.Chemscore.DEInternal>
6.2173

> <Gold.Chemscore.Rot>
2.3785

> <Gold.Chemscore.Internal.Correction>
   9.000000E+99

> <Gold.Chemscore.Hbonds>
donor molecule, donor type, donor heavy atom, donor atom, acceptor molecule, acceptor atom, score
      L1  H     4    31       P1  7948  0.29
      P1  H  7997  8010       L1    23  0.25

> <Gold.Chemscore.Hbond.Weighted>
-3.0312

> <Gold.Chemscore.Metal.Weighted>
-0.0000

> <Gold.Chemscore.Lipo.Weighted>
-10.2796

> <Gold.Chemscore.Internal_Hbond.Weighted>
0.0000

> <Gold.Chemscore.DEClash.Weighted>
0.0106

> <Gold.Chemscore.DEInternal.Weighted>
6.2173

> <Gold.Chemscore.Rot.Weighted>
6.0890

> <Gold.Chemscore.Internal.Correction.Weighted>
   9.000000E+99

> <Gold.Protein.RotatedTorsions>
[ 6907 6896 6895 6894 ] final -154.30 input  -60.11 | X-H torsion
[ 7974 7965 7964 7962 ] final -102.25 input  175.53 | X-H torsion
[ 8008 7997 7996 7995 ] final   54.30 input   59.86 | X-H torsion
[ 10167 10162 10161 10158 ] final  158.52 input  -65.29 | X-H torsion
[ 10718 10713 10712 10709 ] final  172.07 input   66.30 | X-H torsion
[ 10763 10752 10751 10750 ] final   88.82 input  -60.55 | X-H torsion
[ 11005 11000 10999 10996 ] final  -78.45 input  -57.11 | X-H torsion

> <Gold.Protein.ActiveResidues>
 VAL166  LYS551  ARG553  GLY616  TRP617  ASP618  TYR619  PRO620  LYS621  CYS622 
 ASP623  PHE694  ASN695  SER759  ASP760  ASP761  ALA762  ILE779  LEU786  VAL792 
 PHE793  MET794  SER795  GLU796  ALA797  LYS798  CYS799  TRP800  GLU811  SER814 

> <Gold.Protein.RotatedAtoms>
  151.2555  133.4328  159.2613 H   0  0  0  0  0  0  0  0  0  0  0  0  # atno 6907 bound_to 6896
  151.0578  134.9717  159.8255 H   0  0  0  0  0  0  0  0  0  0  0  0  # atno 6908 bound_to 6896
  152.5393  134.2506  159.8950 H   0  0  0  0  0  0  0  0  0  0  0  0  # atno 6909 bound_to 6896
  145.2712  140.9299  143.2985 H   0  0  0  0  0  0  0  0  0  0  0  0  # atno 7974 bound_to 7965
  155.4825  140.3469  155.4342 H   0  0  0  0  0  0  0  0  0  0  0  0  # atno 8008 bound_to 7997
  156.1030  140.1440  156.9471 H   0  0  0  0  0  0  0  0  0  0  0  0  # atno 8009 bound_to 7997
  154.4706  140.0902  156.7112 H   0  0  0  0  0  0  0  0  0  0  0  0  # atno 8010 bound_to 7997
  139.4827  144.4816  151.8436 H   0  0  0  0  0  0  0  0  0  0  0  0  # atno 10167 bound_to 10162
  156.9843  131.0128  151.2873 H   0  0  0  0  0  0  0  0  0  0  0  0  # atno 10718 bound_to 10713
  153.1808  135.4493  155.0025 H   0  0  0  0  0  0  0  0  0  0  0  0  # atno 10763 bound_to 10752
  154.8028  135.3262  154.7509 H   0  0  0  0  0  0  0  0  0  0  0  0  # atno 10764 bound_to 10752
  153.7973  135.6965  153.4916 H   0  0  0  0  0  0  0  0  0  0  0  0  # atno 10765 bound_to 10752
  141.1665  133.7063  156.7973 H   0  0  0  0  0  0  0  0  0  0  0  0  # atno 11005 bound_to 11000
  144.9334  139.4272  143.6484 LP  0  0  0  0  0  0  0  0  0  0  0  0  # atno 17320 bound_to 7965
  146.3246  139.8256  142.8918 LP  0  0  0  0  0  0  0  0  0  0  0  0  # atno 17321 bound_to 7965
  140.4293  144.2138  150.5887 LP  0  0  0  0  0  0  0  0  0  0  0  0  # atno 17342 bound_to 10162
  140.4796  143.2384  151.8975 LP  0  0  0  0  0  0  0  0  0  0  0  0  # atno 17343 bound_to 10162
  157.5504  130.8178  149.8138 LP  0  0  0  0  0  0  0  0  0  0  0  0  # atno 17370 bound_to 10713
  156.0232  130.3788  150.1900 LP  0  0  0  0  0  0  0  0  0  0  0  0  # atno 17371 bound_to 10713
  140.2282  134.8706  157.3449 LP  0  0  0  0  0  0  0  0  0  0  0  0  # atno 17394 bound_to 11000
  140.1918  134.4362  155.7711 LP  0  0  0  0  0  0  0  0  0  0  0  0  # atno 17395 bound_to 11000

$$$$
