AV-unprocessed.smi:1680|AV-procd|sdf|6737|dock4
  -GOLD-   22720 7483D 1   1.00000     0.00000
 Structure written by MMmdl.
 38 39  0  0  0  0  0  0  0  0  1 V2000
  152.2521  137.2233  157.8883 C   0  0  0  0  0  0  0  0  0  0  0  0
  151.8572  137.1234  156.4134 C   0  0  0  0  0  0  0  0  0  0  0  0
  151.5700  136.0131  155.9656 O   0  0  0  0  0  0  0  0  0  0  0  0
  151.8384  138.2460  155.6564 N   0  0  0  0  0  0  0  0  0  0  0  0
  152.1022  139.6084  156.1303 C   0  0  0  0  0  0  0  0  0  0  0  0
  150.8177  140.4462  155.9783 C   0  0  0  0  0  0  0  0  0  0  0  0
  150.3941  140.4711  154.5756 N   0  0  0  0  0  0  0  0  0  0  0  0
  149.1982  141.3030  154.4408 C   0  0  0  0  0  0  0  0  0  0  0  0
  148.1098  140.9730  155.4838 C   0  0  0  0  0  0  0  0  0  0  0  0
  147.9119  142.0715  156.4250 N   0  0  0  0  0  0  0  0  0  0  0  0
  147.3263  141.9665  157.6271 C   0  0  0  0  0  0  0  0  0  0  0  0
  146.9166  140.9033  158.0942 O   0  0  0  0  0  0  0  0  0  0  0  0
  147.2475  143.1636  158.2345 N   0  0  0  0  0  0  0  0  0  0  0  0
  146.6609  143.4766  159.4892 C   0  0  0  0  0  0  0  0  0  0  0  0
  146.6267  142.6276  160.5282 N   0  0  0  0  0  0  0  0  0  0  0  0
  145.9915  143.1820  161.6318 N   0  0  0  0  0  0  0  0  0  0  0  0
  145.5712  144.4253  161.3817 C   0  0  0  0  0  0  0  0  0  0  0  0
  145.9141  145.0420  159.7748 S   0  0  0  0  0  0  0  0  0  0  0  0
  150.1549  139.1028  154.1003 C   0  0  0  0  0  0  0  0  0  0  0  0
  151.4363  138.2601  154.2471 C   0  0  0  0  0  0  0  0  0  0  0  0
  151.5606  137.8688  158.4305 H   0  0  0  0  0  0  0  0  0  0  0  0
  153.2635  137.6176  157.9918 H   0  0  0  0  0  0  0  0  0  0  0  0
  152.2285  136.2403  158.3599 H   0  0  0  0  0  0  0  0  0  0  0  0
  152.4405  139.6529  157.1643 H   0  0  0  0  0  0  0  0  0  0  0  0
  152.9082  140.0446  155.5376 H   0  0  0  0  0  0  0  0  0  0  0  0
  150.0226  140.0392  156.6054 H   0  0  0  0  0  0  0  0  0  0  0  0
  151.0085  141.4642  156.3202 H   0  0  0  0  0  0  0  0  0  0  0  0
  149.4743  142.3566  154.5024 H   0  0  0  0  0  0  0  0  0  0  0  0
  148.7692  141.1555  153.4487 H   0  0  0  0  0  0  0  0  0  0  0  0
  147.1713  140.6723  155.0174 H   0  0  0  0  0  0  0  0  0  0  0  0
  148.4343  140.1092  156.0641 H   0  0  0  0  0  0  0  0  0  0  0  0
  148.2199  142.9847  156.1248 H   0  0  0  0  0  0  0  0  0  0  0  0
  147.6329  143.9480  157.7299 H   0  0  0  0  0  0  0  0  0  0  0  0
  145.0562  144.9834  162.1495 H   0  0  0  0  0  0  0  0  0  0  0  0
  149.3375  138.6471  154.6613 H   0  0  0  0  0  0  0  0  0  0  0  0
  149.8590  139.1096  153.0522 H   0  0  0  0  0  0  0  0  0  0  0  0
  152.2398  138.6857  153.6437 H   0  0  0  0  0  0  0  0  0  0  0  0
  151.2606  137.2597  153.8492 H   0  0  0  0  0  0  0  0  0  0  0  0
  1  2  1  0  0  0  0
  1 21  1  0  0  0  0
  1 22  1  0  0  0  0
  1 23  1  0  0  0  0
  2  3  2  0  0  0  0
  2  4  1  0  0  0  0
  4 20  1  0  0  0  0
  4  5  1  0  0  0  0
  5  6  1  0  0  0  0
  5 24  1  0  0  0  0
  5 25  1  0  0  0  0
  6  7  1  0  0  0  0
  6 26  1  0  0  0  0
  6 27  1  0  0  0  0
  7  8  1  0  0  0  0
  7 19  1  0  0  0  0
  8  9  1  0  0  0  0
  8 28  1  0  0  0  0
  8 29  1  0  0  0  0
  9 10  1  0  0  0  0
  9 30  1  0  0  0  0
  9 31  1  0  0  0  0
 10 11  1  0  0  0  0
 10 32  1  0  0  0  0
 11 12  2  0  0  0  0
 11 13  1  0  0  0  0
 13 14  1  0  0  0  0
 13 33  1  0  0  0  0
 14 18  1  0  0  0  0
 14 15  2  0  0  0  0
 15 16  1  0  0  0  0
 16 17  2  0  0  0  0
 17 18  1  0  0  0  0
 17 34  1  0  0  0  0
 19 20  1  0  0  0  0
 19 35  1  0  0  0  0
 19 36  1  0  0  0  0
 20 37  1  0  0  0  0
 20 38  1  0  0  0  0
M  END
> <s_m_source_file>
AV-unprocessed.smi

> <i_m_source_file_index>
1680

> <i_lp_mmshare_version>
43012

> <i_f3d_flags>
0

> <s_epik_input>
W0NIM11DKD1PKU4xW0NIMl1bQ0gyXU4oW0NIMl1bQ0gyXTEpW0NIMl1bQ0gyXVtOSF1DKD1PKVtOSF1jMm5uW2NIXXMy

> <s_epik_cmdline>
J2VwaWtfcHl0aG9uJywgJy1waCcsICc3LjAnLCAnLXRuJywgJzgnLCAnLW1hJywgJzIwMCcsICctbWV0YWxfYmluZGluZycsICctaW1hZScsICc8aW5maWxlLm1hZT4nLCAnLW9tYWUnLCAnPG91dGZpbGUubWFlPic=

> <r_lp_tautomer_probability>
1

> <r_epik_Ionization_Penalty>
0.229992

> <r_epik_Ionization_Penalty_Charging>
0

> <r_epik_Ionization_Penalty_Neutral>
0.229992

> <r_epik_State_Penalty>
0.219013

> <r_epik_Charging_Adjusted_Penalty>
0.219013

> <i_epik_Tot_Q>
0

> <i_epik_Tot_abs_Q>
0

> <r_epik_Metal_State_Penalty>
0.556868

> <b_epik_Metal_Only>
0

> <s_lp_Force_Field>
OPLS_2005

> <r_lp_Energy>
36.5244

> <b_lp_Chiralities_Consistent>
1

> <s_lp_Variant>
AV-unprocessed.smi:1680-1

> <Gold.Version>
5.8.1

> <Gold.Id.Protein>
6NUR|6NUR_protein|mol2

> <Gold.PLP.Fitness>
45.4291

> <Gold.PLP.PLP>
-31.6662

> <Gold.PLP.part.hbond>
-6.8976

> <Gold.PLP.part.metal>
0.0000

> <Gold.PLP.part.buried>
-3.0904

> <Gold.PLP.part.nonpolar>
-21.6950

> <Gold.PLP.part.repulsive>
0.2626

> <Gold.PLP.ligand.clash>
0.0000

> <Gold.PLP.ligand.torsion>
0.7850

> <Gold.PLP.Chemscore.Hbond>
5.1050

> <Gold.PLP.Chemscore.CHOScore>
0.0000

> <Gold.PLP.Chemscore.Metal>
0.0000

> <Gold.Chemscore.Hbonds>
donor molecule, donor type, donor heavy atom, donor atom, acceptor molecule, acceptor atom, score
      L1  H    10    32       P1  8028  1.00
      L1  H    13    33       P1  8029  0.48
      P1  H  6933  6944       L1    15  0.56
      P1  H  6934  6946       L1    15  1.00
      P1  H  7989  7998       L1     7  0.89
      P1  H 10752 10765       L1     3  1.00

> <Gold.PLP.Chemscore.Internal.Correction>
0.0179

> <Gold.Rescore>
     Score         DG    S(hbond)    S(metal)    S(lipo)     H(rot)  DE(clash)    DE(int)     intcor
     15.77     -17.58       3.03        0.00      56.11       1.79       0.14       1.67       ----

> <Gold.Chemscore.Fitness>
15.7696

> <Gold.Chemscore.DG>
-17.5764

> <Gold.Chemscore.ZeroCoef>
-5.4800

> <Gold.Chemscore.Hbond>
3.0301

> <Gold.Chemscore.Metal>
0.0000

> <Gold.Chemscore.Lipo>
56.1086

> <Gold.Chemscore.Internal_Hbond>
0.0000

> <Gold.Chemscore.DEClash>
0.1369

> <Gold.Chemscore.DEInternal>
1.6699

> <Gold.Chemscore.Rot>
1.7926

> <Gold.Chemscore.Internal.Correction>
   9.000000E+99

> <Gold.Chemscore.Hbonds>
donor molecule, donor type, donor heavy atom, donor atom, acceptor molecule, acceptor atom, score
      L1  H    10    32       P1  8028  0.78
      L1  H    13    33       P1  8029  0.02
      P1  H  6933  6944       L1    15  0.08
      P1  H  6934  6946       L1    15  0.78
      P1  H  7989  7998       L1     7  0.13
      P1  H 10752 10765       L1     3  0.55

> <Gold.Chemscore.Hbond.Weighted>
-10.1207

> <Gold.Chemscore.Metal.Weighted>
-0.0000

> <Gold.Chemscore.Lipo.Weighted>
-6.5647

> <Gold.Chemscore.Internal_Hbond.Weighted>
0.0000

> <Gold.Chemscore.DEClash.Weighted>
0.1369

> <Gold.Chemscore.DEInternal.Weighted>
1.6699

> <Gold.Chemscore.Rot.Weighted>
4.5890

> <Gold.Chemscore.Internal.Correction.Weighted>
   9.000000E+99

> <Gold.Protein.RotatedTorsions>
[ 6907 6896 6895 6894 ] final  -87.40 input  -60.11 | X-H torsion
[ 7974 7965 7964 7962 ] final  -31.91 input  175.53 | X-H torsion
[ 8008 7997 7996 7995 ] final   26.67 input   59.86 | X-H torsion
[ 10167 10162 10161 10158 ] final -114.57 input  -65.29 | X-H torsion
[ 10718 10713 10712 10709 ] final  107.53 input   66.30 | X-H torsion
[ 10763 10752 10751 10750 ] final -170.82 input  -60.55 | X-H torsion
[ 11005 11000 10999 10996 ] final  137.51 input  -57.11 | X-H torsion

> <Gold.Protein.ActiveResidues>
 VAL166  LYS551  ARG553  GLY616  TRP617  ASP618  TYR619  PRO620  LYS621  CYS622 
 ASP623  PHE694  ASN695  SER759  ASP760  ASP761  ALA762  ILE779  LEU786  VAL792 
 PHE793  MET794  SER795  GLU796  ALA797  LYS798  CYS799  TRP800  GLU811  SER814 

> <Gold.Protein.RotatedAtoms>
  150.6866  134.2901  159.4662 H   0  0  0  0  0  0  0  0  0  0  0  0  # atno 6907 bound_to 6896
  152.0807  134.9470  160.0583 H   0  0  0  0  0  0  0  0  0  0  0  0  # atno 6908 bound_to 6896
  152.0824  133.4124  159.4544 H   0  0  0  0  0  0  0  0  0  0  0  0  # atno 6909 bound_to 6896
  146.1031  140.5727  142.8812 H   0  0  0  0  0  0  0  0  0  0  0  0  # atno 7974 bound_to 7965
  155.0308  140.3158  155.4759 H   0  0  0  0  0  0  0  0  0  0  0  0  # atno 8008 bound_to 7997
  156.2874  140.2180  156.5372 H   0  0  0  0  0  0  0  0  0  0  0  0  # atno 8009 bound_to 7997
  154.7372  140.0476  157.0767 H   0  0  0  0  0  0  0  0  0  0  0  0  # atno 8010 bound_to 7997
  140.0995  143.4626  152.1821 H   0  0  0  0  0  0  0  0  0  0  0  0  # atno 10167 bound_to 10162
  157.6624  131.0874  150.6170 H   0  0  0  0  0  0  0  0  0  0  0  0  # atno 10718 bound_to 10713
  154.6373  135.2894  155.0145 H   0  0  0  0  0  0  0  0  0  0  0  0  # atno 10763 bound_to 10752
  154.1284  135.6537  153.4921 H   0  0  0  0  0  0  0  0  0  0  0  0  # atno 10764 bound_to 10752
  153.0309  135.5304  154.7225 H   0  0  0  0  0  0  0  0  0  0  0  0  # atno 10765 bound_to 10752
  140.0119  134.9435  157.0295 H   0  0  0  0  0  0  0  0  0  0  0  0  # atno 11005 bound_to 11000
  144.7448  140.5040  143.6843 LP  0  0  0  0  0  0  0  0  0  0  0  0  # atno 17320 bound_to 7965
  145.5815  139.1489  143.3232 LP  0  0  0  0  0  0  0  0  0  0  0  0  # atno 17321 bound_to 7965
  139.5679  144.7446  151.3971 LP  0  0  0  0  0  0  0  0  0  0  0  0  # atno 17342 bound_to 10162
  140.6985  143.7689  150.7365 LP  0  0  0  0  0  0  0  0  0  0  0  0  # atno 17343 bound_to 10162
  156.6472  130.4475  149.5732 LP  0  0  0  0  0  0  0  0  0  0  0  0  # atno 17370 bound_to 10713
  156.2165  130.6711  151.1324 LP  0  0  0  0  0  0  0  0  0  0  0  0  # atno 17371 bound_to 10713
  140.4540  134.1553  155.7184 LP  0  0  0  0  0  0  0  0  0  0  0  0  # atno 17394 bound_to 11000
  141.1716  133.8596  157.1551 LP  0  0  0  0  0  0  0  0  0  0  0  0  # atno 17395 bound_to 11000

$$$$
