#       Name:                AV-unprocessed.smi:2008
#       Creating user name   scv26
#       Creation time:       Fri Mar 27 10:38:00 2020


#       File generated by GOLD software.
#

@<TRIPOS>MOLECULE
AV-unprocessed.smi:2008
    51    52     1
SMALL
NO_CHARGES


@<TRIPOS>ATOM
      1 ****        -6.9151   4.1796   0.3387 C.3            1 S1                 0.0000
      2 ****        -7.0903   2.8695   0.8674 O.3            1 S1                 0.0000
      3 ****        -6.0059   2.0162   0.8742 C.ar           1 S1                 0.0000
      4 ****        -6.1728   0.7171   1.3933 C.ar           1 S1                 0.0000
      5 ****        -5.0689  -0.1561   1.4029 C.ar           1 S1                 0.0000
      6 ****        -3.8296   0.2942   0.9045 C.ar           1 S1                 0.0000
      7 ****        -2.7366  -0.6145   0.9167 N.am           1 S1                 0.0000
      8 ****        -1.4214  -0.3434   0.8561 C.2            1 S1                 0.0000
      9 ****        -0.9260   0.7799   0.7670 O.2            1 S1                 0.0000
     10 ****        -0.6896  -1.4651   0.9214 N.am           1 S1                 0.0000
     11 ****         0.7682  -1.5085   0.9123 C.3            1 S1                 0.0000
     12 ****         1.3280  -1.3371  -0.5137 C.3            1 S1                 0.0000
     13 ****         2.8117  -1.4347  -0.5830 N.4            1 S1                 1.0000
     14 ****         3.2917  -1.6076  -1.9810 C.3            1 S1                 0.0000
     15 ****         4.7956  -1.9205  -2.0255 C.3            1 S1                 0.0000
     16 ****         5.6038  -0.8360  -1.3061 C.3            1 S1                 0.0000
     17 ****         5.0819  -0.6661   0.1269 C.3            1 S1                 0.0000
     18 ****         3.5654  -0.3797   0.1674 C.3            1 S1                 0.0000
     19 ****         3.2329   1.0597  -0.2820 C.3            1 S1                 0.0000
     20 ****        -3.7671   1.6133   0.3922 C.ar           1 S1                 0.0000
     21 ****        -4.8227   2.4548   0.3783 N.ar           1 S1                 0.0000
     22 ****        -7.8600   4.7202   0.3918 H              1 S1                 0.0000
     23 ****        -6.6103   4.1506  -0.7085 H              1 S1                 0.0000
     24 ****        -6.1777   4.7444   0.9109 H              1 S1                 0.0000
     25 ****        -7.1303   0.3963   1.7762 H              1 S1                 0.0000
     26 ****        -5.1746  -1.1576   1.7938 H              1 S1                 0.0000
     27 ****        -2.9839  -1.5832   1.0573 H              1 S1                 0.0000
     28 ****        -1.1743  -2.3478   0.9976 H              1 S1                 0.0000
     29 ****         1.1423  -0.7382   1.5869 H              1 S1                 0.0000
     30 ****         1.0842  -2.4670   1.3249 H              1 S1                 0.0000
     31 ****         0.9021  -2.1267  -1.1346 H              1 S1                 0.0000
     32 ****         0.9925  -0.4000  -0.9583 H              1 S1                 0.0000
     33 ****         2.7508  -2.4276  -2.4549 H              1 S1                 0.0000
     34 ****         3.0713  -0.7138  -2.5655 H              1 S1                 0.0000
     35 ****         4.9825  -2.8877  -1.5570 H              1 S1                 0.0000
     36 ****         5.1281  -2.0087  -3.0603 H              1 S1                 0.0000
     37 ****         6.6609  -1.1029  -1.2920 H              1 S1                 0.0000
     38 ****         5.5293   0.1066  -1.8493 H              1 S1                 0.0000
     39 ****         5.2881  -1.5787   0.6882 H              1 S1                 0.0000
     40 ****         5.6316   0.1284   0.6328 H              1 S1                 0.0000
     41 ****         3.2847  -0.4538   1.2172 H              1 S1                 0.0000
     42 ****         3.8282   1.7826   0.2761 H              1 S1                 0.0000
     43 ****         2.1884   1.3111  -0.0988 H              1 S1                 0.0000
     44 ****         3.4357   1.2225  -1.3401 H              1 S1                 0.0000
     45 ****        -2.8656   2.0185  -0.0396 H              1 S1                 0.0000
     46 ****         3.0421  -2.3031  -0.1215 H              1 S1                 0.0000
     47 ****        -7.8108   2.4283   0.3324 LP             1 S1                 0.0000
     48 ****        -7.3932   2.9708   1.8150 LP             1 S1                 0.0000
     49 ****        -1.5170   1.5859   0.7340 LP             1 S1                 0.0000
     50 ****         0.0675   0.8865   0.7276 LP             1 S1                 0.0000
     51 ****        -4.7339   3.3805   0.0106 LP             1 S1                 0.0000
@<TRIPOS>BOND
    1    1    2 1     
    2    1   22 1     
    3    1   23 1     
    4    1   24 1     
    5    2    3 1     
    6    3   21 ar    
    7    3    4 ar    
    8    4    5 ar    
    9    4   25 1     
   10    5    6 ar    
   11    5   26 1     
   12    6    7 1     
   13    6   20 ar    
   14    7    8 am    
   15    7   27 1     
   16    8    9 2     
   17    8   10 am    
   18   10   11 1     
   19   10   28 1     
   20   11   12 1     
   21   11   29 1     
   22   11   30 1     
   23   12   13 1     
   24   12   31 1     
   25   12   32 1     
   26   13   18 1     
   27   13   14 1     
   28   13   46 1     
   29   14   15 1     
   30   14   33 1     
   31   14   34 1     
   32   15   16 1     
   33   15   35 1     
   34   15   36 1     
   35   16   17 1     
   36   16   37 1     
   37   16   38 1     
   38   17   18 1     
   39   17   39 1     
   40   17   40 1     
   41   18   19 1     
   42   18   41 1     
   43   19   42 1     
   44   19   43 1     
   45   19   44 1     
   46   20   21 ar    
   47   20   45 1     
   48    2   47 1     
   49    2   48 1     
   50    9   49 1     
   51    9   50 1     
   52   21   51 1     
@<TRIPOS>SUBSTRUCTURE
      1 S1             1
@<TRIPOS>SET
LONE_PAIRS      STATIC     ATOMS    <user>   **** ""
5 47 48 49 50 51
DONOR_HYDROGENS      STATIC     ATOMS    <user>   **** ""
3 27 28 46
ATOM$BLUE        STATIC     ATOMS    COLORGROUP SYSTEM
5 47 48 49 50 51
ATOM$RED        STATIC     ATOMS    COLORGROUP SYSTEM
3 27 28 46
