AV-unprocessed.smi:235|AV-procd|sdf|1808|dock9
  -GOLD-   2262020393D 1   1.00000     0.00000
 Structure written by MMmdl.
 54 58  0  0  0  0  0  0  0  0  1 V2000
  148.8735  142.5246  159.0628 O   0  0  0  0  0  0  0  0  0  0  0  0
  149.4313  142.2828  157.9915 C   0  0  0  0  0  0  0  0  0  0  0  0
  150.6298  142.7797  157.6534 N   0  0  0  0  0  0  0  0  0  0  0  0
  151.4251  143.6470  158.4602 C   0  0  0  0  0  0  0  0  0  0  0  0
  152.8921  143.3119  158.6199 C   0  0  0  0  0  0  0  0  0  0  0  0
  151.9476  143.0995  159.7706 C   0  0  0  0  0  0  0  0  0  0  0  0
  148.7664  141.3595  156.9575 C   0  0  1  0  0  0  0  0  0  0  0  0
  147.5101  142.0080  156.3535 C   0  0  0  0  0  0  0  0  0  0  0  0
  147.4073  141.3803  154.9676 C   0  0  0  0  0  0  0  0  0  0  0  0
  148.8669  141.2112  154.5495 C   0  0  0  0  0  0  0  0  0  0  0  0
  149.6211  141.1110  155.7927 N   0  0  0  0  0  0  0  0  0  0  0  0
  150.7283  140.3225  155.8486 C   0  0  0  0  0  0  0  0  0  0  0  0
  151.3670  139.9867  154.6958 N   0  0  0  0  0  0  0  0  0  0  0  0
  152.4548  139.2118  154.7219 C   0  0  0  0  0  0  0  0  0  0  0  0
  153.0648  138.6662  155.7749 N   0  0  0  0  0  0  0  0  0  0  0  0
  152.4266  138.9901  156.9352 C   0  0  0  0  0  0  0  0  0  0  0  0
  151.2656  139.8055  157.0637 C   0  0  0  0  0  0  0  0  0  0  0  0
  150.9055  139.8978  158.4043 N   0  0  0  0  0  0  0  0  0  0  0  0
  151.8025  139.1853  159.0295 C   0  0  0  0  0  0  0  0  0  0  0  0
  152.7524  138.6033  158.2222 N   0  0  0  0  0  0  0  0  0  0  0  0
  153.8568  137.7601  158.6431 C   0  0  0  0  0  0  0  0  0  0  0  0
  154.8175  138.4865  159.6040 C   0  0  1  0  0  0  0  0  0  0  0  0
  155.0536  139.8121  159.1678 O   0  0  0  0  0  0  0  0  0  0  0  0
  154.3162  138.4850  161.0622 C   0  0  1  0  0  0  0  0  0  0  0  0
  153.7437  137.1554  161.5835 C   0  0  0  0  0  0  0  0  0  0  0  0
  154.4853  136.9264  162.8908 C   0  0  0  0  0  0  0  0  0  0  0  0
  155.0252  138.3098  163.2337 C   0  0  0  0  0  0  0  0  0  0  0  0
  155.3581  138.8437  161.9636 O   0  0  0  0  0  0  0  0  0  0  0  0
  151.0071  142.5256  156.7522 H   0  0  0  0  0  0  0  0  0  0  0  0
  151.1744  144.7070  158.4531 H   0  0  0  0  0  0  0  0  0  0  0  0
  153.2703  142.4278  158.1095 H   0  0  0  0  0  0  0  0  0  0  0  0
  153.5911  144.1427  158.6904 H   0  0  0  0  0  0  0  0  0  0  0  0
  152.0149  143.7889  160.6099 H   0  0  0  0  0  0  0  0  0  0  0  0
  151.6973  142.0726  160.0307 H   0  0  0  0  0  0  0  0  0  0  0  0
  148.4935  140.4054  157.4131 H   0  0  0  0  0  0  0  0  0  0  0  0
  146.6181  141.8319  156.9556 H   0  0  0  0  0  0  0  0  0  0  0  0
  147.6337  143.0880  156.2508 H   0  0  0  0  0  0  0  0  0  0  0  0
  146.9294  140.4028  155.0437 H   0  0  0  0  0  0  0  0  0  0  0  0
  146.8316  141.9843  154.2659 H   0  0  0  0  0  0  0  0  0  0  0  0
  148.9880  140.3360  153.9094 H   0  0  0  0  0  0  0  0  0  0  0  0
  149.2128  142.0877  154.0001 H   0  0  0  0  0  0  0  0  0  0  0  0
  152.8985  138.9976  153.7607 H   0  0  0  0  0  0  0  0  0  0  0  0
  151.7955  139.0634  160.1029 H   0  0  0  0  0  0  0  0  0  0  0  0
  153.4494  136.8624  159.1099 H   0  0  0  0  0  0  0  0  0  0  0  0
  154.3931  137.4316  157.7520 H   0  0  0  0  0  0  0  0  0  0  0  0
  155.7808  137.9750  159.5810 H   0  0  0  0  0  0  0  0  0  0  0  0
  155.5371  140.2645  159.8421 H   0  0  0  0  0  0  0  0  0  0  0  0
  153.5421  139.2479  161.1628 H   0  0  0  0  0  0  0  0  0  0  0  0
  152.6717  137.2530  161.7584 H   0  0  0  0  0  0  0  0  0  0  0  0
  153.8874  136.3199  160.8976 H   0  0  0  0  0  0  0  0  0  0  0  0
  153.8518  136.5116  163.6753 H   0  0  0  0  0  0  0  0  0  0  0  0
  155.3162  136.2387  162.7271 H   0  0  0  0  0  0  0  0  0  0  0  0
  154.2551  138.9264  163.7003 H   0  0  0  0  0  0  0  0  0  0  0  0
  155.8899  138.2741  163.8968 H   0  0  0  0  0  0  0  0  0  0  0  0
  1  2  2  0  0  0  0
  2  3  1  0  0  0  0
  2  7  1  0  0  0  0
  3  4  1  0  0  0  0
  3 29  1  0  0  0  0
  4  6  1  0  0  0  0
  4  5  1  0  0  0  0
  4 30  1  0  0  0  0
  5  6  1  0  0  0  0
  5 31  1  0  0  0  0
  5 32  1  0  0  0  0
  6 33  1  0  0  0  0
  6 34  1  0  0  0  0
  7 11  1  0  0  0  0
  7  8  1  0  0  0  0
  7 35  1  0  0  0  0
  8  9  1  0  0  0  0
  8 36  1  0  0  0  0
  8 37  1  0  0  0  0
  9 10  1  0  0  0  0
  9 38  1  0  0  0  0
  9 39  1  0  0  0  0
 10 11  1  0  0  0  0
 10 40  1  0  0  0  0
 10 41  1  0  0  0  0
 11 12  1  0  0  0  0
 12 17  1  0  0  0  0
 12 13  2  0  0  0  0
 13 14  1  0  0  0  0
 14 15  2  0  0  0  0
 14 42  1  0  0  0  0
 15 16  1  0  0  0  0
 16 20  1  0  0  0  0
 16 17  2  0  0  0  0
 17 18  1  0  0  0  0
 18 19  2  0  0  0  0
 19 20  1  0  0  0  0
 19 43  1  0  0  0  0
 20 21  1  0  0  0  0
 21 22  1  0  0  0  0
 21 44  1  0  0  0  0
 21 45  1  0  0  0  0
 22 23  1  0  0  0  0
 22 24  1  0  0  0  0
 22 46  1  0  0  0  0
 23 47  1  0  0  0  0
 24 28  1  0  0  0  0
 24 25  1  0  0  0  0
 24 48  1  0  0  0  0
 25 26  1  0  0  0  0
 25 49  1  0  0  0  0
 25 50  1  0  0  0  0
 26 27  1  0  0  0  0
 26 51  1  0  0  0  0
 26 52  1  0  0  0  0
 27 28  1  0  0  0  0
 27 53  1  0  0  0  0
 27 54  1  0  0  0  0
M  END
> <s_m_source_file>
AV-unprocessed.smi

> <i_m_source_file_index>
235

> <i_lp_mmshare_version>
43012

> <i_f3d_flags>
0

> <s_epik_input>
W0NIMl0xW0NIMl1bQ0hdMVtOSF1DKD1PKVtDQEBIXTJbQ0gyXVtDSDJdW0NIMl1OMmMobltjSF1uMyljKGMzNCluW2NIXW40W0NIMl1bQ0BIXShbT0hdKVtDQEBIXTVbQ0gyXVtDSDJdW0NIMl1PNQ==

> <s_epik_cmdline>
J2VwaWtfcHl0aG9uJywgJy1waCcsICc3LjAnLCAnLXRuJywgJzgnLCAnLW1hJywgJzIwMCcsICctbWV0YWxfYmluZGluZycsICctaW1hZScsICc8aW5maWxlLm1hZT4nLCAnLW9tYWUnLCAnPG91dGZpbGUubWFlPic=

> <r_lp_tautomer_probability>
1

> <r_epik_Ionization_Penalty>
0.000526714

> <r_epik_Ionization_Penalty_Charging>
0

> <r_epik_Ionization_Penalty_Neutral>
0.000526714

> <r_epik_State_Penalty>
0.000272704

> <r_epik_Charging_Adjusted_Penalty>
0.000272704

> <i_epik_Tot_Q>
0

> <i_epik_Tot_abs_Q>
0

> <r_epik_Metal_State_Penalty>
-0

> <b_epik_Metal_Only>
0

> <s_lp_Force_Field>
OPLS_2005

> <r_lp_Energy>
60.2581

> <b_lp_Chiralities_Consistent>
1

> <s_lp_Variant>
AV-unprocessed.smi:235-8

> <Gold.Version>
5.8.1

> <Gold.Id.Protein>
6NUR|6NUR_protein|mol2

> <Gold.PLP.Fitness>
50.7022

> <Gold.PLP.PLP>
-43.8809

> <Gold.PLP.part.hbond>
-4.2626

> <Gold.PLP.part.metal>
0.0000

> <Gold.PLP.part.buried>
-4.1645

> <Gold.PLP.part.nonpolar>
-35.5053

> <Gold.PLP.part.repulsive>
0.2026

> <Gold.PLP.ligand.clash>
0.0000

> <Gold.PLP.ligand.torsion>
0.6509

> <Gold.PLP.Chemscore.Hbond>
2.5738

> <Gold.PLP.Chemscore.CHOScore>
0.0000

> <Gold.PLP.Chemscore.Metal>
0.0000

> <Gold.Chemscore.Hbonds>
donor molecule, donor type, donor heavy atom, donor atom, acceptor molecule, acceptor atom, score
      P1  H  6933  6944       L1     1  0.02
      P1  H  7989  7998       L1    13  0.94
      P1  H  7997  8009       L1    23  1.00
      P1  H  7997  8010       L1    15  0.48

> <Gold.PLP.Chemscore.Internal.Correction>
0.4017

> <Gold.Rescore>
     Score         DG    S(hbond)    S(metal)    S(lipo)     H(rot)  DE(clash)    DE(int)     intcor
     11.73     -16.04       1.75        0.00      98.77       2.68       0.63       3.67       ----

> <Gold.Chemscore.Fitness>
11.7336

> <Gold.Chemscore.DG>
-16.0373

> <Gold.Chemscore.ZeroCoef>
-5.4800

> <Gold.Chemscore.Hbond>
1.7520

> <Gold.Chemscore.Metal>
0.0000

> <Gold.Chemscore.Lipo>
98.7716

> <Gold.Chemscore.Internal_Hbond>
0.0000

> <Gold.Chemscore.DEClash>
0.6340

> <Gold.Chemscore.DEInternal>
3.6697

> <Gold.Chemscore.Rot>
2.6760

> <Gold.Chemscore.Internal.Correction>
   9.000000E+99

> <Gold.Chemscore.Hbonds>
donor molecule, donor type, donor heavy atom, donor atom, acceptor molecule, acceptor atom, score
      P1  H  6933  6944       L1     1  0.02
      P1  H  7989  7998       L1    13  0.31
      P1  H  7997  8009       L1    23  0.90
      P1  H  7997  8010       L1    15  0.01

> <Gold.Chemscore.Hbond.Weighted>
-5.8516

> <Gold.Chemscore.Metal.Weighted>
-0.0000

> <Gold.Chemscore.Lipo.Weighted>
-11.5563

> <Gold.Chemscore.Internal_Hbond.Weighted>
0.0000

> <Gold.Chemscore.DEClash.Weighted>
0.6340

> <Gold.Chemscore.DEInternal.Weighted>
3.6697

> <Gold.Chemscore.Rot.Weighted>
6.8506

> <Gold.Chemscore.Internal.Correction.Weighted>
   9.000000E+99

> <Gold.Protein.RotatedTorsions>
[ 6907 6896 6895 6894 ] final    5.04 input  -60.11 | X-H torsion
[ 7974 7965 7964 7962 ] final  -81.31 input  175.53 | X-H torsion
[ 8008 7997 7996 7995 ] final  101.47 input   59.86 | X-H torsion
[ 10167 10162 10161 10158 ] final  -53.69 input  -65.29 | X-H torsion
[ 10718 10713 10712 10709 ] final  118.08 input   66.30 | X-H torsion
[ 10763 10752 10751 10750 ] final   21.77 input  -60.55 | X-H torsion
[ 11005 11000 10999 10996 ] final   32.58 input  -57.11 | X-H torsion

> <Gold.Protein.ActiveResidues>
 VAL166  LYS551  ARG553  GLY616  TRP617  ASP618  TYR619  PRO620  LYS621  CYS622 
 ASP623  PHE694  ASN695  SER759  ASP760  ASP761  ALA762  ILE779  LEU786  VAL792 
 PHE793  MET794  SER795  GLU796  ALA797  LYS798  CYS799  TRP800  GLU811  SER814 

> <Gold.Protein.RotatedAtoms>
  151.6511  135.1001  160.0160 H   0  0  0  0  0  0  0  0  0  0  0  0  # atno 6907 bound_to 6896
  152.4000  133.6799  159.6317 H   0  0  0  0  0  0  0  0  0  0  0  0  # atno 6908 bound_to 6896
  150.7901  133.8724  159.3303 H   0  0  0  0  0  0  0  0  0  0  0  0  # atno 6909 bound_to 6896
  145.5484  140.9500  143.1513 H   0  0  0  0  0  0  0  0  0  0  0  0  # atno 7974 bound_to 7965
  156.1302  140.3197  155.8337 H   0  0  0  0  0  0  0  0  0  0  0  0  # atno 8008 bound_to 7997
  155.4346  140.0521  157.3033 H   0  0  0  0  0  0  0  0  0  0  0  0  # atno 8009 bound_to 7997
  154.4893  140.2086  155.9596 H   0  0  0  0  0  0  0  0  0  0  0  0  # atno 8010 bound_to 7997
  140.6471  143.2542  151.4828 H   0  0  0  0  0  0  0  0  0  0  0  0  # atno 10167 bound_to 10162
  157.6054  131.1044  150.7705 H   0  0  0  0  0  0  0  0  0  0  0  0  # atno 10718 bound_to 10713
  153.0968  135.6662  153.9747 H   0  0  0  0  0  0  0  0  0  0  0  0  # atno 10763 bound_to 10752
  153.9329  135.3002  155.3446 H   0  0  0  0  0  0  0  0  0  0  0  0  # atno 10764 bound_to 10752
  154.7387  135.5089  153.9160 H   0  0  0  0  0  0  0  0  0  0  0  0  # atno 10765 bound_to 10752
  140.2720  134.3072  155.7825 H   0  0  0  0  0  0  0  0  0  0  0  0  # atno 11005 bound_to 11000
  144.7542  139.7117  143.7261 LP  0  0  0  0  0  0  0  0  0  0  0  0  # atno 17320 bound_to 7965
  146.1934  139.5186  142.9790 LP  0  0  0  0  0  0  0  0  0  0  0  0  # atno 17321 bound_to 7965
  139.5683  144.1990  152.1798 LP  0  0  0  0  0  0  0  0  0  0  0  0  # atno 17342 bound_to 10162
  140.1278  144.5315  150.6821 LP  0  0  0  0  0  0  0  0  0  0  0  0  # atno 17343 bound_to 10162
  156.8095  130.4947  149.5358 LP  0  0  0  0  0  0  0  0  0  0  0  0  # atno 17370 bound_to 10713
  156.1139  130.6060  151.0090 LP  0  0  0  0  0  0  0  0  0  0  0  0  # atno 17371 bound_to 10713
  141.2176  133.7472  156.9349 LP  0  0  0  0  0  0  0  0  0  0  0  0  # atno 17394 bound_to 11000
  140.1364  134.9322  157.2408 LP  0  0  0  0  0  0  0  0  0  0  0  0  # atno 17395 bound_to 11000

$$$$
