AV-unprocessed.smi:3340|AV-procd|sdf|12879|dock8
  -GOLD-   2272019283D 1   1.00000     0.00000
 Structure written by MMmdl.
 42 43  0  0  0  0  0  0  0  0  2 V2000
  152.1579  143.3259  160.4970 C   0  0  0  0  0  0  0  0  0  0  0  0
  152.5112  141.9591  159.9064 C   0  0  0  0  0  0  0  0  0  0  0  0
  153.5197  141.3920  160.3273 O   0  0  0  0  0  0  0  0  0  0  0  0
  151.7132  141.4214  158.9528 N   0  0  0  0  0  0  0  0  0  0  0  0
  150.5441  142.1242  158.4043 C   0  0  0  0  0  0  0  0  0  0  0  0
  150.7953  142.4231  156.9124 C   0  0  0  0  0  0  0  0  0  0  0  0
  151.0415  141.1520  156.2035 N   0  0  0  0  0  0  0  0  0  0  0  0
  150.2186  140.5724  155.2940 C   0  0  0  0  0  0  0  0  0  0  0  0
  150.6013  139.7459  154.4646 O   0  0  0  0  0  0  0  0  0  0  0  0
  148.9496  141.0144  155.3259 N   0  0  0  0  0  0  0  0  0  0  0  0
  147.8770  140.5872  154.4325 C   0  0  2  0  0  0  0  0  0  0  0  0
  146.5294  141.0581  155.0034 C   0  0  0  0  0  0  0  0  0  0  0  0
  147.9459  139.0602  154.2151 C   0  0  0  0  0  0  0  0  0  0  0  0
  146.8600  138.5549  153.3703 N   0  0  0  0  0  0  0  0  0  0  0  0
  145.8985  137.6413  153.7176 C   0  0  0  0  0  0  0  0  0  0  0  0
  145.0998  137.4762  152.6153 C   0  0  0  0  0  0  0  0  0  0  0  0
  145.6056  138.2976  151.6435 N   0  3  0  0  0  0  0  0  0  0  0  0
  146.6740  138.9555  152.1057 C   0  0  0  0  0  0  0  0  0  0  0  0
  152.2072  140.4481  156.7603 C   0  0  0  0  0  0  0  0  0  0  0  0
  151.9564  140.1514  158.2522 C   0  0  0  0  0  0  0  0  0  0  0  0
  151.1789  143.2983  160.9764 H   0  0  0  0  0  0  0  0  0  0  0  0
  152.1538  144.0929  159.7222 H   0  0  0  0  0  0  0  0  0  0  0  0
  152.8885  143.6190  161.2517 H   0  0  0  0  0  0  0  0  0  0  0  0
  149.6588  141.4973  158.5212 H   0  0  0  0  0  0  0  0  0  0  0  0
  150.3242  143.0536  158.9308 H   0  0  0  0  0  0  0  0  0  0  0  0
  149.9556  142.9959  156.5197 H   0  0  0  0  0  0  0  0  0  0  0  0
  151.6685  143.0676  156.8009 H   0  0  0  0  0  0  0  0  0  0  0  0
  148.7141  141.7098  156.0192 H   0  0  0  0  0  0  0  0  0  0  0  0
  148.0109  141.0827  153.4691 H   0  0  0  0  0  0  0  0  0  0  0  0
  145.7084  140.8457  154.3187 H   0  0  0  0  0  0  0  0  0  0  0  0
  146.5331  142.1349  155.1762 H   0  0  0  0  0  0  0  0  0  0  0  0
  146.3081  140.5697  155.9529 H   0  0  0  0  0  0  0  0  0  0  0  0
  148.8849  138.7813  153.7346 H   0  0  0  0  0  0  0  0  0  0  0  0
  147.9123  138.5340  155.1706 H   0  0  0  0  0  0  0  0  0  0  0  0
  145.8570  137.1878  154.6976 H   0  0  0  0  0  0  0  0  0  0  0  0
  144.2324  136.8525  152.4542 H   0  0  0  0  0  0  0  0  0  0  0  0
  147.2712  139.6655  151.5617 H   0  0  0  0  0  0  0  0  0  0  0  0
  152.4307  139.5201  156.2326 H   0  0  0  0  0  0  0  0  0  0  0  0
  153.0928  141.0747  156.6443 H   0  0  0  0  0  0  0  0  0  0  0  0
  152.7935  139.5828  158.6538 H   0  0  0  0  0  0  0  0  0  0  0  0
  151.0827  139.5080  158.3652 H   0  0  0  0  0  0  0  0  0  0  0  0
  145.2276  138.3953  150.7095 H   0  0  0  0  0  0  0  0  0  0  0  0
  1  2  1  0  0  0  0
  1 21  1  0  0  0  0
  1 22  1  0  0  0  0
  1 23  1  0  0  0  0
  2  3  2  0  0  0  0
  2  4  1  0  0  0  0
  4 20  1  0  0  0  0
  4  5  1  0  0  0  0
  5  6  1  0  0  0  0
  5 24  1  0  0  0  0
  5 25  1  0  0  0  0
  6  7  1  0  0  0  0
  6 26  1  0  0  0  0
  6 27  1  0  0  0  0
  7  8  1  0  0  0  0
  7 19  1  0  0  0  0
  8  9  2  0  0  0  0
  8 10  1  0  0  0  0
 10 11  1  0  0  0  0
 10 28  1  0  0  0  0
 11 12  1  0  0  0  0
 11 13  1  0  0  0  0
 11 29  1  0  0  0  0
 12 30  1  0  0  0  0
 12 31  1  0  0  0  0
 12 32  1  0  0  0  0
 13 14  1  0  0  0  0
 13 33  1  0  0  0  0
 13 34  1  0  0  0  0
 14 18  1  0  0  0  0
 14 15  1  0  0  0  0
 15 16  2  0  0  0  0
 15 35  1  0  0  0  0
 16 17  1  0  0  0  0
 16 36  1  0  0  0  0
 17 18  2  0  0  0  0
 17 42  1  0  0  0  0
 18 37  1  0  0  0  0
 19 20  1  0  0  0  0
 19 38  1  0  0  0  0
 19 39  1  0  0  0  0
 20 40  1  0  0  0  0
 20 41  1  0  0  0  0
M  CHG  1  17   1
M  END
> <s_m_source_file>
AV-unprocessed.smi

> <i_m_source_file_index>
3340

> <i_lp_mmshare_version>
43012

> <i_f3d_flags>
0

> <s_epik_input>
W0NIM11DKD1PKU4xW0NIMl1bQ0gyXU4oW0NIMl1bQ0gyXTEpQyg9TylbTkhdW0NASF0oW0NIM10pW0NIMl1uMltjSF1bY0hdbltjSF0y

> <s_epik_cmdline>
J2VwaWtfcHl0aG9uJywgJy1waCcsICc3LjAnLCAnLXRuJywgJzgnLCAnLW1hJywgJzIwMCcsICctbWV0YWxfYmluZGluZycsICctaW1hZScsICc8aW5maWxlLm1hZT4nLCAnLW9tYWUnLCAnPG91dGZpbGUubWFlPic=

> <r_lp_tautomer_probability>
1

> <r_epik_Ionization_Penalty>
0.254791

> <r_epik_Ionization_Penalty_Charging>
0

> <r_epik_Ionization_Penalty_Neutral>
0.254791

> <r_epik_State_Penalty>
0.246235

> <r_epik_Charging_Adjusted_Penalty>
0.246235

> <i_epik_Tot_Q>
1

> <i_epik_Tot_abs_Q>
1

> <r_epik_Metal_State_Penalty>
0.536161

> <b_epik_Metal_Only>
0

> <s_lp_Force_Field>
OPLS_2005

> <r_lp_Energy>
50.8971

> <b_lp_Chiralities_Consistent>
1

> <s_lp_Variant>
AV-unprocessed.smi:3340-1

> <Gold.Version>
5.8.1

> <Gold.Id.Protein>
6NUR|6NUR_protein|mol2

> <Gold.PLP.Fitness>
42.8491

> <Gold.PLP.PLP>
-35.2926

> <Gold.PLP.part.hbond>
-2.9568

> <Gold.PLP.part.metal>
0.0000

> <Gold.PLP.part.buried>
-4.1675

> <Gold.PLP.part.nonpolar>
-29.0218

> <Gold.PLP.part.repulsive>
0.2693

> <Gold.PLP.ligand.clash>
0.0000

> <Gold.PLP.ligand.torsion>
0.4945

> <Gold.PLP.Chemscore.Hbond>
1.8280

> <Gold.PLP.Chemscore.CHOScore>
1.0000

> <Gold.PLP.Chemscore.Metal>
0.0000

> <Gold.Chemscore.Hbonds>
donor molecule, donor type, donor heavy atom, donor atom, acceptor molecule, acceptor atom, score
      L1  H    17    42       P1 10171  0.93
      P1  H  7989  7998       L1     9  0.85
      L1  C    18    37       P1  7957  1.00

> <Gold.PLP.Chemscore.Internal.Correction>
0.0615

> <Gold.Rescore>
     Score         DG    S(hbond)    S(metal)    S(lipo)     H(rot)  DE(clash)    DE(int)     intcor
     11.72     -13.62       1.91        0.00      52.12       1.70       0.27       1.63       ----

> <Gold.Chemscore.Fitness>
11.7220

> <Gold.Chemscore.DG>
-13.6201

> <Gold.Chemscore.ZeroCoef>
-5.4800

> <Gold.Chemscore.Hbond>
1.9123

> <Gold.Chemscore.Metal>
0.0000

> <Gold.Chemscore.Lipo>
52.1233

> <Gold.Chemscore.Internal_Hbond>
0.0000

> <Gold.Chemscore.DEClash>
0.2673

> <Gold.Chemscore.DEInternal>
1.6307

> <Gold.Chemscore.Rot>
1.6975

> <Gold.Chemscore.Internal.Correction>
   9.000000E+99

> <Gold.Chemscore.Hbonds>
donor molecule, donor type, donor heavy atom, donor atom, acceptor molecule, acceptor atom, score
      L1  H    17    42       P1 10171  0.90
      P1  H  7989  7998       L1     9  0.15

> <Gold.Chemscore.Hbond.Weighted>
-6.3872

> <Gold.Chemscore.Metal.Weighted>
-0.0000

> <Gold.Chemscore.Lipo.Weighted>
-6.0984

> <Gold.Chemscore.Internal_Hbond.Weighted>
0.0000

> <Gold.Chemscore.DEClash.Weighted>
0.2673

> <Gold.Chemscore.DEInternal.Weighted>
1.6307

> <Gold.Chemscore.Rot.Weighted>
4.3455

> <Gold.Chemscore.Internal.Correction.Weighted>
   9.000000E+99

> <Gold.Protein.RotatedTorsions>
[ 6907 6896 6895 6894 ] final  -53.75 input  -60.11 | X-H torsion
[ 7974 7965 7964 7962 ] final  -68.37 input  175.53 | X-H torsion
[ 8008 7997 7996 7995 ] final -152.24 input   59.86 | X-H torsion
[ 10167 10162 10161 10158 ] final   13.66 input  -65.29 | X-H torsion
[ 10718 10713 10712 10709 ] final   61.93 input   66.30 | X-H torsion
[ 10763 10752 10751 10750 ] final -157.05 input  -60.55 | X-H torsion
[ 11005 11000 10999 10996 ] final -117.52 input  -57.11 | X-H torsion

> <Gold.Protein.ActiveResidues>
 VAL166  LYS551  ARG553  GLY616  TRP617  ASP618  TYR619  PRO620  LYS621  CYS622 
 ASP623  PHE694  ASN695  SER759  ASP760  ASP761  ALA762  ILE779  LEU786  VAL792 
 PHE793  MET794  SER795  GLU796  ALA797  LYS798  CYS799  TRP800  GLU811  SER814 

> <Gold.Protein.RotatedAtoms>
  150.8399  134.7687  159.6923 H   0  0  0  0  0  0  0  0  0  0  0  0  # atno 6907 bound_to 6896
  152.4488  134.5434  159.9855 H   0  0  0  0  0  0  0  0  0  0  0  0  # atno 6908 bound_to 6896
  151.5576  133.3370  159.3000 H   0  0  0  0  0  0  0  0  0  0  0  0  # atno 6909 bound_to 6896
  145.7174  140.9053  143.0648 H   0  0  0  0  0  0  0  0  0  0  0  0  # atno 7974 bound_to 7965
  155.6521  140.0713  157.2583 H   0  0  0  0  0  0  0  0  0  0  0  0  # atno 8008 bound_to 7997
  154.4160  140.1731  156.1735 H   0  0  0  0  0  0  0  0  0  0  0  0  # atno 8009 bound_to 7997
  155.9768  140.3357  155.6629 H   0  0  0  0  0  0  0  0  0  0  0  0  # atno 8010 bound_to 7997
  140.5987  143.8648  150.6944 H   0  0  0  0  0  0  0  0  0  0  0  0  # atno 10167 bound_to 10162
  157.5864  130.9022  149.9523 H   0  0  0  0  0  0  0  0  0  0  0  0  # atno 10718 bound_to 10713
  154.7666  135.3133  154.8273 H   0  0  0  0  0  0  0  0  0  0  0  0  # atno 10763 bound_to 10752
  153.9020  135.6815  153.4759 H   0  0  0  0  0  0  0  0  0  0  0  0  # atno 10764 bound_to 10752
  153.1273  135.4795  154.9226 H   0  0  0  0  0  0  0  0  0  0  0  0  # atno 10765 bound_to 10752
  141.0349  133.9925  157.3086 H   0  0  0  0  0  0  0  0  0  0  0  0  # atno 11005 bound_to 11000
  144.6926  139.9156  143.7465 LP  0  0  0  0  0  0  0  0  0  0  0  0  # atno 17320 bound_to 7965
  146.0657  139.3648  143.0554 LP  0  0  0  0  0  0  0  0  0  0  0  0  # atno 17321 bound_to 7965
  140.2189  143.3824  152.1659 LP  0  0  0  0  0  0  0  0  0  0  0  0  # atno 17342 bound_to 10162
  139.5276  144.7121  151.5172 LP  0  0  0  0  0  0  0  0  0  0  0  0  # atno 17343 bound_to 10162
  156.0913  130.3663  150.0389 LP  0  0  0  0  0  0  0  0  0  0  0  0  # atno 17370 bound_to 10713
  156.8520  130.9462  151.3625 LP  0  0  0  0  0  0  0  0  0  0  0  0  # atno 17371 bound_to 10713
  139.9233  135.0201  156.8145 LP  0  0  0  0  0  0  0  0  0  0  0  0  # atno 17394 bound_to 11000
  140.6341  133.9879  155.7675 LP  0  0  0  0  0  0  0  0  0  0  0  0  # atno 17395 bound_to 11000

$$$$
