AV-unprocessed.smi:3057|AV-procd|sdf|11663|dock6
  -GOLD-   2272017 63D 1   1.00000     0.00000
 Structure written by MMmdl.
 40 42  0  0  0  0  0  0  0  0  1 V2000
  147.5033  138.5184  153.5085 C   0  0  0  0  0  0  0  0  0  0  0  0
  148.2928  138.5369  154.8341 C   0  0  1  0  0  0  0  0  0  0  0  0
  148.1704  137.1962  155.5754 C   0  0  0  0  0  0  0  0  0  0  0  0
  149.3669  136.3790  155.0632 C   0  0  0  0  0  0  0  0  0  0  0  0
  150.3384  137.4617  154.6154 C   0  0  0  0  0  0  0  0  0  0  0  0
  151.5274  137.2472  154.3843 O   0  0  0  0  0  0  0  0  0  0  0  0
  149.7180  138.6517  154.5859 N   0  0  0  0  0  0  0  0  0  0  0  0
  150.2819  140.0104  154.5752 C   0  0  2  0  0  0  0  0  0  0  0  0
  151.4496  140.2155  155.5596 C   0  0  0  0  0  0  0  0  0  0  0  0
  152.5907  139.8554  155.2672 O   0  0  0  0  0  0  0  0  0  0  0  0
  151.1339  140.7617  156.7437 N   0  0  0  0  0  0  0  0  0  0  0  0
  152.0699  141.0176  157.8350 C   0  0  0  0  0  0  0  0  0  0  0  0
  151.9846  142.4531  158.3964 C   0  0  0  0  0  0  0  0  0  0  0  0
  152.3438  142.5610  159.8690 C   0  0  0  0  0  0  0  0  0  0  0  0
  152.0633  143.7403  160.5927 C   0  0  0  0  0  0  0  0  0  0  0  0
  152.4289  143.7981  161.9510 C   0  0  0  0  0  0  0  0  0  0  0  0
  153.0548  142.6786  162.5319 C   0  0  0  0  0  0  0  0  0  0  0  0
  153.2868  141.5463  161.7253 C   0  0  0  0  0  0  0  0  0  0  0  0
  152.9414  141.4810  160.4211 N   0  0  0  0  0  0  0  0  0  0  0  0
  149.1115  140.9739  154.8701 C   0  0  0  0  0  0  0  0  0  0  0  0
  147.9024  140.0037  155.8104 S   0  0  0  0  0  0  0  0  0  0  0  0
  147.7806  137.6653  152.8884 H   0  0  0  0  0  0  0  0  0  0  0  0
  147.6768  139.4174  152.9173 H   0  0  0  0  0  0  0  0  0  0  0  0
  146.4312  138.4527  153.6955 H   0  0  0  0  0  0  0  0  0  0  0  0
  148.2650  137.3443  156.6525 H   0  0  0  0  0  0  0  0  0  0  0  0
  147.2168  136.6989  155.3950 H   0  0  0  0  0  0  0  0  0  0  0  0
  149.7953  135.7420  155.8374 H   0  0  0  0  0  0  0  0  0  0  0  0
  149.0938  135.7618  154.2068 H   0  0  0  0  0  0  0  0  0  0  0  0
  150.6543  140.2043  153.5680 H   0  0  0  0  0  0  0  0  0  0  0  0
  150.1702  141.0169  156.9046 H   0  0  0  0  0  0  0  0  0  0  0  0
  151.9258  140.2875  158.6327 H   0  0  0  0  0  0  0  0  0  0  0  0
  153.0718  140.8467  157.4403 H   0  0  0  0  0  0  0  0  0  0  0  0
  152.6442  143.1081  157.8262 H   0  0  0  0  0  0  0  0  0  0  0  0
  150.9780  142.8455  158.2468 H   0  0  0  0  0  0  0  0  0  0  0  0
  151.5886  144.5857  160.1162 H   0  0  0  0  0  0  0  0  0  0  0  0
  152.2347  144.6857  162.5349 H   0  0  0  0  0  0  0  0  0  0  0  0
  153.3498  142.6871  163.5706 H   0  0  0  0  0  0  0  0  0  0  0  0
  153.7638  140.6701  162.1388 H   0  0  0  0  0  0  0  0  0  0  0  0
  149.4065  141.8685  155.4190 H   0  0  0  0  0  0  0  0  0  0  0  0
  148.6489  141.3028  153.9397 H   0  0  0  0  0  0  0  0  0  0  0  0
  1  2  1  0  0  0  0
  1 22  1  0  0  0  0
  1 23  1  0  0  0  0
  1 24  1  0  0  0  0
  2  7  1  0  0  0  0
  2 21  1  0  0  0  0
  2  3  1  0  0  0  0
  3  4  1  0  0  0  0
  3 25  1  0  0  0  0
  3 26  1  0  0  0  0
  4  5  1  0  0  0  0
  4 27  1  0  0  0  0
  4 28  1  0  0  0  0
  5  6  2  0  0  0  0
  5  7  1  0  0  0  0
  7  8  1  0  0  0  0
  8  9  1  0  0  0  0
  8 20  1  0  0  0  0
  8 29  1  0  0  0  0
  9 10  2  0  0  0  0
  9 11  1  0  0  0  0
 11 12  1  0  0  0  0
 11 30  1  0  0  0  0
 12 13  1  0  0  0  0
 12 31  1  0  0  0  0
 12 32  1  0  0  0  0
 13 14  1  0  0  0  0
 13 33  1  0  0  0  0
 13 34  1  0  0  0  0
 14 19  1  0  0  0  0
 14 15  2  0  0  0  0
 15 16  1  0  0  0  0
 15 35  1  0  0  0  0
 16 17  2  0  0  0  0
 16 36  1  0  0  0  0
 17 18  1  0  0  0  0
 17 37  1  0  0  0  0
 18 19  2  0  0  0  0
 18 38  1  0  0  0  0
 20 21  1  0  0  0  0
 20 39  1  0  0  0  0
 20 40  1  0  0  0  0
M  END
> <s_m_source_file>
AV-unprocessed.smi

> <i_m_source_file_index>
3057

> <i_lp_mmshare_version>
43012

> <i_f3d_flags>
0

> <s_epik_input>
W0NIMl0xW0NIMl1DKD1PKU4oW0NAQF0xMltDSDNdKVtDQEhdKFtDSDJdUzIpQyg9TylbTkhdW0NIMl1bQ0gyXWMzW2NIXVtjSF1bY0hdW2NIXW4z

> <s_epik_cmdline>
J2VwaWtfcHl0aG9uJywgJy1waCcsICc3LjAnLCAnLXRuJywgJzgnLCAnLW1hJywgJzIwMCcsICctbWV0YWxfYmluZGluZycsICctaW1hZScsICc8aW5maWxlLm1hZT4nLCAnLW9tYWUnLCAnPG91dGZpbGUubWFlPic=

> <r_epik_Ionization_Penalty>
0.0249631

> <r_epik_Ionization_Penalty_Charging>
0

> <r_epik_Ionization_Penalty_Neutral>
0.0249631

> <r_epik_State_Penalty>
0.0202943

> <r_epik_Charging_Adjusted_Penalty>
0.0202943

> <i_epik_Tot_Q>
0

> <i_epik_Tot_abs_Q>
0

> <r_epik_Metal_State_Penalty>
0.0194661

> <b_epik_Metal_Only>
0

> <s_lp_Force_Field>
OPLS_2005

> <r_lp_Energy>
26.5663

> <b_lp_Chiralities_Consistent>
1

> <s_lp_Variant>
AV-unprocessed.smi:3057-3

> <Gold.Version>
5.8.1

> <Gold.Id.Protein>
6NUR|6NUR_protein|mol2

> <Gold.PLP.Fitness>
43.8324

> <Gold.PLP.PLP>
-39.8563

> <Gold.PLP.part.hbond>
-3.0000

> <Gold.PLP.part.metal>
0.0000

> <Gold.PLP.part.buried>
-2.3281

> <Gold.PLP.part.nonpolar>
-32.9013

> <Gold.PLP.part.repulsive>
0.2605

> <Gold.PLP.ligand.clash>
0.0000

> <Gold.PLP.ligand.torsion>
1.0165

> <Gold.PLP.Chemscore.Hbond>
2.0000

> <Gold.PLP.Chemscore.CHOScore>
0.0000

> <Gold.PLP.Chemscore.Metal>
0.0000

> <Gold.Chemscore.Hbonds>
donor molecule, donor type, donor heavy atom, donor atom, acceptor molecule, acceptor atom, score
      P1  H  7997  8010       L1    10  1.00
      P1  H 10752 10763       L1     6  0.76

> <Gold.PLP.Chemscore.Internal.Correction>
0.0091

> <Gold.Rescore>
     Score         DG    S(hbond)    S(metal)    S(lipo)     H(rot)  DE(clash)    DE(int)     intcor
     17.96     -19.89       1.97        0.00     100.52       1.53       0.05       1.88       ----

> <Gold.Chemscore.Fitness>
17.9588

> <Gold.Chemscore.DG>
-19.8911

> <Gold.Chemscore.ZeroCoef>
-5.4800

> <Gold.Chemscore.Hbond>
1.9691

> <Gold.Chemscore.Metal>
0.0000

> <Gold.Chemscore.Lipo>
100.5217

> <Gold.Chemscore.Internal_Hbond>
0.0000

> <Gold.Chemscore.DEClash>
0.0476

> <Gold.Chemscore.DEInternal>
1.8847

> <Gold.Chemscore.Rot>
1.5339

> <Gold.Chemscore.Internal.Correction>
   9.000000E+99

> <Gold.Chemscore.Hbonds>
donor molecule, donor type, donor heavy atom, donor atom, acceptor molecule, acceptor atom, score
      P1  H  7997  8010       L1    10  0.98
      P1  H 10752 10763       L1     6  0.74

> <Gold.Chemscore.Hbond.Weighted>
-6.5768

> <Gold.Chemscore.Metal.Weighted>
-0.0000

> <Gold.Chemscore.Lipo.Weighted>
-11.7610

> <Gold.Chemscore.Internal_Hbond.Weighted>
0.0000

> <Gold.Chemscore.DEClash.Weighted>
0.0476

> <Gold.Chemscore.DEInternal.Weighted>
1.8847

> <Gold.Chemscore.Rot.Weighted>
3.9267

> <Gold.Chemscore.Internal.Correction.Weighted>
   9.000000E+99

> <Gold.Protein.RotatedTorsions>
[ 6907 6896 6895 6894 ] final   18.72 input  -60.11 | X-H torsion
[ 7974 7965 7964 7962 ] final   22.93 input  175.53 | X-H torsion
[ 8008 7997 7996 7995 ] final   97.13 input   59.86 | X-H torsion
[ 10167 10162 10161 10158 ] final -117.99 input  -65.29 | X-H torsion
[ 10718 10713 10712 10709 ] final  131.70 input   66.30 | X-H torsion
[ 10763 10752 10751 10750 ] final   44.31 input  -60.55 | X-H torsion
[ 11005 11000 10999 10996 ] final  104.32 input  -57.11 | X-H torsion

> <Gold.Protein.ActiveResidues>
 VAL166  LYS551  ARG553  GLY616  TRP617  ASP618  TYR619  PRO620  LYS621  CYS622 
 ASP623  PHE694  ASN695  SER759  ASP760  ASP761  ALA762  ILE779  LEU786  VAL792 
 PHE793  MET794  SER795  GLU796  ALA797  LYS798  CYS799  TRP800  GLU811  SER814 

> <Gold.Protein.RotatedAtoms>
  151.8697  135.0494  160.0477 H   0  0  0  0  0  0  0  0  0  0  0  0  # atno 6907 bound_to 6896
  152.2598  133.5283  159.5383 H   0  0  0  0  0  0  0  0  0  0  0  0  # atno 6908 bound_to 6896
  150.7112  134.0762  159.3924 H   0  0  0  0  0  0  0  0  0  0  0  0  # atno 6909 bound_to 6896
  146.2007  139.7816  142.8763 H   0  0  0  0  0  0  0  0  0  0  0  0  # atno 7974 bound_to 7965
  156.0870  140.3262  155.7766 H   0  0  0  0  0  0  0  0  0  0  0  0  # atno 8008 bound_to 7997
  155.5060  140.0573  157.2948 H   0  0  0  0  0  0  0  0  0  0  0  0  # atno 8009 bound_to 7997
  154.4615  140.1969  156.0249 H   0  0  0  0  0  0  0  0  0  0  0  0  # atno 8010 bound_to 7997
  140.0624  143.4955  152.2025 H   0  0  0  0  0  0  0  0  0  0  0  0  # atno 10167 bound_to 10162
  157.4943  131.1092  150.9515 H   0  0  0  0  0  0  0  0  0  0  0  0  # atno 10718 bound_to 10713
  152.9843  135.6074  154.3253 H   0  0  0  0  0  0  0  0  0  0  0  0  # atno 10763 bound_to 10752
  154.2960  135.2774  155.2635 H   0  0  0  0  0  0  0  0  0  0  0  0  # atno 10764 bound_to 10752
  154.4908  135.5892  153.6514 H   0  0  0  0  0  0  0  0  0  0  0  0  # atno 10765 bound_to 10752
  139.8791  134.9296  156.5344 H   0  0  0  0  0  0  0  0  0  0  0  0  # atno 11005 bound_to 11000
  145.3493  141.0304  143.3348 LP  0  0  0  0  0  0  0  0  0  0  0  0  # atno 17320 bound_to 7965
  144.8677  139.5083  143.6782 LP  0  0  0  0  0  0  0  0  0  0  0  0  # atno 17321 bound_to 7965
  139.5886  144.7541  151.3458 LP  0  0  0  0  0  0  0  0  0  0  0  0  # atno 17342 bound_to 10162
  140.7165  143.7251  150.7666 LP  0  0  0  0  0  0  0  0  0  0  0  0  # atno 17343 bound_to 10162
  157.0206  130.5672  149.5331 LP  0  0  0  0  0  0  0  0  0  0  0  0  # atno 17370 bound_to 10713
  156.0191  130.5286  150.8223 LP  0  0  0  0  0  0  0  0  0  0  0  0  # atno 17371 bound_to 10713
  140.8357  133.8244  155.9026 LP  0  0  0  0  0  0  0  0  0  0  0  0  # atno 17394 bound_to 11000
  140.9286  134.2051  157.4879 LP  0  0  0  0  0  0  0  0  0  0  0  0  # atno 17395 bound_to 11000

$$$$
