AV-unprocessed.smi:34|AV-procd|sdf|241|dock9
  -GOLD-   2262015593D 1   1.00000     0.00000
 Structure written by MMmdl.
 54 58  0  0  0  0  0  0  0  0  2 V2000
  151.4867  131.2281  158.7597 O   0  0  0  0  0  0  0  0  0  0  0  0
  151.2514  130.9554  157.5806 C   0  0  0  0  0  0  0  0  0  0  0  0
  150.0508  130.9694  156.9475 N   0  5  0  0  0  0  0  0  0  0  0  0
  149.7676  131.9467  156.0730 C   0  0  0  0  0  0  0  0  0  0  0  0
  148.9727  131.6965  155.0012 N   0  0  0  0  0  0  0  0  0  0  0  0
  148.6899  132.6691  154.1263 C   0  0  0  0  0  0  0  0  0  0  0  0
  149.0906  133.9448  154.1284 N   0  0  0  0  0  0  0  0  0  0  0  0
  149.8982  134.2040  155.1974 C   0  0  0  0  0  0  0  0  0  0  0  0
  150.2823  133.2666  156.1985 C   0  0  0  0  0  0  0  0  0  0  0  0
  151.1131  133.8639  157.1351 N   0  0  0  0  0  0  0  0  0  0  0  0
  151.1891  135.1105  156.6729 C   0  0  0  0  0  0  0  0  0  0  0  0
  150.4988  135.3993  155.5497 N   0  0  0  0  0  0  0  0  0  0  0  0
  150.4003  136.6909  154.7970 C   0  0  2  0  0  0  0  0  0  0  0  0
  151.6781  137.2530  154.6877 O   0  0  0  0  0  0  0  0  0  0  0  0
  151.7652  138.4703  155.4237 C   0  0  2  0  0  0  0  0  0  0  0  0
  152.3602  138.1971  156.8150 C   0  0  0  0  0  0  0  0  0  0  0  0
  152.3824  139.4020  157.5627 O   0  0  0  0  0  0  0  0  0  0  0  0
  153.2029  139.5241  158.6237 C   0  0  0  0  0  0  0  0  0  0  0  0
  153.9542  138.6274  159.0120 O   0  0  0  0  0  0  0  0  0  0  0  0
  153.1046  140.8594  159.2810 C   0  0  0  0  0  0  0  0  0  0  0  0
  152.1759  141.8071  158.7906 C   0  0  0  0  0  0  0  0  0  0  0  0
  152.0638  143.0775  159.3884 C   0  0  0  0  0  0  0  0  0  0  0  0
  152.8790  143.4160  160.4841 C   0  0  0  0  0  0  0  0  0  0  0  0
  153.8067  142.4822  160.9815 C   0  0  0  0  0  0  0  0  0  0  0  0
  153.9203  141.2112  160.3850 C   0  0  0  0  0  0  0  0  0  0  0  0
  150.3260  138.9878  155.4533 C   0  0  1  0  0  0  0  0  0  0  0  0
  150.0727  139.6506  154.3235 F   0  0  0  0  0  0  0  0  0  0  0  0
  149.4867  137.7232  155.4963 C   0  0  2  0  0  0  0  0  0  0  0  0
  149.1387  137.4039  156.8326 O   0  0  0  0  0  0  0  0  0  0  0  0
  152.3826  130.4824  156.7062 C   0  0  0  0  0  0  0  0  0  0  0  0
  153.7003  130.9229  156.9674 C   0  0  0  0  0  0  0  0  0  0  0  0
  154.7688  130.5153  156.1453 C   0  0  0  0  0  0  0  0  0  0  0  0
  154.5302  129.6683  155.0471 C   0  0  0  0  0  0  0  0  0  0  0  0
  153.2213  129.2331  154.7691 C   0  0  0  0  0  0  0  0  0  0  0  0
  152.1520  129.6413  155.5899 C   0  0  0  0  0  0  0  0  0  0  0  0
  148.0475  132.3843  153.3064 H   0  0  0  0  0  0  0  0  0  0  0  0
  151.7832  135.8527  157.1845 H   0  0  0  0  0  0  0  0  0  0  0  0
  150.0431  136.4007  153.8081 H   0  0  0  0  0  0  0  0  0  0  0  0
  152.4186  139.1635  154.8925 H   0  0  0  0  0  0  0  0  0  0  0  0
  151.7827  137.4389  157.3444 H   0  0  0  0  0  0  0  0  0  0  0  0
  153.3783  137.8193  156.7136 H   0  0  0  0  0  0  0  0  0  0  0  0
  151.5401  141.5701  157.9496 H   0  0  0  0  0  0  0  0  0  0  0  0
  151.3515  143.7930  159.0046 H   0  0  0  0  0  0  0  0  0  0  0  0
  152.7932  144.3904  160.9418 H   0  0  0  0  0  0  0  0  0  0  0  0
  154.4334  142.7407  161.8223 H   0  0  0  0  0  0  0  0  0  0  0  0
  154.6436  140.5190  160.7908 H   0  0  0  0  0  0  0  0  0  0  0  0
  150.1234  139.6796  156.2723 H   0  0  0  0  0  0  0  0  0  0  0  0
  148.5630  137.8331  154.9270 H   0  0  0  0  0  0  0  0  0  0  0  0
  148.2787  137.7548  157.0101 H   0  0  0  0  0  0  0  0  0  0  0  0
  153.9007  131.5752  157.8050 H   0  0  0  0  0  0  0  0  0  0  0  0
  155.7716  130.8551  156.3572 H   0  0  0  0  0  0  0  0  0  0  0  0
  155.3493  129.3564  154.4163 H   0  0  0  0  0  0  0  0  0  0  0  0
  153.0349  128.5885  153.9227 H   0  0  0  0  0  0  0  0  0  0  0  0
  151.1534  129.3048  155.3508 H   0  0  0  0  0  0  0  0  0  0  0  0
  1  2  2  0  0  0  0
  2  3  1  0  0  0  0
  2 30  1  0  0  0  0
  3  4  1  0  0  0  0
  4  9  1  0  0  0  0
  4  5  2  0  0  0  0
  5  6  1  0  0  0  0
  6  7  2  0  0  0  0
  6 36  1  0  0  0  0
  7  8  1  0  0  0  0
  8 12  1  0  0  0  0
  8  9  2  0  0  0  0
  9 10  1  0  0  0  0
 10 11  2  0  0  0  0
 11 12  1  0  0  0  0
 11 37  1  0  0  0  0
 12 13  1  0  0  0  0
 13 28  1  0  0  0  0
 13 14  1  0  0  0  0
 13 38  1  0  0  0  0
 14 15  1  0  0  0  0
 15 16  1  0  0  0  0
 15 26  1  0  0  0  0
 15 39  1  0  0  0  0
 16 17  1  0  0  0  0
 16 40  1  0  0  0  0
 16 41  1  0  0  0  0
 17 18  1  0  0  0  0
 18 19  2  0  0  0  0
 18 20  1  0  0  0  0
 20 25  1  0  0  0  0
 20 21  2  0  0  0  0
 21 22  1  0  0  0  0
 21 42  1  0  0  0  0
 22 23  2  0  0  0  0
 22 43  1  0  0  0  0
 23 24  1  0  0  0  0
 23 44  1  0  0  0  0
 24 25  2  0  0  0  0
 24 45  1  0  0  0  0
 25 46  1  0  0  0  0
 26 27  1  0  0  0  0
 26 28  1  0  0  0  0
 26 47  1  0  0  0  0
 28 29  1  0  0  0  0
 28 48  1  0  0  0  0
 29 49  1  0  0  0  0
 30 35  1  0  0  0  0
 30 31  2  0  0  0  0
 31 32  1  0  0  0  0
 31 50  1  0  0  0  0
 32 33  2  0  0  0  0
 32 51  1  0  0  0  0
 33 34  1  0  0  0  0
 33 52  1  0  0  0  0
 34 35  2  0  0  0  0
 34 53  1  0  0  0  0
 35 54  1  0  0  0  0
M  CHG  1   3  -1
M  END
> <s_m_source_file>
AV-unprocessed.smi

> <i_m_source_file_index>
34

> <i_lp_mmshare_version>
43012

> <i_f3d_flags>
0

> <s_epik_input>
W2NIXTFbY0hdW2NIXVtjSF1bY0hdYzFDKD1PKVtOSF1jKG5bY0hdbjIpYyhjMjMpbltjSF1uM1tDQEBIXTRPW0NASF0oW0NAQEhdKEYpW0NASF00W09IXSlbQ0gyXU9DKD1PKWM1W2NIXVtjSF1bY0hdW2NIXVtjSF01

> <s_epik_cmdline>
J2VwaWtfcHl0aG9uJywgJy1waCcsICc3LjAnLCAnLXRuJywgJzgnLCAnLW1hJywgJzIwMCcsICctbWV0YWxfYmluZGluZycsICctaW1hZScsICc8aW5maWxlLm1hZT4nLCAnLW9tYWUnLCAnPG91dGZpbGUubWFlPic=

> <r_lp_tautomer_probability>
1

> <r_epik_Ionization_Penalty>
4.33227

> <r_epik_Ionization_Penalty_Charging>
3.41027

> <r_epik_Ionization_Penalty_Neutral>
0.922001

> <r_epik_State_Penalty>
3.41358

> <r_epik_Charging_Adjusted_Penalty>
6.82385

> <i_epik_Tot_Q>
-1

> <i_epik_Tot_abs_Q>
1

> <r_epik_Metal_State_Penalty>
0.496292

> <b_epik_Metal_Only>
1

> <s_epik_Chemistry_Notes>
This compound has an ester and may undergo hydrolysis at high or low pH. This compound contains an acetal/aminal-like group ( X-CH(R)-Y where X, Y are N, S, or O) that may be acid/base labile, releasing an aldehyde.

> <s_lp_Force_Field>
OPLS_2005

> <r_lp_Energy>
50.7645

> <b_lp_Chiralities_Consistent>
1

> <s_lp_Variant>
AV-unprocessed.smi:34-27

> <Gold.Version>
5.8.1

> <Gold.Id.Protein>
6NUR|6NUR_protein|mol2

> <Gold.PLP.Fitness>
56.1461

> <Gold.PLP.PLP>
-55.4916

> <Gold.PLP.part.hbond>
-2.2524

> <Gold.PLP.part.metal>
0.0000

> <Gold.PLP.part.buried>
-5.6741

> <Gold.PLP.part.nonpolar>
-48.5056

> <Gold.PLP.part.repulsive>
0.7426

> <Gold.PLP.ligand.clash>
0.0000

> <Gold.PLP.ligand.torsion>
1.6840

> <Gold.PLP.Chemscore.Hbond>
1.2992

> <Gold.PLP.Chemscore.CHOScore>
0.0000

> <Gold.PLP.Chemscore.Metal>
0.0000

> <Gold.Chemscore.Hbonds>
donor molecule, donor type, donor heavy atom, donor atom, acceptor molecule, acceptor atom, score
      P1  H  6896  6908       L1     1  0.80
      P1  H 10752 10765       L1    14  0.94

> <Gold.PLP.Chemscore.Internal.Correction>
0.1250

> <Gold.Rescore>
     Score         DG    S(hbond)    S(metal)    S(lipo)     H(rot)  DE(clash)    DE(int)     intcor
     13.34     -16.92       1.47        0.00     114.82       2.69       0.20       3.38       ----

> <Gold.Chemscore.Fitness>
13.3402

> <Gold.Chemscore.DG>
-16.9230

> <Gold.Chemscore.ZeroCoef>
-5.4800

> <Gold.Chemscore.Hbond>
1.4691

> <Gold.Chemscore.Metal>
0.0000

> <Gold.Chemscore.Lipo>
114.8198

> <Gold.Chemscore.Internal_Hbond>
0.0000

> <Gold.Chemscore.DEClash>
0.1995

> <Gold.Chemscore.DEInternal>
3.3833

> <Gold.Chemscore.Rot>
2.6944

> <Gold.Chemscore.Internal.Correction>
   9.000000E+99

> <Gold.Chemscore.Hbonds>
donor molecule, donor type, donor heavy atom, donor atom, acceptor molecule, acceptor atom, score
      P1  H  6896  6908       L1     1  0.73
      P1  H 10752 10765       L1    14  0.44

> <Gold.Chemscore.Hbond.Weighted>
-4.9066

> <Gold.Chemscore.Metal.Weighted>
-0.0000

> <Gold.Chemscore.Lipo.Weighted>
-13.4339

> <Gold.Chemscore.Internal_Hbond.Weighted>
0.0000

> <Gold.Chemscore.DEClash.Weighted>
0.1995

> <Gold.Chemscore.DEInternal.Weighted>
3.3833

> <Gold.Chemscore.Rot.Weighted>
6.8975

> <Gold.Chemscore.Internal.Correction.Weighted>
   9.000000E+99

> <Gold.Protein.RotatedTorsions>
[ 6907 6896 6895 6894 ] final   61.57 input  -60.11 | X-H torsion
[ 7974 7965 7964 7962 ] final  140.74 input  175.53 | X-H torsion
[ 8008 7997 7996 7995 ] final  -15.87 input   59.86 | X-H torsion
[ 10167 10162 10161 10158 ] final   26.50 input  -65.29 | X-H torsion
[ 10718 10713 10712 10709 ] final   57.79 input   66.30 | X-H torsion
[ 10763 10752 10751 10750 ] final  168.71 input  -60.55 | X-H torsion
[ 11005 11000 10999 10996 ] final  -22.32 input  -57.11 | X-H torsion

> <Gold.Protein.ActiveResidues>
 VAL166  LYS551  ARG553  GLY616  TRP617  ASP618  TYR619  PRO620  LYS621  CYS622 
 ASP623  PHE694  ASN695  SER759  ASP760  ASP761  ALA762  ILE779  LEU786  VAL792 
 PHE793  MET794  SER795  GLU796  ALA797  LYS798  CYS799  TRP800  GLU811  SER814 

> <Gold.Protein.RotatedAtoms>
  152.4099  134.6142  160.0033 H   0  0  0  0  0  0  0  0  0  0  0  0  # atno 6907 bound_to 6896
  151.6322  133.3325  159.3119 H   0  0  0  0  0  0  0  0  0  0  0  0  # atno 6908 bound_to 6896
  150.7991  134.7113  159.6650 H   0  0  0  0  0  0  0  0  0  0  0  0  # atno 6909 bound_to 6896
  144.9159  139.5231  143.5686 H   0  0  0  0  0  0  0  0  0  0  0  0  # atno 7974 bound_to 7965
  154.5097  140.2185  155.9181 H   0  0  0  0  0  0  0  0  0  0  0  0  # atno 8008 bound_to 7997
  156.1537  140.3156  155.8656 H   0  0  0  0  0  0  0  0  0  0  0  0  # atno 8009 bound_to 7997
  155.3889  140.0477  157.3032 H   0  0  0  0  0  0  0  0  0  0  0  0  # atno 8010 bound_to 7997
  140.5018  144.0303  150.6336 H   0  0  0  0  0  0  0  0  0  0  0  0  # atno 10167 bound_to 10162
  157.5543  130.8789  149.9012 H   0  0  0  0  0  0  0  0  0  0  0  0  # atno 10718 bound_to 10713
  154.3725  135.2753  155.2258 H   0  0  0  0  0  0  0  0  0  0  0  0  # atno 10763 bound_to 10752
  154.4399  135.5956  153.6126 H   0  0  0  0  0  0  0  0  0  0  0  0  # atno 10764 bound_to 10752
  152.9838  135.6016  154.3958 H   0  0  0  0  0  0  0  0  0  0  0  0  # atno 10765 bound_to 10752
  140.8646  133.7764  156.0114 H   0  0  0  0  0  0  0  0  0  0  0  0  # atno 11005 bound_to 11000
  146.3181  139.8001  142.8967 LP  0  0  0  0  0  0  0  0  0  0  0  0  # atno 17320 bound_to 7965
  145.3377  141.0281  143.3410 LP  0  0  0  0  0  0  0  0  0  0  0  0  # atno 17321 bound_to 7965
  140.3601  143.2913  152.0393 LP  0  0  0  0  0  0  0  0  0  0  0  0  # atno 17342 bound_to 10162
  139.4874  144.6309  151.7071 LP  0  0  0  0  0  0  0  0  0  0  0  0  # atno 17343 bound_to 10162
  156.0604  130.3701  150.0994 LP  0  0  0  0  0  0  0  0  0  0  0  0  # atno 17370 bound_to 10713
  156.9164  130.9668  151.3555 LP  0  0  0  0  0  0  0  0  0  0  0  0  # atno 17371 bound_to 10713
  140.8644  134.2802  157.5220 LP  0  0  0  0  0  0  0  0  0  0  0  0  # atno 17394 bound_to 11000
  139.8708  134.9535  156.4146 LP  0  0  0  0  0  0  0  0  0  0  0  0  # atno 17395 bound_to 11000

$$$$
