AV-unprocessed.smi:657|AV-procd|sdf|3229|dock7
  -GOLD-   22720 0173D 1   1.00000     0.00000
 Structure written by MMmdl.
 46 47  0  0  0  0  0  0  0  0  3 V2000
  148.4846  136.7633  156.8669 C   0  0  0  0  0  0  0  0  0  0  0  0
  148.7732  136.3911  155.4026 C   0  0  0  0  0  0  0  0  0  0  0  0
  150.2411  135.9652  155.2029 C   0  0  0  0  0  0  0  0  0  0  0  0
  148.3234  137.4636  154.4519 N   0  3  1  0  0  0  0  0  0  0  0  0
  146.8668  137.3925  154.1316 C   0  0  0  0  0  0  0  0  0  0  0  0
  146.4773  138.3597  153.0062 C   0  0  0  0  0  0  0  0  0  0  0  0
  146.8359  139.7945  153.3933 C   0  0  0  0  0  0  0  0  0  0  0  0
  148.3311  139.8707  153.7099 C   0  0  0  0  0  0  0  0  0  0  0  0
  148.7504  138.8601  154.8063 C   0  0  2  0  0  0  0  0  0  0  0  0
  150.2744  138.9887  155.0058 C   0  0  0  0  0  0  0  0  0  0  0  0
  151.0196  138.5110  154.1426 O   0  0  0  0  0  0  0  0  0  0  0  0
  150.5699  139.6240  156.1732 N   0  5  0  0  0  0  0  0  0  0  0  0
  151.6707  140.5760  156.3275 C   0  0  0  0  0  0  0  0  0  0  0  0
  151.1409  142.0280  156.3607 C   0  0  0  0  0  0  0  0  0  0  0  0
  151.6112  142.8462  157.5457 C   0  0  0  0  0  0  0  0  0  0  0  0
  152.3779  142.3842  158.6539 C   0  0  0  0  0  0  0  0  0  0  0  0
  152.6488  143.3362  159.5320 N   0  0  0  0  0  0  0  0  0  0  0  0
  152.0578  144.4363  159.0243 N   0  0  0  0  0  0  0  0  0  0  0  0
  152.1569  145.6924  159.7354 C   0  0  0  0  0  0  0  0  0  0  0  0
  151.4116  144.1694  157.8371 C   0  0  0  0  0  0  0  0  0  0  0  0
  148.6490  135.9045  157.5186 H   0  0  0  0  0  0  0  0  0  0  0  0
  147.4477  137.0745  156.9963 H   0  0  0  0  0  0  0  0  0  0  0  0
  149.1277  137.5650  157.2283 H   0  0  0  0  0  0  0  0  0  0  0  0
  148.1657  135.5042  155.2394 H   0  0  0  0  0  0  0  0  0  0  0  0
  150.4916  135.1357  155.8643 H   0  0  0  0  0  0  0  0  0  0  0  0
  150.9396  136.7709  155.4270 H   0  0  0  0  0  0  0  0  0  0  0  0
  150.4269  135.6267  154.1839 H   0  0  0  0  0  0  0  0  0  0  0  0
  146.5871  136.3859  153.8258 H   0  0  0  0  0  0  0  0  0  0  0  0
  146.2794  137.6277  155.0197 H   0  0  0  0  0  0  0  0  0  0  0  0
  146.9884  138.0822  152.0831 H   0  0  0  0  0  0  0  0  0  0  0  0
  145.4082  138.2859  152.8052 H   0  0  0  0  0  0  0  0  0  0  0  0
  146.5857  140.4794  152.5827 H   0  0  0  0  0  0  0  0  0  0  0  0
  146.2535  140.1063  154.2613 H   0  0  0  0  0  0  0  0  0  0  0  0
  148.8928  139.6867  152.7923 H   0  0  0  0  0  0  0  0  0  0  0  0
  148.5811  140.8859  154.0219 H   0  0  0  0  0  0  0  0  0  0  0  0
  148.2261  139.1352  155.7241 H   0  0  0  0  0  0  0  0  0  0  0  0
  152.2626  140.3969  157.2264 H   0  0  0  0  0  0  0  0  0  0  0  0
  152.3754  140.4849  155.5010 H   0  0  0  0  0  0  0  0  0  0  0  0
  151.4375  142.5196  155.4340 H   0  0  0  0  0  0  0  0  0  0  0  0
  150.0509  142.0019  156.3299 H   0  0  0  0  0  0  0  0  0  0  0  0
  152.7549  141.3890  158.8378 H   0  0  0  0  0  0  0  0  0  0  0  0
  151.8099  146.5081  159.1007 H   0  0  0  0  0  0  0  0  0  0  0  0
  153.1940  145.8797  160.0155 H   0  0  0  0  0  0  0  0  0  0  0  0
  151.5424  145.6547  160.6350 H   0  0  0  0  0  0  0  0  0  0  0  0
  150.8816  144.9368  157.2924 H   0  0  0  0  0  0  0  0  0  0  0  0
  148.8080  137.2643  153.5887 H   0  0  0  0  0  0  0  0  0  0  0  0
  1  2  1  0  0  0  0
  1 21  1  0  0  0  0
  1 22  1  0  0  0  0
  1 23  1  0  0  0  0
  2  3  1  0  0  0  0
  2  4  1  0  0  0  0
  2 24  1  0  0  0  0
  3 25  1  0  0  0  0
  3 26  1  0  0  0  0
  3 27  1  0  0  0  0
  4  9  1  0  0  0  0
  4  5  1  0  0  0  0
  4 46  1  0  0  0  0
  5  6  1  0  0  0  0
  5 28  1  0  0  0  0
  5 29  1  0  0  0  0
  6  7  1  0  0  0  0
  6 30  1  0  0  0  0
  6 31  1  0  0  0  0
  7  8  1  0  0  0  0
  7 32  1  0  0  0  0
  7 33  1  0  0  0  0
  8  9  1  0  0  0  0
  8 34  1  0  0  0  0
  8 35  1  0  0  0  0
  9 10  1  0  0  0  0
  9 36  1  0  0  0  0
 10 11  2  0  0  0  0
 10 12  1  0  0  0  0
 12 13  1  0  0  0  0
 13 14  1  0  0  0  0
 13 37  1  0  0  0  0
 13 38  1  0  0  0  0
 14 15  1  0  0  0  0
 14 39  1  0  0  0  0
 14 40  1  0  0  0  0
 15 20  2  0  0  0  0
 15 16  1  0  0  0  0
 16 17  2  0  0  0  0
 16 41  1  0  0  0  0
 17 18  1  0  0  0  0
 18 19  1  0  0  0  0
 18 20  1  0  0  0  0
 19 42  1  0  0  0  0
 19 43  1  0  0  0  0
 19 44  1  0  0  0  0
 20 45  1  0  0  0  0
M  CHG  1   4   1
M  CHG  1  12  -1
M  END
> <s_m_source_file>
AV-unprocessed.smi

> <i_m_source_file_index>
657

> <i_lp_mmshare_version>
43012

> <i_f3d_flags>
0

> <s_epik_input>
W0NIM11bQ0hdKFtDSDNdKU4xW0NIMl1bQ0gyXVtDSDJdW0NIMl1bQ0BIXTFDKD1PKVtOSF1bQ0gyXVtDSDJdYzJbY0hdbm4oW0NIM10pW2NIXTI=

> <s_epik_cmdline>
J2VwaWtfcHl0aG9uJywgJy1waCcsICc3LjAnLCAnLXRuJywgJzgnLCAnLW1hJywgJzIwMCcsICctbWV0YWxfYmluZGluZycsICctaW1hZScsICc8aW5maWxlLm1hZT4nLCAnLW9tYWUnLCAnPG91dGZpbGUubWFlPic=

> <r_lp_tautomer_probability>
1

> <r_epik_Ionization_Penalty>
6.1622

> <r_epik_Ionization_Penalty_Charging>
6.16146

> <r_epik_Ionization_Penalty_Neutral>
0.00073675

> <r_epik_State_Penalty>
6.18018

> <r_epik_Charging_Adjusted_Penalty>
12.3416

> <i_epik_Tot_Q>
0

> <i_epik_Tot_abs_Q>
2

> <r_epik_Metal_State_Penalty>
2.12232

> <b_epik_Metal_Only>
1

> <s_lp_Force_Field>
OPLS_2005

> <r_lp_Energy>
9.74682

> <b_lp_Chiralities_Consistent>
1

> <s_lp_Variant>
AV-unprocessed.smi:657-10

> <Gold.Version>
5.8.1

> <Gold.Id.Protein>
6NUR|6NUR_protein|mol2

> <Gold.PLP.Fitness>
40.0052

> <Gold.PLP.PLP>
-33.8345

> <Gold.PLP.part.hbond>
-1.0000

> <Gold.PLP.part.metal>
0.0000

> <Gold.PLP.part.buried>
-3.4787

> <Gold.PLP.part.nonpolar>
-29.9430

> <Gold.PLP.part.repulsive>
0.2027

> <Gold.PLP.ligand.clash>
0.0000

> <Gold.PLP.ligand.torsion>
1.4851

> <Gold.PLP.Chemscore.Hbond>
1.9840

> <Gold.PLP.Chemscore.CHOScore>
1.0000

> <Gold.PLP.Chemscore.Metal>
0.0000

> <Gold.Chemscore.Hbonds>
donor molecule, donor type, donor heavy atom, donor atom, acceptor molecule, acceptor atom, score
      L1  H     4    46       P1  7948  2.00
      L1  C    20    45       P1  8028  0.97

> <Gold.PLP.Chemscore.Internal.Correction>
0.1890

> <Gold.Rescore>
     Score         DG    S(hbond)    S(metal)    S(lipo)     H(rot)  DE(clash)    DE(int)     intcor
     12.07     -15.12       0.92        0.00      90.50       1.57       0.12       2.93       ----

> <Gold.Chemscore.Fitness>
12.0706

> <Gold.Chemscore.DG>
-15.1205

> <Gold.Chemscore.ZeroCoef>
-5.4800

> <Gold.Chemscore.Hbond>
0.9226

> <Gold.Chemscore.Metal>
0.0000

> <Gold.Chemscore.Lipo>
90.5016

> <Gold.Chemscore.Internal_Hbond>
0.0000

> <Gold.Chemscore.DEClash>
0.1188

> <Gold.Chemscore.DEInternal>
2.9311

> <Gold.Chemscore.Rot>
1.5741

> <Gold.Chemscore.Internal.Correction>
   9.000000E+99

> <Gold.Chemscore.Hbonds>
donor molecule, donor type, donor heavy atom, donor atom, acceptor molecule, acceptor atom, score
      L1  H     4    46       P1  7948  0.92

> <Gold.Chemscore.Hbond.Weighted>
-3.0815

> <Gold.Chemscore.Metal.Weighted>
-0.0000

> <Gold.Chemscore.Lipo.Weighted>
-10.5887

> <Gold.Chemscore.Internal_Hbond.Weighted>
0.0000

> <Gold.Chemscore.DEClash.Weighted>
0.1188

> <Gold.Chemscore.DEInternal.Weighted>
2.9311

> <Gold.Chemscore.Rot.Weighted>
4.0297

> <Gold.Chemscore.Internal.Correction.Weighted>
   9.000000E+99

> <Gold.Protein.RotatedTorsions>
[ 6907 6896 6895 6894 ] final    9.04 input  -60.11 | X-H torsion
[ 7974 7965 7964 7962 ] final  120.76 input  175.53 | X-H torsion
[ 8008 7997 7996 7995 ] final  -83.81 input   59.86 | X-H torsion
[ 10167 10162 10161 10158 ] final -125.55 input  -65.29 | X-H torsion
[ 10718 10713 10712 10709 ] final -119.00 input   66.30 | X-H torsion
[ 10763 10752 10751 10750 ] final   91.76 input  -60.55 | X-H torsion
[ 11005 11000 10999 10996 ] final  107.40 input  -57.11 | X-H torsion

> <Gold.Protein.ActiveResidues>
 VAL166  LYS551  ARG553  GLY616  TRP617  ASP618  TYR619  PRO620  LYS621  CYS622 
 ASP623  PHE694  ASN695  SER759  ASP760  ASP761  ALA762  ILE779  LEU786  VAL792 
 PHE793  MET794  SER795  GLU796  ALA797  LYS798  CYS799  TRP800  GLU811  SER814 

> <Gold.Protein.RotatedAtoms>
  151.7157  135.0904  160.0275 H   0  0  0  0  0  0  0  0  0  0  0  0  # atno 6907 bound_to 6896
  152.3634  133.6321  159.6040 H   0  0  0  0  0  0  0  0  0  0  0  0  # atno 6908 bound_to 6896
  150.7620  133.9304  159.3466 H   0  0  0  0  0  0  0  0  0  0  0  0  # atno 6909 bound_to 6896
  145.1273  139.3350  143.4683 H   0  0  0  0  0  0  0  0  0  0  0  0  # atno 7974 bound_to 7965
  154.6231  140.0613  156.9639 H   0  0  0  0  0  0  0  0  0  0  0  0  # atno 8008 bound_to 7997
  155.1786  140.3297  155.4361 H   0  0  0  0  0  0  0  0  0  0  0  0  # atno 8009 bound_to 7997
  156.2442  140.1901  156.6884 H   0  0  0  0  0  0  0  0  0  0  0  0  # atno 8010 bound_to 7997
  139.9809  143.5744  152.2379 H   0  0  0  0  0  0  0  0  0  0  0  0  # atno 10167 bound_to 10162
  156.1148  130.6277  150.9362 H   0  0  0  0  0  0  0  0  0  0  0  0  # atno 10718 bound_to 10713
  153.2118  135.4386  155.0388 H   0  0  0  0  0  0  0  0  0  0  0  0  # atno 10763 bound_to 10752
  154.8204  135.3335  154.7058 H   0  0  0  0  0  0  0  0  0  0  0  0  # atno 10764 bound_to 10752
  153.7495  135.6999  153.5004 H   0  0  0  0  0  0  0  0  0  0  0  0  # atno 10765 bound_to 10752
  139.8827  134.9399  156.5814 H   0  0  0  0  0  0  0  0  0  0  0  0  # atno 11005 bound_to 11000
  146.3516  140.1258  142.8599 LP  0  0  0  0  0  0  0  0  0  0  0  0  # atno 17320 bound_to 7965
  145.0674  140.9131  143.4902 LP  0  0  0  0  0  0  0  0  0  0  0  0  # atno 17321 bound_to 7965
  139.6411  144.7654  151.2338 LP  0  0  0  0  0  0  0  0  0  0  0  0  # atno 17342 bound_to 10162
  140.7489  143.6316  150.8418 LP  0  0  0  0  0  0  0  0  0  0  0  0  # atno 17343 bound_to 10162
  157.6331  131.0919  150.8402 LP  0  0  0  0  0  0  0  0  0  0  0  0  # atno 17370 bound_to 10713
  156.8507  130.5079  149.5312 LP  0  0  0  0  0  0  0  0  0  0  0  0  # atno 17371 bound_to 10713
  140.8024  133.8494  155.8738 LP  0  0  0  0  0  0  0  0  0  0  0  0  # atno 17394 bound_to 11000
  140.9580  134.1692  157.4676 LP  0  0  0  0  0  0  0  0  0  0  0  0  # atno 17395 bound_to 11000

$$$$
