AV-unprocessed.smi:2260|AV-procd|sdf|9133|dock6
  -GOLD-   2272012343D 1   1.00000     0.00000
 Structure written by MMmdl.
 43 44  0  0  0  0  0  0  0  0  2 V2000
  151.3096  145.5674  160.0335 C   0  0  0  0  0  0  0  0  0  0  0  0
  151.9404  144.2495  160.4497 C   0  0  0  0  0  0  0  0  0  0  0  0
  152.5079  143.9982  161.6344 C   0  0  0  0  0  0  0  0  0  0  0  0
  153.0944  142.3574  161.7693 S   0  0  0  0  0  0  0  0  0  0  0  0
  152.5163  142.0034  160.1016 C   0  0  0  0  0  0  0  0  0  0  0  0
  152.6392  140.9013  159.5698 O   0  0  0  0  0  0  0  0  0  0  0  0
  151.9392  143.1568  159.5735 N   0  0  0  0  0  0  0  0  0  0  0  0
  151.3897  143.1905  158.2152 C   0  0  0  0  0  0  0  0  0  0  0  0
  150.1204  142.3319  158.1071 C   0  0  0  0  0  0  0  0  0  0  0  0
  149.6222  142.3035  156.7165 N   0  3  0  0  0  0  0  0  0  0  0  0
  150.3210  141.3665  155.8039 C   0  0  1  0  0  0  0  0  0  0  0  0
  151.4686  140.6289  156.5336 C   0  0  0  0  0  0  0  0  0  0  0  0
  152.2050  139.6591  155.5996 C   0  0  0  0  0  0  0  0  0  0  0  0
  151.2344  138.6628  154.9557 C   0  0  0  0  0  0  0  0  0  0  0  0
  150.0972  139.3962  154.2251 C   0  0  0  0  0  0  0  0  0  0  0  0
  149.3136  140.3828  155.1296 C   0  0  0  0  0  0  0  0  0  0  0  0
  148.4800  139.5952  156.1695 C   0  0  0  0  0  0  0  0  0  0  0  0
  148.3392  141.1704  154.2270 C   0  0  0  0  0  0  0  0  0  0  0  0
  151.0338  146.1468  160.9150 H   0  0  0  0  0  0  0  0  0  0  0  0
  150.4042  145.4233  159.4450 H   0  0  0  0  0  0  0  0  0  0  0  0
  152.0173  146.1568  159.4502 H   0  0  0  0  0  0  0  0  0  0  0  0
  152.6087  144.6919  162.4563 H   0  0  0  0  0  0  0  0  0  0  0  0
  151.1884  144.2166  157.9071 H   0  0  0  0  0  0  0  0  0  0  0  0
  152.1394  142.8250  157.5110 H   0  0  0  0  0  0  0  0  0  0  0  0
  150.3333  141.3124  158.4316 H   0  0  0  0  0  0  0  0  0  0  0  0
  149.3504  142.7258  158.7696 H   0  0  0  0  0  0  0  0  0  0  0  0
  148.6364  142.0838  156.7168 H   0  0  0  0  0  0  0  0  0  0  0  0
  150.7694  141.9647  155.0082 H   0  0  0  0  0  0  0  0  0  0  0  0
  152.1935  141.3418  156.9253 H   0  0  0  0  0  0  0  0  0  0  0  0
  151.0839  140.0862  157.3974 H   0  0  0  0  0  0  0  0  0  0  0  0
  152.7177  140.2232  154.8193 H   0  0  0  0  0  0  0  0  0  0  0  0
  152.9778  139.1235  156.1519 H   0  0  0  0  0  0  0  0  0  0  0  0
  151.7736  138.0274  154.2524 H   0  0  0  0  0  0  0  0  0  0  0  0
  150.8293  137.9941  155.7155 H   0  0  0  0  0  0  0  0  0  0  0  0
  150.5285  139.9407  153.3834 H   0  0  0  0  0  0  0  0  0  0  0  0
  149.4173  138.6643  153.7871 H   0  0  0  0  0  0  0  0  0  0  0  0
  147.8134  138.8849  155.6793 H   0  0  0  0  0  0  0  0  0  0  0  0
  147.8522  140.2548  156.7690 H   0  0  0  0  0  0  0  0  0  0  0  0
  149.1009  139.0262  156.8602 H   0  0  0  0  0  0  0  0  0  0  0  0
  147.6630  140.4991  153.6961 H   0  0  0  0  0  0  0  0  0  0  0  0
  148.8723  141.7544  153.4758 H   0  0  0  0  0  0  0  0  0  0  0  0
  147.7204  141.8617  154.7997 H   0  0  0  0  0  0  0  0  0  0  0  0
  149.7407  143.2330  156.3392 H   0  0  0  0  0  0  0  0  0  0  0  0
  1  2  1  0  0  0  0
  1 19  1  0  0  0  0
  1 20  1  0  0  0  0
  1 21  1  0  0  0  0
  2  7  1  0  0  0  0
  2  3  2  0  0  0  0
  3  4  1  0  0  0  0
  3 22  1  0  0  0  0
  4  5  1  0  0  0  0
  5  6  2  0  0  0  0
  5  7  1  0  0  0  0
  7  8  1  0  0  0  0
  8  9  1  0  0  0  0
  8 23  1  0  0  0  0
  8 24  1  0  0  0  0
  9 10  1  0  0  0  0
  9 25  1  0  0  0  0
  9 26  1  0  0  0  0
 10 11  1  0  0  0  0
 10 27  1  0  0  0  0
 10 43  1  0  0  0  0
 11 16  1  0  0  0  0
 11 12  1  0  0  0  0
 11 28  1  0  0  0  0
 12 13  1  0  0  0  0
 12 29  1  0  0  0  0
 12 30  1  0  0  0  0
 13 14  1  0  0  0  0
 13 31  1  0  0  0  0
 13 32  1  0  0  0  0
 14 15  1  0  0  0  0
 14 33  1  0  0  0  0
 14 34  1  0  0  0  0
 15 16  1  0  0  0  0
 15 35  1  0  0  0  0
 15 36  1  0  0  0  0
 16 17  1  0  0  0  0
 16 18  1  0  0  0  0
 17 37  1  0  0  0  0
 17 38  1  0  0  0  0
 17 39  1  0  0  0  0
 18 40  1  0  0  0  0
 18 41  1  0  0  0  0
 18 42  1  0  0  0  0
M  CHG  1  10   1
M  END
> <s_m_source_file>
AV-unprocessed.smi

> <i_m_source_file_index>
2260

> <i_lp_mmshare_version>
43012

> <i_f3d_flags>
0

> <s_epik_input>
W0NIM11jMVtjSF1zYyg9TyluMVtDSDJdW0NIMl1bTkhdW0NAQEhdKEMyKFtDSDNdKVtDSDNdKVtDSDJdW0NIMl1bQ0gyXVtDSDJdMg==

> <s_epik_cmdline>
J2VwaWtfcHl0aG9uJywgJy1waCcsICc3LjAnLCAnLXRuJywgJzgnLCAnLW1hJywgJzIwMCcsICctbWV0YWxfYmluZGluZycsICctaW1hZScsICc8aW5maWxlLm1hZT4nLCAnLW9tYWUnLCAnPG91dGZpbGUubWFlPic=

> <r_epik_Ionization_Penalty>
0.0114277

> <r_epik_Ionization_Penalty_Charging>
0.0114277

> <r_epik_Ionization_Penalty_Neutral>
2.57259e-08

> <r_epik_State_Penalty>
0.0087935

> <r_epik_Charging_Adjusted_Penalty>
0.0202212

> <i_epik_Tot_Q>
1

> <i_epik_Tot_abs_Q>
1

> <r_epik_Metal_State_Penalty>
0.0087935

> <b_epik_Metal_Only>
0

> <s_lp_Force_Field>
OPLS_2005

> <r_lp_Energy>
26.3159

> <b_lp_Chiralities_Consistent>
1

> <s_lp_Variant>
AV-unprocessed.smi:2260-2

> <Gold.Version>
5.8.1

> <Gold.Id.Protein>
6NUR|6NUR_protein|mol2

> <Gold.PLP.Fitness>
47.3214

> <Gold.PLP.PLP>
-46.0144

> <Gold.PLP.part.hbond>
-1.0000

> <Gold.PLP.part.metal>
0.0000

> <Gold.PLP.part.buried>
-4.8274

> <Gold.PLP.part.nonpolar>
-40.2783

> <Gold.PLP.part.repulsive>
0.0281

> <Gold.PLP.ligand.clash>
2.4384

> <Gold.PLP.ligand.torsion>
0.9184

> <Gold.PLP.Chemscore.Hbond>
1.8560

> <Gold.PLP.Chemscore.CHOScore>
0.0000

> <Gold.PLP.Chemscore.Metal>
0.0000

> <Gold.Chemscore.Hbonds>
donor molecule, donor type, donor heavy atom, donor atom, acceptor molecule, acceptor atom, score
      L1  H    10    43       P1  8028  1.82

> <Gold.PLP.Chemscore.Internal.Correction>
0.0143

> <Gold.Rescore>
     Score         DG    S(hbond)    S(metal)    S(lipo)     H(rot)  DE(clash)    DE(int)     intcor
     17.43     -18.51       0.93        0.00     117.04       1.48       0.17       0.91       ----

> <Gold.Chemscore.Fitness>
17.4316

> <Gold.Chemscore.DG>
-18.5077

> <Gold.Chemscore.ZeroCoef>
-5.4800

> <Gold.Chemscore.Hbond>
0.9337

> <Gold.Chemscore.Metal>
0.0000

> <Gold.Chemscore.Lipo>
117.0433

> <Gold.Chemscore.Internal_Hbond>
0.0000

> <Gold.Chemscore.DEClash>
0.1698

> <Gold.Chemscore.DEInternal>
0.9062

> <Gold.Chemscore.Rot>
1.4785

> <Gold.Chemscore.Internal.Correction>
   9.000000E+99

> <Gold.Chemscore.Hbonds>
donor molecule, donor type, donor heavy atom, donor atom, acceptor molecule, acceptor atom, score
      L1  H    10    43       P1  8028  0.90

> <Gold.Chemscore.Hbond.Weighted>
-3.1186

> <Gold.Chemscore.Metal.Weighted>
-0.0000

> <Gold.Chemscore.Lipo.Weighted>
-13.6941

> <Gold.Chemscore.Internal_Hbond.Weighted>
0.0000

> <Gold.Chemscore.DEClash.Weighted>
0.1698

> <Gold.Chemscore.DEInternal.Weighted>
0.9062

> <Gold.Chemscore.Rot.Weighted>
3.7850

> <Gold.Chemscore.Internal.Correction.Weighted>
   9.000000E+99

> <Gold.Protein.RotatedTorsions>
[ 6907 6896 6895 6894 ] final  169.25 input  -60.11 | X-H torsion
[ 7974 7965 7964 7962 ] final  -40.09 input  175.53 | X-H torsion
[ 8008 7997 7996 7995 ] final -123.18 input   59.86 | X-H torsion
[ 10167 10162 10161 10158 ] final  -70.60 input  -65.29 | X-H torsion
[ 10718 10713 10712 10709 ] final   58.66 input   66.30 | X-H torsion
[ 10763 10752 10751 10750 ] final -123.83 input  -60.55 | X-H torsion
[ 11005 11000 10999 10996 ] final   14.81 input  -57.11 | X-H torsion

> <Gold.Protein.ActiveResidues>
 VAL166  LYS551  ARG553  GLY616  TRP617  ASP618  TYR619  PRO620  LYS621  CYS622 
 ASP623  PHE694  ASN695  SER759  ASP760  ASP761  ALA762  ILE779  LEU786  VAL792 
 PHE793  MET794  SER795  GLU796  ALA797  LYS798  CYS799  TRP800  GLU811  SER814 

> <Gold.Protein.RotatedAtoms>
  151.8348  133.3414  159.3624 H   0  0  0  0  0  0  0  0  0  0  0  0  # atno 6907 bound_to 6896
  150.7253  134.5448  159.5774 H   0  0  0  0  0  0  0  0  0  0  0  0  # atno 6908 bound_to 6896
  152.2909  134.7723  160.0429 H   0  0  0  0  0  0  0  0  0  0  0  0  # atno 6909 bound_to 6896
  146.0336  140.6699  142.9120 H   0  0  0  0  0  0  0  0  0  0  0  0  # atno 7974 bound_to 7965
  155.1763  140.0409  157.2873 H   0  0  0  0  0  0  0  0  0  0  0  0  # atno 8008 bound_to 7997
  154.6234  140.2506  155.7493 H   0  0  0  0  0  0  0  0  0  0  0  0  # atno 8009 bound_to 7997
  156.2446  140.2890  156.0553 H   0  0  0  0  0  0  0  0  0  0  0  0  # atno 8010 bound_to 7997
  140.5340  143.2319  151.7211 H   0  0  0  0  0  0  0  0  0  0  0  0  # atno 10167 bound_to 10162
  157.5614  130.8838  149.9117 H   0  0  0  0  0  0  0  0  0  0  0  0  # atno 10718 bound_to 10713
  154.8714  135.4084  154.3007 H   0  0  0  0  0  0  0  0  0  0  0  0  # atno 10763 bound_to 10752
  153.3867  135.7013  153.6530 H   0  0  0  0  0  0  0  0  0  0  0  0  # atno 10764 bound_to 10752
  153.5330  135.3663  155.2655 H   0  0  0  0  0  0  0  0  0  0  0  0  # atno 10765 bound_to 10752
  140.4653  134.1086  155.7723 H   0  0  0  0  0  0  0  0  0  0  0  0  # atno 11005 bound_to 11000
  144.7041  140.3781  143.7132 LP  0  0  0  0  0  0  0  0  0  0  0  0  # atno 17320 bound_to 7965
  145.7000  139.1659  143.2598 LP  0  0  0  0  0  0  0  0  0  0  0  0  # atno 17321 bound_to 7965
  139.4964  144.4071  152.0120 LP  0  0  0  0  0  0  0  0  0  0  0  0  # atno 17342 bound_to 10162
  140.3175  144.3466  150.6018 LP  0  0  0  0  0  0  0  0  0  0  0  0  # atno 17343 bound_to 10162
  156.0666  130.3691  150.0865 LP  0  0  0  0  0  0  0  0  0  0  0  0  # atno 17370 bound_to 10713
  156.9028  130.9626  151.3574 LP  0  0  0  0  0  0  0  0  0  0  0  0  # atno 17371 bound_to 10713
  141.1602  133.8807  157.1868 LP  0  0  0  0  0  0  0  0  0  0  0  0  # atno 17394 bound_to 11000
  139.9919  135.0061  156.9995 LP  0  0  0  0  0  0  0  0  0  0  0  0  # atno 17395 bound_to 11000

$$$$
