AV-unprocessed.smi:3142|AV-procd|sdf|11970|dock8
  -GOLD-   2272017373D 1   1.00000     0.00000
 Structure written by MMmdl.
 36 38  0  0  0  0  0  0  0  0  1 V2000
  152.2835  139.6068  156.0730 C   0  0  0  0  0  0  0  0  0  0  0  0
  151.4046  140.8605  155.9004 C   0  0  2  0  0  0  0  0  0  0  0  0
  151.0455  141.5343  157.2348 C   0  0  0  0  0  0  0  0  0  0  0  0
  149.8731  141.7773  157.5232 O   0  0  0  0  0  0  0  0  0  0  0  0
  152.0784  141.8327  158.0388 N   0  0  0  0  0  0  0  0  0  0  0  0
  151.9897  142.4962  159.3345 C   0  0  0  0  0  0  0  0  0  0  0  0
  151.3910  143.8845  159.2043 C   0  0  0  0  0  0  0  0  0  0  0  0
  152.2112  145.0559  158.7182 C   0  0  0  0  0  0  0  0  0  0  0  0
  151.7703  144.9868  160.1634 C   0  0  0  0  0  0  0  0  0  0  0  0
  153.3301  142.5612  160.0472 C   0  0  0  0  0  0  0  0  0  0  0  0
  154.0330  141.3088  160.5150 C   0  0  0  0  0  0  0  0  0  0  0  0
  153.4504  142.2707  161.5248 C   0  0  0  0  0  0  0  0  0  0  0  0
  150.1974  140.5613  155.1426 N   0  0  0  0  0  0  0  0  0  0  0  0
  149.8028  139.3178  154.6636 C   0  0  0  0  0  0  0  0  0  0  0  0
  148.6159  139.5096  153.9937 C   0  0  0  0  0  0  0  0  0  0  0  0
  148.2639  140.8559  154.0397 N   0  0  0  0  0  0  0  0  0  0  0  0
  149.2463  141.4159  154.7335 C   0  0  0  0  0  0  0  0  0  0  0  0
  153.2040  139.8408  156.6090 H   0  0  0  0  0  0  0  0  0  0  0  0
  152.5671  139.1955  155.1038 H   0  0  0  0  0  0  0  0  0  0  0  0
  151.7675  138.8208  156.6259 H   0  0  0  0  0  0  0  0  0  0  0  0
  151.9817  141.5853  155.3237 H   0  0  0  0  0  0  0  0  0  0  0  0
  153.0057  141.5961  157.7168 H   0  0  0  0  0  0  0  0  0  0  0  0
  151.3104  141.9205  159.9667 H   0  0  0  0  0  0  0  0  0  0  0  0
  150.3494  143.8776  158.8880 H   0  0  0  0  0  0  0  0  0  0  0  0
  153.2667  144.8913  158.5111 H   0  0  0  0  0  0  0  0  0  0  0  0
  151.7175  145.7813  158.0750 H   0  0  0  0  0  0  0  0  0  0  0  0
  150.9828  145.6659  160.4837 H   0  0  0  0  0  0  0  0  0  0  0  0
  152.5301  144.7679  160.9111 H   0  0  0  0  0  0  0  0  0  0  0  0
  153.9776  143.3532  159.6748 H   0  0  0  0  0  0  0  0  0  0  0  0
  153.5231  140.3572  160.3796 H   0  0  0  0  0  0  0  0  0  0  0  0
  155.1158  141.2754  160.4164 H   0  0  0  0  0  0  0  0  0  0  0  0
  154.1455  142.8785  162.1006 H   0  0  0  0  0  0  0  0  0  0  0  0
  152.5576  141.9518  162.0583 H   0  0  0  0  0  0  0  0  0  0  0  0
  150.3831  138.4229  154.8336 H   0  0  0  0  0  0  0  0  0  0  0  0
  147.9954  138.7884  153.4827 H   0  0  0  0  0  0  0  0  0  0  0  0
  149.2772  142.4748  154.9458 H   0  0  0  0  0  0  0  0  0  0  0  0
  1  2  1  0  0  0  0
  1 18  1  0  0  0  0
  1 19  1  0  0  0  0
  1 20  1  0  0  0  0
  2  3  1  0  0  0  0
  2 13  1  0  0  0  0
  2 21  1  0  0  0  0
  3  4  2  0  0  0  0
  3  5  1  0  0  0  0
  5  6  1  0  0  0  0
  5 22  1  0  0  0  0
  6  7  1  0  0  0  0
  6 10  1  0  0  0  0
  6 23  1  0  0  0  0
  7  9  1  0  0  0  0
  7  8  1  0  0  0  0
  7 24  1  0  0  0  0
  8  9  1  0  0  0  0
  8 25  1  0  0  0  0
  8 26  1  0  0  0  0
  9 27  1  0  0  0  0
  9 28  1  0  0  0  0
 10 12  1  0  0  0  0
 10 11  1  0  0  0  0
 10 29  1  0  0  0  0
 11 12  1  0  0  0  0
 11 30  1  0  0  0  0
 11 31  1  0  0  0  0
 12 32  1  0  0  0  0
 12 33  1  0  0  0  0
 13 17  1  0  0  0  0
 13 14  1  0  0  0  0
 14 15  2  0  0  0  0
 14 34  1  0  0  0  0
 15 16  1  0  0  0  0
 15 35  1  0  0  0  0
 16 17  2  0  0  0  0
 17 36  1  0  0  0  0
M  END
> <s_m_source_file>
AV-unprocessed.smi

> <i_m_source_file_index>
3142

> <i_lp_mmshare_version>
43012

> <i_f3d_flags>
0

> <s_epik_input>
W2NIXTFuW2NIXVtjSF1uMVtDQEhdKFtDSDNdKUMoPU8pW05IXVtDSF0oW0NIXTJbQ0gyXVtDSDJdMilbQ0hdM1tDSDJdW0NIMl0z

> <s_epik_cmdline>
J2VwaWtfcHl0aG9uJywgJy1waCcsICc3LjAnLCAnLXRuJywgJzgnLCAnLW1hJywgJzIwMCcsICctbWV0YWxfYmluZGluZycsICctaW1hZScsICc8aW5maWxlLm1hZT4nLCAnLW9tYWUnLCAnPG91dGZpbGUubWFlPic=

> <r_lp_tautomer_probability>
1

> <r_epik_Ionization_Penalty>
0.32285

> <r_epik_Ionization_Penalty_Charging>
0.32285

> <r_epik_Ionization_Penalty_Neutral>
3.37967e-08

> <r_epik_State_Penalty>
0.317502

> <r_epik_Charging_Adjusted_Penalty>
0.640352

> <i_epik_Tot_Q>
0

> <i_epik_Tot_abs_Q>
0

> <r_epik_Metal_State_Penalty>
0.20415

> <b_epik_Metal_Only>
0

> <s_lp_Force_Field>
OPLS_2005

> <r_lp_Energy>
29.0844

> <b_lp_Chiralities_Consistent>
1

> <s_lp_Variant>
AV-unprocessed.smi:3142-1

> <Gold.Version>
5.8.1

> <Gold.Id.Protein>
6NUR|6NUR_protein|mol2

> <Gold.PLP.Fitness>
46.7899

> <Gold.PLP.PLP>
-44.0581

> <Gold.PLP.part.hbond>
0.0000

> <Gold.PLP.part.metal>
0.0000

> <Gold.PLP.part.buried>
-2.7754

> <Gold.PLP.part.nonpolar>
-40.9209

> <Gold.PLP.part.repulsive>
0.3069

> <Gold.PLP.ligand.clash>
0.0000

> <Gold.PLP.ligand.torsion>
1.2375

> <Gold.PLP.Chemscore.Hbond>
0.0000

> <Gold.PLP.Chemscore.CHOScore>
1.0000

> <Gold.PLP.Chemscore.Metal>
0.0000

> <Gold.Chemscore.Hbonds>
donor molecule, donor type, donor heavy atom, donor atom, acceptor molecule, acceptor atom, score
      L1  C    17    36       P1  8028  1.00

> <Gold.PLP.Chemscore.Internal.Correction>
2.2067

> <Gold.Rescore>
     Score         DG    S(hbond)    S(metal)    S(lipo)     H(rot)  DE(clash)    DE(int)     intcor
     10.69     -13.24       0.00        0.00     106.84       1.85       0.03       2.52       ----

> <Gold.Chemscore.Fitness>
10.6949

> <Gold.Chemscore.DG>
-13.2427

> <Gold.Chemscore.ZeroCoef>
-5.4800

> <Gold.Chemscore.Hbond>
0.0000

> <Gold.Chemscore.Metal>
0.0000

> <Gold.Chemscore.Lipo>
106.8371

> <Gold.Chemscore.Internal_Hbond>
0.0000

> <Gold.Chemscore.DEClash>
0.0272

> <Gold.Chemscore.DEInternal>
2.5206

> <Gold.Chemscore.Rot>
1.8505

> <Gold.Chemscore.Internal.Correction>
   9.000000E+99

> <Gold.Chemscore.Hbond.Weighted>
-0.0000

> <Gold.Chemscore.Metal.Weighted>
-0.0000

> <Gold.Chemscore.Lipo.Weighted>
-12.4999

> <Gold.Chemscore.Internal_Hbond.Weighted>
0.0000

> <Gold.Chemscore.DEClash.Weighted>
0.0272

> <Gold.Chemscore.DEInternal.Weighted>
2.5206

> <Gold.Chemscore.Rot.Weighted>
4.7373

> <Gold.Chemscore.Internal.Correction.Weighted>
   9.000000E+99

> <Gold.Protein.RotatedTorsions>
[ 6907 6896 6895 6894 ] final -139.38 input  -60.11 | X-H torsion
[ 7974 7965 7964 7962 ] final  -40.51 input  175.53 | X-H torsion
[ 8008 7997 7996 7995 ] final  108.68 input   59.86 | X-H torsion
[ 10167 10162 10161 10158 ] final   51.07 input  -65.29 | X-H torsion
[ 10718 10713 10712 10709 ] final   19.51 input   66.30 | X-H torsion
[ 10763 10752 10751 10750 ] final -139.61 input  -60.55 | X-H torsion
[ 11005 11000 10999 10996 ] final -148.74 input  -57.11 | X-H torsion

> <Gold.Protein.ActiveResidues>
 VAL166  LYS551  ARG553  GLY616  TRP617  ASP618  TYR619  PRO620  LYS621  CYS622 
 ASP623  PHE694  ASN695  SER759  ASP760  ASP761  ALA762  ILE779  LEU786  VAL792 
 PHE793  MET794  SER795  GLU796  ALA797  LYS798  CYS799  TRP800  GLU811  SER814 

> <Gold.Protein.RotatedAtoms>
  151.0471  133.5656  159.2645 H   0  0  0  0  0  0  0  0  0  0  0  0  # atno 6907 bound_to 6896
  151.2681  135.0675  159.9133 H   0  0  0  0  0  0  0  0  0  0  0  0  # atno 6908 bound_to 6896
  152.5375  134.0205  159.8033 H   0  0  0  0  0  0  0  0  0  0  0  0  # atno 6909 bound_to 6896
  146.0298  140.6746  142.9138 H   0  0  0  0  0  0  0  0  0  0  0  0  # atno 7974 bound_to 7965
  156.1922  140.3072  155.9355 H   0  0  0  0  0  0  0  0  0  0  0  0  # atno 8008 bound_to 7997
  155.3148  140.0453  157.3053 H   0  0  0  0  0  0  0  0  0  0  0  0  # atno 8009 bound_to 7997
  154.5465  140.2278  155.8563 H   0  0  0  0  0  0  0  0  0  0  0  0  # atno 8010 bound_to 7997
  140.2658  144.3322  150.6304 H   0  0  0  0  0  0  0  0  0  0  0  0  # atno 10167 bound_to 10162
  157.1114  130.6510  149.5898 H   0  0  0  0  0  0  0  0  0  0  0  0  # atno 10718 bound_to 10713
  154.8604  135.3577  154.5574 H   0  0  0  0  0  0  0  0  0  0  0  0  # atno 10763 bound_to 10752
  153.6191  135.7006  153.5322 H   0  0  0  0  0  0  0  0  0  0  0  0  # atno 10764 bound_to 10752
  153.3144  135.4169  155.1324 H   0  0  0  0  0  0  0  0  0  0  0  0  # atno 10765 bound_to 10752
  140.7581  134.3330  157.5109 H   0  0  0  0  0  0  0  0  0  0  0  0  # atno 11005 bound_to 11000
  144.7025  140.3715  143.7144 LP  0  0  0  0  0  0  0  0  0  0  0  0  # atno 17320 bound_to 7965
  145.7059  139.1672  143.2566 LP  0  0  0  0  0  0  0  0  0  0  0  0  # atno 17321 bound_to 7965
  140.5930  143.2167  151.7218 LP  0  0  0  0  0  0  0  0  0  0  0  0  # atno 17342 bound_to 10162
  139.5003  144.3911  152.0279 LP  0  0  0  0  0  0  0  0  0  0  0  0  # atno 17343 bound_to 10162
  155.9849  130.4877  150.7008 LP  0  0  0  0  0  0  0  0  0  0  0  0  # atno 17370 bound_to 10713
  157.4556  131.0877  151.0800 LP  0  0  0  0  0  0  0  0  0  0  0  0  # atno 17371 bound_to 10713
  139.8775  134.9184  156.3203 LP  0  0  0  0  0  0  0  0  0  0  0  0  # atno 17394 bound_to 11000
  140.9689  133.7340  156.0506 LP  0  0  0  0  0  0  0  0  0  0  0  0  # atno 17395 bound_to 11000

$$$$
