AV-unprocessed.smi:2571|AV-procd|sdf|10109|dock10
  -GOLD-   2272014123D 1   1.00000     0.00000
 Structure written by MMmdl.
 38 40  0  0  0  0  0  0  0  0  1 V2000
  151.6776  145.3953  160.0107 C   0  0  0  0  0  0  0  0  0  0  0  0
  151.9470  144.4554  161.0403 O   0  0  0  0  0  0  0  0  0  0  0  0
  152.4131  143.2109  160.6755 C   0  0  0  0  0  0  0  0  0  0  0  0
  153.2274  142.3920  161.4972 C   0  0  0  0  0  0  0  0  0  0  0  0
  153.6470  141.1260  161.0462 C   0  0  0  0  0  0  0  0  0  0  0  0
  153.2559  140.6603  159.7776 C   0  0  0  0  0  0  0  0  0  0  0  0
  152.4440  141.4633  158.9489 C   0  0  0  0  0  0  0  0  0  0  0  0
  151.9600  140.9558  157.5962 C   0  0  1  0  0  0  0  0  0  0  0  0
  152.6929  139.8349  157.1435 O   0  0  0  0  0  0  0  0  0  0  0  0
  150.4618  140.5857  157.6131 C   0  0  0  0  0  0  0  0  0  0  0  0
  149.9303  140.3855  156.2725 N   0  0  0  0  0  0  0  0  0  0  0  0
  150.6038  139.5928  155.3993 N   0  0  0  0  0  0  0  0  0  0  0  0
  149.9160  139.6400  154.2604 C   0  0  0  0  0  0  0  0  0  0  0  0
  148.7709  140.4761  154.3639 C   0  0  0  0  0  0  0  0  0  0  0  0
  147.7133  140.8980  153.4508 C   0  0  0  0  0  0  0  0  0  0  0  0
  146.8119  141.7180  153.8930 N   0  0  0  0  0  0  0  0  0  0  0  0
  146.8399  142.1869  155.2112 N   0  0  0  0  0  0  0  0  0  0  0  0
  145.7653  143.1155  155.5541 C   0  0  0  0  0  0  0  0  0  0  0  0
  147.7676  141.8333  156.1503 C   0  0  0  0  0  0  0  0  0  0  0  0
  147.7553  142.2352  157.3134 O   0  0  0  0  0  0  0  0  0  0  0  0
  148.8152  140.9111  155.6476 C   0  0  0  0  0  0  0  0  0  0  0  0
  152.0383  142.7364  159.4025 C   0  0  0  0  0  0  0  0  0  0  0  0
  151.3376  146.3297  160.4569 H   0  0  0  0  0  0  0  0  0  0  0  0
  150.8893  145.0423  159.3443 H   0  0  0  0  0  0  0  0  0  0  0  0
  152.5734  145.6152  159.4281 H   0  0  0  0  0  0  0  0  0  0  0  0
  153.5414  142.7109  162.4794 H   0  0  0  0  0  0  0  0  0  0  0  0
  154.2626  140.5053  161.6805 H   0  0  0  0  0  0  0  0  0  0  0  0
  153.5664  139.6777  159.4536 H   0  0  0  0  0  0  0  0  0  0  0  0
  152.1205  141.7428  156.8577 H   0  0  0  0  0  0  0  0  0  0  0  0
  152.1093  139.2737  156.6562 H   0  0  0  0  0  0  0  0  0  0  0  0
  150.3150  139.6601  158.1724 H   0  0  0  0  0  0  0  0  0  0  0  0
  149.8761  141.3453  158.1295 H   0  0  0  0  0  0  0  0  0  0  0  0
  150.2731  139.0825  153.4072 H   0  0  0  0  0  0  0  0  0  0  0  0
  147.6887  140.5321  152.4244 H   0  0  0  0  0  0  0  0  0  0  0  0
  145.1403  142.7028  156.3475 H   0  0  0  0  0  0  0  0  0  0  0  0
  145.1194  143.3272  154.7003 H   0  0  0  0  0  0  0  0  0  0  0  0
  146.1752  144.0656  155.9001 H   0  0  0  0  0  0  0  0  0  0  0  0
  151.4067  143.3499  158.7763 H   0  0  0  0  0  0  0  0  0  0  0  0
  1  2  1  0  0  0  0
  1 23  1  0  0  0  0
  1 24  1  0  0  0  0
  1 25  1  0  0  0  0
  2  3  1  0  0  0  0
  3 22  1  0  0  0  0
  3  4  2  0  0  0  0
  4  5  1  0  0  0  0
  4 26  1  0  0  0  0
  5  6  2  0  0  0  0
  5 27  1  0  0  0  0
  6  7  1  0  0  0  0
  6 28  1  0  0  0  0
  7  8  1  0  0  0  0
  7 22  2  0  0  0  0
  8  9  1  0  0  0  0
  8 10  1  0  0  0  0
  8 29  1  0  0  0  0
  9 30  1  0  0  0  0
 10 11  1  0  0  0  0
 10 31  1  0  0  0  0
 10 32  1  0  0  0  0
 11 21  1  0  0  0  0
 11 12  1  0  0  0  0
 12 13  2  0  0  0  0
 13 14  1  0  0  0  0
 13 33  1  0  0  0  0
 14 21  2  0  0  0  0
 14 15  1  0  0  0  0
 15 16  2  0  0  0  0
 15 34  1  0  0  0  0
 16 17  1  0  0  0  0
 17 18  1  0  0  0  0
 17 19  1  0  0  0  0
 18 35  1  0  0  0  0
 18 36  1  0  0  0  0
 18 37  1  0  0  0  0
 19 20  2  0  0  0  0
 19 21  1  0  0  0  0
 22 38  1  0  0  0  0
M  END
> <s_m_source_file>
AV-unprocessed.smi

> <i_m_source_file_index>
2571

> <i_lp_mmshare_version>
43012

> <i_f3d_flags>
0

> <s_epik_input>
W0NIM11PYzFbY0hdW2NIXVtjSF1jKFtjSF0xKVtDQEhdKFtPSF0pW0NIMl1uKG5bY0hdMiljKGMyMyljKD1PKW4oW0NIM10pbltjSF0z

> <s_epik_cmdline>
J2VwaWtfcHl0aG9uJywgJy1waCcsICc3LjAnLCAnLXRuJywgJzgnLCAnLW1hJywgJzIwMCcsICctbWV0YWxfYmluZGluZycsICctaW1hZScsICc8aW5maWxlLm1hZT4nLCAnLW9tYWUnLCAnPG91dGZpbGUubWFlPic=

> <r_lp_tautomer_probability>
1

> <r_epik_Ionization_Penalty>
1.38887e-06

> <r_epik_Ionization_Penalty_Charging>
1.65421e-10

> <r_epik_Ionization_Penalty_Neutral>
1.38871e-06

> <r_epik_State_Penalty>
-0

> <r_epik_Charging_Adjusted_Penalty>
1.65421e-10

> <i_epik_Tot_Q>
0

> <i_epik_Tot_abs_Q>
0

> <r_epik_Metal_State_Penalty>
-0

> <b_epik_Metal_Only>
0

> <s_lp_Force_Field>
OPLS_2005

> <r_lp_Energy>
30.2232

> <b_lp_Chiralities_Consistent>
1

> <s_lp_Variant>
AV-unprocessed.smi:2571-2

> <Gold.Version>
5.8.1

> <Gold.Id.Protein>
6NUR|6NUR_protein|mol2

> <Gold.PLP.Fitness>
48.8276

> <Gold.PLP.PLP>
-42.4337

> <Gold.PLP.part.hbond>
-1.0000

> <Gold.PLP.part.metal>
0.0000

> <Gold.PLP.part.buried>
-4.2151

> <Gold.PLP.part.nonpolar>
-36.6948

> <Gold.PLP.part.repulsive>
0.5440

> <Gold.PLP.ligand.clash>
0.0000

> <Gold.PLP.ligand.torsion>
0.8626

> <Gold.PLP.Chemscore.Hbond>
1.0000

> <Gold.PLP.Chemscore.CHOScore>
1.6983

> <Gold.PLP.Chemscore.Metal>
0.0000

> <Gold.Chemscore.Hbonds>
donor molecule, donor type, donor heavy atom, donor atom, acceptor molecule, acceptor atom, score
      P1  H  7997  8009       L1     9  1.00
      L1  C    13    33       P1  7957  0.71
      L1  C    15    34       P1  7957  0.90

> <Gold.PLP.Chemscore.Internal.Correction>
0.0242

> <Gold.Rescore>
     Score         DG    S(hbond)    S(metal)    S(lipo)     H(rot)  DE(clash)    DE(int)     intcor
     14.18     -16.41       0.97        0.00     114.26       2.21       0.07       2.16       ----

> <Gold.Chemscore.Fitness>
14.1785

> <Gold.Chemscore.DG>
-16.4082

> <Gold.Chemscore.ZeroCoef>
-5.4800

> <Gold.Chemscore.Hbond>
0.9669

> <Gold.Chemscore.Metal>
0.0000

> <Gold.Chemscore.Lipo>
114.2557

> <Gold.Chemscore.Internal_Hbond>
0.0000

> <Gold.Chemscore.DEClash>
0.0686

> <Gold.Chemscore.DEInternal>
2.1611

> <Gold.Chemscore.Rot>
2.2146

> <Gold.Chemscore.Internal.Correction>
   9.000000E+99

> <Gold.Chemscore.Hbonds>
donor molecule, donor type, donor heavy atom, donor atom, acceptor molecule, acceptor atom, score
      P1  H  7997  8009       L1     9  0.95

> <Gold.Chemscore.Hbond.Weighted>
-3.2296

> <Gold.Chemscore.Metal.Weighted>
-0.0000

> <Gold.Chemscore.Lipo.Weighted>
-13.3679

> <Gold.Chemscore.Internal_Hbond.Weighted>
0.0000

> <Gold.Chemscore.DEClash.Weighted>
0.0686

> <Gold.Chemscore.DEInternal.Weighted>
2.1611

> <Gold.Chemscore.Rot.Weighted>
5.6693

> <Gold.Chemscore.Internal.Correction.Weighted>
   9.000000E+99

> <Gold.Protein.RotatedTorsions>
[ 6907 6896 6895 6894 ] final   -8.52 input  -60.11 | X-H torsion
[ 7974 7965 7964 7962 ] final   40.71 input  175.53 | X-H torsion
[ 8008 7997 7996 7995 ] final  173.33 input   59.86 | X-H torsion
[ 10167 10162 10161 10158 ] final -164.18 input  -65.29 | X-H torsion
[ 10718 10713 10712 10709 ] final  -73.88 input   66.30 | X-H torsion
[ 10763 10752 10751 10750 ] final  -95.14 input  -60.55 | X-H torsion
[ 11005 11000 10999 10996 ] final   60.03 input  -57.11 | X-H torsion

> <Gold.Protein.ActiveResidues>
 VAL166  LYS551  ARG553  GLY616  TRP617  ASP618  TYR619  PRO620  LYS621  CYS622 
 ASP623  PHE694  ASN695  SER759  ASP760  ASP761  ALA762  ILE779  LEU786  VAL792 
 PHE793  MET794  SER795  GLU796  ALA797  LYS798  CYS799  TRP800  GLU811  SER814 

> <Gold.Protein.RotatedAtoms>
  151.4324  135.1011  159.9645 H   0  0  0  0  0  0  0  0  0  0  0  0  # atno 6907 bound_to 6896
  152.4951  133.8605  159.7258 H   0  0  0  0  0  0  0  0  0  0  0  0  # atno 6908 bound_to 6896
  150.9146  133.6897  159.2874 H   0  0  0  0  0  0  0  0  0  0  0  0  # atno 6909 bound_to 6896
  146.0883  139.5501  142.9492 H   0  0  0  0  0  0  0  0  0  0  0  0  # atno 7974 bound_to 7965
  156.1086  140.1463  156.9369 H   0  0  0  0  0  0  0  0  0  0  0  0  # atno 8008 bound_to 7997
  154.4751  140.0897  156.7286 H   0  0  0  0  0  0  0  0  0  0  0  0  # atno 8009 bound_to 7997
  155.4635  140.3439  155.4318 H   0  0  0  0  0  0  0  0  0  0  0  0  # atno 8010 bound_to 7997
  139.6268  144.0516  152.1982 H   0  0  0  0  0  0  0  0  0  0  0  0  # atno 10167 bound_to 10162
  156.0263  130.4404  150.2808 H   0  0  0  0  0  0  0  0  0  0  0  0  # atno 10718 bound_to 10713
  154.7121  135.5131  153.8681 H   0  0  0  0  0  0  0  0  0  0  0  0  # atno 10763 bound_to 10752
  153.0789  135.6625  154.0096 H   0  0  0  0  0  0  0  0  0  0  0  0  # atno 10764 bound_to 10752
  153.9936  135.3017  155.3389 H   0  0  0  0  0  0  0  0  0  0  0  0  # atno 10765 bound_to 10752
  140.0261  134.6080  155.9571 H   0  0  0  0  0  0  0  0  0  0  0  0  # atno 11005 bound_to 11000
  145.6088  141.0343  143.1978 LP  0  0  0  0  0  0  0  0  0  0  0  0  # atno 17320 bound_to 7965
  144.7341  139.7637  143.7336 LP  0  0  0  0  0  0  0  0  0  0  0  0  # atno 17321 bound_to 7965
  140.0171  144.6180  150.7597 LP  0  0  0  0  0  0  0  0  0  0  0  0  # atno 17342 bound_to 10162
  140.7416  143.2820  151.3571 LP  0  0  0  0  0  0  0  0  0  0  0  0  # atno 17343 bound_to 10162
  157.0911  131.0170  151.3121 LP  0  0  0  0  0  0  0  0  0  0  0  0  # atno 17370 bound_to 10713
  157.4853  130.7789  149.7454 LP  0  0  0  0  0  0  0  0  0  0  0  0  # atno 17371 bound_to 10713
  141.1803  133.6545  156.4995 LP  0  0  0  0  0  0  0  0  0  0  0  0  # atno 17394 bound_to 11000
  140.4304  134.7107  157.4938 LP  0  0  0  0  0  0  0  0  0  0  0  0  # atno 17395 bound_to 11000

$$$$
