AV-unprocessed.smi:3313|AV-procd|sdf|12730|dock8
  -GOLD-   2272019 73D 1   1.00000     0.00000
 Structure written by MMmdl.
 43 43  0  0  0  0  0  0  0  0  2 V2000
  145.3592  135.8185  153.6525 C   0  0  0  0  0  0  0  0  0  0  0  0
  145.8634  135.6328  152.2116 C   0  0  1  0  0  0  0  0  0  0  0  0
  144.7083  135.2186  151.2792 C   0  0  0  0  0  0  0  0  0  0  0  0
  144.8183  133.8382  150.8416 N   0  0  0  0  0  0  0  0  0  0  0  0
  143.8112  132.9118  150.6710 C   0  0  0  0  0  0  0  0  0  0  0  0
  144.3946  131.7504  150.2523 C   0  0  0  0  0  0  0  0  0  0  0  0
  145.7802  132.0689  150.1945 C   0  0  0  0  0  0  0  0  0  0  0  0
  146.0311  133.3187  150.5505 N   0  0  0  0  0  0  0  0  0  0  0  0
  146.5020  136.8723  151.7139 N   0  3  0  0  0  0  0  0  0  0  0  0
  145.9867  138.1310  152.2964 C   0  0  0  0  0  0  0  0  0  0  0  0
  147.1107  139.1613  152.5234 C   0  0  0  0  0  0  0  0  0  0  0  0
  147.9274  138.9345  153.8019 C   0  0  0  0  0  0  0  0  0  0  0  0
  147.3623  138.7953  154.8871 O   0  0  0  0  0  0  0  0  0  0  0  0
  149.2626  138.9063  153.6434 N   0  0  0  0  0  0  0  0  0  0  0  0
  150.3000  138.7225  154.6658 C   0  0  0  0  0  0  0  0  0  0  0  0
  150.6158  140.1162  155.2369 C   0  0  0  0  0  0  0  0  0  0  0  0
  151.5833  138.1336  154.0424 C   0  0  0  0  0  0  0  0  0  0  0  0
  149.7858  137.8185  155.8062 C   0  0  0  0  0  0  0  0  0  0  0  0
  144.8661  134.9151  154.0128 H   0  0  0  0  0  0  0  0  0  0  0  0
  144.6404  136.6361  153.7185 H   0  0  0  0  0  0  0  0  0  0  0  0
  146.1740  136.0344  154.3432 H   0  0  0  0  0  0  0  0  0  0  0  0
  146.6051  134.8323  152.2034 H   0  0  0  0  0  0  0  0  0  0  0  0
  143.7531  135.3284  151.7949 H   0  0  0  0  0  0  0  0  0  0  0  0
  144.6630  135.8683  150.4034 H   0  0  0  0  0  0  0  0  0  0  0  0
  142.7752  133.1528  150.8596 H   0  0  0  0  0  0  0  0  0  0  0  0
  143.9061  130.8157  150.0200 H   0  0  0  0  0  0  0  0  0  0  0  0
  146.6051  131.4335  149.9073 H   0  0  0  0  0  0  0  0  0  0  0  0
  147.4859  136.8166  151.9374 H   0  0  0  0  0  0  0  0  0  0  0  0
  145.2172  138.5565  151.6520 H   0  0  0  0  0  0  0  0  0  0  0  0
  145.5073  137.9075  153.2501 H   0  0  0  0  0  0  0  0  0  0  0  0
  147.7982  139.1379  151.6772 H   0  0  0  0  0  0  0  0  0  0  0  0
  146.6837  140.1652  152.5468 H   0  0  0  0  0  0  0  0  0  0  0  0
  149.6057  139.0280  152.7014 H   0  0  0  0  0  0  0  0  0  0  0  0
  151.3815  140.0640  156.0116 H   0  0  0  0  0  0  0  0  0  0  0  0
  149.7317  140.5744  155.6823 H   0  0  0  0  0  0  0  0  0  0  0  0
  150.9809  140.7914  154.4617 H   0  0  0  0  0  0  0  0  0  0  0  0
  151.9387  138.7457  153.2125 H   0  0  0  0  0  0  0  0  0  0  0  0
  151.4314  137.1222  153.6654 H   0  0  0  0  0  0  0  0  0  0  0  0
  152.3871  138.0814  154.7773 H   0  0  0  0  0  0  0  0  0  0  0  0
  150.5157  137.7535  156.6136 H   0  0  0  0  0  0  0  0  0  0  0  0
  149.5935  136.8000  155.4694 H   0  0  0  0  0  0  0  0  0  0  0  0
  148.8600  138.2055  156.2335 H   0  0  0  0  0  0  0  0  0  0  0  0
  146.4059  136.9081  150.7088 H   0  0  0  0  0  0  0  0  0  0  0  0
  1  2  1  0  0  0  0
  1 19  1  0  0  0  0
  1 20  1  0  0  0  0
  1 21  1  0  0  0  0
  2  3  1  0  0  0  0
  2  9  1  0  0  0  0
  2 22  1  0  0  0  0
  3  4  1  0  0  0  0
  3 23  1  0  0  0  0
  3 24  1  0  0  0  0
  4  8  1  0  0  0  0
  4  5  1  0  0  0  0
  5  6  2  0  0  0  0
  5 25  1  0  0  0  0
  6  7  1  0  0  0  0
  6 26  1  0  0  0  0
  7  8  2  0  0  0  0
  7 27  1  0  0  0  0
  9 10  1  0  0  0  0
  9 28  1  0  0  0  0
  9 43  1  0  0  0  0
 10 11  1  0  0  0  0
 10 29  1  0  0  0  0
 10 30  1  0  0  0  0
 11 12  1  0  0  0  0
 11 31  1  0  0  0  0
 11 32  1  0  0  0  0
 12 13  2  0  0  0  0
 12 14  1  0  0  0  0
 14 15  1  0  0  0  0
 14 33  1  0  0  0  0
 15 16  1  0  0  0  0
 15 17  1  0  0  0  0
 15 18  1  0  0  0  0
 16 34  1  0  0  0  0
 16 35  1  0  0  0  0
 16 36  1  0  0  0  0
 17 37  1  0  0  0  0
 17 38  1  0  0  0  0
 17 39  1  0  0  0  0
 18 40  1  0  0  0  0
 18 41  1  0  0  0  0
 18 42  1  0  0  0  0
M  CHG  1   9   1
M  END
> <s_m_source_file>
AV-unprocessed.smi

> <i_m_source_file_index>
3313

> <i_lp_mmshare_version>
43012

> <i_f3d_flags>
0

> <s_epik_input>
bjFbY0hdW2NIXVtjSF1uMVtDSDJdW0NAQEhdKFtDSDNdKVtOSF1bQ0gyXVtDSDJdQyg9TylbTkhdQyhbQ0gzXSkoW0NIM10pW0NIM10=

> <s_epik_cmdline>
J2VwaWtfcHl0aG9uJywgJy1waCcsICc3LjAnLCAnLXRuJywgJzgnLCAnLW1hJywgJzIwMCcsICctbWV0YWxfYmluZGluZycsICctaW1hZScsICc8aW5maWxlLm1hZT4nLCAnLW9tYWUnLCAnPG91dGZpbGUubWFlPic=

> <r_lp_tautomer_probability>
1

> <r_epik_Ionization_Penalty>
0.0056766

> <r_epik_Ionization_Penalty_Charging>
0.00567288

> <r_epik_Ionization_Penalty_Neutral>
3.71277e-06

> <r_epik_State_Penalty>
0.0041598

> <r_epik_Charging_Adjusted_Penalty>
0.00983268

> <i_epik_Tot_Q>
1

> <i_epik_Tot_abs_Q>
1

> <r_epik_Metal_State_Penalty>
-0

> <b_epik_Metal_Only>
0

> <s_lp_Force_Field>
OPLS_2005

> <r_lp_Energy>
4.0528

> <b_lp_Chiralities_Consistent>
1

> <s_lp_Variant>
AV-unprocessed.smi:3313-2

> <Gold.Version>
5.8.1

> <Gold.Id.Protein>
6NUR|6NUR_protein|mol2

> <Gold.PLP.Fitness>
43.0181

> <Gold.PLP.PLP>
-32.7822

> <Gold.PLP.part.hbond>
-2.3904

> <Gold.PLP.part.metal>
0.0000

> <Gold.PLP.part.buried>
-2.3036

> <Gold.PLP.part.nonpolar>
-28.6667

> <Gold.PLP.part.repulsive>
0.4156

> <Gold.PLP.ligand.clash>
0.0000

> <Gold.PLP.ligand.torsion>
2.4140

> <Gold.PLP.Chemscore.Hbond>
2.9920

> <Gold.PLP.Chemscore.CHOScore>
2.0000

> <Gold.PLP.Chemscore.Metal>
0.0000

> <Gold.Chemscore.Hbonds>
donor molecule, donor type, donor heavy atom, donor atom, acceptor molecule, acceptor atom, score
      L1  H     9    28       P1  7948  2.00
      L1  H    14    33       P1  7957  0.98
      L1  C     5    25       P1 10186  0.99
      L1  C     7    27       P1 10747  1.00

> <Gold.PLP.Chemscore.Internal.Correction>
0.0879

> <Gold.Rescore>
     Score         DG    S(hbond)    S(metal)    S(lipo)     H(rot)  DE(clash)    DE(int)     intcor
     11.87     -15.90       1.95        0.00      81.65       2.20       0.11       3.92       ----

> <Gold.Chemscore.Fitness>
11.8652

> <Gold.Chemscore.DG>
-15.8952

> <Gold.Chemscore.ZeroCoef>
-5.4800

> <Gold.Chemscore.Hbond>
1.9463

> <Gold.Chemscore.Metal>
0.0000

> <Gold.Chemscore.Lipo>
81.6542

> <Gold.Chemscore.Internal_Hbond>
0.0000

> <Gold.Chemscore.DEClash>
0.1107

> <Gold.Chemscore.DEInternal>
3.9192

> <Gold.Chemscore.Rot>
2.2027

> <Gold.Chemscore.Internal.Correction>
   9.000000E+99

> <Gold.Chemscore.Hbonds>
donor molecule, donor type, donor heavy atom, donor atom, acceptor molecule, acceptor atom, score
      L1  H     9    28       P1  7948  0.94
      L1  H    14    33       P1  7957  0.88

> <Gold.Chemscore.Hbond.Weighted>
-6.5006

> <Gold.Chemscore.Metal.Weighted>
-0.0000

> <Gold.Chemscore.Lipo.Weighted>
-9.5535

> <Gold.Chemscore.Internal_Hbond.Weighted>
0.0000

> <Gold.Chemscore.DEClash.Weighted>
0.1107

> <Gold.Chemscore.DEInternal.Weighted>
3.9192

> <Gold.Chemscore.Rot.Weighted>
5.6390

> <Gold.Chemscore.Internal.Correction.Weighted>
   9.000000E+99

> <Gold.Protein.RotatedTorsions>
[ 6907 6896 6895 6894 ] final  -76.74 input  -60.11 | X-H torsion
[ 7974 7965 7964 7962 ] final   58.16 input  175.53 | X-H torsion
[ 8008 7997 7996 7995 ] final  135.19 input   59.86 | X-H torsion
[ 10167 10162 10161 10158 ] final   76.90 input  -65.29 | X-H torsion
[ 10718 10713 10712 10709 ] final    1.29 input   66.30 | X-H torsion
[ 10763 10752 10751 10750 ] final   32.37 input  -60.55 | X-H torsion
[ 11005 11000 10999 10996 ] final -139.89 input  -57.11 | X-H torsion

> <Gold.Protein.ActiveResidues>
 VAL166  LYS551  ARG553  GLY616  TRP617  ASP618  TYR619  PRO620  LYS621  CYS622 
 ASP623  PHE694  ASN695  SER759  ASP760  ASP761  ALA762  ILE779  LEU786  VAL792 
 PHE793  MET794  SER795  GLU796  ALA797  LYS798  CYS799  TRP800  GLU811  SER814 

> <Gold.Protein.RotatedAtoms>
  150.7019  134.4527  159.5343 H   0  0  0  0  0  0  0  0  0  0  0  0  # atno 6907 bound_to 6896
  152.2217  134.8404  160.0494 H   0  0  0  0  0  0  0  0  0  0  0  0  # atno 6908 bound_to 6896
  151.9252  133.3561  159.3948 H   0  0  0  0  0  0  0  0  0  0  0  0  # atno 6909 bound_to 6896
  145.9212  139.3731  143.0477 H   0  0  0  0  0  0  0  0  0  0  0  0  # atno 7974 bound_to 7965
  156.3002  140.2477  156.3541 H   0  0  0  0  0  0  0  0  0  0  0  0  # atno 8008 bound_to 7997
  154.8938  140.0408  157.1873 H   0  0  0  0  0  0  0  0  0  0  0  0  # atno 8009 bound_to 7997
  154.8571  140.2915  155.5566 H   0  0  0  0  0  0  0  0  0  0  0  0  # atno 8010 bound_to 7997
  139.9873  144.5783  150.7848 H   0  0  0  0  0  0  0  0  0  0  0  0  # atno 10167 bound_to 10162
  156.8459  130.5537  149.5673 H   0  0  0  0  0  0  0  0  0  0  0  0  # atno 10718 bound_to 10713
  153.0266  135.6415  154.1345 H   0  0  0  0  0  0  0  0  0  0  0  0  # atno 10763 bound_to 10752
  154.1073  135.2855  155.3240 H   0  0  0  0  0  0  0  0  0  0  0  0  # atno 10764 bound_to 10752
  154.6357  135.5477  153.7794 H   0  0  0  0  0  0  0  0  0  0  0  0  # atno 10765 bound_to 10752
  140.8476  134.2325  157.4777 H   0  0  0  0  0  0  0  0  0  0  0  0  # atno 11005 bound_to 11000
  145.8547  140.9509  143.0731 LP  0  0  0  0  0  0  0  0  0  0  0  0  # atno 17320 bound_to 7965
  144.6753  140.0452  143.7480 LP  0  0  0  0  0  0  0  0  0  0  0  0  # atno 17321 bound_to 7965
  140.7467  143.2895  151.3369 LP  0  0  0  0  0  0  0  0  0  0  0  0  # atno 17342 bound_to 10162
  139.6366  144.0620  152.2520 LP  0  0  0  0  0  0  0  0  0  0  0  0  # atno 17343 bound_to 10162
  156.0854  130.5854  150.9639 LP  0  0  0  0  0  0  0  0  0  0  0  0  # atno 17370 bound_to 10713
  157.6330  131.0919  150.8404 LP  0  0  0  0  0  0  0  0  0  0  0  0  # atno 17371 bound_to 10713
  139.8703  134.9667  156.4571 LP  0  0  0  0  0  0  0  0  0  0  0  0  # atno 17394 bound_to 11000
  140.8826  133.7907  155.9483 LP  0  0  0  0  0  0  0  0  0  0  0  0  # atno 17395 bound_to 11000

$$$$
