AV-unprocessed.smi:1662|AV-procd|sdf|6662|dock9
  -GOLD-   22720 7373D 1   1.00000     0.00000
 Structure written by MMmdl.
 47 48  0  0  0  0  0  0  0  0  1 V2000
  145.1160  140.6125  157.8609 C   0  0  0  0  0  0  0  0  0  0  0  0
  145.9381  140.9887  156.6577 C   0  0  0  0  0  0  0  0  0  0  0  0
  147.0415  140.3388  156.4826 N   0  0  0  0  0  0  0  0  0  0  0  0
  147.8730  140.6086  155.4129 N   0  0  0  0  0  0  0  0  0  0  0  0
  149.0969  139.7948  155.3824 C   0  0  0  0  0  0  0  0  0  0  0  0
  150.3205  140.5363  155.9386 C   0  0  0  0  0  0  0  0  0  0  0  0
  151.4509  140.2805  155.5214 O   0  0  0  0  0  0  0  0  0  0  0  0
  150.0714  141.4670  156.8721 N   0  0  0  0  0  0  0  0  0  0  0  0
  151.0800  142.2697  157.5611 C   0  0  1  0  0  0  0  0  0  0  0  0
  150.4236  143.5565  158.0955 C   0  0  0  0  0  0  0  0  0  0  0  0
  151.4303  144.4158  158.8655 C   0  0  0  0  0  0  0  0  0  0  0  0
  152.0595  143.6144  160.0104 C   0  0  0  0  0  0  0  0  0  0  0  0
  152.7448  142.3293  159.5039 C   0  0  1  0  0  0  0  0  0  0  0  0
  153.3860  141.5864  160.6906 C   0  0  0  0  0  0  0  0  0  0  0  0
  151.7526  141.4471  158.6937 C   0  0  2  0  0  0  0  0  0  0  0  0
  152.4342  140.1806  158.1292 C   0  0  0  0  0  0  0  0  0  0  0  0
  147.6229  141.5437  154.4511 C   0  0  0  0  0  0  0  0  0  0  0  0
  148.3878  141.7423  153.5056 O   0  0  0  0  0  0  0  0  0  0  0  0
  146.3721  142.2770  154.6569 C   0  0  0  0  0  0  0  0  0  0  0  0
  146.0767  143.2725  153.6775 C   0  0  0  0  0  0  0  0  0  0  0  0
  145.8311  144.0654  152.8707 N   0  0  0  0  0  0  0  0  0  0  0  0
  145.5521  142.0279  155.7085 C   0  0  0  0  0  0  0  0  0  0  0  0
  144.2431  142.7612  155.9671 C   0  0  0  0  0  0  0  0  0  0  0  0
  144.1027  140.3364  157.5685 H   0  0  0  0  0  0  0  0  0  0  0  0
  145.0515  141.4469  158.5594 H   0  0  0  0  0  0  0  0  0  0  0  0
  145.5449  139.7652  158.3983 H   0  0  0  0  0  0  0  0  0  0  0  0
  148.9626  138.8824  155.9661 H   0  0  0  0  0  0  0  0  0  0  0  0
  149.2946  139.4625  154.3612 H   0  0  0  0  0  0  0  0  0  0  0  0
  149.1109  141.6152  157.1462 H   0  0  0  0  0  0  0  0  0  0  0  0
  151.8598  142.5526  156.8509 H   0  0  0  0  0  0  0  0  0  0  0  0
  150.0071  144.1369  157.2711 H   0  0  0  0  0  0  0  0  0  0  0  0
  149.5871  143.3037  158.7489 H   0  0  0  0  0  0  0  0  0  0  0  0
  152.2096  144.7681  158.1885 H   0  0  0  0  0  0  0  0  0  0  0  0
  150.9362  145.3039  159.2602 H   0  0  0  0  0  0  0  0  0  0  0  0
  152.7826  144.2425  160.5322 H   0  0  0  0  0  0  0  0  0  0  0  0
  151.2901  143.3594  160.7405 H   0  0  0  0  0  0  0  0  0  0  0  0
  153.5516  142.6306  158.8337 H   0  0  0  0  0  0  0  0  0  0  0  0
  152.6282  141.1760  161.3585 H   0  0  0  0  0  0  0  0  0  0  0  0
  154.0154  142.2566  161.2768 H   0  0  0  0  0  0  0  0  0  0  0  0
  154.0247  140.7674  160.3615 H   0  0  0  0  0  0  0  0  0  0  0  0
  150.9671  141.1189  159.3766 H   0  0  0  0  0  0  0  0  0  0  0  0
  153.2729  140.4395  157.4825 H   0  0  0  0  0  0  0  0  0  0  0  0
  151.7450  139.5709  157.5452 H   0  0  0  0  0  0  0  0  0  0  0  0
  152.8102  139.5356  158.9223 H   0  0  0  0  0  0  0  0  0  0  0  0
  144.0714  143.5646  155.2512 H   0  0  0  0  0  0  0  0  0  0  0  0
  144.2417  143.2070  156.9622 H   0  0  0  0  0  0  0  0  0  0  0  0
  143.4008  142.0721  155.8973 H   0  0  0  0  0  0  0  0  0  0  0  0
  1  2  1  0  0  0  0
  1 24  1  0  0  0  0
  1 25  1  0  0  0  0
  1 26  1  0  0  0  0
  2 22  1  0  0  0  0
  2  3  2  0  0  0  0
  3  4  1  0  0  0  0
  4  5  1  0  0  0  0
  4 17  1  0  0  0  0
  5  6  1  0  0  0  0
  5 27  1  0  0  0  0
  5 28  1  0  0  0  0
  6  7  2  0  0  0  0
  6  8  1  0  0  0  0
  8  9  1  0  0  0  0
  8 29  1  0  0  0  0
  9 15  1  0  0  0  0
  9 10  1  0  0  0  0
  9 30  1  0  0  0  0
 10 11  1  0  0  0  0
 10 31  1  0  0  0  0
 10 32  1  0  0  0  0
 11 12  1  0  0  0  0
 11 33  1  0  0  0  0
 11 34  1  0  0  0  0
 12 13  1  0  0  0  0
 12 35  1  0  0  0  0
 12 36  1  0  0  0  0
 13 14  1  0  0  0  0
 13 15  1  0  0  0  0
 13 37  1  0  0  0  0
 14 38  1  0  0  0  0
 14 39  1  0  0  0  0
 14 40  1  0  0  0  0
 15 16  1  0  0  0  0
 15 41  1  0  0  0  0
 16 42  1  0  0  0  0
 16 43  1  0  0  0  0
 16 44  1  0  0  0  0
 17 18  2  0  0  0  0
 17 19  1  0  0  0  0
 19 20  1  0  0  0  0
 19 22  2  0  0  0  0
 20 21  3  0  0  0  0
 22 23  1  0  0  0  0
 23 45  1  0  0  0  0
 23 46  1  0  0  0  0
 23 47  1  0  0  0  0
M  END
> <s_m_source_file>
AV-unprocessed.smi

> <i_m_source_file_index>
1662

> <i_lp_mmshare_version>
43012

> <i_f3d_flags>
0

> <s_epik_input>
TiNDYyhjMVtDSDNdKWMoPU8pbihuYzFbQ0gzXSlbQ0gyXUMoPU8pW05IXVtDQEBIXTJbQ0gyXVtDSDJdW0NIMl1bQ0BASF0oW0NIM10pW0NASF0yW0NIM10=

> <s_epik_cmdline>
J2VwaWtfcHl0aG9uJywgJy1waCcsICc3LjAnLCAnLXRuJywgJzgnLCAnLW1hJywgJzIwMCcsICctbWV0YWxfYmluZGluZycsICctaW1hZScsICc8aW5maWxlLm1hZT4nLCAnLW9tYWUnLCAnPG91dGZpbGUubWFlPic=

> <r_lp_tautomer_probability>
1

> <r_epik_Ionization_Penalty>
1.90709e-08

> <r_epik_Ionization_Penalty_Charging>
2.37982e-11

> <r_epik_Ionization_Penalty_Neutral>
1.90471e-08

> <r_epik_State_Penalty>
-0

> <r_epik_Charging_Adjusted_Penalty>
2.37982e-11

> <i_epik_Tot_Q>
0

> <i_epik_Tot_abs_Q>
0

> <r_epik_Metal_State_Penalty>
-0

> <b_epik_Metal_Only>
0

> <s_lp_Force_Field>
OPLS_2005

> <r_lp_Energy>
26.9998

> <b_lp_Chiralities_Consistent>
1

> <s_lp_Variant>
AV-unprocessed.smi:1662-6

> <Gold.Version>
5.8.1

> <Gold.Id.Protein>
6NUR|6NUR_protein|mol2

> <Gold.PLP.Fitness>
41.1847

> <Gold.PLP.PLP>
-38.7931

> <Gold.PLP.part.hbond>
-2.8367

> <Gold.PLP.part.metal>
0.0000

> <Gold.PLP.part.buried>
-3.5632

> <Gold.PLP.part.nonpolar>
-33.9286

> <Gold.PLP.part.repulsive>
0.4377

> <Gold.PLP.ligand.clash>
0.0000

> <Gold.PLP.ligand.torsion>
0.9620

> <Gold.PLP.Chemscore.Hbond>
1.4354

> <Gold.PLP.Chemscore.CHOScore>
0.0000

> <Gold.PLP.Chemscore.Metal>
0.0000

> <Gold.Chemscore.Hbonds>
donor molecule, donor type, donor heavy atom, donor atom, acceptor molecule, acceptor atom, score
      P1  H  7989  7998       L1     7  0.75
      P1  H  8011  8017       L1    18  0.59

> <Gold.PLP.Chemscore.Internal.Correction>
0.0094

> <Gold.Rescore>
     Score         DG    S(hbond)    S(metal)    S(lipo)     H(rot)  DE(clash)    DE(int)     intcor
     12.96     -16.03       1.25        0.00      86.33       1.45       0.80       2.28       ----

> <Gold.Chemscore.Fitness>
12.9603

> <Gold.Chemscore.DG>
-16.0337

> <Gold.Chemscore.ZeroCoef>
-5.4800

> <Gold.Chemscore.Hbond>
1.2472

> <Gold.Chemscore.Metal>
0.0000

> <Gold.Chemscore.Lipo>
86.3342

> <Gold.Chemscore.Internal_Hbond>
0.0000

> <Gold.Chemscore.DEClash>
0.7971

> <Gold.Chemscore.DEInternal>
2.2764

> <Gold.Chemscore.Rot>
1.4504

> <Gold.Chemscore.Internal.Correction>
   9.000000E+99

> <Gold.Chemscore.Hbonds>
donor molecule, donor type, donor heavy atom, donor atom, acceptor molecule, acceptor atom, score
      P1  H  7989  7998       L1     7  0.57
      P1  H  8011  8017       L1    18  0.58

> <Gold.Chemscore.Hbond.Weighted>
-4.1656

> <Gold.Chemscore.Metal.Weighted>
-0.0000

> <Gold.Chemscore.Lipo.Weighted>
-10.1011

> <Gold.Chemscore.Internal_Hbond.Weighted>
0.0000

> <Gold.Chemscore.DEClash.Weighted>
0.7971

> <Gold.Chemscore.DEInternal.Weighted>
2.2764

> <Gold.Chemscore.Rot.Weighted>
3.7129

> <Gold.Chemscore.Internal.Correction.Weighted>
   9.000000E+99

> <Gold.Protein.RotatedTorsions>
[ 6907 6896 6895 6894 ] final   16.70 input  -60.11 | X-H torsion
[ 7974 7965 7964 7962 ] final  -91.49 input  175.53 | X-H torsion
[ 8008 7997 7996 7995 ] final -163.45 input   59.86 | X-H torsion
[ 10167 10162 10161 10158 ] final  120.61 input  -65.29 | X-H torsion
[ 10718 10713 10712 10709 ] final   -2.82 input   66.30 | X-H torsion
[ 10763 10752 10751 10750 ] final -126.44 input  -60.55 | X-H torsion
[ 11005 11000 10999 10996 ] final   63.67 input  -57.11 | X-H torsion

> <Gold.Protein.ActiveResidues>
 VAL166  LYS551  ARG553  GLY616  TRP617  ASP618  TYR619  PRO620  LYS621  CYS622 
 ASP623  PHE694  ASN695  SER759  ASP760  ASP761  ALA762  ILE779  LEU786  VAL792 
 PHE793  MET794  SER795  GLU796  ALA797  LYS798  CYS799  TRP800  GLU811  SER814 

> <Gold.Protein.RotatedAtoms>
  151.8380  135.0599  160.0444 H   0  0  0  0  0  0  0  0  0  0  0  0  # atno 6907 bound_to 6896
  152.2830  133.5484  159.5518 H   0  0  0  0  0  0  0  0  0  0  0  0  # atno 6908 bound_to 6896
  150.7197  134.0453  159.3822 H   0  0  0  0  0  0  0  0  0  0  0  0  # atno 6909 bound_to 6896
  145.4124  140.9546  143.2226 H   0  0  0  0  0  0  0  0  0  0  0  0  # atno 7974 bound_to 7965
  155.8214  140.0920  157.1847 H   0  0  0  0  0  0  0  0  0  0  0  0  # atno 8008 bound_to 7997
  154.3979  140.1436  156.3564 H   0  0  0  0  0  0  0  0  0  0  0  0  # atno 8009 bound_to 7997
  155.8262  140.3444  155.5547 H   0  0  0  0  0  0  0  0  0  0  0  0  # atno 8010 bound_to 7997
  139.5971  144.7045  151.3150 H   0  0  0  0  0  0  0  0  0  0  0  0  # atno 10167 bound_to 10162
  156.7852  130.5343  149.5744 H   0  0  0  0  0  0  0  0  0  0  0  0  # atno 10718 bound_to 10713
  154.8745  135.3995  154.3431 H   0  0  0  0  0  0  0  0  0  0  0  0  # atno 10763 bound_to 10752
  153.4228  135.7023  153.6288 H   0  0  0  0  0  0  0  0  0  0  0  0  # atno 10764 bound_to 10752
  153.4943  135.3741  155.2477 H   0  0  0  0  0  0  0  0  0  0  0  0  # atno 10765 bound_to 10752
  140.0009  134.6444  155.9932 H   0  0  0  0  0  0  0  0  0  0  0  0  # atno 11005 bound_to 11000
  144.8300  139.5645  143.6948 LP  0  0  0  0  0  0  0  0  0  0  0  0  # atno 17320 bound_to 7965
  146.2698  139.6608  142.9304 LP  0  0  0  0  0  0  0  0  0  0  0  0  # atno 17321 bound_to 7965
  140.7220  143.7108  150.7771 LP  0  0  0  0  0  0  0  0  0  0  0  0  # atno 17342 bound_to 10162
  140.0677  143.5092  152.2596 LP  0  0  0  0  0  0  0  0  0  0  0  0  # atno 17343 bound_to 10162
  156.1193  130.6098  151.0169 LP  0  0  0  0  0  0  0  0  0  0  0  0  # atno 17370 bound_to 10713
  157.6627  131.0877  150.7800 LP  0  0  0  0  0  0  0  0  0  0  0  0  # atno 17371 bound_to 10713
  141.1641  133.6537  156.4418 LP  0  0  0  0  0  0  0  0  0  0  0  0  # atno 17394 bound_to 11000
  140.4730  134.6736  157.5137 LP  0  0  0  0  0  0  0  0  0  0  0  0  # atno 17395 bound_to 11000

$$$$
