AV-unprocessed.smi:2837|AV-procd|sdf|10927|dock1
  -GOLD-   2272015373D 1   1.00000     0.00000
 Structure written by MMmdl.
 33 35  0  0  0  0  0  0  0  0  2 V2000
  154.4836  141.0708  162.1838 F   0  0  0  0  0  0  0  0  0  0  0  0
  153.4141  141.7284  161.6728 C   0  0  0  0  0  0  0  0  0  0  0  0
  153.1147  142.7411  162.5211 F   0  0  0  0  0  0  0  0  0  0  0  0
  153.7084  142.2313  160.4442 O   0  0  0  0  0  0  0  0  0  0  0  0
  152.7216  142.3008  159.4867 C   0  0  0  0  0  0  0  0  0  0  0  0
  152.3679  143.5701  158.9834 C   0  0  0  0  0  0  0  0  0  0  0  0
  151.3731  143.6813  157.9902 C   0  0  0  0  0  0  0  0  0  0  0  0
  150.7442  142.5112  157.5026 C   0  0  0  0  0  0  0  0  0  0  0  0
  149.7473  142.4971  156.5173 N   0  0  0  0  0  0  0  0  0  0  0  0
  149.1447  141.2496  156.0647 C   0  0  1  0  0  0  0  0  0  0  0  0
  147.8225  141.4549  155.3126 C   0  0  0  0  0  0  0  0  0  0  0  0
  148.1074  140.7623  153.9741 C   0  0  2  0  0  0  0  0  0  0  0  0
  148.2229  139.2389  154.1197 C   0  0  0  0  0  0  0  0  0  0  0  0
  149.5791  139.0929  154.8090 C   0  0  0  0  0  0  0  0  0  0  0  0
  150.0009  140.5573  154.9906 C   0  0  1  0  0  0  0  0  0  0  0  0
  149.4679  141.1147  153.8000 O   0  0  0  0  0  0  0  0  0  0  0  0
  151.1167  141.3131  158.0038 N   0  3  0  0  0  0  0  0  0  0  0  0
  152.0643  141.1649  158.9552 C   0  0  0  0  0  0  0  0  0  0  0  0
  152.5550  141.0579  161.6385 H   0  0  0  0  0  0  0  0  0  0  0  0
  152.8569  144.4566  159.3593 H   0  0  0  0  0  0  0  0  0  0  0  0
  151.1112  144.6601  157.6178 H   0  0  0  0  0  0  0  0  0  0  0  0
  149.3465  143.3671  156.1970 H   0  0  0  0  0  0  0  0  0  0  0  0
  149.0231  140.5831  156.9195 H   0  0  0  0  0  0  0  0  0  0  0  0
  146.9698  141.0175  155.8328 H   0  0  0  0  0  0  0  0  0  0  0  0
  147.6112  142.5127  155.1478 H   0  0  0  0  0  0  0  0  0  0  0  0
  147.4535  141.0821  153.1623 H   0  0  0  0  0  0  0  0  0  0  0  0
  147.4031  138.8152  154.7008 H   0  0  0  0  0  0  0  0  0  0  0  0
  148.2369  138.7536  153.1431 H   0  0  0  0  0  0  0  0  0  0  0  0
  149.5195  138.5531  155.7546 H   0  0  0  0  0  0  0  0  0  0  0  0
  150.2810  138.5671  154.1604 H   0  0  0  0  0  0  0  0  0  0  0  0
  151.0767  140.6885  155.1127 H   0  0  0  0  0  0  0  0  0  0  0  0
  152.2647  140.1449  159.2494 H   0  0  0  0  0  0  0  0  0  0  0  0
  150.6621  140.4739  157.6430 H   0  0  0  0  0  0  0  0  0  0  0  0
  1  2  1  0  0  0  0
  2  3  1  0  0  0  0
  2  4  1  0  0  0  0
  2 19  1  0  0  0  0
  4  5  1  0  0  0  0
  5 18  1  0  0  0  0
  5  6  2  0  0  0  0
  6  7  1  0  0  0  0
  6 20  1  0  0  0  0
  7  8  2  0  0  0  0
  7 21  1  0  0  0  0
  8  9  1  0  0  0  0
  8 17  1  0  0  0  0
  9 10  1  0  0  0  0
  9 22  1  0  0  0  0
 10 15  1  0  0  0  0
 10 11  1  0  0  0  0
 10 23  1  0  0  0  0
 11 12  1  0  0  0  0
 11 24  1  0  0  0  0
 11 25  1  0  0  0  0
 12 16  1  0  0  0  0
 12 13  1  0  0  0  0
 12 26  1  0  0  0  0
 13 14  1  0  0  0  0
 13 27  1  0  0  0  0
 13 28  1  0  0  0  0
 14 15  1  0  0  0  0
 14 29  1  0  0  0  0
 14 30  1  0  0  0  0
 15 16  1  0  0  0  0
 15 31  1  0  0  0  0
 17 18  2  0  0  0  0
 17 33  1  0  0  0  0
 18 32  1  0  0  0  0
M  CHG  1  17   1
M  END
> <s_m_source_file>
AV-unprocessed.smi

> <i_m_source_file_index>
2837

> <i_lp_mmshare_version>
43012

> <i_f3d_flags>
0

> <s_epik_input>
RltDSF0oRilPYzFbY0hdW2NIXWMobltjSF0xKVtOSF1bQ0BIXShbQ0gyXVtDQEBIXTIzKVtDQEBIXShPMylbQ0gyXVtDSDJdMg==

> <s_epik_cmdline>
J2VwaWtfcHl0aG9uJywgJy1waCcsICc3LjAnLCAnLXRuJywgJzgnLCAnLW1hJywgJzIwMCcsICctbWV0YWxfYmluZGluZycsICctaW1hZScsICc8aW5maWxlLm1hZT4nLCAnLW9tYWUnLCAnPG91dGZpbGUubWFlPic=

> <r_lp_tautomer_probability>
0.999429

> <r_epik_Ionization_Penalty>
2.29716

> <r_epik_Ionization_Penalty_Charging>
2.29716

> <r_epik_Ionization_Penalty_Neutral>
1.42285e-06

> <r_epik_State_Penalty>
2.44762

> <r_epik_Charging_Adjusted_Penalty>
4.74478

> <i_epik_Tot_Q>
1

> <i_epik_Tot_abs_Q>
1

> <r_epik_Metal_State_Penalty>
6.53078

> <b_epik_Metal_Only>
0

> <s_lp_Force_Field>
OPLS_2005

> <r_lp_Energy>
46.2914

> <b_lp_Chiralities_Consistent>
1

> <s_lp_Variant>
AV-unprocessed.smi:2837-8

> <Gold.Version>
5.8.1

> <Gold.Id.Protein>
6NUR|6NUR_protein|mol2

> <Gold.PLP.Fitness>
46.8946

> <Gold.PLP.PLP>
-39.5679

> <Gold.PLP.part.hbond>
-3.0000

> <Gold.PLP.part.metal>
0.0000

> <Gold.PLP.part.buried>
-2.8361

> <Gold.PLP.part.nonpolar>
-35.9021

> <Gold.PLP.part.repulsive>
2.1501

> <Gold.PLP.ligand.clash>
0.0000

> <Gold.PLP.ligand.torsion>
0.7406

> <Gold.PLP.Chemscore.Hbond>
2.9280

> <Gold.PLP.Chemscore.CHOScore>
0.0000

> <Gold.PLP.Chemscore.Metal>
0.0000

> <Gold.Chemscore.Hbonds>
donor molecule, donor type, donor heavy atom, donor atom, acceptor molecule, acceptor atom, score
      L1  H     9    22       P1  8028  1.98
      P1  H  8011  8017       L1    16  0.91

> <Gold.PLP.Chemscore.Internal.Correction>
0.0240

> <Gold.Rescore>
     Score         DG    S(hbond)    S(metal)    S(lipo)     H(rot)  DE(clash)    DE(int)     intcor
     17.04     -17.93       1.71        0.00      86.91       1.34       0.06       0.83       ----

> <Gold.Chemscore.Fitness>
17.0351

> <Gold.Chemscore.DG>
-17.9250

> <Gold.Chemscore.ZeroCoef>
-5.4800

> <Gold.Chemscore.Hbond>
1.7062

> <Gold.Chemscore.Metal>
0.0000

> <Gold.Chemscore.Lipo>
86.9126

> <Gold.Chemscore.Internal_Hbond>
0.0000

> <Gold.Chemscore.DEClash>
0.0589

> <Gold.Chemscore.DEInternal>
0.8311

> <Gold.Chemscore.Rot>
1.3368

> <Gold.Chemscore.Internal.Correction>
   9.000000E+99

> <Gold.Chemscore.Hbonds>
donor molecule, donor type, donor heavy atom, donor atom, acceptor molecule, acceptor atom, score
      L1  H     9    22       P1  8028  0.92
      P1  H  8011  8017       L1    16  0.79

> <Gold.Chemscore.Hbond.Weighted>
-5.6986

> <Gold.Chemscore.Metal.Weighted>
-0.0000

> <Gold.Chemscore.Lipo.Weighted>
-10.1688

> <Gold.Chemscore.Internal_Hbond.Weighted>
0.0000

> <Gold.Chemscore.DEClash.Weighted>
0.0589

> <Gold.Chemscore.DEInternal.Weighted>
0.8311

> <Gold.Chemscore.Rot.Weighted>
3.4223

> <Gold.Chemscore.Internal.Correction.Weighted>
   9.000000E+99

> <Gold.Protein.RotatedTorsions>
[ 6907 6896 6895 6894 ] final  178.52 input  -60.11 | X-H torsion
[ 7974 7965 7964 7962 ] final  -71.99 input  175.53 | X-H torsion
[ 8008 7997 7996 7995 ] final   64.60 input   59.86 | X-H torsion
[ 10167 10162 10161 10158 ] final  116.79 input  -65.29 | X-H torsion
[ 10718 10713 10712 10709 ] final   83.22 input   66.30 | X-H torsion
[ 10763 10752 10751 10750 ] final   21.58 input  -60.55 | X-H torsion
[ 11005 11000 10999 10996 ] final  -23.20 input  -57.11 | X-H torsion

> <Gold.Protein.ActiveResidues>
 VAL166  LYS551  ARG553  GLY616  TRP617  ASP618  TYR619  PRO620  LYS621  CYS622 
 ASP623  PHE694  ASN695  SER759  ASP760  ASP761  ALA762  ILE779  LEU786  VAL792 
 PHE793  MET794  SER795  GLU796  ALA797  LYS798  CYS799  TRP800  GLU811  SER814 

> <Gold.Protein.RotatedAtoms>
  151.6865  133.3311  159.3232 H   0  0  0  0  0  0  0  0  0  0  0  0  # atno 6907 bound_to 6896
  150.7798  134.6735  159.6414 H   0  0  0  0  0  0  0  0  0  0  0  0  # atno 6908 bound_to 6896
  152.3852  134.6531  160.0180 H   0  0  0  0  0  0  0  0  0  0  0  0  # atno 6909 bound_to 6896
  145.6709  140.9221  143.0883 H   0  0  0  0  0  0  0  0  0  0  0  0  # atno 7974 bound_to 7965
  155.6487  140.3497  155.4740 H   0  0  0  0  0  0  0  0  0  0  0  0  # atno 8008 bound_to 7997
  155.9866  140.1185  157.0700 H   0  0  0  0  0  0  0  0  0  0  0  0  # atno 8009 bound_to 7997
  154.4207  140.1127  156.5494 H   0  0  0  0  0  0  0  0  0  0  0  0  # atno 8010 bound_to 7997
  139.6222  144.7103  151.2609 H   0  0  0  0  0  0  0  0  0  0  0  0  # atno 10167 bound_to 10162
  157.6874  131.0082  150.2492 H   0  0  0  0  0  0  0  0  0  0  0  0  # atno 10718 bound_to 10713
  153.0984  135.6666  153.9719 H   0  0  0  0  0  0  0  0  0  0  0  0  # atno 10763 bound_to 10752
  153.9296  135.3005  155.3447 H   0  0  0  0  0  0  0  0  0  0  0  0  # atno 10764 bound_to 10752
  154.7404  135.5082  153.9187 H   0  0  0  0  0  0  0  0  0  0  0  0  # atno 10765 bound_to 10752
  140.8729  133.7707  156.0208 H   0  0  0  0  0  0  0  0  0  0  0  0  # atno 11005 bound_to 11000
  144.7057  139.8571  143.7430 LP  0  0  0  0  0  0  0  0  0  0  0  0  # atno 17320 bound_to 7965
  146.1046  139.4044  143.0325 LP  0  0  0  0  0  0  0  0  0  0  0  0  # atno 17321 bound_to 7965
  140.7389  143.6633  150.8145 LP  0  0  0  0  0  0  0  0  0  0  0  0  # atno 17342 bound_to 10162
  140.0246  143.5507  152.2786 LP  0  0  0  0  0  0  0  0  0  0  0  0  # atno 17343 bound_to 10162
  156.3091  130.3769  149.7678 LP  0  0  0  0  0  0  0  0  0  0  0  0  # atno 17370 bound_to 10713
  156.5284  130.8246  151.3228 LP  0  0  0  0  0  0  0  0  0  0  0  0  # atno 17371 bound_to 10713
  140.8552  134.2907  157.5258 LP  0  0  0  0  0  0  0  0  0  0  0  0  # atno 17394 bound_to 11000
  139.8713  134.9489  156.4009 LP  0  0  0  0  0  0  0  0  0  0  0  0  # atno 17395 bound_to 11000

$$$$
