AV-unprocessed.smi:224|AV-procd|sdf|1709|dock3
  -GOLD-   2262020173D 1   1.00000     0.00000
 Structure written by MMmdl.
 56 59  0  0  0  0  0  0  0  0  2 V2000
  145.3346  131.7981  150.2626 C   0  0  0  0  0  0  0  0  0  0  0  0
  143.9673  132.1776  150.8457 C   0  0  2  0  0  0  0  0  0  0  0  0
  143.0138  132.1281  149.8035 O   0  0  0  0  0  0  0  0  0  0  0  0
  143.9715  133.5909  151.4590 C   0  0  0  0  0  0  0  0  0  0  0  0
  144.3166  133.5811  152.9046 N   0  3  1  0  0  0  0  0  0  0  0  0
  145.7138  133.1559  153.1893 C   0  0  0  0  0  0  0  0  0  0  0  0
  145.9486  133.0210  154.7050 C   0  0  0  0  0  0  0  0  0  0  0  0
  145.5629  134.2410  155.4119 N   0  0  0  0  0  0  0  0  0  0  0  0
  146.4948  135.2060  155.6399 C   0  0  0  0  0  0  0  0  0  0  0  0
  146.1250  136.3687  156.2410 N   0  0  0  0  0  0  0  0  0  0  0  0
  147.0283  137.3189  156.4959 C   0  0  0  0  0  0  0  0  0  0  0  0
  148.3361  137.3161  156.2359 N   0  0  0  0  0  0  0  0  0  0  0  0
  148.7158  136.1603  155.6202 C   0  0  0  0  0  0  0  0  0  0  0  0
  147.8674  135.0670  155.2827 C   0  0  0  0  0  0  0  0  0  0  0  0
  148.6081  134.0791  154.6442 N   0  0  0  0  0  0  0  0  0  0  0  0
  149.8236  134.5528  154.6202 C   0  0  0  0  0  0  0  0  0  0  0  0
  149.9814  135.7926  155.1965 N   0  0  0  0  0  0  0  0  0  0  0  0
  151.2205  136.5478  155.3089 C   0  0  0  0  0  0  0  0  0  0  0  0
  151.1526  137.9516  154.6596 C   0  0  1  0  0  0  0  0  0  0  0  0
  150.4582  137.8543  153.4290 O   0  0  0  0  0  0  0  0  0  0  0  0
  150.4442  138.9740  155.5510 C   0  0  0  0  0  0  0  0  0  0  0  0
  151.5719  139.8872  156.0162 C   0  0  0  0  0  0  0  0  0  0  0  0
  152.4279  139.9199  154.8887 O   0  0  0  0  0  0  0  0  0  0  0  0
  152.5356  138.5870  154.4111 C   0  0  0  0  0  0  0  0  0  0  0  0
  144.1949  134.6829  155.1435 C   0  0  0  0  0  0  0  0  0  0  0  0
  143.9229  134.8259  153.6291 C   0  0  1  0  0  0  0  0  0  0  0  0
  144.5571  136.1041  153.0383 C   0  0  0  0  0  0  0  0  0  0  0  0
  146.1034  131.8002  151.0359 H   0  0  0  0  0  0  0  0  0  0  0  0
  145.6458  132.4959  149.4842 H   0  0  0  0  0  0  0  0  0  0  0  0
  145.3126  130.7992  149.8252 H   0  0  0  0  0  0  0  0  0  0  0  0
  143.6948  131.4334  151.5932 H   0  0  0  0  0  0  0  0  0  0  0  0
  142.4339  132.8701  149.8865 H   0  0  0  0  0  0  0  0  0  0  0  0
  144.6716  134.2367  150.9269 H   0  0  0  0  0  0  0  0  0  0  0  0
  142.9824  134.0301  151.3177 H   0  0  0  0  0  0  0  0  0  0  0  0
  145.9240  132.1976  152.7165 H   0  0  0  0  0  0  0  0  0  0  0  0
  146.4134  133.8718  152.7569 H   0  0  0  0  0  0  0  0  0  0  0  0
  145.3420  132.2026  155.0944 H   0  0  0  0  0  0  0  0  0  0  0  0
  146.9840  132.7502  154.9152 H   0  0  0  0  0  0  0  0  0  0  0  0
  146.6494  138.2069  156.9801 H   0  0  0  0  0  0  0  0  0  0  0  0
  150.6459  134.0056  154.1824 H   0  0  0  0  0  0  0  0  0  0  0  0
  151.4727  136.6322  156.3670 H   0  0  0  0  0  0  0  0  0  0  0  0
  152.0209  135.9643  154.8522 H   0  0  0  0  0  0  0  0  0  0  0  0
  150.9505  137.2893  152.8529 H   0  0  0  0  0  0  0  0  0  0  0  0
  149.7258  139.5631  154.9781 H   0  0  0  0  0  0  0  0  0  0  0  0
  149.9044  138.5245  156.3853 H   0  0  0  0  0  0  0  0  0  0  0  0
  151.2236  140.8834  156.2891 H   0  0  0  0  0  0  0  0  0  0  0  0
  152.1001  139.4574  156.8692 H   0  0  0  0  0  0  0  0  0  0  0  0
  153.3080  138.0923  155.0002 H   0  0  0  0  0  0  0  0  0  0  0  0
  152.8507  138.5597  153.3672 H   0  0  0  0  0  0  0  0  0  0  0  0
  143.5210  133.9345  155.5619 H   0  0  0  0  0  0  0  0  0  0  0  0
  143.9513  135.6157  155.6487 H   0  0  0  0  0  0  0  0  0  0  0  0
  142.8429  134.9310  153.5164 H   0  0  0  0  0  0  0  0  0  0  0  0
  144.2595  136.9819  153.6124 H   0  0  0  0  0  0  0  0  0  0  0  0
  144.2405  136.2752  152.0096 H   0  0  0  0  0  0  0  0  0  0  0  0
  145.6456  136.0676  153.0442 H   0  0  0  0  0  0  0  0  0  0  0  0
  143.7320  132.8605  153.3048 H   0  0  0  0  0  0  0  0  0  0  0  0
  1  2  1  0  0  0  0
  1 28  1  0  0  0  0
  1 29  1  0  0  0  0
  1 30  1  0  0  0  0
  2  3  1  0  0  0  0
  2  4  1  0  0  0  0
  2 31  1  0  0  0  0
  3 32  1  0  0  0  0
  4  5  1  0  0  0  0
  4 33  1  0  0  0  0
  4 34  1  0  0  0  0
  5 26  1  0  0  0  0
  5  6  1  0  0  0  0
  5 56  1  0  0  0  0
  6  7  1  0  0  0  0
  6 35  1  0  0  0  0
  6 36  1  0  0  0  0
  7  8  1  0  0  0  0
  7 37  1  0  0  0  0
  7 38  1  0  0  0  0
  8  9  1  0  0  0  0
  8 25  1  0  0  0  0
  9 14  1  0  0  0  0
  9 10  2  0  0  0  0
 10 11  1  0  0  0  0
 11 12  2  0  0  0  0
 11 39  1  0  0  0  0
 12 13  1  0  0  0  0
 13 17  1  0  0  0  0
 13 14  2  0  0  0  0
 14 15  1  0  0  0  0
 15 16  2  0  0  0  0
 16 17  1  0  0  0  0
 16 40  1  0  0  0  0
 17 18  1  0  0  0  0
 18 19  1  0  0  0  0
 18 41  1  0  0  0  0
 18 42  1  0  0  0  0
 19 24  1  0  0  0  0
 19 20  1  0  0  0  0
 19 21  1  0  0  0  0
 20 43  1  0  0  0  0
 21 22  1  0  0  0  0
 21 44  1  0  0  0  0
 21 45  1  0  0  0  0
 22 23  1  0  0  0  0
 22 46  1  0  0  0  0
 22 47  1  0  0  0  0
 23 24  1  0  0  0  0
 24 48  1  0  0  0  0
 24 49  1  0  0  0  0
 25 26  1  0  0  0  0
 25 50  1  0  0  0  0
 25 51  1  0  0  0  0
 26 27  1  0  0  0  0
 26 52  1  0  0  0  0
 27 53  1  0  0  0  0
 27 54  1  0  0  0  0
 27 55  1  0  0  0  0
M  CHG  1   5   1
M  END
> <s_m_source_file>
AV-unprocessed.smi

> <i_m_source_file_index>
224

> <i_lp_mmshare_version>
43012

> <i_f3d_flags>
0

> <s_epik_input>
W0NIM11bQ0BIXShbT0hdKVtDSDJdTjFbQ0gyXVtDSDJdTihbQ0gyXVtDQEhdMVtDSDNdKWMobltjSF1uMiljKGMyMyluW2NIXW4zW0NIMl1bQ0BAXTQoW09IXSlbQ0gyXVtDSDJdT1tDSDJdNA==

> <s_epik_cmdline>
J2VwaWtfcHl0aG9uJywgJy1waCcsICc3LjAnLCAnLXRuJywgJzgnLCAnLW1hJywgJzIwMCcsICctbWV0YWxfYmluZGluZycsICctaW1hZScsICc8aW5maWxlLm1hZT4nLCAnLW9tYWUnLCAnPG91dGZpbGUubWFlPic=

> <r_lp_tautomer_probability>
1

> <r_epik_Ionization_Penalty>
0.00516958

> <r_epik_Ionization_Penalty_Charging>
0.00509693

> <r_epik_Ionization_Penalty_Neutral>
7.26542e-05

> <r_epik_State_Penalty>
-0

> <r_epik_Charging_Adjusted_Penalty>
0.00509693

> <i_epik_Tot_Q>
1

> <i_epik_Tot_abs_Q>
1

> <r_epik_Metal_State_Penalty>
-0

> <b_epik_Metal_Only>
0

> <s_lp_Force_Field>
OPLS_2005

> <r_lp_Energy>
49.4164

> <b_lp_Chiralities_Consistent>
1

> <s_lp_Variant>
AV-unprocessed.smi:224-3

> <Gold.Version>
5.8.1

> <Gold.Id.Protein>
6NUR|6NUR_protein|mol2

> <Gold.PLP.Fitness>
48.6881

> <Gold.PLP.PLP>
-35.1028

> <Gold.PLP.part.hbond>
-6.2616

> <Gold.PLP.part.metal>
0.0000

> <Gold.PLP.part.buried>
-6.6063

> <Gold.PLP.part.nonpolar>
-24.3950

> <Gold.PLP.part.repulsive>
0.1280

> <Gold.PLP.ligand.clash>
0.0000

> <Gold.PLP.ligand.torsion>
0.9434

> <Gold.PLP.Chemscore.Hbond>
5.0345

> <Gold.PLP.Chemscore.CHOScore>
0.0000

> <Gold.PLP.Chemscore.Metal>
0.0000

> <Gold.Chemscore.Hbonds>
donor molecule, donor type, donor heavy atom, donor atom, acceptor molecule, acceptor atom, score
      L1  H     3    32       P1 10186  0.75
      L1  H     5    56       P1 10957  1.56
      L1  H    20    43       P1  7949  0.95
      P1  H  7989  7998       L1    23  0.62
      P1  H  7997  8010       L1    23  0.35
      P1  H 10785 10796       L1     3  0.42

> <Gold.PLP.Chemscore.Internal.Correction>
0.3687

> <Gold.Rescore>
     Score         DG    S(hbond)    S(metal)    S(lipo)     H(rot)  DE(clash)    DE(int)     intcor
     10.45     -14.09       2.38        0.00      71.67       3.02       0.02       3.62       ----

> <Gold.Chemscore.Fitness>
10.4514

> <Gold.Chemscore.DG>
-14.0905

> <Gold.Chemscore.ZeroCoef>
-5.4800

> <Gold.Chemscore.Hbond>
2.3846

> <Gold.Chemscore.Metal>
0.0000

> <Gold.Chemscore.Lipo>
71.6670

> <Gold.Chemscore.Internal_Hbond>
0.0000

> <Gold.Chemscore.DEClash>
0.0174

> <Gold.Chemscore.DEInternal>
3.6216

> <Gold.Chemscore.Rot>
3.0231

> <Gold.Chemscore.Internal.Correction>
   9.000000E+99

> <Gold.Chemscore.Hbonds>
donor molecule, donor type, donor heavy atom, donor atom, acceptor molecule, acceptor atom, score
      L1  H     3    32       P1 10186  0.75
      L1  H     5    56       P1 10957  0.46
      L1  H    20    43       P1  7949  0.21
      P1  H  7989  7998       L1    23  0.25
      P1  H  7997  8010       L1    23  0.02
      P1  H 10785 10796       L1     3  0.30

> <Gold.Chemscore.Hbond.Weighted>
-7.9645

> <Gold.Chemscore.Metal.Weighted>
-0.0000

> <Gold.Chemscore.Lipo.Weighted>
-8.3850

> <Gold.Chemscore.Internal_Hbond.Weighted>
0.0000

> <Gold.Chemscore.DEClash.Weighted>
0.0174

> <Gold.Chemscore.DEInternal.Weighted>
3.6216

> <Gold.Chemscore.Rot.Weighted>
7.7391

> <Gold.Chemscore.Internal.Correction.Weighted>
   9.000000E+99

> <Gold.Protein.RotatedTorsions>
[ 6907 6896 6895 6894 ] final  175.35 input  -60.11 | X-H torsion
[ 7974 7965 7964 7962 ] final  139.32 input  175.53 | X-H torsion
[ 8008 7997 7996 7995 ] final   97.52 input   59.86 | X-H torsion
[ 10167 10162 10161 10158 ] final   76.70 input  -65.29 | X-H torsion
[ 10718 10713 10712 10709 ] final   70.64 input   66.30 | X-H torsion
[ 10763 10752 10751 10750 ] final  138.10 input  -60.55 | X-H torsion
[ 11005 11000 10999 10996 ] final  150.51 input  -57.11 | X-H torsion

> <Gold.Protein.ActiveResidues>
 VAL166  LYS551  ARG553  GLY616  TRP617  ASP618  TYR619  PRO620  LYS621  CYS622 
 ASP623  PHE694  ASN695  SER759  ASP760  ASP761  ALA762  ILE779  LEU786  VAL792 
 PHE793  MET794  SER795  GLU796  ALA797  LYS798  CYS799  TRP800  GLU811  SER814 

> <Gold.Protein.RotatedAtoms>
  151.7376  133.3320  159.3356 H   0  0  0  0  0  0  0  0  0  0  0  0  # atno 6907 bound_to 6896
  150.7587  134.6307  159.6194 H   0  0  0  0  0  0  0  0  0  0  0  0  # atno 6908 bound_to 6896
  152.3551  134.6953  160.0276 H   0  0  0  0  0  0  0  0  0  0  0  0  # atno 6909 bound_to 6896
  144.9289  139.5072  143.5627 H   0  0  0  0  0  0  0  0  0  0  0  0  # atno 7974 bound_to 7965
  156.0910  140.3257  155.7815 H   0  0  0  0  0  0  0  0  0  0  0  0  # atno 8008 bound_to 7997
  155.4997  140.0568  157.2958 H   0  0  0  0  0  0  0  0  0  0  0  0  # atno 8009 bound_to 7997
  154.4637  140.1979  156.0190 H   0  0  0  0  0  0  0  0  0  0  0  0  # atno 8010 bound_to 7997
  139.9895  144.5768  150.7831 H   0  0  0  0  0  0  0  0  0  0  0  0  # atno 10167 bound_to 10162
  157.6410  130.9487  150.0678 H   0  0  0  0  0  0  0  0  0  0  0  0  # atno 10718 bound_to 10713
  153.8840  135.3041  155.3446 H   0  0  0  0  0  0  0  0  0  0  0  0  # atno 10763 bound_to 10752
  154.7748  135.4867  153.9724 H   0  0  0  0  0  0  0  0  0  0  0  0  # atno 10764 bound_to 10752
  153.1335  135.6809  153.9238 H   0  0  0  0  0  0  0  0  0  0  0  0  # atno 10765 bound_to 10752
  140.1138  134.8907  157.1974 H   0  0  0  0  0  0  0  0  0  0  0  0  # atno 11005 bound_to 11000
  146.3238  139.8225  142.8924 LP  0  0  0  0  0  0  0  0  0  0  0  0  # atno 17320 bound_to 7965
  145.3174  141.0235  143.3520 LP  0  0  0  0  0  0  0  0  0  0  0  0  # atno 17321 bound_to 7965
  140.7460  143.2884  151.3399 LP  0  0  0  0  0  0  0  0  0  0  0  0  # atno 17342 bound_to 10162
  139.6351  144.0647  152.2509 LP  0  0  0  0  0  0  0  0  0  0  0  0  # atno 17343 bound_to 10162
  156.1691  130.3646  149.9190 LP  0  0  0  0  0  0  0  0  0  0  0  0  # atno 17370 bound_to 10713
  156.7169  130.8992  151.3614 LP  0  0  0  0  0  0  0  0  0  0  0  0  # atno 17371 bound_to 10713
  140.3056  134.3082  155.7279 LP  0  0  0  0  0  0  0  0  0  0  0  0  # atno 17394 bound_to 11000
  141.2136  133.7619  156.9703 LP  0  0  0  0  0  0  0  0  0  0  0  0  # atno 17395 bound_to 11000

$$$$
