AV-unprocessed.smi:1527|AV-procd|sdf|6150|dock4
  -GOLD-   22720 6293D 1   1.00000     0.00000
 Structure written by MMmdl.
 31 31  0  0  0  0  0  0  0  0  1 V2000
  151.8791  144.4014  158.7521 C   0  0  0  0  0  0  0  0  0  0  0  0
  152.2359  143.5134  159.9533 C   0  0  0  0  0  0  0  0  0  0  0  0
  153.0893  142.2856  159.5849 C   0  0  1  0  0  0  0  0  0  0  0  0
  154.0942  141.9406  160.6952 C   0  0  0  0  0  0  0  0  0  0  0  0
  152.2236  141.1410  159.3177 N   0  0  0  0  0  0  0  0  0  0  0  0
  152.5796  140.0122  158.6810 C   0  0  0  0  0  0  0  0  0  0  0  0
  153.7224  139.8080  158.2727 O   0  0  0  0  0  0  0  0  0  0  0  0
  151.5002  138.9390  158.4536 C   0  0  0  0  0  0  0  0  0  0  0  0
  150.9987  138.8472  157.0721 N   0  0  0  0  0  0  0  0  0  0  0  0
  151.4330  137.7232  156.3858 N   0  0  0  0  0  0  0  0  0  0  0  0
  151.0499  137.5212  155.1705 C   0  0  0  0  0  0  0  0  0  0  0  0
  151.5014  136.3941  154.5287 O   0  0  0  0  0  0  0  0  0  0  0  0
  150.1696  138.4523  154.4988 C   0  0  0  0  0  0  0  0  0  0  0  0
  149.7533  139.5456  155.1746 C   0  0  0  0  0  0  0  0  0  0  0  0
  150.1662  139.8032  156.5552 C   0  0  0  0  0  0  0  0  0  0  0  0
  149.7914  140.7829  157.1987 O   0  0  0  0  0  0  0  0  0  0  0  0
  150.9519  136.3010  153.7660 H   0  0  0  0  0  0  0  0  0  0  0  0
  151.3198  145.2800  159.0742 H   0  0  0  0  0  0  0  0  0  0  0  0
  151.2639  143.8691  158.0262 H   0  0  0  0  0  0  0  0  0  0  0  0
  152.7766  144.7490  158.2399 H   0  0  0  0  0  0  0  0  0  0  0  0
  152.7749  144.1171  160.6841 H   0  0  0  0  0  0  0  0  0  0  0  0
  151.3176  143.1907  160.4456 H   0  0  0  0  0  0  0  0  0  0  0  0
  153.6486  142.5273  158.6791 H   0  0  0  0  0  0  0  0  0  0  0  0
  154.7535  142.7838  160.9023 H   0  0  0  0  0  0  0  0  0  0  0  0
  154.7232  141.0963  160.4111 H   0  0  0  0  0  0  0  0  0  0  0  0
  153.5862  141.6796  161.6243 H   0  0  0  0  0  0  0  0  0  0  0  0
  151.2642  141.2214  159.6218 H   0  0  0  0  0  0  0  0  0  0  0  0
  151.8953  137.9736  158.7745 H   0  0  0  0  0  0  0  0  0  0  0  0
  150.6729  139.1501  159.1335 H   0  0  0  0  0  0  0  0  0  0  0  0
  149.8580  138.2705  153.4808 H   0  0  0  0  0  0  0  0  0  0  0  0
  149.0961  140.2494  154.6853 H   0  0  0  0  0  0  0  0  0  0  0  0
  1  2  1  0  0  0  0
  1 18  1  0  0  0  0
  1 19  1  0  0  0  0
  1 20  1  0  0  0  0
  2  3  1  0  0  0  0
  2 21  1  0  0  0  0
  2 22  1  0  0  0  0
  3  4  1  0  0  0  0
  3  5  1  0  0  0  0
  3 23  1  0  0  0  0
  4 24  1  0  0  0  0
  4 25  1  0  0  0  0
  4 26  1  0  0  0  0
  5  6  1  0  0  0  0
  5 27  1  0  0  0  0
  6  7  2  0  0  0  0
  6  8  1  0  0  0  0
  8 28  1  0  0  0  0
  8 29  1  0  0  0  0
  8  9  1  0  0  0  0
  9 10  1  0  0  0  0
  9 15  1  0  0  0  0
 10 11  2  0  0  0  0
 11 12  1  0  0  0  0
 11 13  1  0  0  0  0
 12 17  1  0  0  0  0
 13 30  1  0  0  0  0
 13 14  2  0  0  0  0
 14 31  1  0  0  0  0
 14 15  1  0  0  0  0
 15 16  2  0  0  0  0
M  END
> <s_m_source_file>
AV-unprocessed.smi

> <i_m_source_file_index>
1527

> <i_lp_mmshare_version>
43012

> <i_f3d_flags>
0

> <s_epik_input>
W0NIM11bQ0gyXVtDQEhdKFtDSDNdKVtOSF1DKD1PKVtDSDJdbjFbbkhdYyg9TylbY0hdW2NIXWMxPU8=

> <s_epik_cmdline>
J2VwaWtfcHl0aG9uJywgJy1waCcsICc3LjAnLCAnLXRuJywgJzgnLCAnLW1hJywgJzIwMCcsICctbWV0YWxfYmluZGluZycsICctaW1hZScsICc8aW5maWxlLm1hZT4nLCAnLW9tYWUnLCAnPG91dGZpbGUubWFlPic=

> <r_lp_tautomer_probability>
0.9996

> <r_epik_Ionization_Penalty>
2.12171

> <r_epik_Ionization_Penalty_Charging>
3.79077e-08

> <r_epik_Ionization_Penalty_Neutral>
2.12171

> <r_epik_State_Penalty>
1.69857

> <r_epik_Charging_Adjusted_Penalty>
1.69857

> <i_epik_Tot_Q>
0

> <i_epik_Tot_abs_Q>
0

> <r_epik_Metal_State_Penalty>
1.69857

> <b_epik_Metal_Only>
0

> <s_lp_Force_Field>
OPLS_2005

> <r_lp_Energy>
12.9148

> <b_lp_Chiralities_Consistent>
1

> <s_lp_Variant>
AV-unprocessed.smi:1527-4

> <Gold.Version>
5.8.1

> <Gold.Id.Protein>
6NUR|6NUR_protein|mol2

> <Gold.PLP.Fitness>
40.2847

> <Gold.PLP.PLP>
-33.1810

> <Gold.PLP.part.hbond>
-3.0000

> <Gold.PLP.part.metal>
0.0000

> <Gold.PLP.part.buried>
-2.7302

> <Gold.PLP.part.nonpolar>
-27.6373

> <Gold.PLP.part.repulsive>
0.1902

> <Gold.PLP.ligand.clash>
0.0000

> <Gold.PLP.ligand.torsion>
0.9571

> <Gold.PLP.Chemscore.Hbond>
3.0000

> <Gold.PLP.Chemscore.CHOScore>
0.0000

> <Gold.PLP.Chemscore.Metal>
0.0000

> <Gold.Chemscore.Hbonds>
donor molecule, donor type, donor heavy atom, donor atom, acceptor molecule, acceptor atom, score
      L1  H    12    17       P1  7949  0.23
      P1  H  7997  8008       L1     7  1.00
      P1  H 10752 10763       L1    12  1.00

> <Gold.PLP.Chemscore.Internal.Correction>
0.0178

> <Gold.Rescore>
     Score         DG    S(hbond)    S(metal)    S(lipo)     H(rot)  DE(clash)    DE(int)     intcor
     12.56     -13.37       1.98        0.00      67.53       2.58       0.02       0.80       ----

> <Gold.Chemscore.Fitness>
12.5598

> <Gold.Chemscore.DG>
-13.3746

> <Gold.Chemscore.ZeroCoef>
-5.4800

> <Gold.Chemscore.Hbond>
1.9761

> <Gold.Chemscore.Metal>
0.0000

> <Gold.Chemscore.Lipo>
67.5288

> <Gold.Chemscore.Internal_Hbond>
0.0000

> <Gold.Chemscore.DEClash>
0.0194

> <Gold.Chemscore.DEInternal>
0.7954

> <Gold.Chemscore.Rot>
2.5806

> <Gold.Chemscore.Internal.Correction>
   9.000000E+99

> <Gold.Chemscore.Hbonds>
donor molecule, donor type, donor heavy atom, donor atom, acceptor molecule, acceptor atom, score
      L1  H    12    17       P1  7949  0.05
      P1  H  7997  8008       L1     7  0.92
      P1  H 10752 10763       L1    12  0.60

> <Gold.Chemscore.Hbond.Weighted>
-6.6000

> <Gold.Chemscore.Metal.Weighted>
-0.0000

> <Gold.Chemscore.Lipo.Weighted>
-7.9009

> <Gold.Chemscore.Internal_Hbond.Weighted>
0.0000

> <Gold.Chemscore.DEClash.Weighted>
0.0194

> <Gold.Chemscore.DEInternal.Weighted>
0.7954

> <Gold.Chemscore.Rot.Weighted>
6.6063

> <Gold.Chemscore.Internal.Correction.Weighted>
   9.000000E+99

> <Gold.Protein.RotatedTorsions>
[ 6907 6896 6895 6894 ] final  -86.01 input  -60.11 | X-H torsion
[ 7974 7965 7964 7962 ] final -149.55 input  175.53 | X-H torsion
[ 8008 7997 7996 7995 ] final -106.28 input   59.86 | X-H torsion
[ 10167 10162 10161 10158 ] final  -12.27 input  -65.29 | X-H torsion
[ 10718 10713 10712 10709 ] final  -91.43 input   66.30 | X-H torsion
[ 10763 10752 10751 10750 ] final   33.98 input  -60.55 | X-H torsion
[ 11005 11000 10999 10996 ] final -113.30 input  -57.11 | X-H torsion

> <Gold.Protein.ActiveResidues>
 VAL166  LYS551  ARG553  GLY616  TRP617  ASP618  TYR619  PRO620  LYS621  CYS622 
 ASP623  PHE694  ASN695  SER759  ASP760  ASP761  ALA762  ILE779  LEU786  VAL792 
 PHE793  MET794  SER795  GLU796  ALA797  LYS798  CYS799  TRP800  GLU811  SER814 

> <Gold.Protein.RotatedAtoms>
  150.6868  134.3116  159.4748 H   0  0  0  0  0  0  0  0  0  0  0  0  # atno 6907 bound_to 6896
  152.1001  134.9345  160.0579 H   0  0  0  0  0  0  0  0  0  0  0  0  # atno 6908 bound_to 6896
  152.0627  133.4035  159.4462 H   0  0  0  0  0  0  0  0  0  0  0  0  # atno 6909 bound_to 6896
  144.7961  140.5050  143.5739 H   0  0  0  0  0  0  0  0  0  0  0  0  # atno 7974 bound_to 7965
  154.9123  140.0409  157.1953 H   0  0  0  0  0  0  0  0  0  0  0  0  # atno 8008 bound_to 7997
  154.8336  140.2903  155.5684 H   0  0  0  0  0  0  0  0  0  0  0  0  # atno 8009 bound_to 7997
  156.2988  140.2496  156.3266 H   0  0  0  0  0  0  0  0  0  0  0  0  # atno 8010 bound_to 7997
  140.7157  143.5550  150.9258 H   0  0  0  0  0  0  0  0  0  0  0  0  # atno 10167 bound_to 10162
  155.9994  130.4948  150.5474 H   0  0  0  0  0  0  0  0  0  0  0  0  # atno 10718 bound_to 10713
  153.0185  135.6372  154.1597 H   0  0  0  0  0  0  0  0  0  0  0  0  # atno 10763 bound_to 10752
  154.1334  135.2839  155.3181 H   0  0  0  0  0  0  0  0  0  0  0  0  # atno 10764 bound_to 10752
  154.6178  135.5535  153.7603 H   0  0  0  0  0  0  0  0  0  0  0  0  # atno 10765 bound_to 10752
  141.0623  133.9515  157.2644 H   0  0  0  0  0  0  0  0  0  0  0  0  # atno 11005 bound_to 11000
  145.5670  139.1482  143.3309 LP  0  0  0  0  0  0  0  0  0  0  0  0  # atno 17320 bound_to 7965
  146.2229  140.5805  142.9009 LP  0  0  0  0  0  0  0  0  0  0  0  0  # atno 17321 bound_to 7965
  139.9275  143.6532  152.3083 LP  0  0  0  0  0  0  0  0  0  0  0  0  # atno 17342 bound_to 10162
  139.6971  144.7640  151.1337 LP  0  0  0  0  0  0  0  0  0  0  0  0  # atno 17343 bound_to 10162
  157.3402  131.0715  151.1794 LP  0  0  0  0  0  0  0  0  0  0  0  0  # atno 17370 bound_to 10713
  157.2645  130.6675  149.5990 LP  0  0  0  0  0  0  0  0  0  0  0  0  # atno 17371 bound_to 10713
  139.9444  135.0186  156.8807 LP  0  0  0  0  0  0  0  0  0  0  0  0  # atno 17394 bound_to 11000
  140.5844  134.0321  155.7476 LP  0  0  0  0  0  0  0  0  0  0  0  0  # atno 17395 bound_to 11000

$$$$
