AV-unprocessed.smi:2757|AV-procd|sdf|10620|dock2
  -GOLD-   2272015 63D 1   1.00000     0.00000
 Structure written by MMmdl.
 32 33  0  0  0  0  0  0  0  0  2 V2000
  153.6768  140.3263  160.6157 C   0  0  0  0  0  0  0  0  0  0  0  0
  152.7404  140.6667  159.5559 N   0  0  0  0  0  0  0  0  0  0  0  0
  152.6836  140.0443  158.3691 C   0  0  0  0  0  0  0  0  0  0  0  0
  153.4209  139.1104  158.0516 O   0  0  0  0  0  0  0  0  0  0  0  0
  151.6524  140.5791  157.4192 C   0  0  0  0  0  0  0  0  0  0  0  0
  151.1090  141.8859  157.5920 C   0  0  0  0  0  0  0  0  0  0  0  0
  150.2206  142.0120  156.5631 C   0  0  0  0  0  0  0  0  0  0  0  0
  150.2559  140.8381  155.8400 N   0  0  0  0  0  0  0  0  0  0  0  0
  149.4906  140.4913  154.6518 C   0  0  2  0  0  0  0  0  0  0  0  0
  147.9956  140.8332  154.8165 C   0  0  0  0  0  0  0  0  0  0  0  0
  147.2159  140.4376  153.5535 C   0  0  0  0  0  0  0  0  0  0  0  0
  147.4468  138.9569  153.2063 C   0  0  0  0  0  0  0  0  0  0  0  0
  148.8912  138.6702  153.0646 N   0  3  0  0  0  0  0  0  0  0  0  0
  149.6685  139.0041  154.2786 C   0  0  0  0  0  0  0  0  0  0  0  0
  151.1407  139.9599  156.3631 N   0  0  0  0  0  0  0  0  0  0  0  0
  153.4965  140.9554  161.4875 H   0  0  0  0  0  0  0  0  0  0  0  0
  154.7052  140.4838  160.2884 H   0  0  0  0  0  0  0  0  0  0  0  0
  153.5624  139.2843  160.9172 H   0  0  0  0  0  0  0  0  0  0  0  0
  152.0987  141.4272  159.7274 H   0  0  0  0  0  0  0  0  0  0  0  0
  151.3334  142.6176  158.3544 H   0  0  0  0  0  0  0  0  0  0  0  0
  149.5727  142.8321  156.2903 H   0  0  0  0  0  0  0  0  0  0  0  0
  149.8848  141.0942  153.8318 H   0  0  0  0  0  0  0  0  0  0  0  0
  147.5785  140.3062  155.6758 H   0  0  0  0  0  0  0  0  0  0  0  0
  147.8708  141.8985  155.0137 H   0  0  0  0  0  0  0  0  0  0  0  0
  146.1516  140.6252  153.6988 H   0  0  0  0  0  0  0  0  0  0  0  0
  147.5296  141.0647  152.7179 H   0  0  0  0  0  0  0  0  0  0  0  0
  147.0286  138.3154  153.9831 H   0  0  0  0  0  0  0  0  0  0  0  0
  146.9397  138.7029  152.2752 H   0  0  0  0  0  0  0  0  0  0  0  0
  149.0117  137.6887  152.8583 H   0  0  0  0  0  0  0  0  0  0  0  0
  150.7202  138.7811  154.0960 H   0  0  0  0  0  0  0  0  0  0  0  0
  149.3428  138.3563  155.0938 H   0  0  0  0  0  0  0  0  0  0  0  0
  149.2526  139.2120  152.2925 H   0  0  0  0  0  0  0  0  0  0  0  0
  1  2  1  0  0  0  0
  1 16  1  0  0  0  0
  1 17  1  0  0  0  0
  1 18  1  0  0  0  0
  2  3  1  0  0  0  0
  2 19  1  0  0  0  0
  3  4  2  0  0  0  0
  3  5  1  0  0  0  0
  5 15  2  0  0  0  0
  5  6  1  0  0  0  0
  6  7  2  0  0  0  0
  6 20  1  0  0  0  0
  7  8  1  0  0  0  0
  7 21  1  0  0  0  0
  8  9  1  0  0  0  0
  8 15  1  0  0  0  0
  9 14  1  0  0  0  0
  9 10  1  0  0  0  0
  9 22  1  0  0  0  0
 10 11  1  0  0  0  0
 10 23  1  0  0  0  0
 10 24  1  0  0  0  0
 11 12  1  0  0  0  0
 11 25  1  0  0  0  0
 11 26  1  0  0  0  0
 12 13  1  0  0  0  0
 12 27  1  0  0  0  0
 12 28  1  0  0  0  0
 13 14  1  0  0  0  0
 13 29  1  0  0  0  0
 13 32  1  0  0  0  0
 14 30  1  0  0  0  0
 14 31  1  0  0  0  0
M  CHG  1  13   1
M  END
> <s_m_source_file>
AV-unprocessed.smi

> <i_m_source_file_index>
2757

> <i_lp_mmshare_version>
43012

> <i_f3d_flags>
0

> <s_epik_input>
W0NIM11bTkhdQyg9TyljMVtjSF1bY0hdbihuMSlbQ0BASF0yW0NIMl1bQ0gyXVtDSDJdW05IXVtDSDJdMg==

> <s_epik_cmdline>
J2VwaWtfcHl0aG9uJywgJy1waCcsICc3LjAnLCAnLXRuJywgJzgnLCAnLW1hJywgJzIwMCcsICctbWV0YWxfYmluZGluZycsICctaW1hZScsICc8aW5maWxlLm1hZT4nLCAnLW9tYWUnLCAnPG91dGZpbGUubWFlPic=

> <r_lp_tautomer_probability>
1

> <r_epik_Ionization_Penalty>
0.000652722

> <r_epik_Ionization_Penalty_Charging>
0.000651447

> <r_epik_Ionization_Penalty_Neutral>
1.27533e-06

> <r_epik_State_Penalty>
0.000412577

> <r_epik_Charging_Adjusted_Penalty>
0.00106402

> <i_epik_Tot_Q>
1

> <i_epik_Tot_abs_Q>
1

> <r_epik_Metal_State_Penalty>
-0

> <b_epik_Metal_Only>
0

> <s_lp_Force_Field>
OPLS_2005

> <r_lp_Energy>
20.0976

> <b_lp_Chiralities_Consistent>
1

> <s_lp_Variant>
AV-unprocessed.smi:2757-1

> <Gold.Version>
5.8.1

> <Gold.Id.Protein>
6NUR|6NUR_protein|mol2

> <Gold.PLP.Fitness>
41.7165

> <Gold.PLP.PLP>
-27.6919

> <Gold.PLP.part.hbond>
-3.0000

> <Gold.PLP.part.metal>
0.0000

> <Gold.PLP.part.buried>
-1.7576

> <Gold.PLP.part.nonpolar>
-22.9673

> <Gold.PLP.part.repulsive>
0.1928

> <Gold.PLP.ligand.clash>
0.0000

> <Gold.PLP.ligand.torsion>
0.3983

> <Gold.PLP.Chemscore.Hbond>
3.9340

> <Gold.PLP.Chemscore.CHOScore>
1.0000

> <Gold.PLP.Chemscore.Metal>
0.0000

> <Gold.Chemscore.Hbonds>
donor molecule, donor type, donor heavy atom, donor atom, acceptor molecule, acceptor atom, score
      L1  H    13    29       P1  7948  2.00
      L1  H    13    32       P1  7957  0.76
      P1  H  7997  8009       L1     4  1.00
      L1  C     7    21       P1  8028  1.00

> <Gold.PLP.Chemscore.Internal.Correction>
0.0191

> <Gold.Rescore>
     Score         DG    S(hbond)    S(metal)    S(lipo)     H(rot)  DE(clash)    DE(int)     intcor
     18.61     -19.03       2.75        0.00      59.13       1.00       0.07       0.36       ----

> <Gold.Chemscore.Fitness>
18.6060

> <Gold.Chemscore.DG>
-19.0344

> <Gold.Chemscore.ZeroCoef>
-5.4800

> <Gold.Chemscore.Hbond>
2.7535

> <Gold.Chemscore.Metal>
0.0000

> <Gold.Chemscore.Lipo>
59.1263

> <Gold.Chemscore.Internal_Hbond>
0.0000

> <Gold.Chemscore.DEClash>
0.0673

> <Gold.Chemscore.DEInternal>
0.3611

> <Gold.Chemscore.Rot>
1.0000

> <Gold.Chemscore.Internal.Correction>
   9.000000E+99

> <Gold.Chemscore.Hbonds>
donor molecule, donor type, donor heavy atom, donor atom, acceptor molecule, acceptor atom, score
      L1  H    13    29       P1  7948  0.98
      L1  H    13    32       P1  7957  0.74
      P1  H  7997  8009       L1     4  0.33

> <Gold.Chemscore.Hbond.Weighted>
-9.1966

> <Gold.Chemscore.Metal.Weighted>
-0.0000

> <Gold.Chemscore.Lipo.Weighted>
-6.9178

> <Gold.Chemscore.Internal_Hbond.Weighted>
0.0000

> <Gold.Chemscore.DEClash.Weighted>
0.0673

> <Gold.Chemscore.DEInternal.Weighted>
0.3611

> <Gold.Chemscore.Rot.Weighted>
2.5600

> <Gold.Chemscore.Internal.Correction.Weighted>
   9.000000E+99

> <Gold.Protein.RotatedTorsions>
[ 6907 6896 6895 6894 ] final  146.08 input  -60.11 | X-H torsion
[ 7974 7965 7964 7962 ] final   37.09 input  175.53 | X-H torsion
[ 8008 7997 7996 7995 ] final  133.82 input   59.86 | X-H torsion
[ 10167 10162 10161 10158 ] final -100.64 input  -65.29 | X-H torsion
[ 10718 10713 10712 10709 ] final  -70.07 input   66.30 | X-H torsion
[ 10763 10752 10751 10750 ] final -133.62 input  -60.55 | X-H torsion
[ 11005 11000 10999 10996 ] final  146.07 input  -57.11 | X-H torsion

> <Gold.Protein.ActiveResidues>
 VAL166  LYS551  ARG553  GLY616  TRP617  ASP618  TYR619  PRO620  LYS621  CYS622 
 ASP623  PHE694  ASN695  SER759  ASP760  ASP761  ALA762  ILE779  LEU786  VAL792 
 PHE793  MET794  SER795  GLU796  ALA797  LYS798  CYS799  TRP800  GLU811  SER814 

> <Gold.Protein.RotatedAtoms>
  152.1725  133.4653  159.4916 H   0  0  0  0  0  0  0  0  0  0  0  0  # atno 6907 bound_to 6896
  150.6922  134.1935  159.4303 H   0  0  0  0  0  0  0  0  0  0  0  0  # atno 6908 bound_to 6896
  151.9842  135.0012  160.0609 H   0  0  0  0  0  0  0  0  0  0  0  0  # atno 6909 bound_to 6896
  146.1163  139.5936  142.9319 H   0  0  0  0  0  0  0  0  0  0  0  0  # atno 7974 bound_to 7965
  156.2995  140.2512  156.3315 H   0  0  0  0  0  0  0  0  0  0  0  0  # atno 8008 bound_to 7997
  154.9140  140.0402  157.1981 H   0  0  0  0  0  0  0  0  0  0  0  0  # atno 8009 bound_to 7997
  154.8377  140.2886  155.5684 H   0  0  0  0  0  0  0  0  0  0  0  0  # atno 8010 bound_to 7997
  140.2498  143.3480  152.0725 H   0  0  0  0  0  0  0  0  0  0  0  0  # atno 10167 bound_to 10162
  156.0425  130.4324  150.2240 H   0  0  0  0  0  0  0  0  0  0  0  0  # atno 10718 bound_to 10713
  154.8730  135.3760  154.4603 H   0  0  0  0  0  0  0  0  0  0  0  0  # atno 10763 bound_to 10752
  153.5272  135.7028  153.5707 H   0  0  0  0  0  0  0  0  0  0  0  0  # atno 10764 bound_to 10752
  153.3927  135.3968  155.1900 H   0  0  0  0  0  0  0  0  0  0  0  0  # atno 10765 bound_to 10752
  140.0763  134.9123  157.1428 H   0  0  0  0  0  0  0  0  0  0  0  0  # atno 11005 bound_to 11000
  145.5560  141.0409  143.2252 LP  0  0  0  0  0  0  0  0  0  0  0  0  # atno 17320 bound_to 7965
  144.7556  139.7083  143.7255 LP  0  0  0  0  0  0  0  0  0  0  0  0  # atno 17321 bound_to 7965
  139.5050  144.6786  151.6065 LP  0  0  0  0  0  0  0  0  0  0  0  0  # atno 17342 bound_to 10162
  140.6049  143.9542  150.6412 LP  0  0  0  0  0  0  0  0  0  0  0  0  # atno 17343 bound_to 10162
  157.0334  131.0014  151.3305 LP  0  0  0  0  0  0  0  0  0  0  0  0  # atno 17370 bound_to 10713
  157.5261  130.8029  149.7864 LP  0  0  0  0  0  0  0  0  0  0  0  0  # atno 17371 bound_to 10713
  140.3553  134.2554  155.7193 LP  0  0  0  0  0  0  0  0  0  0  0  0  # atno 17394 bound_to 11000
  141.2030  133.7922  157.0359 LP  0  0  0  0  0  0  0  0  0  0  0  0  # atno 17395 bound_to 11000

$$$$
