#       Name:                AV-unprocessed.smi:2078
#       Creating user name   scv26
#       Creation time:       Fri Mar 27 11:17:38 2020


#       File generated by GOLD software.
#

@<TRIPOS>MOLECULE
AV-unprocessed.smi:2078
    47    48     1
SMALL
NO_CHARGES


@<TRIPOS>ATOM
      1 ****        -4.7432   4.2029  -0.4185 C.3            1 S1                 0.0000
      2 ****        -3.6171   3.3498   0.0560 C.2            1 S1                 0.0000
      3 ****        -3.5612   2.2556   0.8726 C.2            1 S1                 0.0000
      4 ****        -2.1757   1.9452   0.8989 C.2            1 S1                 0.0000
      5 ****        -1.6951   0.8353   1.6422 N.am           1 S1                 0.0000
      6 ****        -0.4230   0.4436   1.8341 C.2            1 S1                 0.0000
      7 ****         0.5132   1.1476   1.4367 O.2            1 S1                 0.0000
      8 ****        -0.3386  -0.7559   2.4737 N.pl3          1 S1                -1.0000
      9 ****         0.9120  -1.4542   2.7885 C.3            1 S1                 0.0000
     10 ****         1.3029  -2.4111   1.6404 C.3            1 S1                 0.0000
     11 ****         1.5565  -1.6884   0.3643 N.4            1 S1                 1.0000
     12 ****         2.9875  -1.3597   0.1284 C.3            1 S1                 0.0000
     13 ****         3.1401  -0.4338  -1.0878 C.3            1 S1                 0.0000
     14 ****         2.5003  -1.0567  -2.3375 C.3            1 S1                 0.0000
     15 ****         1.0372  -1.4631  -2.0772 C.3            1 S1                 0.0000
     16 ****         0.0843  -0.2555  -2.0219 C.3            1 S1                 0.0000
     17 ****         0.9359  -2.3455  -0.8153 C.3            1 S1                 0.0000
     18 ****        -1.4522   2.7713   0.1575 N.2            1 S1                 0.0000
     19 ****        -2.3721   3.6766  -0.3848 O.3            1 S1                 0.0000
     20 ****        -5.1398   3.8270  -1.3615 H              1 S1                 0.0000
     21 ****        -4.4157   5.2312  -0.5741 H              1 S1                 0.0000
     22 ****        -5.5544   4.2142   0.3096 H              1 S1                 0.0000
     23 ****        -4.3803   1.7591   1.3710 H              1 S1                 0.0000
     24 ****        -2.4041   0.2407   2.0454 H              1 S1                 0.0000
     25 ****         1.7373  -0.7670   2.9797 H              1 S1                 0.0000
     26 ****         0.8087  -2.0383   3.7027 H              1 S1                 0.0000
     27 ****         2.1813  -2.9956   1.9173 H              1 S1                 0.0000
     28 ****         0.4976  -3.1361   1.5122 H              1 S1                 0.0000
     29 ****         3.4085  -0.8684   1.0063 H              1 S1                 0.0000
     30 ****         3.5543  -2.2795  -0.0226 H              1 S1                 0.0000
     31 ****         2.6801   0.5316  -0.8731 H              1 S1                 0.0000
     32 ****         4.1959  -0.2341  -1.2721 H              1 S1                 0.0000
     33 ****         2.5634  -0.3667  -3.1795 H              1 S1                 0.0000
     34 ****         3.0713  -1.9407  -2.6244 H              1 S1                 0.0000
     35 ****         0.7125  -2.0688  -2.9241 H              1 S1                 0.0000
     36 ****         0.3288   0.4208  -1.2039 H              1 S1                 0.0000
     37 ****        -0.9483  -0.5766  -1.8827 H              1 S1                 0.0000
     38 ****         0.1265   0.3190  -2.9475 H              1 S1                 0.0000
     39 ****         1.4273  -3.3042  -0.9873 H              1 S1                 0.0000
     40 ****        -0.1132  -2.5629  -0.6095 H              1 S1                 0.0000
     41 ****         1.0722  -0.8070   0.4697 H              1 S1                 0.0000
     42 ****         0.3257   2.0121   0.9704 LP             1 S1                 0.0000
     43 ****         1.4575   0.8521   1.5816 LP             1 S1                 0.0000
     44 ****        -1.1944  -1.1937   2.7495 LP             1 S1                 0.0000
     45 ****        -0.4625   2.7522   0.0158 LP             1 S1                 0.0000
     46 ****        -2.1440   4.6048  -0.0911 LP             1 S1                 0.0000
     47 ****        -2.3448   3.6267  -1.3832 LP             1 S1                 0.0000
@<TRIPOS>BOND
    1    1    2 1     
    2    1   20 1     
    3    1   21 1     
    4    1   22 1     
    5    2   19 1     
    6    2    3 2     
    7    3    4 1     
    8    3   23 1     
    9    4    5 1     
   10    4   18 2     
   11    5    6 am    
   12    5   24 1     
   13    6    7 2     
   14    6    8 1     
   15    8    9 1     
   16    9   10 1     
   17    9   25 1     
   18    9   26 1     
   19   10   11 1     
   20   10   27 1     
   21   10   28 1     
   22   11   17 1     
   23   11   12 1     
   24   11   41 1     
   25   12   13 1     
   26   12   29 1     
   27   12   30 1     
   28   13   14 1     
   29   13   31 1     
   30   13   32 1     
   31   14   15 1     
   32   14   33 1     
   33   14   34 1     
   34   15   16 1     
   35   15   17 1     
   36   15   35 1     
   37   16   36 1     
   38   16   37 1     
   39   16   38 1     
   40   17   39 1     
   41   17   40 1     
   42   18   19 1     
   43    7   42 1     
   44    7   43 1     
   45    8   44 1     
   46   18   45 1     
   47   19   46 1     
   48   19   47 1     
@<TRIPOS>SUBSTRUCTURE
      1 S1             1
@<TRIPOS>SET
LONE_PAIRS      STATIC     ATOMS    <user>   **** ""
6 42 43 44 45 46 47
DONOR_HYDROGENS      STATIC     ATOMS    <user>   **** ""
2 24 41
ATOM$BLUE        STATIC     ATOMS    COLORGROUP SYSTEM
6 42 43 44 45 46 47
ATOM$RED        STATIC     ATOMS    COLORGROUP SYSTEM
2 24 41
