AV-unprocessed.smi:1760|AV-procd|sdf|7093|dock8
  -GOLD-   22720 8313D 1   1.00000     0.00000
 Structure written by MMmdl.
 43 45  0  0  0  0  0  0  0  0  3 V2000
  145.7061  137.6330  154.6958 O   0  0  0  0  0  0  0  0  0  0  0  0
  146.6716  137.3193  154.0000 C   0  0  0  0  0  0  0  0  0  0  0  0
  147.9657  137.5327  154.3000 N   0  0  0  0  0  0  0  0  0  0  0  0
  148.5355  138.1242  155.4409 C   0  0  0  0  0  0  0  0  0  0  0  0
  149.5013  139.0845  155.4222 C   0  0  0  0  0  0  0  0  0  0  0  0
  150.0479  139.6628  156.6437 C   0  0  0  0  0  0  0  0  0  0  0  0
  151.1388  140.7175  156.6788 C   0  0  0  0  0  0  0  0  0  0  0  0
  152.1967  140.3090  155.9791 F   0  0  0  0  0  0  0  0  0  0  0  0
  150.6998  141.8527  156.1360 F   0  0  0  0  0  0  0  0  0  0  0  0
  151.5321  140.9721  157.9269 F   0  0  0  0  0  0  0  0  0  0  0  0
  149.4669  139.1376  157.7804 C   0  0  0  0  0  0  0  0  0  0  0  0
  148.5001  138.1998  157.8861 N   0  5  0  0  0  0  0  0  0  0  0  0
  148.0010  137.6597  156.7385 C   0  0  0  0  0  0  0  0  0  0  0  0
  147.1198  136.7994  156.7618 O   0  0  0  0  0  0  0  0  0  0  0  0
  146.5550  136.7251  152.8030 N   0  0  0  0  0  0  0  0  0  0  0  0
  145.3019  136.3760  152.1386 C   0  0  2  0  0  0  0  0  0  0  0  0
  144.4719  135.4395  153.0324 C   0  0  0  0  0  0  0  0  0  0  0  0
  143.1960  134.9677  152.3092 C   0  0  0  0  0  0  0  0  0  0  0  0
  143.4968  134.3296  151.0015 N   0  3  2  0  0  0  0  0  0  0  0  0
  144.0634  132.9665  151.1297 C   0  0  0  0  0  0  0  0  0  0  0  0
  144.8844  132.5371  149.9360 C   0  0  0  0  0  0  0  0  0  0  0  0
  143.4941  131.9778  150.1389 C   0  0  0  0  0  0  0  0  0  0  0  0
  144.2945  135.2175  150.1168 C   0  0  0  0  0  0  0  0  0  0  0  0
  145.5945  135.6926  150.7928 C   0  0  0  0  0  0  0  0  0  0  0  0
  148.6387  137.2722  153.5939 H   0  0  0  0  0  0  0  0  0  0  0  0
  149.8863  139.4625  154.4900 H   0  0  0  0  0  0  0  0  0  0  0  0
  149.8386  139.5307  158.7508 H   0  0  0  0  0  0  0  0  0  0  0  0
  147.4066  136.5090  152.3055 H   0  0  0  0  0  0  0  0  0  0  0  0
  144.7106  137.2722  151.9416 H   0  0  0  0  0  0  0  0  0  0  0  0
  145.0703  134.5766  153.3276 H   0  0  0  0  0  0  0  0  0  0  0  0
  144.2008  135.9522  153.9562 H   0  0  0  0  0  0  0  0  0  0  0  0
  142.6333  134.2786  152.9399 H   0  0  0  0  0  0  0  0  0  0  0  0
  142.5429  135.8230  152.1309 H   0  0  0  0  0  0  0  0  0  0  0  0
  144.3408  132.6406  152.1302 H   0  0  0  0  0  0  0  0  0  0  0  0
  145.0258  133.2478  149.1236 H   0  0  0  0  0  0  0  0  0  0  0  0
  145.7224  131.8673  150.1184 H   0  0  0  0  0  0  0  0  0  0  0  0
  143.4163  130.9394  150.4543 H   0  0  0  0  0  0  0  0  0  0  0  0
  142.7128  132.3174  149.4611 H   0  0  0  0  0  0  0  0  0  0  0  0
  144.5169  134.7079  149.1787 H   0  0  0  0  0  0  0  0  0  0  0  0
  143.6831  136.0830  149.8581 H   0  0  0  0  0  0  0  0  0  0  0  0
  146.1193  136.3836  150.1318 H   0  0  0  0  0  0  0  0  0  0  0  0
  146.2651  134.8451  150.9412 H   0  0  0  0  0  0  0  0  0  0  0  0
  142.6066  134.2033  150.5409 H   0  0  0  0  0  0  0  0  0  0  0  0
  1  2  2  0  0  0  0
  2  3  1  0  0  0  0
  2 15  1  0  0  0  0
  3  4  1  0  0  0  0
  3 25  1  0  0  0  0
  4 13  1  0  0  0  0
  4  5  2  0  0  0  0
  5  6  1  0  0  0  0
  5 26  1  0  0  0  0
  6  7  1  0  0  0  0
  6 11  2  0  0  0  0
  7  8  1  0  0  0  0
  7  9  1  0  0  0  0
  7 10  1  0  0  0  0
 11 12  1  0  0  0  0
 11 27  1  0  0  0  0
 12 13  1  0  0  0  0
 13 14  2  0  0  0  0
 15 16  1  0  0  0  0
 15 28  1  0  0  0  0
 16 24  1  0  0  0  0
 16 17  1  0  0  0  0
 16 29  1  0  0  0  0
 17 18  1  0  0  0  0
 17 30  1  0  0  0  0
 17 31  1  0  0  0  0
 18 19  1  0  0  0  0
 18 32  1  0  0  0  0
 18 33  1  0  0  0  0
 19 20  1  0  0  0  0
 19 23  1  0  0  0  0
 19 43  1  0  0  0  0
 20 22  1  0  0  0  0
 20 21  1  0  0  0  0
 20 34  1  0  0  0  0
 21 22  1  0  0  0  0
 21 35  1  0  0  0  0
 21 36  1  0  0  0  0
 22 37  1  0  0  0  0
 22 38  1  0  0  0  0
 23 24  1  0  0  0  0
 23 39  1  0  0  0  0
 23 40  1  0  0  0  0
 24 41  1  0  0  0  0
 24 42  1  0  0  0  0
M  CHG  1  12  -1
M  CHG  1  19   1
M  END
> <s_m_source_file>
AV-unprocessed.smi

> <i_m_source_file_index>
1760

> <i_lp_mmshare_version>
43012

> <i_f3d_flags>
0

> <s_epik_input>
W0NIMl0xW0NIMl1bQ0hdMU4oW0NIMl1bQ0gyXTIpW0NIMl1bQ0gyXVtDSF0yW05IXUMoPU8pW05IXWMzW2NIXWMoQyhGKShGKUYpW2NIXVtuSF1jMz1P

> <s_epik_cmdline>
J2VwaWtfcHl0aG9uJywgJy1waCcsICc3LjAnLCAnLXRuJywgJzgnLCAnLW1hJywgJzIwMCcsICctbWV0YWxfYmluZGluZycsICctaW1hZScsICc8aW5maWxlLm1hZT4nLCAnLW9tYWUnLCAnPG91dGZpbGUubWFlPic=

> <r_lp_tautomer_probability>
0.999

> <r_epik_Ionization_Penalty>
3.16043

> <r_epik_Ionization_Penalty_Charging>
0.268029

> <r_epik_Ionization_Penalty_Neutral>
2.8924

> <r_epik_State_Penalty>
3.0039

> <r_epik_Charging_Adjusted_Penalty>
3.27193

> <i_epik_Tot_Q>
0

> <i_epik_Tot_abs_Q>
2

> <r_epik_Metal_State_Penalty>
0.560618

> <b_epik_Metal_Only>
1

> <s_lp_Force_Field>
OPLS_2005

> <r_lp_Energy>
41.7611

> <b_lp_Chiralities_Consistent>
1

> <s_lp_Variant>
AV-unprocessed.smi:1760-5

> <Gold.Version>
5.8.1

> <Gold.Id.Protein>
6NUR|6NUR_protein|mol2

> <Gold.PLP.Fitness>
42.3631

> <Gold.PLP.PLP>
-32.0446

> <Gold.PLP.part.hbond>
-3.0000

> <Gold.PLP.part.metal>
0.0000

> <Gold.PLP.part.buried>
-2.7979

> <Gold.PLP.part.nonpolar>
-26.2990

> <Gold.PLP.part.repulsive>
0.0899

> <Gold.PLP.ligand.clash>
0.0000

> <Gold.PLP.ligand.torsion>
1.3626

> <Gold.PLP.Chemscore.Hbond>
3.9199

> <Gold.PLP.Chemscore.CHOScore>
0.0000

> <Gold.PLP.Chemscore.Metal>
0.0000

> <Gold.Chemscore.Hbonds>
donor molecule, donor type, donor heavy atom, donor atom, acceptor molecule, acceptor atom, score
      L1  H     3    25       P1  7948  0.92
      L1  H    15    28       P1  7948  1.00
      L1  H    19    43       P1 10186  2.00

> <Gold.PLP.Chemscore.Internal.Correction>
1.2841

> <Gold.Rescore>
     Score         DG    S(hbond)    S(metal)    S(lipo)     H(rot)  DE(clash)    DE(int)     intcor
     15.66     -20.53       2.80        0.00      76.71       1.28       0.82       4.05       ----

> <Gold.Chemscore.Fitness>
15.6562

> <Gold.Chemscore.DG>
-20.5330

> <Gold.Chemscore.ZeroCoef>
-5.4800

> <Gold.Chemscore.Hbond>
2.7999

> <Gold.Chemscore.Metal>
0.0000

> <Gold.Chemscore.Lipo>
76.7095

> <Gold.Chemscore.Internal_Hbond>
0.0000

> <Gold.Chemscore.DEClash>
0.8231

> <Gold.Chemscore.DEInternal>
4.0537

> <Gold.Chemscore.Rot>
1.2787

> <Gold.Chemscore.Internal.Correction>
   9.000000E+99

> <Gold.Chemscore.Hbonds>
donor molecule, donor type, donor heavy atom, donor atom, acceptor molecule, acceptor atom, score
      L1  H     3    25       P1  7948  0.84
      L1  H    15    28       P1  7948  0.99
      L1  H    19    43       P1 10186  0.70

> <Gold.Chemscore.Hbond.Weighted>
-9.3515

> <Gold.Chemscore.Metal.Weighted>
-0.0000

> <Gold.Chemscore.Lipo.Weighted>
-8.9750

> <Gold.Chemscore.Internal_Hbond.Weighted>
0.0000

> <Gold.Chemscore.DEClash.Weighted>
0.8231

> <Gold.Chemscore.DEInternal.Weighted>
4.0537

> <Gold.Chemscore.Rot.Weighted>
3.2735

> <Gold.Chemscore.Internal.Correction.Weighted>
   9.000000E+99

> <Gold.Protein.RotatedTorsions>
[ 6907 6896 6895 6894 ] final  -30.70 input  -60.11 | X-H torsion
[ 7974 7965 7964 7962 ] final  -97.05 input  175.53 | X-H torsion
[ 8008 7997 7996 7995 ] final  174.88 input   59.86 | X-H torsion
[ 10167 10162 10161 10158 ] final  177.16 input  -65.29 | X-H torsion
[ 10718 10713 10712 10709 ] final  -81.44 input   66.30 | X-H torsion
[ 10763 10752 10751 10750 ] final  -82.07 input  -60.55 | X-H torsion
[ 11005 11000 10999 10996 ] final -102.97 input  -57.11 | X-H torsion

> <Gold.Protein.ActiveResidues>
 VAL166  LYS551  ARG553  GLY616  TRP617  ASP618  TYR619  PRO620  LYS621  CYS622 
 ASP623  PHE694  ASN695  SER759  ASP760  ASP761  ALA762  ILE779  LEU786  VAL792 
 PHE793  MET794  SER795  GLU796  ALA797  LYS798  CYS799  TRP800  GLU811  SER814 

> <Gold.Protein.RotatedAtoms>
  151.1020  134.9978  159.8453 H   0  0  0  0  0  0  0  0  0  0  0  0  # atno 6907 bound_to 6896
  152.5437  134.1938  159.8695 H   0  0  0  0  0  0  0  0  0  0  0  0  # atno 6908 bound_to 6896
  151.1982  133.4582  159.2629 H   0  0  0  0  0  0  0  0  0  0  0  0  # atno 6909 bound_to 6896
  145.3388  140.9456  143.2619 H   0  0  0  0  0  0  0  0  0  0  0  0  # atno 7974 bound_to 7965
  156.0928  140.1423  156.9570 H   0  0  0  0  0  0  0  0  0  0  0  0  # atno 8008 bound_to 7997
  154.4652  140.0928  156.7049 H   0  0  0  0  0  0  0  0  0  0  0  0  # atno 8009 bound_to 7997
  155.4891  140.3447  155.4354 H   0  0  0  0  0  0  0  0  0  0  0  0  # atno 8010 bound_to 7997
  139.5242  144.2831  152.0529 H   0  0  0  0  0  0  0  0  0  0  0  0  # atno 10167 bound_to 10162
  156.0050  130.4604  150.3953 H   0  0  0  0  0  0  0  0  0  0  0  0  # atno 10718 bound_to 10713
  154.5713  135.5604  153.7098 H   0  0  0  0  0  0  0  0  0  0  0  0  # atno 10763 bound_to 10752
  153.0049  135.6297  154.2110 H   0  0  0  0  0  0  0  0  0  0  0  0  # atno 10764 bound_to 10752
  154.2050  135.2876  155.2958 H   0  0  0  0  0  0  0  0  0  0  0  0  # atno 10765 bound_to 10752
  141.1166  133.8601  157.1426 H   0  0  0  0  0  0  0  0  0  0  0  0  # atno 11005 bound_to 11000
  144.8806  139.4909  143.6725 LP  0  0  0  0  0  0  0  0  0  0  0  0  # atno 17320 bound_to 7965
  146.3016  139.7444  142.9087 LP  0  0  0  0  0  0  0  0  0  0  0  0  # atno 17321 bound_to 7965
  140.2285  144.4393  150.6310 LP  0  0  0  0  0  0  0  0  0  0  0  0  # atno 17342 bound_to 10162
  140.6371  143.2197  151.6371 LP  0  0  0  0  0  0  0  0  0  0  0  0  # atno 17343 bound_to 10162
  157.2025  131.0441  151.2643 LP  0  0  0  0  0  0  0  0  0  0  0  0  # atno 17370 bound_to 10713
  157.3962  130.7309  149.6734 LP  0  0  0  0  0  0  0  0  0  0  0  0  # atno 17371 bound_to 10713
  140.0093  134.9995  157.0361 LP  0  0  0  0  0  0  0  0  0  0  0  0  # atno 17394 bound_to 11000
  140.4627  134.1467  155.7193 LP  0  0  0  0  0  0  0  0  0  0  0  0  # atno 17395 bound_to 11000

$$$$
