AV-unprocessed.smi:2324|AV-procd|sdf|9292|dock9
  -GOLD-   2272012513D 1   1.00000     0.00000
 Structure written by MMmdl.
 37 39  0  0  0  0  0  0  0  0  1 V2000
  150.8499  134.5654  155.6166 O   0  0  0  0  0  0  0  0  0  0  0  0
  150.2407  135.0376  154.6582 C   0  0  0  0  0  0  0  0  0  0  0  0
  149.4629  134.2573  153.8776 N   0  0  0  0  0  0  0  0  0  0  0  0
  149.1615  132.8651  153.9336 C   0  0  0  0  0  0  0  0  0  0  0  0
  148.2899  132.4093  152.9212 C   0  0  0  0  0  0  0  0  0  0  0  0
  147.9400  131.0484  152.9004 C   0  0  0  0  0  0  0  0  0  0  0  0
  148.4903  130.2275  153.8990 C   0  0  0  0  0  0  0  0  0  0  0  0
  149.3229  130.7035  154.8498 N   0  0  0  0  0  0  0  0  0  0  0  0
  149.6497  132.0002  154.8623 N   0  0  0  0  0  0  0  0  0  0  0  0
  150.3103  136.3368  154.3236 N   0  0  0  0  0  0  0  0  0  0  0  0
  151.0953  137.3525  155.0177 C   0  0  1  0  0  0  0  0  0  0  0  0
  152.4409  137.5833  154.3096 C   0  0  0  0  0  0  0  0  0  0  0  0
  153.1897  138.7671  154.9413 C   0  0  0  0  0  0  0  0  0  0  0  0
  152.3733  139.9330  154.9092 O   0  0  0  0  0  0  0  0  0  0  0  0
  151.1739  139.7984  155.6656 C   0  0  1  0  0  0  0  0  0  0  0  0
  150.4548  141.1327  155.6477 C   0  0  0  0  0  0  0  0  0  0  0  0
  150.9146  142.2701  156.5295 C   0  0  0  0  0  0  0  0  0  0  0  0
  149.6088  141.5703  156.8207 C   0  0  0  0  0  0  0  0  0  0  0  0
  150.3121  138.6727  155.0638 C   0  0  0  0  0  0  0  0  0  0  0  0
  149.0124  134.7485  153.1194 H   0  0  0  0  0  0  0  0  0  0  0  0
  147.8951  133.0851  152.1762 H   0  0  0  0  0  0  0  0  0  0  0  0
  147.2761  130.6494  152.1480 H   0  0  0  0  0  0  0  0  0  0  0  0
  148.2612  129.1729  153.9366 H   0  0  0  0  0  0  0  0  0  0  0  0
  149.7778  136.6438  153.5215 H   0  0  0  0  0  0  0  0  0  0  0  0
  151.2811  137.0278  156.0433 H   0  0  0  0  0  0  0  0  0  0  0  0
  153.0578  136.6853  154.3582 H   0  0  0  0  0  0  0  0  0  0  0  0
  152.2727  137.7902  153.2517 H   0  0  0  0  0  0  0  0  0  0  0  0
  153.4792  138.5405  155.9685 H   0  0  0  0  0  0  0  0  0  0  0  0
  154.1081  138.9663  154.3893 H   0  0  0  0  0  0  0  0  0  0  0  0
  151.4277  139.5553  156.6991 H   0  0  0  0  0  0  0  0  0  0  0  0
  150.0835  141.4164  154.6645 H   0  0  0  0  0  0  0  0  0  0  0  0
  151.7462  142.0832  157.2061 H   0  0  0  0  0  0  0  0  0  0  0  0
  150.8662  143.2759  156.1173 H   0  0  0  0  0  0  0  0  0  0  0  0
  148.6889  142.1089  156.6022 H   0  0  0  0  0  0  0  0  0  0  0  0
  149.5721  140.9184  157.6912 H   0  0  0  0  0  0  0  0  0  0  0  0
  150.0011  138.9531  154.0560 H   0  0  0  0  0  0  0  0  0  0  0  0
  149.3994  138.5464  155.6476 H   0  0  0  0  0  0  0  0  0  0  0  0
  1  2  2  0  0  0  0
  2  3  1  0  0  0  0
  2 10  1  0  0  0  0
  3  4  1  0  0  0  0
  3 20  1  0  0  0  0
  4  9  1  0  0  0  0
  4  5  2  0  0  0  0
  5  6  1  0  0  0  0
  5 21  1  0  0  0  0
  6  7  2  0  0  0  0
  6 22  1  0  0  0  0
  7  8  1  0  0  0  0
  7 23  1  0  0  0  0
  8  9  2  0  0  0  0
 10 11  1  0  0  0  0
 10 24  1  0  0  0  0
 11 19  1  0  0  0  0
 11 12  1  0  0  0  0
 11 25  1  0  0  0  0
 12 13  1  0  0  0  0
 12 26  1  0  0  0  0
 12 27  1  0  0  0  0
 13 14  1  0  0  0  0
 13 28  1  0  0  0  0
 13 29  1  0  0  0  0
 14 15  1  0  0  0  0
 15 16  1  0  0  0  0
 15 19  1  0  0  0  0
 15 30  1  0  0  0  0
 16 18  1  0  0  0  0
 16 17  1  0  0  0  0
 16 31  1  0  0  0  0
 17 18  1  0  0  0  0
 17 32  1  0  0  0  0
 17 33  1  0  0  0  0
 18 34  1  0  0  0  0
 18 35  1  0  0  0  0
 19 36  1  0  0  0  0
 19 37  1  0  0  0  0
M  END
> <s_m_source_file>
AV-unprocessed.smi

> <i_m_source_file_index>
2324

> <i_lp_mmshare_version>
43012

> <i_f3d_flags>
0

> <s_epik_input>
bjFuW2NIXVtjSF1bY0hdYzFbTkhdQyg9TylbTkhdW0NAQEhdMltDSDJdW0NIMl1PW0NASF0oW0NIMl0yKVtDSF0zW0NIMl1bQ0gyXTM=

> <s_epik_cmdline>
J2VwaWtfcHl0aG9uJywgJy1waCcsICc3LjAnLCAnLXRuJywgJzgnLCAnLW1hJywgJzIwMCcsICctbWV0YWxfYmluZGluZycsICctaW1hZScsICc8aW5maWxlLm1hZT4nLCAnLW9tYWUnLCAnPG91dGZpbGUubWFlPic=

> <r_lp_tautomer_probability>
1

> <r_epik_Ionization_Penalty>
0.00521499

> <r_epik_Ionization_Penalty_Charging>
0

> <r_epik_Ionization_Penalty_Neutral>
0.00521499

> <r_epik_State_Penalty>
-0

> <r_epik_Charging_Adjusted_Penalty>
0

> <i_epik_Tot_Q>
0

> <i_epik_Tot_abs_Q>
0

> <r_epik_Metal_State_Penalty>
-0

> <b_epik_Metal_Only>
0

> <s_lp_Force_Field>
OPLS_2005

> <r_lp_Energy>
26.0147

> <b_lp_Chiralities_Consistent>
1

> <s_lp_Variant>
AV-unprocessed.smi:2324-2

> <Gold.Version>
5.8.1

> <Gold.Id.Protein>
6NUR|6NUR_protein|mol2

> <Gold.PLP.Fitness>
38.7026

> <Gold.PLP.PLP>
-31.9639

> <Gold.PLP.part.hbond>
-3.7852

> <Gold.PLP.part.metal>
0.0000

> <Gold.PLP.part.buried>
1.0504

> <Gold.PLP.part.nonpolar>
-29.0114

> <Gold.PLP.part.repulsive>
0.1863

> <Gold.PLP.ligand.clash>
0.0000

> <Gold.PLP.ligand.torsion>
0.8623

> <Gold.PLP.Chemscore.Hbond>
2.4640

> <Gold.PLP.Chemscore.CHOScore>
0.0000

> <Gold.PLP.Chemscore.Metal>
0.0000

> <Gold.Chemscore.Hbonds>
donor molecule, donor type, donor heavy atom, donor atom, acceptor molecule, acceptor atom, score
      L1  H     3    20       P1  7948  0.70
      L1  H    10    24       P1  7948  0.96
      P1  H  7989  7998       L1    14  0.58

> <Gold.PLP.Chemscore.Internal.Correction>
1.0712

> <Gold.Rescore>
     Score         DG    S(hbond)    S(metal)    S(lipo)     H(rot)  DE(clash)    DE(int)     intcor
     15.33     -17.29       2.04        0.00      70.16       1.25       0.03       1.94       ----

> <Gold.Chemscore.Fitness>
15.3292

> <Gold.Chemscore.DG>
-17.2946

> <Gold.Chemscore.ZeroCoef>
-5.4800

> <Gold.Chemscore.Hbond>
2.0358

> <Gold.Chemscore.Metal>
0.0000

> <Gold.Chemscore.Lipo>
70.1604

> <Gold.Chemscore.Internal_Hbond>
0.0000

> <Gold.Chemscore.DEClash>
0.0259

> <Gold.Chemscore.DEInternal>
1.9395

> <Gold.Chemscore.Rot>
1.2476

> <Gold.Chemscore.Internal.Correction>
   9.000000E+99

> <Gold.Chemscore.Hbonds>
donor molecule, donor type, donor heavy atom, donor atom, acceptor molecule, acceptor atom, score
      L1  H     3    20       P1  7948  0.07
      L1  H    10    24       P1  7948  0.37
      P1  H  7989  7998       L1    14  0.11

> <Gold.Chemscore.Hbond.Weighted>
-6.7996

> <Gold.Chemscore.Metal.Weighted>
-0.0000

> <Gold.Chemscore.Lipo.Weighted>
-8.2088

> <Gold.Chemscore.Internal_Hbond.Weighted>
0.0000

> <Gold.Chemscore.DEClash.Weighted>
0.0259

> <Gold.Chemscore.DEInternal.Weighted>
1.9395

> <Gold.Chemscore.Rot.Weighted>
3.1938

> <Gold.Chemscore.Internal.Correction.Weighted>
   9.000000E+99

> <Gold.Protein.RotatedTorsions>
[ 6907 6896 6895 6894 ] final  -50.91 input  -60.11 | X-H torsion
[ 7974 7965 7964 7962 ] final -163.15 input  175.53 | X-H torsion
[ 8008 7997 7996 7995 ] final   13.94 input   59.86 | X-H torsion
[ 10167 10162 10161 10158 ] final  179.46 input  -65.29 | X-H torsion
[ 10718 10713 10712 10709 ] final  -44.49 input   66.30 | X-H torsion
[ 10763 10752 10751 10750 ] final  114.10 input  -60.55 | X-H torsion
[ 11005 11000 10999 10996 ] final   77.97 input  -57.11 | X-H torsion

> <Gold.Protein.ActiveResidues>
 VAL166  LYS551  ARG553  GLY616  TRP617  ASP618  TYR619  PRO620  LYS621  CYS622 
 ASP623  PHE694  ASN695  SER759  ASP760  ASP761  ALA762  ILE779  LEU786  VAL792 
 PHE793  MET794  SER795  GLU796  ALA797  LYS798  CYS799  TRP800  GLU811  SER814 

> <Gold.Protein.RotatedAtoms>
  150.8662  134.8025  159.7119 H   0  0  0  0  0  0  0  0  0  0  0  0  # atno 6907 bound_to 6896
  152.4682  134.5021  159.9737 H   0  0  0  0  0  0  0  0  0  0  0  0  # atno 6908 bound_to 6896
  151.5116  133.3445  159.2921 H   0  0  0  0  0  0  0  0  0  0  0  0  # atno 6909 bound_to 6896
  144.7335  140.3149  143.6181 H   0  0  0  0  0  0  0  0  0  0  0  0  # atno 7974 bound_to 7965
  154.8415  140.2915  155.5657 H   0  0  0  0  0  0  0  0  0  0  0  0  # atno 8008 bound_to 7997
  156.3012  140.2513  156.3289 H   0  0  0  0  0  0  0  0  0  0  0  0  # atno 8009 bound_to 7997
  154.9121  140.0388  157.1941 H   0  0  0  0  0  0  0  0  0  0  0  0  # atno 8010 bound_to 7997
  139.5337  144.2559  152.0747 H   0  0  0  0  0  0  0  0  0  0  0  0  # atno 10167 bound_to 10162
  156.2381  130.4177  149.8794 H   0  0  0  0  0  0  0  0  0  0  0  0  # atno 10718 bound_to 10713
  153.5024  135.3635  155.2546 H   0  0  0  0  0  0  0  0  0  0  0  0  # atno 10763 bound_to 10752
  154.8747  135.4003  154.3463 H   0  0  0  0  0  0  0  0  0  0  0  0  # atno 10764 bound_to 10752
  153.4102  135.7077  153.6431 H   0  0  0  0  0  0  0  0  0  0  0  0  # atno 10765 bound_to 10752
  139.9232  134.7726  156.1590 H   0  0  0  0  0  0  0  0  0  0  0  0  # atno 11005 bound_to 11000
  145.7627  139.1830  143.2258 LP  0  0  0  0  0  0  0  0  0  0  0  0  # atno 17320 bound_to 7965
  146.0974  140.7585  142.9566 LP  0  0  0  0  0  0  0  0  0  0  0  0  # atno 17321 bound_to 7965
  140.2026  144.4643  150.6424 LP  0  0  0  0  0  0  0  0  0  0  0  0  # atno 17342 bound_to 10162
  140.6531  143.2230  151.6031 LP  0  0  0  0  0  0  0  0  0  0  0  0  # atno 17343 bound_to 10162
  156.6385  130.8695  151.3509 LP  0  0  0  0  0  0  0  0  0  0  0  0  # atno 17370 bound_to 10713
  157.7163  130.9501  150.1268 LP  0  0  0  0  0  0  0  0  0  0  0  0  # atno 17371 bound_to 10713
  141.0769  133.6771  156.2256 LP  0  0  0  0  0  0  0  0  0  0  0  0  # atno 17394 bound_to 11000
  140.6413  134.5163  157.5569 LP  0  0  0  0  0  0  0  0  0  0  0  0  # atno 17395 bound_to 11000

$$$$
