AV-unprocessed.smi:2750|AV-procd|sdf|10594|dock6
  -GOLD-   2272015 43D 1   1.00000     0.00000
 Structure written by MMmdl.
 24 25  0  0  0  0  0  0  0  0  3 V2000
  148.4302  136.5363  162.0079 O   0  0  0  0  0  0  0  0  0  0  0  0
  147.6435  136.5600  161.0355 C   0  0  0  0  0  0  0  0  0  0  0  0
  146.5520  137.1697  160.9993 O   0  5  0  0  0  0  0  0  0  0  0  0
  148.0628  135.8077  159.7707 C   0  0  0  0  0  0  0  0  0  0  0  0
  149.2488  136.3682  159.1466 N   0  0  0  0  0  0  0  0  0  0  0  0
  149.7709  137.6387  159.2802 C   0  0  0  0  0  0  0  0  0  0  0  0
  150.8921  137.6058  158.5008 C   0  0  0  0  0  0  0  0  0  0  0  0
  151.9067  138.6818  158.2474 C   0  0  0  0  0  0  0  0  0  0  0  0
  153.3606  138.2099  158.4671 C   0  0  1  0  0  0  0  0  0  0  0  0
  154.3023  139.3154  158.3984 N   0  5  0  0  0  0  0  0  0  0  0  0
  154.9745  139.3813  159.5715 C   0  0  0  0  0  0  0  0  0  0  0  0
  155.8572  140.1752  159.8894 O   0  0  0  0  0  0  0  0  0  0  0  0
  154.5510  138.4330  160.4133 N   0  0  0  0  0  0  0  0  0  0  0  0
  153.5889  137.6914  159.8738 C   0  0  0  0  0  0  0  0  0  0  0  0
  152.9849  136.7560  160.3971 O   0  0  0  0  0  0  0  0  0  0  0  0
  151.0005  136.3391  157.9268 N   0  0  0  0  0  0  0  0  0  0  0  0
  150.0069  135.6059  158.3214 N   0  0  0  0  0  0  0  0  0  0  0  0
  148.2585  134.7607  160.0063 H   0  0  0  0  0  0  0  0  0  0  0  0
  147.2399  135.8221  159.0547 H   0  0  0  0  0  0  0  0  0  0  0  0
  149.3242  138.4125  159.8864 H   0  0  0  0  0  0  0  0  0  0  0  0
  151.7889  139.0728  157.2354 H   0  0  0  0  0  0  0  0  0  0  0  0
  151.6962  139.5242  158.9077 H   0  0  0  0  0  0  0  0  0  0  0  0
  153.6027  137.4076  157.7687 H   0  0  0  0  0  0  0  0  0  0  0  0
  154.9106  138.3040  161.3470 H   0  0  0  0  0  0  0  0  0  0  0  0
  1  2  2  0  0  0  0
  2  3  1  0  0  0  0
  2  4  1  0  0  0  0
  4  5  1  0  0  0  0
  4 18  1  0  0  0  0
  4 19  1  0  0  0  0
  5 17  1  0  0  0  0
  5  6  1  0  0  0  0
  6  7  2  0  0  0  0
  6 20  1  0  0  0  0
  7  8  1  0  0  0  0
  7 16  1  0  0  0  0
  8  9  1  0  0  0  0
  8 21  1  0  0  0  0
  8 22  1  0  0  0  0
  9 14  1  0  0  0  0
  9 10  1  0  0  0  0
  9 23  1  0  0  0  0
 10 11  1  0  0  0  0
 11 12  2  0  0  0  0
 11 13  1  0  0  0  0
 13 14  1  0  0  0  0
 13 24  1  0  0  0  0
 14 15  2  0  0  0  0
 16 17  2  0  0  0  0
M  CHG  1   3  -1
M  CHG  1  10  -1
M  END
> <s_m_source_file>
AV-unprocessed.smi

> <i_m_source_file_index>
2750

> <i_lp_mmshare_version>
43012

> <i_f3d_flags>
0

> <s_epik_input>
Tz1DKFtPSF0pW0NIMl1uMVtjSF1jKG5uMSlbQ0gyXVtDQEBIXTJbTkhdQyg9TylbTkhdQzI9Tw==

> <s_epik_cmdline>
J2VwaWtfcHl0aG9uJywgJy1waCcsICc3LjAnLCAnLXRuJywgJzgnLCAnLW1hJywgJzIwMCcsICctbWV0YWxfYmluZGluZycsICctaW1hZScsICc8aW5maWxlLm1hZT4nLCAnLW9tYWUnLCAnPG91dGZpbGUubWFlPic=

> <r_lp_tautomer_probability>
1

> <r_epik_Ionization_Penalty>
5.10791

> <r_epik_Ionization_Penalty_Charging>
5.10788

> <r_epik_Ionization_Penalty_Neutral>
2.55687e-05

> <r_epik_State_Penalty>
5.12334

> <r_epik_Charging_Adjusted_Penalty>
10.2312

> <i_epik_Tot_Q>
-2

> <i_epik_Tot_abs_Q>
2

> <r_epik_Metal_State_Penalty>
1.50935

> <b_epik_Metal_Only>
1

> <s_lp_Force_Field>
OPLS_2005

> <r_lp_Energy>
16.7857

> <b_lp_Chiralities_Consistent>
1

> <s_lp_Variant>
AV-unprocessed.smi:2750-6

> <Gold.Version>
5.8.1

> <Gold.Id.Protein>
6NUR|6NUR_protein|mol2

> <Gold.PLP.Fitness>
40.7954

> <Gold.PLP.PLP>
-18.0673

> <Gold.PLP.part.hbond>
-5.9288

> <Gold.PLP.part.metal>
0.0000

> <Gold.PLP.part.buried>
-1.9539

> <Gold.PLP.part.nonpolar>
-11.3699

> <Gold.PLP.part.repulsive>
0.0194

> <Gold.PLP.ligand.clash>
0.0000

> <Gold.PLP.ligand.torsion>
0.4379

> <Gold.PLP.Chemscore.Hbond>
7.8640

> <Gold.PLP.Chemscore.CHOScore>
0.0000

> <Gold.PLP.Chemscore.Metal>
0.0000

> <Gold.Chemscore.Hbonds>
donor molecule, donor type, donor heavy atom, donor atom, acceptor molecule, acceptor atom, score
      P1  H  6896  6908       L1    17  0.86
      P1  H  6896  6909       L1    15  1.00
      P1  H  6931  6943       L1     1  1.90
      P1  H  6934  6947       L1     3  2.00
      P1  H  7997  8008       L1    10  1.85

> <Gold.PLP.Chemscore.Internal.Correction>
0.0118

> <Gold.Rescore>
     Score         DG    S(hbond)    S(metal)    S(lipo)     H(rot)  DE(clash)    DE(int)     intcor
     10.20     -11.88       3.36        0.00      20.00       2.80       0.05       1.63       ----

> <Gold.Chemscore.Fitness>
10.1997

> <Gold.Chemscore.DG>
-11.8791

> <Gold.Chemscore.ZeroCoef>
-5.4800

> <Gold.Chemscore.Hbond>
3.3594

> <Gold.Chemscore.Metal>
0.0000

> <Gold.Chemscore.Lipo>
19.9996

> <Gold.Chemscore.Internal_Hbond>
0.0000

> <Gold.Chemscore.DEClash>
0.0477

> <Gold.Chemscore.DEInternal>
1.6316

> <Gold.Chemscore.Rot>
2.7973

> <Gold.Chemscore.Internal.Correction>
   9.000000E+99

> <Gold.Chemscore.Hbonds>
donor molecule, donor type, donor heavy atom, donor atom, acceptor molecule, acceptor atom, score
      P1  H  6896  6908       L1    17  0.15
      P1  H  6896  6909       L1    15  0.96
      P1  H  6931  6943       L1     1  0.22
      P1  H  6934  6947       L1     3  0.30
      P1  H  7997  8008       L1    10  0.65

> <Gold.Chemscore.Hbond.Weighted>
-11.2202

> <Gold.Chemscore.Metal.Weighted>
-0.0000

> <Gold.Chemscore.Lipo.Weighted>
-2.3400

> <Gold.Chemscore.Internal_Hbond.Weighted>
0.0000

> <Gold.Chemscore.DEClash.Weighted>
0.0477

> <Gold.Chemscore.DEInternal.Weighted>
1.6316

> <Gold.Chemscore.Rot.Weighted>
7.1611

> <Gold.Chemscore.Internal.Correction.Weighted>
   9.000000E+99

> <Gold.Protein.RotatedTorsions>
[ 6907 6896 6895 6894 ] final  158.84 input  -60.11 | X-H torsion
[ 7974 7965 7964 7962 ] final   24.66 input  175.53 | X-H torsion
[ 8008 7997 7996 7995 ] final -120.39 input   59.86 | X-H torsion
[ 10167 10162 10161 10158 ] final   -0.28 input  -65.29 | X-H torsion
[ 10718 10713 10712 10709 ] final  112.29 input   66.30 | X-H torsion
[ 10763 10752 10751 10750 ] final  149.32 input  -60.55 | X-H torsion
[ 11005 11000 10999 10996 ] final  -94.12 input  -57.11 | X-H torsion

> <Gold.Protein.ActiveResidues>
 VAL166  LYS551  ARG553  GLY616  TRP617  ASP618  TYR619  PRO620  LYS621  CYS622 
 ASP623  PHE694  ASN695  SER759  ASP760  ASP761  ALA762  ILE779  LEU786  VAL792 
 PHE793  MET794  SER795  GLU796  ALA797  LYS798  CYS799  TRP800  GLU811  SER814 

> <Gold.Protein.RotatedAtoms>
  151.9944  133.3802  159.4156 H   0  0  0  0  0  0  0  0  0  0  0  0  # atno 6907 bound_to 6896
  150.6917  134.3901  159.5082 H   0  0  0  0  0  0  0  0  0  0  0  0  # atno 6908 bound_to 6896
  152.1639  134.8889  160.0590 H   0  0  0  0  0  0  0  0  0  0  0  0  # atno 6909 bound_to 6896
  146.1927  139.7574  142.8820 H   0  0  0  0  0  0  0  0  0  0  0  0  # atno 7974 bound_to 7965
  155.1310  140.0400  157.2775 H   0  0  0  0  0  0  0  0  0  0  0  0  # atno 8008 bound_to 7997
  154.6542  140.2576  155.7153 H   0  0  0  0  0  0  0  0  0  0  0  0  # atno 8009 bound_to 7997
  156.2591  140.2830  156.0989 H   0  0  0  0  0  0  0  0  0  0  0  0  # atno 8010 bound_to 7997
  140.6761  143.6913  150.8026 H   0  0  0  0  0  0  0  0  0  0  0  0  # atno 10167 bound_to 10162
  157.6400  131.0965  150.6873 H   0  0  0  0  0  0  0  0  0  0  0  0  # atno 10718 bound_to 10713
  154.0693  135.2868  155.3311 H   0  0  0  0  0  0  0  0  0  0  0  0  # atno 10763 bound_to 10752
  154.6757  135.5282  153.8200 H   0  0  0  0  0  0  0  0  0  0  0  0  # atno 10764 bound_to 10752
  153.0491  135.6569  154.0875 H   0  0  0  0  0  0  0  0  0  0  0  0  # atno 10765 bound_to 10752
  141.1479  133.7934  157.0254 H   0  0  0  0  0  0  0  0  0  0  0  0  # atno 11005 bound_to 11000
  145.3742  141.0348  143.3214 LP  0  0  0  0  0  0  0  0  0  0  0  0  # atno 17320 bound_to 7965
  144.8518  139.5310  143.6853 LP  0  0  0  0  0  0  0  0  0  0  0  0  # atno 17321 bound_to 7965
  140.0606  143.5159  152.2629 LP  0  0  0  0  0  0  0  0  0  0  0  0  # atno 17342 bound_to 10162
  139.6054  144.7594  151.3075 LP  0  0  0  0  0  0  0  0  0  0  0  0  # atno 17343 bound_to 10162
  156.7198  130.4677  149.5525 LP  0  0  0  0  0  0  0  0  0  0  0  0  # atno 17370 bound_to 10713
  156.1673  130.6413  151.0794 LP  0  0  0  0  0  0  0  0  0  0  0  0  # atno 17371 bound_to 10713
  140.0788  134.9660  157.1590 LP  0  0  0  0  0  0  0  0  0  0  0  0  # atno 17394 bound_to 11000
  140.3605  134.2499  155.7187 LP  0  0  0  0  0  0  0  0  0  0  0  0  # atno 17395 bound_to 11000

$$$$
