AV-unprocessed.smi:1251|AV-procd|sdf|5258|dock1
  -GOLD-   22720 4373D 1   1.00000     0.00000
 Structure written by MMmdl.
 39 40  0  0  0  0  0  0  0  0  1 V2000
  151.6657  143.2700  157.7938 C   0  0  0  0  0  0  0  0  0  0  0  0
  150.6437  142.1876  157.4305 C   0  0  0  0  0  0  0  0  0  0  0  0
  151.1481  141.2493  156.3250 C   0  0  0  0  0  0  0  0  0  0  0  0
  150.0455  140.4757  155.6817 C   0  0  0  0  0  0  0  0  0  0  0  0
  148.7519  140.7163  155.9292 N   0  0  0  0  0  0  0  0  0  0  0  0
  147.9126  139.8906  155.1940 N   0  0  0  0  0  0  0  0  0  0  0  0
  148.6005  139.0589  154.3995 C   0  0  0  0  0  0  0  0  0  0  0  0
  147.9939  138.1081  153.5371 N   0  0  0  0  0  0  0  0  0  0  0  0
  146.6845  137.8709  153.3460 C   0  0  0  0  0  0  0  0  0  0  0  0
  145.7642  138.4614  153.9122 O   0  0  0  0  0  0  0  0  0  0  0  0
  146.4979  136.8966  152.4429 N   0  0  0  0  0  0  0  0  0  0  0  0
  145.2031  136.4019  151.9800 C   0  0  2  0  0  0  0  0  0  0  0  0
  144.4025  135.9170  153.1986 C   0  0  0  0  0  0  0  0  0  0  0  0
  145.4088  135.2876  150.9319 C   0  0  1  0  0  0  0  0  0  0  0  0
  146.2521  134.1064  151.4174 C   0  0  0  0  0  0  0  0  0  0  0  0
  145.7709  132.9916  150.5182 C   0  0  0  0  0  0  0  0  0  0  0  0
  144.2792  133.2922  150.4299 C   0  0  0  0  0  0  0  0  0  0  0  0
  144.1602  134.7062  150.5563 O   0  0  0  0  0  0  0  0  0  0  0  0
  150.3463  139.2191  154.4871 S   0  0  0  0  0  0  0  0  0  0  0  0
  151.2808  143.9197  158.5800 H   0  0  0  0  0  0  0  0  0  0  0  0
  151.9009  143.8948  156.9319 H   0  0  0  0  0  0  0  0  0  0  0  0
  152.5959  142.8286  158.1525 H   0  0  0  0  0  0  0  0  0  0  0  0
  150.4019  141.6069  158.3214 H   0  0  0  0  0  0  0  0  0  0  0  0
  149.7160  142.6638  157.1109 H   0  0  0  0  0  0  0  0  0  0  0  0
  151.6633  141.8232  155.5540 H   0  0  0  0  0  0  0  0  0  0  0  0
  151.8785  140.5485  156.7315 H   0  0  0  0  0  0  0  0  0  0  0  0
  148.6336  137.5443  152.9973 H   0  0  0  0  0  0  0  0  0  0  0  0
  147.3153  136.4722  152.0301 H   0  0  0  0  0  0  0  0  0  0  0  0
  144.6420  137.2172  151.5196 H   0  0  0  0  0  0  0  0  0  0  0  0
  143.4017  135.5924  152.9136 H   0  0  0  0  0  0  0  0  0  0  0  0
  144.2866  136.7143  153.9334 H   0  0  0  0  0  0  0  0  0  0  0  0
  144.8967  135.0788  153.6913 H   0  0  0  0  0  0  0  0  0  0  0  0
  145.8628  135.6990  150.0287 H   0  0  0  0  0  0  0  0  0  0  0  0
  147.3244  134.2857  151.3347 H   0  0  0  0  0  0  0  0  0  0  0  0
  146.0229  133.8699  152.4576 H   0  0  0  0  0  0  0  0  0  0  0  0
  146.2321  133.0792  149.5337 H   0  0  0  0  0  0  0  0  0  0  0  0
  145.9843  131.9972  150.9112 H   0  0  0  0  0  0  0  0  0  0  0  0
  143.8376  132.9357  149.4991 H   0  0  0  0  0  0  0  0  0  0  0  0
  143.7462  132.8256  151.2593 H   0  0  0  0  0  0  0  0  0  0  0  0
  1  2  1  0  0  0  0
  1 20  1  0  0  0  0
  1 21  1  0  0  0  0
  1 22  1  0  0  0  0
  2  3  1  0  0  0  0
  2 23  1  0  0  0  0
  2 24  1  0  0  0  0
  3  4  1  0  0  0  0
  3 25  1  0  0  0  0
  3 26  1  0  0  0  0
  4 19  1  0  0  0  0
  4  5  2  0  0  0  0
  5  6  1  0  0  0  0
  6  7  2  0  0  0  0
  7  8  1  0  0  0  0
  7 19  1  0  0  0  0
  8  9  1  0  0  0  0
  8 27  1  0  0  0  0
  9 10  2  0  0  0  0
  9 11  1  0  0  0  0
 11 12  1  0  0  0  0
 11 28  1  0  0  0  0
 12 13  1  0  0  0  0
 12 14  1  0  0  0  0
 12 29  1  0  0  0  0
 13 30  1  0  0  0  0
 13 31  1  0  0  0  0
 13 32  1  0  0  0  0
 14 18  1  0  0  0  0
 14 15  1  0  0  0  0
 14 33  1  0  0  0  0
 15 16  1  0  0  0  0
 15 34  1  0  0  0  0
 15 35  1  0  0  0  0
 16 17  1  0  0  0  0
 16 36  1  0  0  0  0
 16 37  1  0  0  0  0
 17 18  1  0  0  0  0
 17 38  1  0  0  0  0
 17 39  1  0  0  0  0
M  END
> <s_m_source_file>
AV-unprocessed.smi

> <i_m_source_file_index>
1251

> <i_lp_mmshare_version>
43012

> <i_f3d_flags>
0

> <s_epik_input>
W0NIM11bQ0gyXVtDSDJdYzFubmMoczEpW05IXUMoPU8pW05IXVtDQEhdKFtDSDNdKVtDQEBIXTJbQ0gyXVtDSDJdW0NIMl1PMg==

> <s_epik_cmdline>
J2VwaWtfcHl0aG9uJywgJy1waCcsICc3LjAnLCAnLXRuJywgJzgnLCAnLW1hJywgJzIwMCcsICctbWV0YWxfYmluZGluZycsICctaW1hZScsICc8aW5maWxlLm1hZT4nLCAnLW9tYWUnLCAnPG91dGZpbGUubWFlPic=

> <r_lp_tautomer_probability>
1

> <r_epik_Ionization_Penalty>
0.000503621

> <r_epik_Ionization_Penalty_Charging>
0

> <r_epik_Ionization_Penalty_Neutral>
0.000503621

> <r_epik_State_Penalty>
-0

> <r_epik_Charging_Adjusted_Penalty>
0

> <i_epik_Tot_Q>
0

> <i_epik_Tot_abs_Q>
0

> <r_epik_Metal_State_Penalty>
0.219912

> <b_epik_Metal_Only>
0

> <s_lp_Force_Field>
OPLS_2005

> <r_lp_Energy>
12.8744

> <b_lp_Chiralities_Consistent>
1

> <s_lp_Variant>
AV-unprocessed.smi:1251-3

> <Gold.Version>
5.8.1

> <Gold.Id.Protein>
6NUR|6NUR_protein|mol2

> <Gold.PLP.Fitness>
36.7886

> <Gold.PLP.PLP>
-31.0167

> <Gold.PLP.part.hbond>
-2.0000

> <Gold.PLP.part.metal>
0.0000

> <Gold.PLP.part.buried>
-4.6598

> <Gold.PLP.part.nonpolar>
-25.6478

> <Gold.PLP.part.repulsive>
0.8131

> <Gold.PLP.ligand.clash>
0.0000

> <Gold.PLP.ligand.torsion>
0.1527

> <Gold.PLP.Chemscore.Hbond>
2.0000

> <Gold.PLP.Chemscore.CHOScore>
0.0000

> <Gold.PLP.Chemscore.Metal>
0.0000

> <Gold.Chemscore.Hbonds>
donor molecule, donor type, donor heavy atom, donor atom, acceptor molecule, acceptor atom, score
      L1  H     8    27       P1  7948  1.00
      L1  H    11    28       P1  7948  1.00

> <Gold.PLP.Chemscore.Internal.Correction>
0.0772

> <Gold.Rescore>
     Score         DG    S(hbond)    S(metal)    S(lipo)     H(rot)  DE(clash)    DE(int)     intcor
     15.57     -17.24       1.95        0.00      79.62       1.58       0.14       1.53       ----

> <Gold.Chemscore.Fitness>
15.5653

> <Gold.Chemscore.DG>
-17.2378

> <Gold.Chemscore.ZeroCoef>
-5.4800

> <Gold.Chemscore.Hbond>
1.9454

> <Gold.Chemscore.Metal>
0.0000

> <Gold.Chemscore.Lipo>
79.6236

> <Gold.Chemscore.Internal_Hbond>
0.0000

> <Gold.Chemscore.DEClash>
0.1411

> <Gold.Chemscore.DEInternal>
1.5314

> <Gold.Chemscore.Rot>
1.5843

> <Gold.Chemscore.Internal.Correction>
   9.000000E+99

> <Gold.Chemscore.Hbonds>
donor molecule, donor type, donor heavy atom, donor atom, acceptor molecule, acceptor atom, score
      L1  H     8    27       P1  7948  0.96
      L1  H    11    28       P1  7948  0.98

> <Gold.Chemscore.Hbond.Weighted>
-6.4977

> <Gold.Chemscore.Metal.Weighted>
-0.0000

> <Gold.Chemscore.Lipo.Weighted>
-9.3160

> <Gold.Chemscore.Internal_Hbond.Weighted>
0.0000

> <Gold.Chemscore.DEClash.Weighted>
0.1411

> <Gold.Chemscore.DEInternal.Weighted>
1.5314

> <Gold.Chemscore.Rot.Weighted>
4.0558

> <Gold.Chemscore.Internal.Correction.Weighted>
   9.000000E+99

> <Gold.Protein.RotatedTorsions>
[ 6907 6896 6895 6894 ] final  -81.58 input  -60.11 | X-H torsion
[ 7974 7965 7964 7962 ] final  -90.81 input  175.53 | X-H torsion
[ 8008 7997 7996 7995 ] final   85.58 input   59.86 | X-H torsion
[ 10167 10162 10161 10158 ] final    4.02 input  -65.29 | X-H torsion
[ 10718 10713 10712 10709 ] final  -87.49 input   66.30 | X-H torsion
[ 10763 10752 10751 10750 ] final   71.74 input  -60.55 | X-H torsion
[ 11005 11000 10999 10996 ] final   88.49 input  -57.11 | X-H torsion

> <Gold.Protein.ActiveResidues>
 VAL166  LYS551  ARG553  GLY616  TRP617  ASP618  TYR619  PRO620  LYS621  CYS622 
 ASP623  PHE694  ASN695  SER759  ASP760  ASP761  ALA762  ILE779  LEU786  VAL792 
 PHE793  MET794  SER795  GLU796  ALA797  LYS798  CYS799  TRP800  GLU811  SER814 

> <Gold.Protein.RotatedAtoms>
  150.6910  134.3796  159.5028 H   0  0  0  0  0  0  0  0  0  0  0  0  # atno 6907 bound_to 6896
  152.1600  134.8917  160.0551 H   0  0  0  0  0  0  0  0  0  0  0  0  # atno 6908 bound_to 6896
  151.9982  133.3781  159.4208 H   0  0  0  0  0  0  0  0  0  0  0  0  # atno 6909 bound_to 6896
  145.4215  140.9551  143.2178 H   0  0  0  0  0  0  0  0  0  0  0  0  # atno 7974 bound_to 7965
  155.9519  140.3400  155.6415 H   0  0  0  0  0  0  0  0  0  0  0  0  # atno 8008 bound_to 7997
  155.6909  140.0749  157.2466 H   0  0  0  0  0  0  0  0  0  0  0  0  # atno 8009 bound_to 7997
  154.4123  140.1657  156.2073 H   0  0  0  0  0  0  0  0  0  0  0  0  # atno 8010 bound_to 7997
  140.6556  143.7436  150.7648 H   0  0  0  0  0  0  0  0  0  0  0  0  # atno 10167 bound_to 10162
  155.9985  130.4802  150.4875 H   0  0  0  0  0  0  0  0  0  0  0  0  # atno 10718 bound_to 10713
  153.0417  135.5126  154.7639 H   0  0  0  0  0  0  0  0  0  0  0  0  # atno 10763 bound_to 10752
  154.6571  135.2933  154.9916 H   0  0  0  0  0  0  0  0  0  0  0  0  # atno 10764 bound_to 10752
  154.0780  135.6668  153.4886 H   0  0  0  0  0  0  0  0  0  0  0  0  # atno 10765 bound_to 10752
  139.8895  134.8491  156.3008 H   0  0  0  0  0  0  0  0  0  0  0  0  # atno 11005 bound_to 11000
  144.8242  139.5739  143.6973 LP  0  0  0  0  0  0  0  0  0  0  0  0  # atno 17320 bound_to 7965
  146.2654  139.6507  142.9333 LP  0  0  0  0  0  0  0  0  0  0  0  0  # atno 17321 bound_to 7965
  140.1095  143.4713  152.2378 LP  0  0  0  0  0  0  0  0  0  0  0  0  # atno 17342 bound_to 10162
  139.5778  144.7496  151.3719 LP  0  0  0  0  0  0  0  0  0  0  0  0  # atno 17343 bound_to 10162
  157.2873  131.0619  151.2157 LP  0  0  0  0  0  0  0  0  0  0  0  0  # atno 17370 bound_to 10713
  157.3182  130.6924  149.6254 LP  0  0  0  0  0  0  0  0  0  0  0  0  # atno 17371 bound_to 10713
  140.9915  133.7206  156.0821 LP  0  0  0  0  0  0  0  0  0  0  0  0  # atno 17394 bound_to 11000
  140.7619  134.3929  157.5524 LP  0  0  0  0  0  0  0  0  0  0  0  0  # atno 17395 bound_to 11000

$$$$
