AV-unprocessed.smi:942|AV-procd|sdf|4226|dock1
  -GOLD-   22720 2133D 1   1.00000     0.00000
 Structure written by MMmdl.
 42 44  0  0  0  0  0  0  0  0  1 V2000
  152.7783  139.8834  156.8335 O   0  0  0  0  0  0  0  0  0  0  0  0
  151.7506  140.5574  156.9111 C   0  0  0  0  0  0  0  0  0  0  0  0
  150.7300  140.4518  156.0471 N   0  0  0  0  0  0  0  0  0  0  0  0
  150.6924  139.5893  154.8641 C   0  0  1  0  0  0  0  0  0  0  0  0
  151.2700  138.1993  155.2018 C   0  0  0  0  0  0  0  0  0  0  0  0
  150.1050  137.2021  155.1181 C   0  0  0  0  0  0  0  0  0  0  0  0
  148.8358  138.0523  155.1447 C   0  0  0  0  0  0  0  0  0  0  0  0
  149.2447  139.3255  154.3970 C   0  0  1  0  0  0  0  0  0  0  0  0
  148.3385  140.4613  154.5461 N   0  0  0  0  0  0  0  0  0  0  0  0
  147.8850  141.3454  153.5713 C   0  0  0  0  0  0  0  0  0  0  0  0
  147.0548  142.2417  154.2050 C   0  0  0  0  0  0  0  0  0  0  0  0
  146.9923  141.9441  155.5632 N   0  0  0  0  0  0  0  0  0  0  0  0
  147.7823  140.8865  155.6903 C   0  0  0  0  0  0  0  0  0  0  0  0
  151.5889  141.5971  158.0275 C   0  0  0  0  0  0  0  0  0  0  0  0
  151.3228  142.9985  157.4372 C   0  0  0  0  0  0  0  0  0  0  0  0
  151.1708  144.0528  158.5461 C   0  0  0  0  0  0  0  0  0  0  0  0
  152.3993  144.0718  159.4696 C   0  0  0  0  0  0  0  0  0  0  0  0
  152.6762  142.6784  160.0564 C   0  0  0  0  0  0  0  0  0  0  0  0
  152.8298  141.6272  158.9451 C   0  0  0  0  0  0  0  0  0  0  0  0
  149.9279  141.0472  156.1951 H   0  0  0  0  0  0  0  0  0  0  0  0
  151.2547  140.0413  154.0451 H   0  0  0  0  0  0  0  0  0  0  0  0
  152.0591  137.9218  154.5021 H   0  0  0  0  0  0  0  0  0  0  0  0
  151.7133  138.1832  156.1986 H   0  0  0  0  0  0  0  0  0  0  0  0
  150.1579  136.6580  154.1743 H   0  0  0  0  0  0  0  0  0  0  0  0
  150.1276  136.4665  155.9225 H   0  0  0  0  0  0  0  0  0  0  0  0
  147.9849  137.5475  154.6864 H   0  0  0  0  0  0  0  0  0  0  0  0
  148.5800  138.2776  156.1811 H   0  0  0  0  0  0  0  0  0  0  0  0
  149.2742  139.0840  153.3331 H   0  0  0  0  0  0  0  0  0  0  0  0
  148.1727  141.2722  152.5334 H   0  0  0  0  0  0  0  0  0  0  0  0
  146.5065  143.0751  153.7909 H   0  0  0  0  0  0  0  0  0  0  0  0
  147.9537  140.4005  156.6397 H   0  0  0  0  0  0  0  0  0  0  0  0
  150.7261  141.3169  158.6348 H   0  0  0  0  0  0  0  0  0  0  0  0
  152.1397  143.2906  156.7754 H   0  0  0  0  0  0  0  0  0  0  0  0
  150.4206  142.9826  156.8238 H   0  0  0  0  0  0  0  0  0  0  0  0
  151.0233  145.0385  158.1036 H   0  0  0  0  0  0  0  0  0  0  0  0
  150.2756  143.8404  159.1320 H   0  0  0  0  0  0  0  0  0  0  0  0
  153.2717  144.4118  158.9099 H   0  0  0  0  0  0  0  0  0  0  0  0
  152.2486  144.7913  160.2747 H   0  0  0  0  0  0  0  0  0  0  0  0
  153.5774  142.7053  160.6694 H   0  0  0  0  0  0  0  0  0  0  0  0
  151.8594  142.3921  160.7201 H   0  0  0  0  0  0  0  0  0  0  0  0
  152.9903  140.6454  159.3923 H   0  0  0  0  0  0  0  0  0  0  0  0
  153.7251  141.8514  158.3627 H   0  0  0  0  0  0  0  0  0  0  0  0
  1  2  2  0  0  0  0
  2  3  1  0  0  0  0
  2 14  1  0  0  0  0
  3  4  1  0  0  0  0
  3 20  1  0  0  0  0
  4  8  1  0  0  0  0
  4  5  1  0  0  0  0
  4 21  1  0  0  0  0
  5  6  1  0  0  0  0
  5 22  1  0  0  0  0
  5 23  1  0  0  0  0
  6  7  1  0  0  0  0
  6 24  1  0  0  0  0
  6 25  1  0  0  0  0
  7  8  1  0  0  0  0
  7 26  1  0  0  0  0
  7 27  1  0  0  0  0
  8  9  1  0  0  0  0
  8 28  1  0  0  0  0
  9 13  1  0  0  0  0
  9 10  1  0  0  0  0
 10 11  2  0  0  0  0
 10 29  1  0  0  0  0
 11 12  1  0  0  0  0
 11 30  1  0  0  0  0
 12 13  2  0  0  0  0
 13 31  1  0  0  0  0
 14 19  1  0  0  0  0
 14 15  1  0  0  0  0
 14 32  1  0  0  0  0
 15 16  1  0  0  0  0
 15 33  1  0  0  0  0
 15 34  1  0  0  0  0
 16 17  1  0  0  0  0
 16 35  1  0  0  0  0
 16 36  1  0  0  0  0
 17 18  1  0  0  0  0
 17 37  1  0  0  0  0
 17 38  1  0  0  0  0
 18 19  1  0  0  0  0
 18 39  1  0  0  0  0
 18 40  1  0  0  0  0
 19 41  1  0  0  0  0
 19 42  1  0  0  0  0
M  END
> <s_m_source_file>
AV-unprocessed.smi

> <i_m_source_file_index>
942

> <i_lp_mmshare_version>
43012

> <i_f3d_flags>
0

> <s_epik_input>
W0NIMl0xW0NIMl1bQ0gyXVtDSDJdW0NIMl1bQ0hdMUMoPU8pW05IXVtDQEBIXTJbQ0gyXVtDSDJdW0NIMl1bQ0BIXTJuM1tjSF1bY0hdbltjSF0z

> <s_epik_cmdline>
J2VwaWtfcHl0aG9uJywgJy1waCcsICc3LjAnLCAnLXRuJywgJzgnLCAnLW1hJywgJzIwMCcsICctbWV0YWxfYmluZGluZycsICctaW1hZScsICc8aW5maWxlLm1hZT4nLCAnLW9tYWUnLCAnPG91dGZpbGUubWFlPic=

> <r_lp_tautomer_probability>
1

> <r_epik_Ionization_Penalty>
0.778458

> <r_epik_Ionization_Penalty_Charging>
0.778458

> <r_epik_Ionization_Penalty_Neutral>
2.79355e-08

> <r_epik_State_Penalty>
0.807804

> <r_epik_Charging_Adjusted_Penalty>
1.58626

> <i_epik_Tot_Q>
0

> <i_epik_Tot_abs_Q>
0

> <r_epik_Metal_State_Penalty>
0.343007

> <b_epik_Metal_Only>
0

> <s_lp_Force_Field>
OPLS_2005

> <r_lp_Energy>
33.2342

> <b_lp_Chiralities_Consistent>
1

> <s_lp_Variant>
AV-unprocessed.smi:942-6

> <Gold.Version>
5.8.1

> <Gold.Id.Protein>
6NUR|6NUR_protein|mol2

> <Gold.PLP.Fitness>
43.2264

> <Gold.PLP.PLP>
-38.6227

> <Gold.PLP.part.hbond>
-1.0000

> <Gold.PLP.part.metal>
0.0000

> <Gold.PLP.part.buried>
-2.2299

> <Gold.PLP.part.nonpolar>
-33.9093

> <Gold.PLP.part.repulsive>
0.2302

> <Gold.PLP.ligand.clash>
0.0000

> <Gold.PLP.ligand.torsion>
0.7121

> <Gold.PLP.Chemscore.Hbond>
1.0000

> <Gold.PLP.Chemscore.CHOScore>
1.0000

> <Gold.PLP.Chemscore.Metal>
0.0000

> <Gold.Chemscore.Hbonds>
donor molecule, donor type, donor heavy atom, donor atom, acceptor molecule, acceptor atom, score
      P1  H  7997  8009       L1     1  1.00
      L1  C    10    29       P1  7957  1.00

> <Gold.PLP.Chemscore.Internal.Correction>
0.0279

> <Gold.Rescore>
     Score         DG    S(hbond)    S(metal)    S(lipo)     H(rot)  DE(clash)    DE(int)     intcor
     14.84     -17.33       1.00        0.00     104.29       1.44       0.09       2.41       ----

> <Gold.Chemscore.Fitness>
14.8356

> <Gold.Chemscore.DG>
-17.3288

> <Gold.Chemscore.ZeroCoef>
-5.4800

> <Gold.Chemscore.Hbond>
0.9977

> <Gold.Chemscore.Metal>
0.0000

> <Gold.Chemscore.Lipo>
104.2876

> <Gold.Chemscore.Internal_Hbond>
0.0000

> <Gold.Chemscore.DEClash>
0.0875

> <Gold.Chemscore.DEInternal>
2.4057

> <Gold.Chemscore.Rot>
1.4395

> <Gold.Chemscore.Internal.Correction>
   9.000000E+99

> <Gold.Chemscore.Hbonds>
donor molecule, donor type, donor heavy atom, donor atom, acceptor molecule, acceptor atom, score
      P1  H  7997  8009       L1     1  0.99

> <Gold.Chemscore.Hbond.Weighted>
-3.3324

> <Gold.Chemscore.Metal.Weighted>
-0.0000

> <Gold.Chemscore.Lipo.Weighted>
-12.2017

> <Gold.Chemscore.Internal_Hbond.Weighted>
0.0000

> <Gold.Chemscore.DEClash.Weighted>
0.0875

> <Gold.Chemscore.DEInternal.Weighted>
2.4057

> <Gold.Chemscore.Rot.Weighted>
3.6852

> <Gold.Chemscore.Internal.Correction.Weighted>
   9.000000E+99

> <Gold.Protein.RotatedTorsions>
[ 6907 6896 6895 6894 ] final  -57.24 input  -60.11 | X-H torsion
[ 7974 7965 7964 7962 ] final  -26.15 input  175.53 | X-H torsion
[ 8008 7997 7996 7995 ] final  178.78 input   59.86 | X-H torsion
[ 10167 10162 10161 10158 ] final  173.99 input  -65.29 | X-H torsion
[ 10718 10713 10712 10709 ] final -166.04 input   66.30 | X-H torsion
[ 10763 10752 10751 10750 ] final -163.83 input  -60.55 | X-H torsion
[ 11005 11000 10999 10996 ] final  -51.12 input  -57.11 | X-H torsion

> <Gold.Protein.ActiveResidues>
 VAL166  LYS551  ARG553  GLY616  TRP617  ASP618  TYR619  PRO620  LYS621  CYS622 
 ASP623  PHE694  ASN695  SER759  ASP760  ASP761  ALA762  ILE779  LEU786  VAL792 
 PHE793  MET794  SER795  GLU796  ALA797  LYS798  CYS799  TRP800  GLU811  SER814 

> <Gold.Protein.RotatedAtoms>
  150.8102  134.7252  159.6680 H   0  0  0  0  0  0  0  0  0  0  0  0  # atno 6907 bound_to 6896
  152.4222  134.5931  159.9989 H   0  0  0  0  0  0  0  0  0  0  0  0  # atno 6908 bound_to 6896
  151.6143  133.3307  159.3110 H   0  0  0  0  0  0  0  0  0  0  0  0  # atno 6909 bound_to 6896
  146.1445  140.4981  142.8638 H   0  0  0  0  0  0  0  0  0  0  0  0  # atno 7974 bound_to 7965
  156.0508  140.1325  157.0052 H   0  0  0  0  0  0  0  0  0  0  0  0  # atno 8008 bound_to 7997
  154.4434  140.1011  156.6443 H   0  0  0  0  0  0  0  0  0  0  0  0  # atno 8009 bound_to 7997
  155.5527  140.3463  155.4474 H   0  0  0  0  0  0  0  0  0  0  0  0  # atno 8010 bound_to 7997
  139.5127  144.3197  152.0214 H   0  0  0  0  0  0  0  0  0  0  0  0  # atno 10167 bound_to 10162
  156.6622  130.9050  151.3031 H   0  0  0  0  0  0  0  0  0  0  0  0  # atno 10718 bound_to 10713
  154.7085  135.3001  154.9233 H   0  0  0  0  0  0  0  0  0  0  0  0  # atno 10763 bound_to 10752
  154.0142  135.6691  153.4771 H   0  0  0  0  0  0  0  0  0  0  0  0  # atno 10764 bound_to 10752
  153.0736  135.5047  154.8270 H   0  0  0  0  0  0  0  0  0  0  0  0  # atno 10765 bound_to 10752
  141.0854  133.6644  156.3831 H   0  0  0  0  0  0  0  0  0  0  0  0  # atno 11005 bound_to 11000
  144.7830  140.5879  143.6593 LP  0  0  0  0  0  0  0  0  0  0  0  0  # atno 17320 bound_to 7965
  145.4970  139.1485  143.3678 LP  0  0  0  0  0  0  0  0  0  0  0  0  # atno 17321 bound_to 7965
  140.2639  144.4037  150.6175 LP  0  0  0  0  0  0  0  0  0  0  0  0  # atno 17342 bound_to 10162
  140.6137  143.2171  151.6835 LP  0  0  0  0  0  0  0  0  0  0  0  0  # atno 17343 bound_to 10162
  157.7106  130.9436  150.1076 LP  0  0  0  0  0  0  0  0  0  0  0  0  # atno 17370 bound_to 10713
  156.2002  130.3660  149.8797 LP  0  0  0  0  0  0  0  0  0  0  0  0  # atno 17371 bound_to 10713
  140.5375  134.6152  157.5369 LP  0  0  0  0  0  0  0  0  0  0  0  0  # atno 17394 bound_to 11000
  139.9671  134.7354  156.0115 LP  0  0  0  0  0  0  0  0  0  0  0  0  # atno 17395 bound_to 11000

$$$$
