AV-unprocessed.smi:1786|AV-procd|sdf|7205|dock1
  -GOLD-   22720 8443D 1   1.00000     0.00000
 Structure written by MMmdl.
 44 45  0  0  0  0  0  0  0  0  2 V2000
  146.1456  135.2794  154.4679 C   0  0  0  0  0  0  0  0  0  0  0  0
  146.5271  133.9449  153.7974 C   0  0  1  0  0  0  0  0  0  0  0  0
  145.7634  133.8161  152.4610 C   0  0  0  0  0  0  0  0  0  0  0  0
  146.1040  132.5155  151.7273 C   0  0  0  0  0  0  0  0  0  0  0  0
  147.6177  132.4267  151.5240 C   0  0  0  0  0  0  0  0  0  0  0  0
  148.3477  132.5421  152.8697 C   0  0  0  0  0  0  0  0  0  0  0  0
  148.0033  133.8021  153.5842 N   0  3  2  0  0  0  0  0  0  0  0  0
  148.8161  133.9579  154.8217 C   0  0  0  0  0  0  0  0  0  0  0  0
  150.3035  134.2030  154.5017 C   0  0  0  0  0  0  0  0  0  0  0  0
  150.5085  135.5134  153.8965 N   0  0  0  0  0  0  0  0  0  0  0  0
  151.4688  136.3789  154.2562 C   0  0  0  0  0  0  0  0  0  0  0  0
  152.2594  136.1621  155.1753 O   0  0  0  0  0  0  0  0  0  0  0  0
  151.5371  137.6910  153.4639 C   0  0  0  0  0  0  0  0  0  0  0  0
  151.1294  138.8556  154.2668 N   0  0  0  0  0  0  0  0  0  0  0  0
  149.8362  139.3706  154.0469 C   0  0  0  0  0  0  0  0  0  0  0  0
  149.3662  140.4248  154.7324 C   0  0  0  0  0  0  0  0  0  0  0  0
  150.2259  141.0376  155.7173 C   0  0  0  0  0  0  0  0  0  0  0  0
  151.4634  140.5510  155.9377 C   0  0  0  0  0  0  0  0  0  0  0  0
  151.9788  139.3949  155.1957 C   0  0  0  0  0  0  0  0  0  0  0  0
  153.1041  138.9367  155.3983 O   0  0  0  0  0  0  0  0  0  0  0  0
  145.0630  135.3718  154.5590 H   0  0  0  0  0  0  0  0  0  0  0  0
  146.4968  136.1317  153.8852 H   0  0  0  0  0  0  0  0  0  0  0  0
  146.5496  135.3686  155.4761 H   0  0  0  0  0  0  0  0  0  0  0  0
  146.2056  133.1336  154.4527 H   0  0  0  0  0  0  0  0  0  0  0  0
  144.6882  133.8573  152.6402 H   0  0  0  0  0  0  0  0  0  0  0  0
  145.9993  134.6651  151.8178 H   0  0  0  0  0  0  0  0  0  0  0  0
  145.7540  131.6591  152.3051 H   0  0  0  0  0  0  0  0  0  0  0  0
  145.5900  132.4779  150.7664 H   0  0  0  0  0  0  0  0  0  0  0  0
  147.8739  131.4836  151.0402 H   0  0  0  0  0  0  0  0  0  0  0  0
  147.9501  133.2204  150.8534 H   0  0  0  0  0  0  0  0  0  0  0  0
  148.1025  131.6872  153.5024 H   0  0  0  0  0  0  0  0  0  0  0  0
  149.4231  132.5060  152.6895 H   0  0  0  0  0  0  0  0  0  0  0  0
  148.4036  134.7510  155.4468 H   0  0  0  0  0  0  0  0  0  0  0  0
  148.7539  133.0569  155.4343 H   0  0  0  0  0  0  0  0  0  0  0  0
  150.8907  134.1584  155.4194 H   0  0  0  0  0  0  0  0  0  0  0  0
  150.7061  133.4336  153.8430 H   0  0  0  0  0  0  0  0  0  0  0  0
  149.8917  135.7730  153.1398 H   0  0  0  0  0  0  0  0  0  0  0  0
  152.5465  137.8414  153.0755 H   0  0  0  0  0  0  0  0  0  0  0  0
  150.9034  137.5877  152.5819 H   0  0  0  0  0  0  0  0  0  0  0  0
  149.2541  138.8523  153.2986 H   0  0  0  0  0  0  0  0  0  0  0  0
  148.3701  140.8025  154.5541 H   0  0  0  0  0  0  0  0  0  0  0  0
  149.8754  141.8901  156.2804 H   0  0  0  0  0  0  0  0  0  0  0  0
  152.0927  141.0227  156.6783 H   0  0  0  0  0  0  0  0  0  0  0  0
  148.2805  134.5527  152.9680 H   0  0  0  0  0  0  0  0  0  0  0  0
  1  2  1  0  0  0  0
  1 21  1  0  0  0  0
  1 22  1  0  0  0  0
  1 23  1  0  0  0  0
  2  7  1  0  0  0  0
  2  3  1  0  0  0  0
  2 24  1  0  0  0  0
  3  4  1  0  0  0  0
  3 25  1  0  0  0  0
  3 26  1  0  0  0  0
  4  5  1  0  0  0  0
  4 27  1  0  0  0  0
  4 28  1  0  0  0  0
  5  6  1  0  0  0  0
  5 29  1  0  0  0  0
  5 30  1  0  0  0  0
  6  7  1  0  0  0  0
  6 31  1  0  0  0  0
  6 32  1  0  0  0  0
  7  8  1  0  0  0  0
  7 44  1  0  0  0  0
  8  9  1  0  0  0  0
  8 33  1  0  0  0  0
  8 34  1  0  0  0  0
  9 10  1  0  0  0  0
  9 35  1  0  0  0  0
  9 36  1  0  0  0  0
 10 11  1  0  0  0  0
 10 37  1  0  0  0  0
 11 12  2  0  0  0  0
 11 13  1  0  0  0  0
 13 14  1  0  0  0  0
 13 38  1  0  0  0  0
 13 39  1  0  0  0  0
 14 19  1  0  0  0  0
 14 15  1  0  0  0  0
 15 16  2  0  0  0  0
 15 40  1  0  0  0  0
 16 17  1  0  0  0  0
 16 41  1  0  0  0  0
 17 18  2  0  0  0  0
 17 42  1  0  0  0  0
 18 19  1  0  0  0  0
 18 43  1  0  0  0  0
 19 20  2  0  0  0  0
M  CHG  1   7   1
M  END
> <s_m_source_file>
AV-unprocessed.smi

> <i_m_source_file_index>
1786

> <i_lp_mmshare_version>
43012

> <i_f3d_flags>
0

> <s_epik_input>
W0NIM11bQ0BASF0xW0NIMl1bQ0gyXVtDSDJdW0NIMl1OMVtDSDJdW0NIMl1bTkhdQyg9TylbQ0gyXW4yW2NIXVtjSF1bY0hdW2NIXWMyPU8=

> <s_epik_cmdline>
J2VwaWtfcHl0aG9uJywgJy1waCcsICc3LjAnLCAnLXRuJywgJzgnLCAnLW1hJywgJzIwMCcsICctbWV0YWxfYmluZGluZycsICctaW1hZScsICc8aW5maWxlLm1hZT4nLCAnLW9tYWUnLCAnPG91dGZpbGUubWFlPic=

> <r_lp_tautomer_probability>
1

> <r_epik_Ionization_Penalty>
0.00237247

> <r_epik_Ionization_Penalty_Charging>
0.00237238

> <r_epik_Ionization_Penalty_Neutral>
8.2065e-08

> <r_epik_State_Penalty>
0.00163922

> <r_epik_Charging_Adjusted_Penalty>
0.0040116

> <i_epik_Tot_Q>
1

> <i_epik_Tot_abs_Q>
1

> <r_epik_Metal_State_Penalty>
-0

> <b_epik_Metal_Only>
0

> <s_lp_Force_Field>
OPLS_2005

> <r_lp_Energy>
27.3139

> <b_lp_Chiralities_Consistent>
1

> <s_lp_Variant>
AV-unprocessed.smi:1786-4

> <Gold.Version>
5.8.1

> <Gold.Id.Protein>
6NUR|6NUR_protein|mol2

> <Gold.PLP.Fitness>
53.2486

> <Gold.PLP.PLP>
-36.3534

> <Gold.PLP.part.hbond>
-4.8690

> <Gold.PLP.part.metal>
0.0000

> <Gold.PLP.part.buried>
-0.3200

> <Gold.PLP.part.nonpolar>
-30.2291

> <Gold.PLP.part.repulsive>
0.0901

> <Gold.PLP.ligand.clash>
0.0000

> <Gold.PLP.ligand.torsion>
0.4966

> <Gold.PLP.Chemscore.Hbond>
5.0000

> <Gold.PLP.Chemscore.CHOScore>
0.9326

> <Gold.PLP.Chemscore.Metal>
0.0000

> <Gold.Chemscore.Hbonds>
donor molecule, donor type, donor heavy atom, donor atom, acceptor molecule, acceptor atom, score
      L1  H     7    44       P1  7948  1.76
      L1  H    10    37       P1  7948  0.20
      P1  H  7997  8010       L1    20  0.73
      P1  H 10752 10765       L1    12  0.12
      L1  C    15    40       P1  7957  0.55

> <Gold.PLP.Chemscore.Internal.Correction>
0.0905

> <Gold.Rescore>
     Score         DG    S(hbond)    S(metal)    S(lipo)     H(rot)  DE(clash)    DE(int)     intcor
     16.96     -20.56       3.43        0.00      71.70       1.86       1.69       1.91       ----

> <Gold.Chemscore.Fitness>
16.9581

> <Gold.Chemscore.DG>
-20.5643

> <Gold.Chemscore.ZeroCoef>
-5.4800

> <Gold.Chemscore.Hbond>
3.4291

> <Gold.Chemscore.Metal>
0.0000

> <Gold.Chemscore.Lipo>
71.7033

> <Gold.Chemscore.Internal_Hbond>
0.0000

> <Gold.Chemscore.DEClash>
1.6931

> <Gold.Chemscore.DEInternal>
1.9131

> <Gold.Chemscore.Rot>
1.8586

> <Gold.Chemscore.Internal.Correction>
   9.000000E+99

> <Gold.Chemscore.Hbonds>
donor molecule, donor type, donor heavy atom, donor atom, acceptor molecule, acceptor atom, score
      L1  H     7    44       P1  7948  0.43
      P1  H  7997  8010       L1    20  0.64
      P1  H 10752 10765       L1    12  0.13

> <Gold.Chemscore.Hbond.Weighted>
-11.4531

> <Gold.Chemscore.Metal.Weighted>
-0.0000

> <Gold.Chemscore.Lipo.Weighted>
-8.3893

> <Gold.Chemscore.Internal_Hbond.Weighted>
0.0000

> <Gold.Chemscore.DEClash.Weighted>
1.6931

> <Gold.Chemscore.DEInternal.Weighted>
1.9131

> <Gold.Chemscore.Rot.Weighted>
4.7581

> <Gold.Chemscore.Internal.Correction.Weighted>
   9.000000E+99

> <Gold.Protein.RotatedTorsions>
[ 6907 6896 6895 6894 ] final   49.74 input  -60.11 | X-H torsion
[ 7974 7965 7964 7962 ] final   87.04 input  175.53 | X-H torsion
[ 8008 7997 7996 7995 ] final   65.25 input   59.86 | X-H torsion
[ 10167 10162 10161 10158 ] final   -7.69 input  -65.29 | X-H torsion
[ 10718 10713 10712 10709 ] final    7.52 input   66.30 | X-H torsion
[ 10763 10752 10751 10750 ] final -140.65 input  -60.55 | X-H torsion
[ 11005 11000 10999 10996 ] final  -72.10 input  -57.11 | X-H torsion

> <Gold.Protein.ActiveResidues>
 VAL166  LYS551  ARG553  GLY616  TRP617  ASP618  TYR619  PRO620  LYS621  CYS622 
 ASP623  PHE694  ASN695  SER759  ASP760  ASP761  ALA762  ILE779  LEU786  VAL792 
 PHE793  MET794  SER795  GLU796  ALA797  LYS798  CYS799  TRP800  GLU811  SER814 

> <Gold.Protein.RotatedAtoms>
  152.2941  134.7688  160.0371 H   0  0  0  0  0  0  0  0  0  0  0  0  # atno 6907 bound_to 6896
  151.8223  133.3391  159.3596 H   0  0  0  0  0  0  0  0  0  0  0  0  # atno 6908 bound_to 6896
  150.7243  134.5491  159.5830 H   0  0  0  0  0  0  0  0  0  0  0  0  # atno 6909 bound_to 6896
  145.5643  139.2307  143.2442 H   0  0  0  0  0  0  0  0  0  0  0  0  # atno 7974 bound_to 7965
  155.6587  140.3497  155.4775 H   0  0  0  0  0  0  0  0  0  0  0  0  # atno 8008 bound_to 7997
  155.9786  140.1170  157.0770 H   0  0  0  0  0  0  0  0  0  0  0  0  # atno 8009 bound_to 7997
  154.4185  140.1142  156.5391 H   0  0  0  0  0  0  0  0  0  0  0  0  # atno 8010 bound_to 7997
  140.7036  143.6053  150.8757 H   0  0  0  0  0  0  0  0  0  0  0  0  # atno 10167 bound_to 10162
  156.9382  130.5851  149.5651 H   0  0  0  0  0  0  0  0  0  0  0  0  # atno 10718 bound_to 10713
  154.8571  135.3547  154.5742 H   0  0  0  0  0  0  0  0  0  0  0  0  # atno 10763 bound_to 10752
  153.6354  135.7000  153.5265 H   0  0  0  0  0  0  0  0  0  0  0  0  # atno 10764 bound_to 10752
  153.3015  135.4205  155.1215 H   0  0  0  0  0  0  0  0  0  0  0  0  # atno 10765 bound_to 10752
  141.1603  133.6837  156.7007 H   0  0  0  0  0  0  0  0  0  0  0  0  # atno 11005 bound_to 11000
  146.1829  140.6468  142.9181 LP  0  0  0  0  0  0  0  0  0  0  0  0  # atno 17320 bound_to 7965
  144.7468  140.5088  143.6830 LP  0  0  0  0  0  0  0  0  0  0  0  0  # atno 17321 bound_to 7965
  139.9777  143.5986  152.2953 LP  0  0  0  0  0  0  0  0  0  0  0  0  # atno 17342 bound_to 10162
  139.6596  144.7662  151.1989 LP  0  0  0  0  0  0  0  0  0  0  0  0  # atno 17343 bound_to 10162
  156.0416  130.5498  150.8785 LP  0  0  0  0  0  0  0  0  0  0  0  0  # atno 17370 bound_to 10713
  157.5803  131.0946  150.9282 LP  0  0  0  0  0  0  0  0  0  0  0  0  # atno 17371 bound_to 10713
  140.2960  134.8202  157.4058 LP  0  0  0  0  0  0  0  0  0  0  0  0  # atno 17394 bound_to 11000
  140.1304  134.5103  155.8110 LP  0  0  0  0  0  0  0  0  0  0  0  0  # atno 17395 bound_to 11000

$$$$
