#       Name:                AV-unprocessed.smi:1585
#       Creating user name   scv26
#       Creation time:       Fri Mar 27 06:59:49 2020


#       File generated by GOLD software.
#

@<TRIPOS>MOLECULE
AV-unprocessed.smi:1585
    50    51     1
SMALL
NO_CHARGES


@<TRIPOS>ATOM
      1 ****        -3.4472   5.3814  -3.8262 C.3            1 S1                 0.0000
      2 ****        -3.4061   4.7378  -2.4829 C.2            1 S1                 0.0000
      3 ****        -2.9261   3.5371  -2.0413 C.2            1 S1                 0.0000
      4 ****        -3.2221   3.5683  -0.6472 C.2            1 S1                 0.0000
      5 ****        -2.9409   2.5458   0.2957 N.am           1 S1                 0.0000
      6 ****        -2.3602   1.3528   0.0852 C.2            1 S1                 0.0000
      7 ****        -1.9106   0.9563  -0.9901 O.2            1 S1                 0.0000
      8 ****        -2.3207   0.6250   1.2111 N.am           1 S1                 0.0000
      9 ****        -1.7908  -0.7314   1.3130 C.3            1 S1                 0.0000
     10 ****        -0.2486  -0.7559   1.3310 C.3            1 S1                 0.0000
     11 ****         0.1798  -0.4192   2.6360 O.3            1 S1                 0.0000
     12 ****         0.2944  -2.1628   1.0074 C.3            1 S1                 0.0000
     13 ****         1.7783  -2.2070   0.9460 N.4            1 S1                 1.0000
     14 ****         2.3114  -3.5675   1.2183 C.3            1 S1                 0.0000
     15 ****         3.8477  -3.5599   1.2946 C.3            1 S1                 0.0000
     16 ****         4.4605  -2.9806   0.0131 C.3            1 S1                 0.0000
     17 ****         3.8708  -1.5927  -0.2682 C.3            1 S1                 0.0000
     18 ****         2.3344  -1.6444  -0.3143 C.3            1 S1                 0.0000
     19 ****        -3.8216   4.6857  -0.2795 N.2            1 S1                 0.0000
     20 ****        -3.9443   5.4417  -1.4511 O.3            1 S1                 0.0000
     21 ****        -2.8876   4.7954  -4.5554 H              1 S1                 0.0000
     22 ****        -3.0134   6.3807  -3.7905 H              1 S1                 0.0000
     23 ****        -4.4744   5.4699  -4.1801 H              1 S1                 0.0000
     24 ****        -2.4483   2.7727  -2.6350 H              1 S1                 0.0000
     25 ****        -3.2444   2.7375   1.2391 H              1 S1                 0.0000
     26 ****        -2.7122   1.0252   2.0516 H              1 S1                 0.0000
     27 ****        -2.1996  -1.2137   2.2019 H              1 S1                 0.0000
     28 ****        -2.1640  -1.3064   0.4636 H              1 S1                 0.0000
     29 ****         0.1449  -0.0261   0.6244 H              1 S1                 0.0000
     30 ****        -0.1539   0.4394   2.8491 H              1 S1                 0.0000
     31 ****        -0.0654  -2.8539   1.7715 H              1 S1                 0.0000
     32 ****        -0.1111  -2.5226   0.0604 H              1 S1                 0.0000
     33 ****         1.9115  -3.9379   2.1632 H              1 S1                 0.0000
     34 ****         1.9749  -4.2540   0.4396 H              1 S1                 0.0000
     35 ****         4.1687  -2.9698   2.1541 H              1 S1                 0.0000
     36 ****         4.2176  -4.5724   1.4593 H              1 S1                 0.0000
     37 ****         5.5450  -2.9179   0.1082 H              1 S1                 0.0000
     38 ****         4.2573  -3.6456  -0.8272 H              1 S1                 0.0000
     39 ****         4.1905  -0.8942   0.5063 H              1 S1                 0.0000
     40 ****         4.2595  -1.2079  -1.2116 H              1 S1                 0.0000
     41 ****         2.0061  -2.2498  -1.1608 H              1 S1                 0.0000
     42 ****         1.9550  -0.6376  -0.4837 H              1 S1                 0.0000
     43 ****         2.1059  -1.6218   1.7017 H              1 S1                 0.0000
     44 ****        -1.9622   1.5410  -1.7997 LP             1 S1                 0.0000
     45 ****        -1.4938   0.0496  -1.0539 LP             1 S1                 0.0000
     46 ****         1.1791  -0.4110   2.6714 LP             1 S1                 0.0000
     47 ****        -0.1714  -1.0894   3.2898 LP             1 S1                 0.0000
     48 ****        -4.1236   4.9381   0.6398 LP             1 S1                 0.0000
     49 ****        -4.9104   5.6228  -1.6351 LP             1 S1                 0.0000
     50 ****        -3.4571   6.3085  -1.3448 LP             1 S1                 0.0000
@<TRIPOS>BOND
    1    1    2 1     
    2    1   21 1     
    3    1   22 1     
    4    1   23 1     
    5    2   20 1     
    6    2    3 2     
    7    3    4 1     
    8    3   24 1     
    9    4    5 1     
   10    4   19 2     
   11    5    6 am    
   12    5   25 1     
   13    6    7 2     
   14    6    8 am    
   15    8    9 1     
   16    8   26 1     
   17    9   10 1     
   18    9   27 1     
   19    9   28 1     
   20   10   11 1     
   21   10   12 1     
   22   10   29 1     
   23   11   30 1     
   24   12   13 1     
   25   12   31 1     
   26   12   32 1     
   27   13   18 1     
   28   13   14 1     
   29   13   43 1     
   30   14   15 1     
   31   14   33 1     
   32   14   34 1     
   33   15   16 1     
   34   15   35 1     
   35   15   36 1     
   36   16   17 1     
   37   16   37 1     
   38   16   38 1     
   39   17   18 1     
   40   17   39 1     
   41   17   40 1     
   42   18   41 1     
   43   18   42 1     
   44   19   20 1     
   45    7   44 1     
   46    7   45 1     
   47   11   46 1     
   48   11   47 1     
   49   19   48 1     
   50   20   49 1     
   51   20   50 1     
@<TRIPOS>SUBSTRUCTURE
      1 S1             1
@<TRIPOS>SET
LONE_PAIRS      STATIC     ATOMS    <user>   **** ""
7 44 45 46 47 48 49 50
DONOR_HYDROGENS      STATIC     ATOMS    <user>   **** ""
4 25 26 30 43
ATOM$BLUE        STATIC     ATOMS    COLORGROUP SYSTEM
7 44 45 46 47 48 49 50
ATOM$RED        STATIC     ATOMS    COLORGROUP SYSTEM
4 25 26 30 43
