#       Name:                AV-unprocessed.smi:1403
#       Creating user name   scv26
#       Creation time:       Fri Mar 27 05:32:54 2020


#       File generated by GOLD software.
#

@<TRIPOS>MOLECULE
AV-unprocessed.smi:1403
    44    45     1
SMALL
NO_CHARGES


@<TRIPOS>ATOM
      1 ****        -1.8947   0.6779   2.7163 C.3            1 S1                 0.0000
      2 ****        -1.6265   0.3073   1.2504 C.3            1 S1                 0.0000
      3 ****        -0.2570  -0.1916   1.1365 N.am           1 S1                 0.0000
      4 ****         0.6365   0.1607   0.1988 C.2            1 S1                 0.0000
      5 ****         0.3868   0.9518  -0.7116 O.2            1 S1                 0.0000
      6 ****         2.0132  -0.5118   0.2969 C.3            1 S1                 0.0000
      7 ****         3.0752   0.2499  -0.3759 N.am           1 S1                 0.0000
      8 ****         3.4837  -0.0973  -1.6560 C.2            1 S1                 0.0000
      9 ****         4.4473   0.5670  -2.3370 C.2            1 S1                 0.0000
     10 ****         5.1195   1.7141  -1.7360 C.2            1 S1                 0.0000
     11 ****         6.0040   2.3784  -2.2712 O.2            1 S1                 0.0000
     12 ****         4.6792   2.0336  -0.4487 N.am           1 S1                 0.0000
     13 ****         3.6858   1.3542   0.2582 C.2            1 S1                 0.0000
     14 ****         3.3700   1.7224   1.3891 O.2            1 S1                 0.0000
     15 ****        -2.6296  -0.7437   0.7309 C.3            1 S1                 0.0000
     16 ****        -2.4380  -1.1568  -0.7295 C.3            1 S1                 0.0000
     17 ****        -3.8068  -1.6965  -1.0743 C.3            1 S1                 0.0000
     18 ****        -4.7250  -0.7414  -0.3163 C.3            1 S1                 0.0000
     19 ****        -3.9599  -0.2341   0.7751 O.3            1 S1                 0.0000
     20 ****         5.1142   2.8228   0.0067 H              1 S1                 0.0000
     21 ****        -2.8930   1.0984   2.8404 H              1 S1                 0.0000
     22 ****        -1.1810   1.4228   3.0704 H              1 S1                 0.0000
     23 ****        -1.8180  -0.1934   3.3676 H              1 S1                 0.0000
     24 ****        -1.7404   1.2162   0.6570 H              1 S1                 0.0000
     25 ****         0.0382  -0.8559   1.8371 H              1 S1                 0.0000
     26 ****         2.2736  -0.6722   1.3452 H              1 S1                 0.0000
     27 ****         1.9322  -1.5104  -0.1349 H              1 S1                 0.0000
     28 ****         3.0099  -0.9380  -2.1428 H              1 S1                 0.0000
     29 ****         4.7216   0.2491  -3.3325 H              1 S1                 0.0000
     30 ****        -2.5956  -1.6366   1.3579 H              1 S1                 0.0000
     31 ****        -2.2129  -0.2879  -1.3498 H              1 S1                 0.0000
     32 ****        -1.6438  -1.8913  -0.8656 H              1 S1                 0.0000
     33 ****        -4.0040  -1.7175  -2.1463 H              1 S1                 0.0000
     34 ****        -3.9155  -2.7103  -0.6863 H              1 S1                 0.0000
     35 ****        -5.0174   0.0954  -0.9514 H              1 S1                 0.0000
     36 ****        -5.6325  -1.2351   0.0321 H              1 S1                 0.0000
     37 ****        -0.5204   1.3671  -0.7784 LP             1 S1                 0.0000
     38 ****         1.0913   1.1788  -1.3840 LP             1 S1                 0.0000
     39 ****         6.3159   2.1458  -3.1924 LP             1 S1                 0.0000
     40 ****         6.4119   3.1515  -1.7855 LP             1 S1                 0.0000
     41 ****         2.6573   1.2344   1.8930 LP             1 S1                 0.0000
     42 ****         3.8261   2.5096   1.8042 LP             1 S1                 0.0000
     43 ****        -3.9320   0.7641   0.7217 LP             1 S1                 0.0000
     44 ****        -4.3897  -0.5100   1.6348 LP             1 S1                 0.0000
@<TRIPOS>BOND
    1    1    2 1     
    2    1   21 1     
    3    1   22 1     
    4    1   23 1     
    5    2    3 1     
    6    2   15 1     
    7    2   24 1     
    8    3    4 am    
    9    3   25 1     
   10    4    5 2     
   11    4    6 1     
   12    6    7 1     
   13    6   26 1     
   14    6   27 1     
   15    7   13 1     
   16    7    8 1     
   17    8    9 2     
   18    8   28 1     
   19    9   10 1     
   20    9   29 1     
   21   10   11 2     
   22   10   12 1     
   23   12   20 1     
   24   12   13 1     
   25   13   14 2     
   26   15   19 1     
   27   15   16 1     
   28   15   30 1     
   29   16   17 1     
   30   16   31 1     
   31   16   32 1     
   32   17   18 1     
   33   17   33 1     
   34   17   34 1     
   35   18   19 1     
   36   18   35 1     
   37   18   36 1     
   38    5   37 1     
   39    5   38 1     
   40   11   39 1     
   41   11   40 1     
   42   14   41 1     
   43   14   42 1     
   44   19   43 1     
   45   19   44 1     
@<TRIPOS>SUBSTRUCTURE
      1 S1             1
@<TRIPOS>SET
LONE_PAIRS      STATIC     ATOMS    <user>   **** ""
8 37 38 39 40 41 42 43 44
DONOR_HYDROGENS      STATIC     ATOMS    <user>   **** ""
2 25 20
ATOM$BLUE        STATIC     ATOMS    COLORGROUP SYSTEM
8 37 38 39 40 41 42 43 44
ATOM$RED        STATIC     ATOMS    COLORGROUP SYSTEM
2 25 20
