#       Name:                AV-unprocessed.smi:3198
#       Creating user name   scv26
#       Creation time:       Fri Mar 27 18:06:08 2020


#       File generated by GOLD software.
#

@<TRIPOS>MOLECULE
AV-unprocessed.smi:3198
    42    43     1
SMALL
NO_CHARGES


@<TRIPOS>ATOM
      1 ****        -2.5204   3.4862   0.4119 C.3            1 S1                 0.0000
      2 ****        -2.2151   2.0410   0.0807 C.ar           1 S1                 0.0000
      3 ****        -1.9725   1.6051  -1.2382 C.ar           1 S1                 0.0000
      4 ****        -1.6955   0.2431  -1.4680 C.ar           1 S1                 0.0000
      5 ****        -1.6637  -0.6506  -0.3783 C.ar           1 S1                 0.0000
      6 ****        -1.9018  -0.1626   0.9298 C.ar           1 S1                 0.0000
      7 ****        -1.8721  -0.9498   2.0906 N.pl3          1 S1                 0.0000
      8 ****        -1.5812  -2.3764   2.0060 C.3            1 S1                 0.0000
      9 ****        -0.0949  -2.6568   1.7339 C.3            1 S1                 0.0000
     10 ****         0.1943  -2.3306   0.3869 O.3            1 S1                 0.0000
     11 ****         1.5675  -2.4312   0.0546 C.3            1 S1                 0.0000
     12 ****         1.7764  -1.9023  -1.3714 C.3            1 S1                 0.0000
     13 ****         0.9422  -2.5853  -2.4590 C.3            1 S1                 0.0000
     14 ****         0.7108  -1.4838  -3.4857 C.3            1 S1                 0.0000
     15 ****         1.3186  -0.2317  -2.8487 C.3            1 S1                 0.0000
     16 ****         1.4016  -0.5371  -1.4654 O.3            1 S1                 0.0000
     17 ****        -2.1721   1.1515   1.0976 N.pl3          1 S1                 1.0000
     18 ****        -2.6777   4.0716  -0.4945 H              1 S1                 0.0000
     19 ****        -1.6935   3.9301   0.9667 H              1 S1                 0.0000
     20 ****        -3.4220   3.5559   1.0213 H              1 S1                 0.0000
     21 ****        -1.9977   2.3018  -2.0636 H              1 S1                 0.0000
     22 ****        -1.5061  -0.1129  -2.4699 H              1 S1                 0.0000
     23 ****        -1.4479  -1.6920  -0.5620 H              1 S1                 0.0000
     24 ****        -1.6336  -0.4899   2.9573 H              1 S1                 0.0000
     25 ****        -1.8474  -2.8095   2.9704 H              1 S1                 0.0000
     26 ****        -2.2175  -2.8704   1.2723 H              1 S1                 0.0000
     27 ****         0.5309  -2.0843   2.4206 H              1 S1                 0.0000
     28 ****         0.1203  -3.7134   1.8977 H              1 S1                 0.0000
     29 ****         2.1712  -1.8482   0.7519 H              1 S1                 0.0000
     30 ****         1.8916  -3.4703   0.1267 H              1 S1                 0.0000
     31 ****         2.8344  -1.9767  -1.6305 H              1 S1                 0.0000
     32 ****         1.4529  -3.4518  -2.8799 H              1 S1                 0.0000
     33 ****        -0.0186  -2.9238  -2.0698 H              1 S1                 0.0000
     34 ****         1.1795  -1.7074  -4.4444 H              1 S1                 0.0000
     35 ****        -0.3575  -1.3505  -3.6596 H              1 S1                 0.0000
     36 ****         2.3226  -0.0527  -3.2371 H              1 S1                 0.0000
     37 ****         0.7208   0.6626  -3.0252 H              1 S1                 0.0000
     38 ****        -2.3452   1.4943   2.0427 H              1 S1                 0.0000
     39 ****        -0.1021  -1.3903   0.2199 LP             1 S1                 0.0000
     40 ****        -0.3192  -2.9521  -0.2048 LP             1 S1                 0.0000
     41 ****         2.0895   0.0403  -1.0256 LP             1 S1                 0.0000
     42 ****         0.5148  -0.3922  -1.0266 LP             1 S1                 0.0000
@<TRIPOS>BOND
    1    1    2 1     
    2    1   18 1     
    3    1   19 1     
    4    1   20 1     
    5    2   17 ar    
    6    2    3 ar    
    7    3    4 ar    
    8    3   21 1     
    9    4    5 ar    
   10    4   22 1     
   11    5    6 ar    
   12    5   23 1     
   13    6    7 1     
   14    6   17 ar    
   15    7    8 1     
   16    7   24 1     
   17    8    9 1     
   18    8   25 1     
   19    8   26 1     
   20    9   10 1     
   21    9   27 1     
   22    9   28 1     
   23   10   11 1     
   24   11   12 1     
   25   11   29 1     
   26   11   30 1     
   27   12   16 1     
   28   12   13 1     
   29   12   31 1     
   30   13   14 1     
   31   13   32 1     
   32   13   33 1     
   33   14   15 1     
   34   14   34 1     
   35   14   35 1     
   36   15   16 1     
   37   15   36 1     
   38   15   37 1     
   39   17   38 1     
   40   10   39 1     
   41   10   40 1     
   42   16   41 1     
   43   16   42 1     
@<TRIPOS>SUBSTRUCTURE
      1 S1             1
@<TRIPOS>SET
LONE_PAIRS      STATIC     ATOMS    <user>   **** ""
4 39 40 41 42
DONOR_HYDROGENS      STATIC     ATOMS    <user>   **** ""
2 24 38
ATOM$BLUE        STATIC     ATOMS    COLORGROUP SYSTEM
4 39 40 41 42
ATOM$RED        STATIC     ATOMS    COLORGROUP SYSTEM
2 24 38
