AV-unprocessed.smi:1703|AV-procd|sdf|6878|dock6
  -GOLD-   22720 8 83D 1   1.00000     0.00000
 Structure written by MMmdl.
 50 52  0  0  0  0  0  0  0  0  3 V2000
  149.4276  133.6160  153.6671 C   0  0  0  0  0  0  0  0  0  0  0  0
  149.5641  134.1517  155.1038 C   0  0  1  0  0  0  0  0  0  0  0  0
  150.1737  135.5655  155.1772 C   0  0  0  0  0  0  0  0  0  0  0  0
  149.2003  136.5882  154.7276 N   0  3  2  0  0  0  0  0  0  0  0  0
  149.7781  137.9560  154.6986 C   0  0  0  0  0  0  0  0  0  0  0  0
  150.3951  138.3622  156.0515 C   0  0  2  0  0  0  0  0  0  0  0  0
  149.3627  138.8106  156.9089 O   0  0  0  0  0  0  0  0  0  0  0  0
  151.4498  139.4750  155.8925 C   0  0  0  0  0  0  0  0  0  0  0  0
  150.9599  140.7888  156.3433 N   0  0  0  0  0  0  0  0  0  0  0  0
  149.9468  141.5596  155.8509 C   0  0  0  0  0  0  0  0  0  0  0  0
  149.0617  141.2346  154.6894 C   0  0  0  0  0  0  0  0  0  0  0  0
  149.7779  140.8739  153.5275 O   0  0  0  0  0  0  0  0  0  0  0  0
  149.9009  142.6943  156.6061 N   0  3  0  0  0  0  0  0  0  0  0  0
  150.8866  142.6485  157.5916 C   0  0  0  0  0  0  0  0  0  0  0  0
  151.2219  143.5635  158.5849 C   0  0  0  0  0  0  0  0  0  0  0  0
  152.2906  143.2116  159.4346 C   0  0  0  0  0  0  0  0  0  0  0  0
  152.9813  141.9925  159.2781 C   0  0  0  0  0  0  0  0  0  0  0  0
  152.6327  141.0733  158.2664 C   0  0  0  0  0  0  0  0  0  0  0  0
  151.5724  141.4268  157.4306 C   0  0  0  0  0  0  0  0  0  0  0  0
  147.9469  136.4843  155.5127 C   0  0  0  0  0  0  0  0  0  0  0  0
  147.3580  135.0670  155.3902 C   0  0  2  0  0  0  0  0  0  0  0  0
  146.1068  134.8863  156.2565 C   0  0  0  0  0  0  0  0  0  0  0  0
  148.3269  134.1122  155.8159 O   0  0  0  0  0  0  0  0  0  0  0  0
  150.4059  133.5257  153.1942 H   0  0  0  0  0  0  0  0  0  0  0  0
  148.8234  134.2680  153.0367 H   0  0  0  0  0  0  0  0  0  0  0  0
  148.9689  132.6271  153.6623 H   0  0  0  0  0  0  0  0  0  0  0  0
  150.2361  133.4728  155.6301 H   0  0  0  0  0  0  0  0  0  0  0  0
  150.4728  135.7860  156.2032 H   0  0  0  0  0  0  0  0  0  0  0  0
  151.0773  135.6106  154.5676 H   0  0  0  0  0  0  0  0  0  0  0  0
  150.5222  138.0158  153.9027 H   0  0  0  0  0  0  0  0  0  0  0  0
  149.0017  138.6787  154.4423 H   0  0  0  0  0  0  0  0  0  0  0  0
  150.8708  137.5015  156.5204 H   0  0  0  0  0  0  0  0  0  0  0  0
  148.9264  138.0580  157.2783 H   0  0  0  0  0  0  0  0  0  0  0  0
  152.3321  139.2376  156.4874 H   0  0  0  0  0  0  0  0  0  0  0  0
  151.7973  139.5481  154.8620 H   0  0  0  0  0  0  0  0  0  0  0  0
  148.4018  140.4126  154.9672 H   0  0  0  0  0  0  0  0  0  0  0  0
  148.4317  142.0930  154.4566 H   0  0  0  0  0  0  0  0  0  0  0  0
  149.2529  140.2694  153.0247 H   0  0  0  0  0  0  0  0  0  0  0  0
  150.6953  144.4990  158.7050 H   0  0  0  0  0  0  0  0  0  0  0  0
  152.5867  143.8910  160.2210 H   0  0  0  0  0  0  0  0  0  0  0  0
  153.7961  141.7576  159.9478 H   0  0  0  0  0  0  0  0  0  0  0  0
  153.1741  140.1458  158.1584 H   0  0  0  0  0  0  0  0  0  0  0  0
  148.1507  136.7203  156.5586 H   0  0  0  0  0  0  0  0  0  0  0  0
  147.2146  137.2102  155.1606 H   0  0  0  0  0  0  0  0  0  0  0  0
  147.0799  134.8742  154.3537 H   0  0  0  0  0  0  0  0  0  0  0  0
  145.3241  135.5885  155.9683 H   0  0  0  0  0  0  0  0  0  0  0  0
  146.3295  135.0473  157.3117 H   0  0  0  0  0  0  0  0  0  0  0  0
  145.7031  133.8789  156.1516 H   0  0  0  0  0  0  0  0  0  0  0  0
  148.9717  136.3575  153.7708 H   0  0  0  0  0  0  0  0  0  0  0  0
  149.2412  143.4463  156.4509 H   0  0  0  0  0  0  0  0  0  0  0  0
  1  2  1  0  0  0  0
  1 24  1  0  0  0  0
  1 25  1  0  0  0  0
  1 26  1  0  0  0  0
  2 23  1  0  0  0  0
  2  3  1  0  0  0  0
  2 27  1  0  0  0  0
  3  4  1  0  0  0  0
  3 28  1  0  0  0  0
  3 29  1  0  0  0  0
  4  5  1  0  0  0  0
  4 20  1  0  0  0  0
  4 49  1  0  0  0  0
  5  6  1  0  0  0  0
  5 30  1  0  0  0  0
  5 31  1  0  0  0  0
  6  7  1  0  0  0  0
  6  8  1  0  0  0  0
  6 32  1  0  0  0  0
  7 33  1  0  0  0  0
  8  9  1  0  0  0  0
  8 34  1  0  0  0  0
  8 35  1  0  0  0  0
  9 19  1  0  0  0  0
  9 10  1  0  0  0  0
 10 11  1  0  0  0  0
 10 13  2  0  0  0  0
 11 12  1  0  0  0  0
 11 36  1  0  0  0  0
 11 37  1  0  0  0  0
 12 38  1  0  0  0  0
 13 14  1  0  0  0  0
 13 50  1  0  0  0  0
 14 19  2  0  0  0  0
 14 15  1  0  0  0  0
 15 16  2  0  0  0  0
 15 39  1  0  0  0  0
 16 17  1  0  0  0  0
 16 40  1  0  0  0  0
 17 18  2  0  0  0  0
 17 41  1  0  0  0  0
 18 19  1  0  0  0  0
 18 42  1  0  0  0  0
 20 21  1  0  0  0  0
 20 43  1  0  0  0  0
 20 44  1  0  0  0  0
 21 22  1  0  0  0  0
 21 23  1  0  0  0  0
 21 45  1  0  0  0  0
 22 46  1  0  0  0  0
 22 47  1  0  0  0  0
 22 48  1  0  0  0  0
M  CHG  1   4   1
M  CHG  1  13   1
M  END
> <s_m_source_file>
AV-unprocessed.smi

> <i_m_source_file_index>
1703

> <i_lp_mmshare_version>
43012

> <i_f3d_flags>
0

> <s_epik_input>
W0NIM11bQ0BASF0xW0NIMl1OKFtDSDJdW0NASF0oTzEpW0NIM10pW0NIMl1bQ0BIXShbT0hdKVtDSDJdbihjKG4yKVtDSDJdW09IXSljKGMyMylbY0hdW2NIXVtjSF1bY0hdMw==

> <s_epik_cmdline>
J2VwaWtfcHl0aG9uJywgJy1waCcsICc3LjAnLCAnLXRuJywgJzgnLCAnLW1hJywgJzIwMCcsICctbWV0YWxfYmluZGluZycsICctaW1hZScsICc8aW5maWxlLm1hZT4nLCAnLW9tYWUnLCAnPG91dGZpbGUubWFlPic=

> <r_epik_Ionization_Penalty>
2.22579

> <r_epik_Ionization_Penalty_Charging>
2.22492

> <r_epik_Ionization_Penalty_Neutral>
0.000870007

> <r_epik_State_Penalty>
2.3141

> <r_epik_Charging_Adjusted_Penalty>
4.53902

> <i_epik_Tot_Q>
2

> <i_epik_Tot_abs_Q>
2

> <r_epik_Metal_State_Penalty>
6.36517

> <b_epik_Metal_Only>
0

> <s_lp_Force_Field>
OPLS_2005

> <r_lp_Energy>
31.039

> <b_lp_Chiralities_Consistent>
1

> <s_lp_Variant>
AV-unprocessed.smi:1703-26

> <Gold.Version>
5.8.1

> <Gold.Id.Protein>
6NUR|6NUR_protein|mol2

> <Gold.PLP.Fitness>
54.2106

> <Gold.PLP.PLP>
-38.9002

> <Gold.PLP.part.hbond>
-4.2992

> <Gold.PLP.part.metal>
0.0000

> <Gold.PLP.part.buried>
-4.2588

> <Gold.PLP.part.nonpolar>
-30.1164

> <Gold.PLP.part.repulsive>
0.0807

> <Gold.PLP.ligand.clash>
0.0000

> <Gold.PLP.ligand.torsion>
0.9857

> <Gold.PLP.Chemscore.Hbond>
5.7360

> <Gold.PLP.Chemscore.CHOScore>
0.0000

> <Gold.PLP.Chemscore.Metal>
0.0000

> <Gold.Chemscore.Hbonds>
donor molecule, donor type, donor heavy atom, donor atom, acceptor molecule, acceptor atom, score
      L1  H     4    49       P1  7948  2.00
      L1  H    12    38       P1  7957  0.38
      L1  H    13    50       P1  8028  1.92
      P1  H  7989  7998       L1    12  0.34
      P1  H  8011  8017       L1    12  1.00

> <Gold.PLP.Chemscore.Internal.Correction>
0.0738

> <Gold.Rescore>
     Score         DG    S(hbond)    S(metal)    S(lipo)     H(rot)  DE(clash)    DE(int)     intcor
     17.02     -19.20       2.99        0.00      98.40       3.04       0.11       2.07       ----

> <Gold.Chemscore.Fitness>
17.0225

> <Gold.Chemscore.DG>
-19.1978

> <Gold.Chemscore.ZeroCoef>
-5.4800

> <Gold.Chemscore.Hbond>
2.9886

> <Gold.Chemscore.Metal>
0.0000

> <Gold.Chemscore.Lipo>
98.3975

> <Gold.Chemscore.Internal_Hbond>
0.0000

> <Gold.Chemscore.DEClash>
0.1078

> <Gold.Chemscore.DEInternal>
2.0676

> <Gold.Chemscore.Rot>
3.0378

> <Gold.Chemscore.Internal.Correction>
   9.000000E+99

> <Gold.Chemscore.Hbonds>
donor molecule, donor type, donor heavy atom, donor atom, acceptor molecule, acceptor atom, score
      L1  H     4    49       P1  7948  0.99
      L1  H    12    38       P1  7957  0.38
      L1  H    13    50       P1  8028  0.87
      P1  H  7989  7998       L1    12  0.32
      P1  H  8011  8017       L1    12  0.19

> <Gold.Chemscore.Hbond.Weighted>
-9.9820

> <Gold.Chemscore.Metal.Weighted>
-0.0000

> <Gold.Chemscore.Lipo.Weighted>
-11.5125

> <Gold.Chemscore.Internal_Hbond.Weighted>
0.0000

> <Gold.Chemscore.DEClash.Weighted>
0.1078

> <Gold.Chemscore.DEInternal.Weighted>
2.0676

> <Gold.Chemscore.Rot.Weighted>
7.7767

> <Gold.Chemscore.Internal.Correction.Weighted>
   9.000000E+99

> <Gold.Protein.RotatedTorsions>
[ 6907 6896 6895 6894 ] final -153.46 input  -60.11 | X-H torsion
[ 7974 7965 7964 7962 ] final  141.45 input  175.53 | X-H torsion
[ 8008 7997 7996 7995 ] final -165.87 input   59.86 | X-H torsion
[ 10167 10162 10161 10158 ] final -127.49 input  -65.29 | X-H torsion
[ 10718 10713 10712 10709 ] final  112.67 input   66.30 | X-H torsion
[ 10763 10752 10751 10750 ] final  -68.58 input  -60.55 | X-H torsion
[ 11005 11000 10999 10996 ] final  -37.60 input  -57.11 | X-H torsion

> <Gold.Protein.ActiveResidues>
 VAL166  LYS551  ARG553  GLY616  TRP617  ASP618  TYR619  PRO620  LYS621  CYS622 
 ASP623  PHE694  ASN695  SER759  ASP760  ASP761  ALA762  ILE779  LEU786  VAL792 
 PHE793  MET794  SER795  GLU796  ALA797  LYS798  CYS799  TRP800  GLU811  SER814 

> <Gold.Protein.RotatedAtoms>
  151.2429  133.4390  159.2607 H   0  0  0  0  0  0  0  0  0  0  0  0  # atno 6907 bound_to 6896
  151.0689  134.9785  159.8308 H   0  0  0  0  0  0  0  0  0  0  0  0  # atno 6908 bound_to 6896
  152.5409  134.2375  159.8902 H   0  0  0  0  0  0  0  0  0  0  0  0  # atno 6909 bound_to 6896
  144.9095  139.5312  143.5715 H   0  0  0  0  0  0  0  0  0  0  0  0  # atno 7974 bound_to 7965
  155.8559  140.0970  157.1645 H   0  0  0  0  0  0  0  0  0  0  0  0  # atno 8008 bound_to 7997
  154.3988  140.1374  156.3963 H   0  0  0  0  0  0  0  0  0  0  0  0  # atno 8009 bound_to 7997
  155.7910  140.3456  155.5352 H   0  0  0  0  0  0  0  0  0  0  0  0  # atno 8010 bound_to 7997
  139.9604  143.5957  152.2447 H   0  0  0  0  0  0  0  0  0  0  0  0  # atno 10167 bound_to 10162
  157.6380  131.0971  150.6929 H   0  0  0  0  0  0  0  0  0  0  0  0  # atno 10718 bound_to 10713
  154.3911  135.6052  153.5843 H   0  0  0  0  0  0  0  0  0  0  0  0  # atno 10763 bound_to 10752
  152.9787  135.5884  154.4297 H   0  0  0  0  0  0  0  0  0  0  0  0  # atno 10764 bound_to 10752
  154.4081  135.2844  155.2032 H   0  0  0  0  0  0  0  0  0  0  0  0  # atno 10765 bound_to 10752
  140.9964  133.6978  156.1942 H   0  0  0  0  0  0  0  0  0  0  0  0  # atno 11005 bound_to 11000
  146.3151  139.7890  142.8990 LP  0  0  0  0  0  0  0  0  0  0  0  0  # atno 17320 bound_to 7965
  145.3478  141.0301  143.3355 LP  0  0  0  0  0  0  0  0  0  0  0  0  # atno 17321 bound_to 7965
  139.6559  144.7662  151.2057 LP  0  0  0  0  0  0  0  0  0  0  0  0  # atno 17342 bound_to 10162
  140.7555  143.6087  150.8627 LP  0  0  0  0  0  0  0  0  0  0  0  0  # atno 17343 bound_to 10162
  156.7258  130.4694  149.5511 LP  0  0  0  0  0  0  0  0  0  0  0  0  # atno 17370 bound_to 10713
  156.1635  130.6390  151.0749 LP  0  0  0  0  0  0  0  0  0  0  0  0  # atno 17371 bound_to 10713
  140.6959  134.4616  157.5587 LP  0  0  0  0  0  0  0  0  0  0  0  0  # atno 17394 bound_to 11000
  139.9017  134.8541  156.1870 LP  0  0  0  0  0  0  0  0  0  0  0  0  # atno 17395 bound_to 11000

$$$$
