#       Name:                AV-unprocessed.smi:906
#       Creating user name   scv26
#       Creation time:       Fri Mar 27 01:59:59 2020


#       File generated by GOLD software.
#

@<TRIPOS>MOLECULE
AV-unprocessed.smi:906
    51    52     1
SMALL
NO_CHARGES


@<TRIPOS>ATOM
      1 ****        -0.8857   4.5904  -3.6918 C.3            1 S1                 0.0000
      2 ****        -1.4072   4.1160  -2.3518 C.ar           1 S1                 0.0000
      3 ****        -0.6336   4.2600  -1.1807 C.ar           1 S1                 0.0000
      4 ****        -1.1698   3.8003   0.0372 C.ar           1 S1                 0.0000
      5 ****        -2.4516   3.2120   0.0373 C.ar           1 S1                 0.0000
      6 ****        -3.0678   2.6744   1.3171 C.3            1 S1                 0.0000
      7 ****        -3.0143   1.1388   1.4271 C.3            1 S1                 0.0000
      8 ****        -1.6459   0.6311   1.3627 N.am           1 S1                 0.0000
      9 ****        -1.0433   0.1282   0.2709 C.2            1 S1                 0.0000
     10 ****        -1.6178   0.0287  -0.8138 O.2            1 S1                 0.0000
     11 ****         0.2675  -0.1739   0.4423 N.am           1 S1                 0.0000
     12 ****         0.9238  -0.4617   1.7257 C.3            1 S1                 0.0000
     13 ****         1.1888  -1.9759   1.8274 C.3            1 S1                 0.0000
     14 ****         1.9729  -2.4712   0.6619 N.4            1 S1                 1.0000
     15 ****         2.3575  -3.9105   0.7784 C.3            1 S1                 0.0000
     16 ****         1.2365  -4.8833   0.3578 C.3            1 S1                 0.0000
     17 ****         3.6982  -4.2084   0.0716 C.3            1 S1                 0.0000
     18 ****         4.6174  -3.3228   0.4569 F              1 S1                 0.0000
     19 ****         4.1212  -5.4246   0.4155 F              1 S1                 0.0000
     20 ****         3.5828  -4.1620  -1.2548 F              1 S1                 0.0000
     21 ****         1.3857  -2.0601  -0.6457 C.3            1 S1                 0.0000
     22 ****         1.1313  -0.5430  -0.6826 C.3            1 S1                 0.0000
     23 ****        -3.1423   3.1165  -1.1891 C.ar           1 S1                 0.0000
     24 ****        -2.6371   3.5568  -2.3611 N.ar           1 S1                 0.0000
     25 ****         0.0997   5.0468  -3.5942 H              1 S1                 0.0000
     26 ****        -1.5616   5.3299  -4.1221 H              1 S1                 0.0000
     27 ****        -0.8060   3.7525  -4.3850 H              1 S1                 0.0000
     28 ****         0.3476   4.7104  -1.2128 H              1 S1                 0.0000
     29 ****        -0.6012   3.8890   0.9514 H              1 S1                 0.0000
     30 ****        -2.5608   3.1217   2.1731 H              1 S1                 0.0000
     31 ****        -4.1042   3.0092   1.3717 H              1 S1                 0.0000
     32 ****        -3.4461   0.8272   2.3783 H              1 S1                 0.0000
     33 ****        -3.6337   0.6852   0.6515 H              1 S1                 0.0000
     34 ****        -1.0991   0.7047   2.2080 H              1 S1                 0.0000
     35 ****         1.8671   0.0848   1.7707 H              1 S1                 0.0000
     36 ****         0.3558  -0.1335   2.5961 H              1 S1                 0.0000
     37 ****         1.7287  -2.1830   2.7523 H              1 S1                 0.0000
     38 ****         0.2403  -2.5115   1.8858 H              1 S1                 0.0000
     39 ****         2.5476  -4.0919   1.8376 H              1 S1                 0.0000
     40 ****         1.5122  -5.9121   0.5899 H              1 S1                 0.0000
     41 ****         1.0381  -4.8394  -0.7131 H              1 S1                 0.0000
     42 ****         0.3035  -4.6741   0.8813 H              1 S1                 0.0000
     43 ****         2.0501  -2.3277  -1.4653 H              1 S1                 0.0000
     44 ****         0.4421  -2.5800  -0.8142 H              1 S1                 0.0000
     45 ****         0.7100  -0.2555  -1.6472 H              1 S1                 0.0000
     46 ****         2.0754  -0.0021  -0.6026 H              1 S1                 0.0000
     47 ****        -4.1228   2.6662  -1.2329 H              1 S1                 0.0000
     48 ****         2.8487  -1.9711   0.7231 H              1 S1                 0.0000
     49 ****        -2.5676   0.3276  -0.9058 LP             1 S1                 0.0000
     50 ****        -1.1344  -0.3510  -1.6026 LP             1 S1                 0.0000
     51 ****        -3.1576   3.4716  -3.2107 LP             1 S1                 0.0000
@<TRIPOS>BOND
    1    1    2 1     
    2    1   25 1     
    3    1   26 1     
    4    1   27 1     
    5    2   24 ar    
    6    2    3 ar    
    7    3    4 ar    
    8    3   28 1     
    9    4    5 ar    
   10    4   29 1     
   11    5    6 1     
   12    5   23 ar    
   13    6    7 1     
   14    6   30 1     
   15    6   31 1     
   16    7    8 1     
   17    7   32 1     
   18    7   33 1     
   19    8    9 am    
   20    8   34 1     
   21    9   10 2     
   22    9   11 am    
   23   11   22 1     
   24   11   12 1     
   25   12   13 1     
   26   12   35 1     
   27   12   36 1     
   28   13   14 1     
   29   13   37 1     
   30   13   38 1     
   31   14   15 1     
   32   14   21 1     
   33   14   48 1     
   34   15   16 1     
   35   15   17 1     
   36   15   39 1     
   37   16   40 1     
   38   16   41 1     
   39   16   42 1     
   40   17   18 1     
   41   17   19 1     
   42   17   20 1     
   43   21   22 1     
   44   21   43 1     
   45   21   44 1     
   46   22   45 1     
   47   22   46 1     
   48   23   24 ar    
   49   23   47 1     
   50   10   49 1     
   51   10   50 1     
   52   24   51 1     
@<TRIPOS>SUBSTRUCTURE
      1 S1             1
@<TRIPOS>SET
LONE_PAIRS      STATIC     ATOMS    <user>   **** ""
3 49 50 51
DONOR_HYDROGENS      STATIC     ATOMS    <user>   **** ""
2 34 48
ATOM$BLUE        STATIC     ATOMS    COLORGROUP SYSTEM
3 49 50 51
ATOM$RED        STATIC     ATOMS    COLORGROUP SYSTEM
2 34 48
