AV-unprocessed.smi:218|AV-procd|sdf|1676|dock5
  -GOLD-   2262020103D 1   1.00000     0.00000
 Structure written by MMmdl.
 54 57  0  0  0  0  0  0  0  0  1 V2000
  156.9990  129.6464  154.8898 C   0  0  0  0  0  0  0  0  0  0  0  0
  156.0540  130.4152  153.9584 C   0  0  0  0  0  0  0  0  0  0  0  0
  156.6637  131.7637  153.5374 C   0  0  0  0  0  0  0  0  0  0  0  0
  154.8388  130.6250  154.6806 O   0  0  0  0  0  0  0  0  0  0  0  0
  154.2464  129.5788  155.3616 C   0  0  0  0  0  0  0  0  0  0  0  0
  153.0539  129.0341  154.8428 C   0  0  0  0  0  0  0  0  0  0  0  0
  152.4400  127.9635  155.5240 C   0  0  0  0  0  0  0  0  0  0  0  0
  151.1621  127.3432  154.9969 C   0  0  0  0  0  0  0  0  0  0  0  0
  150.6370  128.0293  153.8241 N   0  0  0  0  0  0  0  0  0  0  0  0
  149.8828  129.1394  153.9706 C   0  0  0  0  0  0  0  0  0  0  0  0
  150.2274  130.1071  154.8596 N   0  0  0  0  0  0  0  0  0  0  0  0
  149.4655  131.1974  154.9867 C   0  0  0  0  0  0  0  0  0  0  0  0
  148.3434  131.5106  154.3356 N   0  0  0  0  0  0  0  0  0  0  0  0
  147.9922  130.5434  153.4395 C   0  0  0  0  0  0  0  0  0  0  0  0
  148.7056  129.3349  153.2028 C   0  0  0  0  0  0  0  0  0  0  0  0
  148.0568  128.5874  152.2292 N   0  0  0  0  0  0  0  0  0  0  0  0
  147.0214  129.3162  151.9104 C   0  0  0  0  0  0  0  0  0  0  0  0
  146.9026  130.5085  152.5899 N   0  0  0  0  0  0  0  0  0  0  0  0
  145.8212  131.5355  152.4282 C   0  0  2  0  0  0  0  0  0  0  0  0
  145.0387  131.2205  151.3132 O   0  0  0  0  0  0  0  0  0  0  0  0
  145.0755  132.2804  150.3569 C   0  0  1  0  0  0  0  0  0  0  0  0
  143.7345  132.3542  149.6104 C   0  0  0  0  0  0  0  0  0  0  0  0
  142.6980  132.6946  150.5059 O   0  0  0  0  0  0  0  0  0  0  0  0
  145.3610  133.5082  151.2234 C   0  0  2  0  0  0  0  0  0  0  0  0
  145.8612  134.6109  150.4917 O   0  0  0  0  0  0  0  0  0  0  0  0
  146.3598  132.9657  152.2348 C   0  0  2  0  0  0  0  0  0  0  0  0
  147.6970  133.0112  151.7591 O   0  0  0  0  0  0  0  0  0  0  0  0
  153.0400  127.4836  156.7062 C   0  0  0  0  0  0  0  0  0  0  0  0
  154.2282  128.0948  157.1499 C   0  0  0  0  0  0  0  0  0  0  0  0
  154.8230  129.1169  156.4992 N   0  0  0  0  0  0  0  0  0  0  0  0
  145.2083  131.4338  153.3247 H   0  0  0  0  0  0  0  0  0  0  0  0
  145.9036  132.1242  149.6636 H   0  0  0  0  0  0  0  0  0  0  0  0
  144.4495  133.8097  151.7421 H   0  0  0  0  0  0  0  0  0  0  0  0
  146.3134  133.5059  153.1809 H   0  0  0  0  0  0  0  0  0  0  0  0
  157.9497  129.4358  154.3993 H   0  0  0  0  0  0  0  0  0  0  0  0
  156.5620  128.6929  155.1877 H   0  0  0  0  0  0  0  0  0  0  0  0
  157.2088  130.2139  155.7970 H   0  0  0  0  0  0  0  0  0  0  0  0
  155.8876  129.7897  153.0800 H   0  0  0  0  0  0  0  0  0  0  0  0
  157.6138  131.6187  153.0230 H   0  0  0  0  0  0  0  0  0  0  0  0
  156.8478  132.3985  154.4044 H   0  0  0  0  0  0  0  0  0  0  0  0
  156.0081  132.3116  152.8611 H   0  0  0  0  0  0  0  0  0  0  0  0
  152.6242  129.4307  153.9345 H   0  0  0  0  0  0  0  0  0  0  0  0
  151.3651  126.3009  154.7476 H   0  0  0  0  0  0  0  0  0  0  0  0
  150.4066  127.3455  155.7840 H   0  0  0  0  0  0  0  0  0  0  0  0
  150.9016  127.6466  152.9278 H   0  0  0  0  0  0  0  0  0  0  0  0
  149.8021  131.9229  155.7125 H   0  0  0  0  0  0  0  0  0  0  0  0
  146.3074  129.0000  151.1637 H   0  0  0  0  0  0  0  0  0  0  0  0
  143.7770  133.0682  148.7875 H   0  0  0  0  0  0  0  0  0  0  0  0
  143.4888  131.3817  149.1831 H   0  0  0  0  0  0  0  0  0  0  0  0
  142.2267  133.4344  150.1540 H   0  0  0  0  0  0  0  0  0  0  0  0
  145.8160  134.3985  149.5713 H   0  0  0  0  0  0  0  0  0  0  0  0
  147.7990  132.3510  151.0907 H   0  0  0  0  0  0  0  0  0  0  0  0
  152.6011  126.6681  157.2623 H   0  0  0  0  0  0  0  0  0  0  0  0
  154.7147  127.7533  158.0516 H   0  0  0  0  0  0  0  0  0  0  0  0
  1  2  1  0  0  0  0
  1 35  1  0  0  0  0
  1 36  1  0  0  0  0
  1 37  1  0  0  0  0
  2  3  1  0  0  0  0
  2  4  1  0  0  0  0
  2 38  1  0  0  0  0
  3 39  1  0  0  0  0
  3 40  1  0  0  0  0
  3 41  1  0  0  0  0
  4  5  1  0  0  0  0
  5 30  1  0  0  0  0
  5  6  2  0  0  0  0
  6  7  1  0  0  0  0
  6 42  1  0  0  0  0
  7  8  1  0  0  0  0
  7 28  2  0  0  0  0
  8  9  1  0  0  0  0
  8 43  1  0  0  0  0
  8 44  1  0  0  0  0
  9 10  1  0  0  0  0
  9 45  1  0  0  0  0
 10 15  1  0  0  0  0
 10 11  2  0  0  0  0
 11 12  1  0  0  0  0
 12 13  2  0  0  0  0
 12 46  1  0  0  0  0
 13 14  1  0  0  0  0
 14 18  1  0  0  0  0
 14 15  2  0  0  0  0
 15 16  1  0  0  0  0
 16 17  2  0  0  0  0
 17 18  1  0  0  0  0
 17 47  1  0  0  0  0
 18 19  1  0  0  0  0
 19 31  1  0  0  0  0
 19 26  1  0  0  0  0
 19 20  1  0  0  0  0
 20 21  1  0  0  0  0
 21 32  1  0  0  0  0
 21 22  1  0  0  0  0
 21 24  1  0  0  0  0
 22 23  1  0  0  0  0
 22 48  1  0  0  0  0
 22 49  1  0  0  0  0
 23 50  1  0  0  0  0
 24 33  1  0  0  0  0
 24 25  1  0  0  0  0
 24 26  1  0  0  0  0
 25 51  1  0  0  0  0
 26 34  1  0  0  0  0
 26 27  1  0  0  0  0
 27 52  1  0  0  0  0
 28 29  1  0  0  0  0
 28 53  1  0  0  0  0
 29 30  2  0  0  0  0
 29 54  1  0  0  0  0
M  END
> <s_m_source_file>
AV-unprocessed.smi

> <i_m_source_file_index>
218

> <i_lp_mmshare_version>
43012

> <i_f3d_flags>
0

> <s_epik_input>
W0NIM11bQ0hdKFtDSDNdKU9jMVtjSF1jKFtjSF1bY0hdbjEpW0NIMl1bTkhdYyhuW2NIXW4yKWMoYzIzKW5bY0hdbjNbQ0BASF00T1tDQEhdKFtDSDJdW09IXSlbQ0BASF0oW09IXSlbQ0BIXTRbT0hd

> <s_epik_cmdline>
J2VwaWtfcHl0aG9uJywgJy1waCcsICc3LjAnLCAnLXRuJywgJzgnLCAnLW1hJywgJzIwMCcsICctbWV0YWxfYmluZGluZycsICctaW1hZScsICc8aW5maWxlLm1hZT4nLCAnLW9tYWUnLCAnPG91dGZpbGUubWFlPic=

> <r_lp_tautomer_probability>
1

> <r_epik_Ionization_Penalty>
0.00457014

> <r_epik_Ionization_Penalty_Charging>
0

> <r_epik_Ionization_Penalty_Neutral>
0.00457014

> <r_epik_State_Penalty>
-0

> <r_epik_Charging_Adjusted_Penalty>
0

> <i_epik_Tot_Q>
0

> <i_epik_Tot_abs_Q>
0

> <r_epik_Metal_State_Penalty>
-0

> <b_epik_Metal_Only>
0

> <s_epik_Chemistry_Notes>
This compound contains an acetal/aminal-like group ( X-CH(R)-Y where X, Y are N, S, or O) that may be acid/base labile, releasing an aldehyde.

> <s_lp_Force_Field>
OPLS_2005

> <r_lp_Energy>
48.139

> <b_lp_Chiralities_Consistent>
1

> <s_lp_Variant>
AV-unprocessed.smi:218-15

> <Gold.Version>
5.8.1

> <Gold.Id.Protein>
6NUR|6NUR_protein|mol2

> <Gold.PLP.Fitness>
51.9126

> <Gold.PLP.PLP>
-42.2532

> <Gold.PLP.part.hbond>
-4.6374

> <Gold.PLP.part.metal>
0.0000

> <Gold.PLP.part.buried>
-4.4293

> <Gold.PLP.part.nonpolar>
-32.3967

> <Gold.PLP.part.repulsive>
0.4182

> <Gold.PLP.ligand.clash>
0.0000

> <Gold.PLP.ligand.torsion>
0.9528

> <Gold.PLP.Chemscore.Hbond>
3.8000

> <Gold.PLP.Chemscore.CHOScore>
0.0000

> <Gold.PLP.Chemscore.Metal>
0.0000

> <Gold.Chemscore.Hbonds>
donor molecule, donor type, donor heavy atom, donor atom, acceptor molecule, acceptor atom, score
      L1  H     9    45       P1 10737  0.88
      L1  H    23    50       P1 10186  1.00
      L1  H    25    51       P1  7921  1.00
      L1  H    27    52       P1 10747  0.86

> <Gold.PLP.Chemscore.Internal.Correction>
0.1650

> <Gold.Rescore>
     Score         DG    S(hbond)    S(metal)    S(lipo)     H(rot)  DE(clash)    DE(int)     intcor
      8.20     -11.75       3.30        0.00      66.79       4.90       0.51       3.05       ----

> <Gold.Chemscore.Fitness>
8.1986

> <Gold.Chemscore.DG>
-11.7549

> <Gold.Chemscore.ZeroCoef>
-5.4800

> <Gold.Chemscore.Hbond>
3.2969

> <Gold.Chemscore.Metal>
0.0000

> <Gold.Chemscore.Lipo>
66.7929

> <Gold.Chemscore.Internal_Hbond>
0.0000

> <Gold.Chemscore.DEClash>
0.5059

> <Gold.Chemscore.DEInternal>
3.0504

> <Gold.Chemscore.Rot>
4.9029

> <Gold.Chemscore.Internal.Correction>
   9.000000E+99

> <Gold.Chemscore.Hbonds>
donor molecule, donor type, donor heavy atom, donor atom, acceptor molecule, acceptor atom, score
      L1  H     9    45       P1 10737  0.86
      L1  H    23    50       P1 10186  1.00
      L1  H    25    51       P1  7921  0.60
      L1  H    27    52       P1 10747  0.81

> <Gold.Chemscore.Hbond.Weighted>
-11.0117

> <Gold.Chemscore.Metal.Weighted>
-0.0000

> <Gold.Chemscore.Lipo.Weighted>
-7.8148

> <Gold.Chemscore.Internal_Hbond.Weighted>
0.0000

> <Gold.Chemscore.DEClash.Weighted>
0.5059

> <Gold.Chemscore.DEInternal.Weighted>
3.0504

> <Gold.Chemscore.Rot.Weighted>
12.5515

> <Gold.Chemscore.Internal.Correction.Weighted>
   9.000000E+99

> <Gold.Protein.RotatedTorsions>
[ 6907 6896 6895 6894 ] final -104.39 input  -60.11 | X-H torsion
[ 7974 7965 7964 7962 ] final -149.59 input  175.53 | X-H torsion
[ 8008 7997 7996 7995 ] final  120.28 input   59.86 | X-H torsion
[ 10167 10162 10161 10158 ] final   98.18 input  -65.29 | X-H torsion
[ 10718 10713 10712 10709 ] final    2.75 input   66.30 | X-H torsion
[ 10763 10752 10751 10750 ] final -129.95 input  -60.55 | X-H torsion
[ 11005 11000 10999 10996 ] final -167.59 input  -57.11 | X-H torsion

> <Gold.Protein.ActiveResidues>
 VAL166  LYS551  ARG553  GLY616  TRP617  ASP618  TYR619  PRO620  LYS621  CYS622 
 ASP623  PHE694  ASN695  SER759  ASP760  ASP761  ALA762  ILE779  LEU786  VAL792 
 PHE793  MET794  SER795  GLU796  ALA797  LYS798  CYS799  TRP800  GLU811  SER814 

> <Gold.Protein.RotatedAtoms>
  150.7285  134.0284  159.3724 H   0  0  0  0  0  0  0  0  0  0  0  0  # atno 6907 bound_to 6896
  151.8253  135.0637  160.0439 H   0  0  0  0  0  0  0  0  0  0  0  0  # atno 6908 bound_to 6896
  152.2974  133.5585  159.5632 H   0  0  0  0  0  0  0  0  0  0  0  0  # atno 6909 bound_to 6896
  144.7958  140.5045  143.5741 H   0  0  0  0  0  0  0  0  0  0  0  0  # atno 7974 bound_to 7965
  156.2635  140.2834  156.1124 H   0  0  0  0  0  0  0  0  0  0  0  0  # atno 8008 bound_to 7997
  155.1243  140.0393  157.2776 H   0  0  0  0  0  0  0  0  0  0  0  0  # atno 8009 bound_to 7997
  154.6647  140.2574  155.7077 H   0  0  0  0  0  0  0  0  0  0  0  0  # atno 8010 bound_to 7997
  139.7732  144.6915  151.0126 H   0  0  0  0  0  0  0  0  0  0  0  0  # atno 10167 bound_to 10162
  156.8676  130.5609  149.5659 H   0  0  0  0  0  0  0  0  0  0  0  0  # atno 10718 bound_to 10713
  154.8756  135.3878  154.4004 H   0  0  0  0  0  0  0  0  0  0  0  0  # atno 10763 bound_to 10752
  153.4729  135.7030  153.5988 H   0  0  0  0  0  0  0  0  0  0  0  0  # atno 10764 bound_to 10752
  153.4437  135.3850  155.2211 H   0  0  0  0  0  0  0  0  0  0  0  0  # atno 10765 bound_to 10752
  140.5516  134.5423  157.5123 H   0  0  0  0  0  0  0  0  0  0  0  0  # atno 11005 bound_to 11000
  145.5676  139.1482  143.3306 LP  0  0  0  0  0  0  0  0  0  0  0  0  # atno 17320 bound_to 7965
  146.2226  140.5810  142.9010 LP  0  0  0  0  0  0  0  0  0  0  0  0  # atno 17321 bound_to 7965
  140.7815  143.4565  151.0338 LP  0  0  0  0  0  0  0  0  0  0  0  0  # atno 17342 bound_to 10162
  139.8248  143.7771  152.3178 LP  0  0  0  0  0  0  0  0  0  0  0  0  # atno 17343 bound_to 10162
  156.0743  130.5769  150.9444 LP  0  0  0  0  0  0  0  0  0  0  0  0  # atno 17370 bound_to 10713
  157.6214  131.0929  150.8615 LP  0  0  0  0  0  0  0  0  0  0  0  0  # atno 17371 bound_to 10713
  139.9452  134.7714  156.0579 LP  0  0  0  0  0  0  0  0  0  0  0  0  # atno 17394 bound_to 11000
  141.1168  133.6625  156.3114 LP  0  0  0  0  0  0  0  0  0  0  0  0  # atno 17395 bound_to 11000

$$$$
