AV-unprocessed.smi:3132|AV-procd|sdf|11933|dock1
  -GOLD-   2272017323D 1   1.00000     0.00000
 Structure written by MMmdl.
 33 34  0  0  0  0  0  0  0  0  1 V2000
  151.6151  139.9894  155.4849 C   0  0  0  0  0  0  0  0  0  0  0  0
  150.7534  140.9129  156.3565 C   0  0  2  0  0  0  0  0  0  0  0  0
  149.9624  141.9218  155.4976 C   0  0  0  0  0  0  0  0  0  0  0  0
  148.8864  141.2967  154.7498 N   0  0  0  0  0  0  0  0  0  0  0  0
  147.7439  141.9097  154.2512 C   0  0  0  0  0  0  0  0  0  0  0  0
  147.0099  140.9255  153.6290 C   0  0  0  0  0  0  0  0  0  0  0  0
  147.6805  139.7085  153.7256 N   0  0  0  0  0  0  0  0  0  0  0  0
  148.7824  140.0070  154.4015 C   0  0  0  0  0  0  0  0  0  0  0  0
  151.6167  141.6126  157.3067 N   0  0  0  0  0  0  0  0  0  0  0  0
  151.2041  142.4385  158.2813 C   0  0  0  0  0  0  0  0  0  0  0  0
  150.0176  142.6693  158.5173 O   0  0  0  0  0  0  0  0  0  0  0  0
  152.3084  143.1372  159.0818 C   0  0  2  0  0  0  0  0  0  0  0  0
  153.1445  142.1945  159.9671 C   0  0  0  0  0  0  0  0  0  0  0  0
  152.6654  142.5078  161.3702 C   0  0  0  0  0  0  0  0  0  0  0  0
  152.2990  143.9798  161.2480 C   0  0  0  0  0  0  0  0  0  0  0  0
  151.6827  144.0608  159.9720 O   0  0  0  0  0  0  0  0  0  0  0  0
  151.0004  139.4340  154.7759 H   0  0  0  0  0  0  0  0  0  0  0  0
  152.1509  139.2612  156.0949 H   0  0  0  0  0  0  0  0  0  0  0  0
  152.3527  140.5543  154.9141 H   0  0  0  0  0  0  0  0  0  0  0  0
  150.0445  140.2790  156.8927 H   0  0  0  0  0  0  0  0  0  0  0  0
  149.5431  142.7126  156.1214 H   0  0  0  0  0  0  0  0  0  0  0  0
  150.6270  142.4083  154.7827 H   0  0  0  0  0  0  0  0  0  0  0  0
  147.5484  142.9634  154.3850 H   0  0  0  0  0  0  0  0  0  0  0  0
  146.0583  140.9991  153.1238 H   0  0  0  0  0  0  0  0  0  0  0  0
  149.5294  139.2689  154.6548 H   0  0  0  0  0  0  0  0  0  0  0  0
  152.6120  141.4930  157.1859 H   0  0  0  0  0  0  0  0  0  0  0  0
  152.9676  143.6834  158.4048 H   0  0  0  0  0  0  0  0  0  0  0  0
  153.0398  141.1368  159.7217 H   0  0  0  0  0  0  0  0  0  0  0  0
  154.2016  142.4459  159.8718 H   0  0  0  0  0  0  0  0  0  0  0  0
  151.7782  141.9186  161.6062 H   0  0  0  0  0  0  0  0  0  0  0  0
  153.4198  142.3167  162.1337 H   0  0  0  0  0  0  0  0  0  0  0  0
  151.6294  144.3163  162.0395 H   0  0  0  0  0  0  0  0  0  0  0  0
  153.1926  144.6052  161.2603 H   0  0  0  0  0  0  0  0  0  0  0  0
  1  2  1  0  0  0  0
  1 17  1  0  0  0  0
  1 18  1  0  0  0  0
  1 19  1  0  0  0  0
  2  3  1  0  0  0  0
  2  9  1  0  0  0  0
  2 20  1  0  0  0  0
  3  4  1  0  0  0  0
  3 21  1  0  0  0  0
  3 22  1  0  0  0  0
  4  8  1  0  0  0  0
  4  5  1  0  0  0  0
  5  6  2  0  0  0  0
  5 23  1  0  0  0  0
  6  7  1  0  0  0  0
  6 24  1  0  0  0  0
  7  8  2  0  0  0  0
  8 25  1  0  0  0  0
  9 10  1  0  0  0  0
  9 26  1  0  0  0  0
 10 11  2  0  0  0  0
 10 12  1  0  0  0  0
 12 16  1  0  0  0  0
 12 13  1  0  0  0  0
 12 27  1  0  0  0  0
 13 14  1  0  0  0  0
 13 28  1  0  0  0  0
 13 29  1  0  0  0  0
 14 15  1  0  0  0  0
 14 30  1  0  0  0  0
 14 31  1  0  0  0  0
 15 16  1  0  0  0  0
 15 32  1  0  0  0  0
 15 33  1  0  0  0  0
M  END
> <s_m_source_file>
AV-unprocessed.smi

> <i_m_source_file_index>
3132

> <i_lp_mmshare_version>
43012

> <i_f3d_flags>
0

> <s_epik_input>
W2NIXTFuW2NIXVtjSF1uMVtDSDJdW0NAQEhdKFtDSDNdKVtOSF1DKD1PKVtDQEBIXTJbQ0gyXVtDSDJdW0NIMl1PMg==

> <s_epik_cmdline>
J2VwaWtfcHl0aG9uJywgJy1waCcsICc3LjAnLCAnLXRuJywgJzgnLCAnLW1hJywgJzIwMCcsICctbWV0YWxfYmluZGluZycsICctaW1hZScsICc8aW5maWxlLm1hZT4nLCAnLW9tYWUnLCAnPG91dGZpbGUubWFlPic=

> <r_lp_tautomer_probability>
1

> <r_epik_Ionization_Penalty>
0.630322

> <r_epik_Ionization_Penalty_Charging>
0.630322

> <r_epik_Ionization_Penalty_Neutral>
3.82652e-08

> <r_epik_State_Penalty>
0.647117

> <r_epik_Charging_Adjusted_Penalty>
1.27744

> <i_epik_Tot_Q>
0

> <i_epik_Tot_abs_Q>
0

> <r_epik_Metal_State_Penalty>
0.309095

> <b_epik_Metal_Only>
0

> <s_lp_Force_Field>
OPLS_2005

> <r_lp_Energy>
19.5701

> <b_lp_Chiralities_Consistent>
1

> <s_lp_Variant>
AV-unprocessed.smi:3132-5

> <Gold.Version>
5.8.1

> <Gold.Id.Protein>
6NUR|6NUR_protein|mol2

> <Gold.PLP.Fitness>
41.3347

> <Gold.PLP.PLP>
-36.5826

> <Gold.PLP.part.hbond>
0.0000

> <Gold.PLP.part.metal>
0.0000

> <Gold.PLP.part.buried>
-3.0943

> <Gold.PLP.part.nonpolar>
-33.3822

> <Gold.PLP.part.repulsive>
0.4346

> <Gold.PLP.ligand.clash>
0.0000

> <Gold.PLP.ligand.torsion>
0.4784

> <Gold.PLP.Chemscore.Hbond>
0.0000

> <Gold.PLP.Chemscore.CHOScore>
1.8719

> <Gold.PLP.Chemscore.Metal>
0.0000

> <Gold.Chemscore.Hbonds>
donor molecule, donor type, donor heavy atom, donor atom, acceptor molecule, acceptor atom, score
      L1  C     5    23       P1  8028  1.00
      L1  C     6    24       P1 10175  1.00

> <Gold.PLP.Chemscore.Internal.Correction>
0.0930

> <Gold.Rescore>
     Score         DG    S(hbond)    S(metal)    S(lipo)     H(rot)  DE(clash)    DE(int)     intcor
     10.00     -10.45       0.00        0.00      83.23       1.86       0.02       0.43       ----

> <Gold.Chemscore.Fitness>
9.9968

> <Gold.Chemscore.DG>
-10.4467

> <Gold.Chemscore.ZeroCoef>
-5.4800

> <Gold.Chemscore.Hbond>
0.0000

> <Gold.Chemscore.Metal>
0.0000

> <Gold.Chemscore.Lipo>
83.2267

> <Gold.Chemscore.Internal_Hbond>
0.0000

> <Gold.Chemscore.DEClash>
0.0174

> <Gold.Chemscore.DEInternal>
0.4325

> <Gold.Chemscore.Rot>
1.8636

> <Gold.Chemscore.Internal.Correction>
   9.000000E+99

> <Gold.Chemscore.Hbond.Weighted>
-0.0000

> <Gold.Chemscore.Metal.Weighted>
-0.0000

> <Gold.Chemscore.Lipo.Weighted>
-9.7375

> <Gold.Chemscore.Internal_Hbond.Weighted>
0.0000

> <Gold.Chemscore.DEClash.Weighted>
0.0174

> <Gold.Chemscore.DEInternal.Weighted>
0.4325

> <Gold.Chemscore.Rot.Weighted>
4.7709

> <Gold.Chemscore.Internal.Correction.Weighted>
   9.000000E+99

> <Gold.Protein.RotatedTorsions>
[ 6907 6896 6895 6894 ] final   40.60 input  -60.11 | X-H torsion
[ 7974 7965 7964 7962 ] final -151.61 input  175.53 | X-H torsion
[ 8008 7997 7996 7995 ] final  100.81 input   59.86 | X-H torsion
[ 10167 10162 10161 10158 ] final   38.48 input  -65.29 | X-H torsion
[ 10718 10713 10712 10709 ] final  -45.21 input   66.30 | X-H torsion
[ 10763 10752 10751 10750 ] final  131.86 input  -60.55 | X-H torsion
[ 11005 11000 10999 10996 ] final -161.33 input  -57.11 | X-H torsion

> <Gold.Protein.ActiveResidues>
 VAL166  LYS551  ARG553  GLY616  TRP617  ASP618  TYR619  PRO620  LYS621  CYS622 
 ASP623  PHE694  ASN695  SER759  ASP760  ASP761  ALA762  ILE779  LEU786  VAL792 
 PHE793  MET794  SER795  GLU796  ALA797  LYS798  CYS799  TRP800  GLU811  SER814 

> <Gold.Protein.RotatedAtoms>
  152.1846  134.8724  160.0523 H   0  0  0  0  0  0  0  0  0  0  0  0  # atno 6907 bound_to 6896
  151.9636  133.3698  159.4052 H   0  0  0  0  0  0  0  0  0  0  0  0  # atno 6908 bound_to 6896
  150.6924  134.4138  159.5218 H   0  0  0  0  0  0  0  0  0  0  0  0  # atno 6909 bound_to 6896
  144.7840  140.4774  143.5819 H   0  0  0  0  0  0  0  0  0  0  0  0  # atno 7974 bound_to 7965
  156.1239  140.3207  155.8249 H   0  0  0  0  0  0  0  0  0  0  0  0  # atno 8008 bound_to 7997
  155.4454  140.0528  157.3023 H   0  0  0  0  0  0  0  0  0  0  0  0  # atno 8009 bound_to 7997
  154.4848  140.2068  155.9694 H   0  0  0  0  0  0  0  0  0  0  0  0  # atno 8010 bound_to 7997
  140.3933  144.1823  150.6131 H   0  0  0  0  0  0  0  0  0  0  0  0  # atno 10167 bound_to 10162
  156.2307  130.4172  149.8879 H   0  0  0  0  0  0  0  0  0  0  0  0  # atno 10718 bound_to 10713
  153.7813  135.3168  155.3366 H   0  0  0  0  0  0  0  0  0  0  0  0  # atno 10763 bound_to 10752
  154.8160  135.4635  154.0649 H   0  0  0  0  0  0  0  0  0  0  0  0  # atno 10764 bound_to 10752
  153.1938  135.6912  153.8404 H   0  0  0  0  0  0  0  0  0  0  0  0  # atno 10765 bound_to 10752
  140.6216  134.4745  157.5224 H   0  0  0  0  0  0  0  0  0  0  0  0  # atno 11005 bound_to 11000
  145.5972  139.1500  143.3149 LP  0  0  0  0  0  0  0  0  0  0  0  0  # atno 17320 bound_to 7965
  146.2063  140.6095  142.9080 LP  0  0  0  0  0  0  0  0  0  0  0  0  # atno 17321 bound_to 7965
  140.4817  143.2377  151.8945 LP  0  0  0  0  0  0  0  0  0  0  0  0  # atno 17342 bound_to 10162
  139.4788  144.5262  151.8732 LP  0  0  0  0  0  0  0  0  0  0  0  0  # atno 17343 bound_to 10162
  156.6494  130.8737  151.3528 LP  0  0  0  0  0  0  0  0  0  0  0  0  # atno 17370 bound_to 10713
  157.7131  130.9464  150.1160 LP  0  0  0  0  0  0  0  0  0  0  0  0  # atno 17371 bound_to 10713
  139.9151  134.8263  156.1393 LP  0  0  0  0  0  0  0  0  0  0  0  0  # atno 17394 bound_to 11000
  141.0738  133.6784  156.2195 LP  0  0  0  0  0  0  0  0  0  0  0  0  # atno 17395 bound_to 11000

$$$$
