AV-unprocessed.smi:3349|AV-procd|sdf|12935|dock10
  -GOLD-   2272019363D 1   1.00000     0.00000
 Structure written by MMmdl.
 41 42  0  0  0  0  0  0  0  0  2 V2000
  147.0823  132.8292  154.7156 C   0  0  0  0  0  0  0  0  0  0  0  0
  147.9733  133.8674  153.9900 C   0  0  2  0  0  0  0  0  0  0  0  0
  148.7311  134.7544  155.0182 C   0  0  0  0  0  0  0  0  0  0  0  0
  149.4247  135.8857  154.4064 N   0  0  0  0  0  0  0  0  0  0  0  0
  149.9057  136.9547  155.0627 C   0  0  0  0  0  0  0  0  0  0  0  0
  149.8363  137.0783  156.2859 O   0  0  0  0  0  0  0  0  0  0  0  0
  150.5743  138.0372  154.1991 C   0  0  2  0  0  0  0  0  0  0  0  0
  152.0820  138.1879  154.4878 C   0  0  0  0  0  0  0  0  0  0  0  0
  149.8613  139.3020  154.3300 N   0  0  0  0  0  0  0  0  0  0  0  0
  148.5636  139.5753  154.1786 C   0  0  0  0  0  0  0  0  0  0  0  0
  148.2468  140.8394  154.4207 N   0  0  0  0  0  0  0  0  0  0  0  0
  149.4811  141.3249  154.7473 C   0  0  0  0  0  0  0  0  0  0  0  0
  150.4811  140.4443  154.7190 N   0  0  0  0  0  0  0  0  0  0  0  0
  147.1745  134.6798  153.0102 N   0  3  0  0  0  0  0  0  0  0  0  0
  146.4347  133.8706  151.9999 C   0  0  0  0  0  0  0  0  0  0  0  0
  145.6350  134.7602  151.0326 C   0  0  0  0  0  0  0  0  0  0  0  0
  144.7452  135.5882  151.7634 O   0  0  0  0  0  0  0  0  0  0  0  0
  145.4536  136.4605  152.6284 C   0  0  0  0  0  0  0  0  0  0  0  0
  146.2377  135.6376  153.6637 C   0  0  0  0  0  0  0  0  0  0  0  0
  147.6438  132.2452  155.4434 H   0  0  0  0  0  0  0  0  0  0  0  0
  146.6569  132.0915  154.0380 H   0  0  0  0  0  0  0  0  0  0  0  0
  146.2628  133.3143  155.2469 H   0  0  0  0  0  0  0  0  0  0  0  0
  148.7251  133.3186  153.4203 H   0  0  0  0  0  0  0  0  0  0  0  0
  148.0358  135.2114  155.7208 H   0  0  0  0  0  0  0  0  0  0  0  0
  149.4153  134.1455  155.6118 H   0  0  0  0  0  0  0  0  0  0  0  0
  149.5287  135.8648  153.4021 H   0  0  0  0  0  0  0  0  0  0  0  0
  150.4777  137.7222  153.1588 H   0  0  0  0  0  0  0  0  0  0  0  0
  152.6082  137.2450  154.3347 H   0  0  0  0  0  0  0  0  0  0  0  0
  152.2737  138.5105  155.5121 H   0  0  0  0  0  0  0  0  0  0  0  0
  152.5326  138.9236  153.8213 H   0  0  0  0  0  0  0  0  0  0  0  0
  147.8340  138.8328  153.8900 H   0  0  0  0  0  0  0  0  0  0  0  0
  149.6461  142.3566  155.0209 H   0  0  0  0  0  0  0  0  0  0  0  0
  147.1202  133.2820  151.3923 H   0  0  0  0  0  0  0  0  0  0  0  0
  145.7652  133.1746  152.5077 H   0  0  0  0  0  0  0  0  0  0  0  0
  146.3022  135.3697  150.4207 H   0  0  0  0  0  0  0  0  0  0  0  0
  145.0558  134.1410  150.3476 H   0  0  0  0  0  0  0  0  0  0  0  0
  146.1204  137.1059  152.0541 H   0  0  0  0  0  0  0  0  0  0  0  0
  144.7390  137.1115  153.1322 H   0  0  0  0  0  0  0  0  0  0  0  0
  145.5446  135.0905  154.3044 H   0  0  0  0  0  0  0  0  0  0  0  0
  146.7715  136.3440  154.2959 H   0  0  0  0  0  0  0  0  0  0  0  0
  147.8396  135.2357  152.4911 H   0  0  0  0  0  0  0  0  0  0  0  0
  1  2  1  0  0  0  0
  1 20  1  0  0  0  0
  1 21  1  0  0  0  0
  1 22  1  0  0  0  0
  2  3  1  0  0  0  0
  2 14  1  0  0  0  0
  2 23  1  0  0  0  0
  3  4  1  0  0  0  0
  3 24  1  0  0  0  0
  3 25  1  0  0  0  0
  4  5  1  0  0  0  0
  4 26  1  0  0  0  0
  5  6  2  0  0  0  0
  5  7  1  0  0  0  0
  7  8  1  0  0  0  0
  7  9  1  0  0  0  0
  7 27  1  0  0  0  0
  8 28  1  0  0  0  0
  8 29  1  0  0  0  0
  8 30  1  0  0  0  0
  9 13  1  0  0  0  0
  9 10  1  0  0  0  0
 10 11  2  0  0  0  0
 10 31  1  0  0  0  0
 11 12  1  0  0  0  0
 12 13  2  0  0  0  0
 12 32  1  0  0  0  0
 14 19  1  0  0  0  0
 14 15  1  0  0  0  0
 14 41  1  0  0  0  0
 15 16  1  0  0  0  0
 15 33  1  0  0  0  0
 15 34  1  0  0  0  0
 16 17  1  0  0  0  0
 16 35  1  0  0  0  0
 16 36  1  0  0  0  0
 17 18  1  0  0  0  0
 18 19  1  0  0  0  0
 18 37  1  0  0  0  0
 18 38  1  0  0  0  0
 19 39  1  0  0  0  0
 19 40  1  0  0  0  0
M  CHG  1  14   1
M  END
> <s_m_source_file>
AV-unprocessed.smi

> <i_m_source_file_index>
3349

> <i_lp_mmshare_version>
43012

> <i_f3d_flags>
0

> <s_epik_input>
W0NIMl0xW0NIMl1PW0NIMl1bQ0gyXU4xW0NASF0oW0NIM10pW0NIMl1bTkhdQyg9TylbQ0BIXShbQ0gzXSluMltjSF1uW2NIXW4y

> <s_epik_cmdline>
J2VwaWtfcHl0aG9uJywgJy1waCcsICc3LjAnLCAnLXRuJywgJzgnLCAnLW1hJywgJzIwMCcsICctbWV0YWxfYmluZGluZycsICctaW1hZScsICc8aW5maWxlLm1hZT4nLCAnLW9tYWUnLCAnPG91dGZpbGUubWFlPic=

> <r_lp_tautomer_probability>
1

> <r_epik_Ionization_Penalty>
0.71326

> <r_epik_Ionization_Penalty_Charging>
0.713252

> <r_epik_Ionization_Penalty_Neutral>
8.10337e-06

> <r_epik_State_Penalty>
0.737017

> <r_epik_Charging_Adjusted_Penalty>
1.45027

> <i_epik_Tot_Q>
1

> <i_epik_Tot_abs_Q>
1

> <r_epik_Metal_State_Penalty>
0.73702

> <b_epik_Metal_Only>
0

> <s_lp_Force_Field>
OPLS_2005

> <r_lp_Energy>
28.3535

> <b_lp_Chiralities_Consistent>
1

> <s_lp_Variant>
AV-unprocessed.smi:3349-5

> <Gold.Version>
5.8.1

> <Gold.Id.Protein>
6NUR|6NUR_protein|mol2

> <Gold.PLP.Fitness>
42.7120

> <Gold.PLP.PLP>
-28.1121

> <Gold.PLP.part.hbond>
-3.0000

> <Gold.PLP.part.metal>
0.0000

> <Gold.PLP.part.buried>
-4.2282

> <Gold.PLP.part.nonpolar>
-21.6233

> <Gold.PLP.part.repulsive>
0.3936

> <Gold.PLP.ligand.clash>
0.0000

> <Gold.PLP.ligand.torsion>
0.2766

> <Gold.PLP.Chemscore.Hbond>
4.0000

> <Gold.PLP.Chemscore.CHOScore>
1.0000

> <Gold.PLP.Chemscore.Metal>
0.0000

> <Gold.Chemscore.Hbonds>
donor molecule, donor type, donor heavy atom, donor atom, acceptor molecule, acceptor atom, score
      L1  H     4    26       P1  7948  1.00
      L1  H    14    41       P1  7948  2.00
      P1  H  7989  7998       L1    13  1.00
      L1  C    12    32       P1  8028  0.94

> <Gold.PLP.Chemscore.Internal.Correction>
0.1531

> <Gold.Rescore>
     Score         DG    S(hbond)    S(metal)    S(lipo)     H(rot)  DE(clash)    DE(int)     intcor
     12.05     -12.56       2.62        0.00      43.21       2.63       0.04       0.47       ----

> <Gold.Chemscore.Fitness>
12.0463

> <Gold.Chemscore.DG>
-12.5573

> <Gold.Chemscore.ZeroCoef>
-5.4800

> <Gold.Chemscore.Hbond>
2.6234

> <Gold.Chemscore.Metal>
0.0000

> <Gold.Chemscore.Lipo>
43.2099

> <Gold.Chemscore.Internal_Hbond>
0.0000

> <Gold.Chemscore.DEClash>
0.0417

> <Gold.Chemscore.DEInternal>
0.4692

> <Gold.Chemscore.Rot>
2.6329

> <Gold.Chemscore.Internal.Correction>
   9.000000E+99

> <Gold.Chemscore.Hbonds>
donor molecule, donor type, donor heavy atom, donor atom, acceptor molecule, acceptor atom, score
      L1  H     4    26       P1  7948  0.25
      L1  H    14    41       P1  7948  0.97
      P1  H  7989  7998       L1    13  0.47

> <Gold.Chemscore.Hbond.Weighted>
-8.7620

> <Gold.Chemscore.Metal.Weighted>
-0.0000

> <Gold.Chemscore.Lipo.Weighted>
-5.0556

> <Gold.Chemscore.Internal_Hbond.Weighted>
0.0000

> <Gold.Chemscore.DEClash.Weighted>
0.0417

> <Gold.Chemscore.DEInternal.Weighted>
0.4692

> <Gold.Chemscore.Rot.Weighted>
6.7403

> <Gold.Chemscore.Internal.Correction.Weighted>
   9.000000E+99

> <Gold.Protein.RotatedTorsions>
[ 6907 6896 6895 6894 ] final   43.87 input  -60.11 | X-H torsion
[ 7974 7965 7964 7962 ] final -171.41 input  175.53 | X-H torsion
[ 8008 7997 7996 7995 ] final  153.12 input   59.86 | X-H torsion
[ 10167 10162 10161 10158 ] final  -92.40 input  -65.29 | X-H torsion
[ 10718 10713 10712 10709 ] final   51.03 input   66.30 | X-H torsion
[ 10763 10752 10751 10750 ] final   94.63 input  -60.55 | X-H torsion
[ 11005 11000 10999 10996 ] final   83.66 input  -57.11 | X-H torsion

> <Gold.Protein.ActiveResidues>
 VAL166  LYS551  ARG553  GLY616  TRP617  ASP618  TYR619  PRO620  LYS621  CYS622 
 ASP623  PHE694  ASN695  SER759  ASP760  ASP761  ALA762  ILE779  LEU786  VAL792 
 PHE793  MET794  SER795  GLU796  ALA797  LYS798  CYS799  TRP800  GLU811  SER814 

> <Gold.Protein.RotatedAtoms>
  152.2256  134.8371  160.0480 H   0  0  0  0  0  0  0  0  0  0  0  0  # atno 6907 bound_to 6896
  151.9139  133.3563  159.3881 H   0  0  0  0  0  0  0  0  0  0  0  0  # atno 6908 bound_to 6896
  150.7011  134.4629  159.5433 H   0  0  0  0  0  0  0  0  0  0  0  0  # atno 6909 bound_to 6896
  144.7157  140.1926  143.6347 H   0  0  0  0  0  0  0  0  0  0  0  0  # atno 7974 bound_to 7965
  156.2597  140.2002  156.6440 H   0  0  0  0  0  0  0  0  0  0  0  0  # atno 8008 bound_to 7997
  154.6587  140.0563  157.0063 H   0  0  0  0  0  0  0  0  0  0  0  0  # atno 8009 bound_to 7997
  155.1308  140.3233  155.4477 H   0  0  0  0  0  0  0  0  0  0  0  0  # atno 8010 bound_to 7997
  140.3352  143.2973  151.9897 H   0  0  0  0  0  0  0  0  0  0  0  0  # atno 10167 bound_to 10162
  157.4942  130.8395  149.8238 H   0  0  0  0  0  0  0  0  0  0  0  0  # atno 10718 bound_to 10713
  153.2438  135.4283  155.0726 H   0  0  0  0  0  0  0  0  0  0  0  0  # atno 10763 bound_to 10752
  154.8352  135.3409  154.6610 H   0  0  0  0  0  0  0  0  0  0  0  0  # atno 10764 bound_to 10752
  153.7033  135.7027  153.5113 H   0  0  0  0  0  0  0  0  0  0  0  0  # atno 10765 bound_to 10752
  139.9024  134.8160  156.2339 H   0  0  0  0  0  0  0  0  0  0  0  0  # atno 11005 bound_to 11000
  145.8754  139.2294  143.1636 LP  0  0  0  0  0  0  0  0  0  0  0  0  # atno 17320 bound_to 7965
  146.0045  140.8490  143.0002 LP  0  0  0  0  0  0  0  0  0  0  0  0  # atno 17321 bound_to 7965
  139.4849  144.6202  151.7269 LP  0  0  0  0  0  0  0  0  0  0  0  0  # atno 17342 bound_to 10162
  140.5360  144.0654  150.6071 LP  0  0  0  0  0  0  0  0  0  0  0  0  # atno 17343 bound_to 10162
  156.0191  130.3802  150.2018 LP  0  0  0  0  0  0  0  0  0  0  0  0  # atno 17370 bound_to 10713
  157.0207  130.9978  151.3340 LP  0  0  0  0  0  0  0  0  0  0  0  0  # atno 17371 bound_to 10713
  141.0328  133.6979  156.1460 LP  0  0  0  0  0  0  0  0  0  0  0  0  # atno 17394 bound_to 11000
  140.7071  134.4501  157.5583 LP  0  0  0  0  0  0  0  0  0  0  0  0  # atno 17395 bound_to 11000

$$$$
