AV-unprocessed.smi:3014|AV-procd|sdf|11469|dock9
  -GOLD-   2272016403D 1   1.00000     0.00000
 Structure written by MMmdl.
 45 46  0  0  0  0  0  0  0  0  1 V2000
  152.9165  142.7814  162.6158 C   0  0  0  0  0  0  0  0  0  0  0  0
  152.2321  142.9983  161.2586 C   0  0  1  0  0  0  0  0  0  0  0  0
  151.8809  144.4822  161.0385 C   0  0  0  0  0  0  0  0  0  0  0  0
  151.2041  144.7084  159.6777 C   0  0  0  0  0  0  0  0  0  0  0  0
  152.0707  144.1732  158.5257 C   0  0  0  0  0  0  0  0  0  0  0  0
  152.4311  142.6903  158.7234 C   0  0  2  0  0  0  0  0  0  0  0  0
  151.2311  141.9354  158.5993 O   0  0  0  0  0  0  0  0  0  0  0  0
  150.6598  141.9320  157.2964 C   0  0  0  0  0  0  0  0  0  0  0  0
  149.2165  141.4292  157.3671 C   0  0  0  0  0  0  0  0  0  0  0  0
  149.0030  140.2810  157.7561 O   0  0  0  0  0  0  0  0  0  0  0  0
  148.2606  142.2934  156.9752 N   0  0  0  0  0  0  0  0  0  0  0  0
  146.8573  142.0887  156.9264 C   0  0  0  0  0  0  0  0  0  0  0  0
  146.3357  141.1728  157.8652 C   0  0  0  0  0  0  0  0  0  0  0  0
  144.9452  140.9520  157.8415 C   0  0  0  0  0  0  0  0  0  0  0  0
  144.1404  141.5855  156.9645 N   0  0  0  0  0  0  0  0  0  0  0  0
  144.7148  142.4394  156.1085 C   0  0  0  0  0  0  0  0  0  0  0  0
  143.8836  143.1005  155.1996 N   0  0  0  0  0  0  0  0  0  0  0  0
  142.4467  142.8442  155.1635 C   0  0  0  0  0  0  0  0  0  0  0  0
  144.4230  144.0694  154.2496 C   0  0  0  0  0  0  0  0  0  0  0  0
  146.0252  142.7114  156.0563 N   0  0  0  0  0  0  0  0  0  0  0  0
  153.1006  142.4724  160.0979 C   0  0  0  0  0  0  0  0  0  0  0  0
  153.8601  143.3248  162.6766 H   0  0  0  0  0  0  0  0  0  0  0  0
  153.1288  141.7255  162.7849 H   0  0  0  0  0  0  0  0  0  0  0  0
  152.2820  143.1240  163.4337 H   0  0  0  0  0  0  0  0  0  0  0  0
  151.3013  142.4290  161.2677 H   0  0  0  0  0  0  0  0  0  0  0  0
  151.2233  144.8323  161.8350 H   0  0  0  0  0  0  0  0  0  0  0  0
  152.7859  145.0883  161.0979 H   0  0  0  0  0  0  0  0  0  0  0  0
  150.2318  144.2141  159.6668 H   0  0  0  0  0  0  0  0  0  0  0  0
  151.0102  145.7714  159.5325 H   0  0  0  0  0  0  0  0  0  0  0  0
  151.5534  144.3092  157.5755 H   0  0  0  0  0  0  0  0  0  0  0  0
  152.9869  144.7615  158.4625 H   0  0  0  0  0  0  0  0  0  0  0  0
  153.1216  142.4010  157.9294 H   0  0  0  0  0  0  0  0  0  0  0  0
  150.6585  142.9392  156.8777 H   0  0  0  0  0  0  0  0  0  0  0  0
  151.2266  141.2892  156.6228 H   0  0  0  0  0  0  0  0  0  0  0  0
  148.5804  143.2065  156.6863 H   0  0  0  0  0  0  0  0  0  0  0  0
  146.9694  140.6595  158.5738 H   0  0  0  0  0  0  0  0  0  0  0  0
  144.4769  140.2646  158.5302 H   0  0  0  0  0  0  0  0  0  0  0  0
  142.2520  141.7831  155.0037 H   0  0  0  0  0  0  0  0  0  0  0  0
  141.9542  143.3952  154.3623 H   0  0  0  0  0  0  0  0  0  0  0  0
  141.9855  143.1410  156.1060 H   0  0  0  0  0  0  0  0  0  0  0  0
  145.1164  143.5820  153.5634 H   0  0  0  0  0  0  0  0  0  0  0  0
  144.9584  144.8614  154.7742 H   0  0  0  0  0  0  0  0  0  0  0  0
  143.6386  144.5384  153.6557 H   0  0  0  0  0  0  0  0  0  0  0  0
  154.0604  142.9906  160.1068 H   0  0  0  0  0  0  0  0  0  0  0  0
  153.3346  141.4194  160.2514 H   0  0  0  0  0  0  0  0  0  0  0  0
  1  2  1  0  0  0  0
  1 22  1  0  0  0  0
  1 23  1  0  0  0  0
  1 24  1  0  0  0  0
  2 21  1  0  0  0  0
  2  3  1  0  0  0  0
  2 25  1  0  0  0  0
  3  4  1  0  0  0  0
  3 26  1  0  0  0  0
  3 27  1  0  0  0  0
  4  5  1  0  0  0  0
  4 28  1  0  0  0  0
  4 29  1  0  0  0  0
  5  6  1  0  0  0  0
  5 30  1  0  0  0  0
  5 31  1  0  0  0  0
  6  7  1  0  0  0  0
  6 21  1  0  0  0  0
  6 32  1  0  0  0  0
  7  8  1  0  0  0  0
  8  9  1  0  0  0  0
  8 33  1  0  0  0  0
  8 34  1  0  0  0  0
  9 10  2  0  0  0  0
  9 11  1  0  0  0  0
 11 12  1  0  0  0  0
 11 35  1  0  0  0  0
 12 20  1  0  0  0  0
 12 13  2  0  0  0  0
 13 14  1  0  0  0  0
 13 36  1  0  0  0  0
 14 15  2  0  0  0  0
 14 37  1  0  0  0  0
 15 16  1  0  0  0  0
 16 17  1  0  0  0  0
 16 20  2  0  0  0  0
 17 18  1  0  0  0  0
 17 19  1  0  0  0  0
 18 38  1  0  0  0  0
 18 39  1  0  0  0  0
 18 40  1  0  0  0  0
 19 41  1  0  0  0  0
 19 42  1  0  0  0  0
 19 43  1  0  0  0  0
 21 44  1  0  0  0  0
 21 45  1  0  0  0  0
M  END
> <s_m_source_file>
AV-unprocessed.smi

> <i_m_source_file_index>
3014

> <i_lp_mmshare_version>
43012

> <i_f3d_flags>
0

> <s_epik_input>
W0NIM11bQ0BASF0xW0NIMl1bQ0gyXVtDSDJdW0NASF0oW0NIMl0xKU9bQ0gyXUMoPU8pW05IXWMyW2NIXVtjSF1uYyhuMilOKFtDSDNdKVtDSDNd

> <s_epik_cmdline>
J2VwaWtfcHl0aG9uJywgJy1waCcsICc3LjAnLCAnLXRuJywgJzgnLCAnLW1hJywgJzIwMCcsICctbWV0YWxfYmluZGluZycsICctaW1hZScsICc8aW5maWxlLm1hZT4nLCAnLW9tYWUnLCAnPG91dGZpbGUubWFlPic=

> <r_lp_tautomer_probability>
1

> <r_epik_Ionization_Penalty>
0.000308195

> <r_epik_Ionization_Penalty_Charging>
0

> <r_epik_Ionization_Penalty_Neutral>
0.000308195

> <r_epik_State_Penalty>
-0

> <r_epik_Charging_Adjusted_Penalty>
0

> <i_epik_Tot_Q>
0

> <i_epik_Tot_abs_Q>
0

> <r_epik_Metal_State_Penalty>
-0

> <b_epik_Metal_Only>
0

> <s_lp_Force_Field>
OPLS_2005

> <r_lp_Energy>
6.78662

> <b_lp_Chiralities_Consistent>
1

> <s_lp_Variant>
AV-unprocessed.smi:3014-4

> <Gold.Version>
5.8.1

> <Gold.Id.Protein>
6NUR|6NUR_protein|mol2

> <Gold.PLP.Fitness>
43.1160

> <Gold.PLP.PLP>
-40.6246

> <Gold.PLP.part.hbond>
-1.1914

> <Gold.PLP.part.metal>
0.0000

> <Gold.PLP.part.buried>
-6.5903

> <Gold.PLP.part.nonpolar>
-32.4017

> <Gold.PLP.part.repulsive>
0.2038

> <Gold.PLP.ligand.clash>
0.0000

> <Gold.PLP.ligand.torsion>
0.2701

> <Gold.PLP.Chemscore.Hbond>
1.0000

> <Gold.PLP.Chemscore.CHOScore>
0.0000

> <Gold.PLP.Chemscore.Metal>
0.0000

> <Gold.Chemscore.Hbonds>
donor molecule, donor type, donor heavy atom, donor atom, acceptor molecule, acceptor atom, score
      L1  H    11    35       P1  8028  1.00

> <Gold.PLP.Chemscore.Internal.Correction>
0.0315

> <Gold.Rescore>
     Score         DG    S(hbond)    S(metal)    S(lipo)     H(rot)  DE(clash)    DE(int)     intcor
     15.14     -16.89       0.93        0.00     102.43       1.43       0.15       1.60       ----

> <Gold.Chemscore.Fitness>
15.1362

> <Gold.Chemscore.DG>
-16.8924

> <Gold.Chemscore.ZeroCoef>
-5.4800

> <Gold.Chemscore.Hbond>
0.9255

> <Gold.Chemscore.Metal>
0.0000

> <Gold.Chemscore.Lipo>
102.4313

> <Gold.Chemscore.Internal_Hbond>
0.0000

> <Gold.Chemscore.DEClash>
0.1543

> <Gold.Chemscore.DEInternal>
1.6019

> <Gold.Chemscore.Rot>
1.4310

> <Gold.Chemscore.Internal.Correction>
   9.000000E+99

> <Gold.Chemscore.Hbonds>
donor molecule, donor type, donor heavy atom, donor atom, acceptor molecule, acceptor atom, score
      L1  H    11    35       P1  8028  0.65

> <Gold.Chemscore.Hbond.Weighted>
-3.0912

> <Gold.Chemscore.Metal.Weighted>
-0.0000

> <Gold.Chemscore.Lipo.Weighted>
-11.9845

> <Gold.Chemscore.Internal_Hbond.Weighted>
0.0000

> <Gold.Chemscore.DEClash.Weighted>
0.1543

> <Gold.Chemscore.DEInternal.Weighted>
1.6019

> <Gold.Chemscore.Rot.Weighted>
3.6632

> <Gold.Chemscore.Internal.Correction.Weighted>
   9.000000E+99

> <Gold.Protein.RotatedTorsions>
[ 6907 6896 6895 6894 ] final -104.89 input  -60.11 | X-H torsion
[ 7974 7965 7964 7962 ] final   50.54 input  175.53 | X-H torsion
[ 8008 7997 7996 7995 ] final  -75.82 input   59.86 | X-H torsion
[ 10167 10162 10161 10158 ] final -142.89 input  -65.29 | X-H torsion
[ 10718 10713 10712 10709 ] final  -51.02 input   66.30 | X-H torsion
[ 10763 10752 10751 10750 ] final  -21.75 input  -60.55 | X-H torsion
[ 11005 11000 10999 10996 ] final  130.63 input  -57.11 | X-H torsion

> <Gold.Protein.ActiveResidues>
 VAL166  LYS551  ARG553  GLY616  TRP617  ASP618  TYR619  PRO620  LYS621  CYS622 
 ASP623  PHE694  ASN695  SER759  ASP760  ASP761  ALA762  ILE779  LEU786  VAL792 
 PHE793  MET794  SER795  GLU796  ALA797  LYS798  CYS799  TRP800  GLU811  SER814 

> <Gold.Protein.RotatedAtoms>
  150.7309  134.0210  159.3700 H   0  0  0  0  0  0  0  0  0  0  0  0  # atno 6907 bound_to 6896
  151.8174  135.0660  160.0430 H   0  0  0  0  0  0  0  0  0  0  0  0  # atno 6908 bound_to 6896
  152.3028  133.5637  159.5666 H   0  0  0  0  0  0  0  0  0  0  0  0  # atno 6909 bound_to 6896
  146.0002  139.4431  143.0020 H   0  0  0  0  0  0  0  0  0  0  0  0  # atno 7974 bound_to 7965
  154.5451  140.0737  156.8575 H   0  0  0  0  0  0  0  0  0  0  0  0  # atno 8008 bound_to 7997
  155.3104  140.3390  155.4226 H   0  0  0  0  0  0  0  0  0  0  0  0  # atno 8009 bound_to 7997
  156.1910  140.1686  156.8078 H   0  0  0  0  0  0  0  0  0  0  0  0  # atno 8010 bound_to 7997
  139.8045  143.7787  152.2660 H   0  0  0  0  0  0  0  0  0  0  0  0  # atno 10167 bound_to 10162
  156.1747  130.4149  149.9594 H   0  0  0  0  0  0  0  0  0  0  0  0  # atno 10718 bound_to 10713
  153.6411  135.6985  153.5241 H   0  0  0  0  0  0  0  0  0  0  0  0  # atno 10763 bound_to 10752
  153.2782  135.4194  155.1053 H   0  0  0  0  0  0  0  0  0  0  0  0  # atno 10764 bound_to 10752
  154.8499  135.3595  154.5955 H   0  0  0  0  0  0  0  0  0  0  0  0  # atno 10765 bound_to 10752
  139.9683  134.9584  156.9322 H   0  0  0  0  0  0  0  0  0  0  0  0  # atno 11005 bound_to 11000
  145.7500  140.9976  143.1256 LP  0  0  0  0  0  0  0  0  0  0  0  0  # atno 17320 bound_to 7965
  144.6917  139.9202  143.7467 LP  0  0  0  0  0  0  0  0  0  0  0  0  # atno 17321 bound_to 7965
  139.7918  144.7407  150.9945 LP  0  0  0  0  0  0  0  0  0  0  0  0  # atno 17342 bound_to 10162
  140.7819  143.4435  151.0517 LP  0  0  0  0  0  0  0  0  0  0  0  0  # atno 17343 bound_to 10162
  156.7383  130.9070  151.3630 LP  0  0  0  0  0  0  0  0  0  0  0  0  # atno 17370 bound_to 10713
  157.6827  130.9156  150.0309 LP  0  0  0  0  0  0  0  0  0  0  0  0  # atno 17371 bound_to 10713
  140.5348  134.0778  155.7325 LP  0  0  0  0  0  0  0  0  0  0  0  0  # atno 17394 bound_to 11000
  141.1363  133.9216  157.2426 LP  0  0  0  0  0  0  0  0  0  0  0  0  # atno 17395 bound_to 11000

$$$$
