#       Name:                AV-unprocessed.smi:263
#       Creating user name   scv26
#       Creation time:       Thu Mar 26 21:19:59 2020


#       File generated by GOLD software.
#

@<TRIPOS>MOLECULE
AV-unprocessed.smi:263
    67    71     1
SMALL
NO_CHARGES


@<TRIPOS>ATOM
      1 ****        -4.4188   1.5131   0.6741 O.3            1 S1                 0.0000
      2 ****        -4.7684   0.7882  -0.4921 C.3            1 S1                 0.0000
      3 ****        -4.2075  -0.6485  -0.3467 C.3            1 S1                 0.0000
      4 ****        -2.7553  -0.7173  -0.2980 N.pl3          1 S1                 0.0000
      5 ****        -1.9043  -0.9087  -1.3632 C.2            1 S1                 0.0000
      6 ****        -0.6346  -0.9329  -1.0636 N.2            1 S1                 0.0000
      7 ****        -0.6074  -0.7601   0.3154 C.ar           1 S1                 0.0000
      8 ****         0.4325  -0.6894   1.2849 C.ar           1 S1                 0.0000
      9 ****         1.7441  -0.8213   0.9625 N.3            1 S1                 0.0000
     10 ****         2.1045  -2.1255   0.4106 C.3            1 S1                 0.0000
     11 ****         3.4620  -2.0623  -0.3103 C.3            1 S1                 0.0000
     12 ****         4.5732  -1.4667   0.5868 C.3            1 S1                 0.0000
     13 ****         4.8133  -2.3901   1.6339 O.3            1 S1                 0.0000
     14 ****         5.9193  -1.3135  -0.1599 C.3            1 S1                 0.0000
     15 ****         5.9139  -0.1604  -1.1767 C.3            1 S1                 0.0000
     16 ****         5.5071   1.1594  -0.5082 C.3            1 S1                 0.0000
     17 ****         4.1391   1.0323   0.1770 C.3            1 S1                 0.0000
     18 ****         4.1177  -0.1170   1.2096 C.3            1 S1                 0.0000
     19 ****         2.7306  -0.2419   1.8762 C.3            1 S1                 0.0000
     20 ****         0.0673  -0.4867   2.5794 N.ar           1 S1                 0.0000
     21 ****        -1.2232  -0.3746   2.9077 C.ar           1 S1                 0.0000
     22 ****        -2.2941  -0.4311   2.1138 N.ar           1 S1                 0.0000
     23 ****        -1.9344  -0.6205   0.8120 C.ar           1 S1                 0.0000
     24 ****        -6.3060   0.7528  -0.6023 C.3            1 S1                 0.0000
     25 ****        -6.8979   2.1377  -0.9183 C.3            1 S1                 0.0000
     26 ****        -6.3078   2.6577  -2.1032 O.3            1 S1                 0.0000
     27 ****        -4.9081   2.8714  -1.9690 C.3            1 S1                 0.0000
     28 ****        -4.1897   1.5341  -1.7142 C.3            1 S1                 0.0000
     29 ****        -4.7358   1.0410   1.4289 H              1 S1                 0.0000
     30 ****        -4.6039  -1.1229   0.5521 H              1 S1                 0.0000
     31 ****        -4.5415  -1.2633  -1.1836 H              1 S1                 0.0000
     32 ****        -2.2573  -1.0241  -2.3778 H              1 S1                 0.0000
     33 ****         2.1472  -2.8491   1.2257 H              1 S1                 0.0000
     34 ****         1.3479  -2.4891  -0.2837 H              1 S1                 0.0000
     35 ****         3.7432  -3.0586  -0.6540 H              1 S1                 0.0000
     36 ****         3.3421  -1.4591  -1.2097 H              1 S1                 0.0000
     37 ****         5.4798  -2.0337   2.2011 H              1 S1                 0.0000
     38 ****         6.7147  -1.1235   0.5626 H              1 S1                 0.0000
     39 ****         6.1839  -2.2463  -0.6596 H              1 S1                 0.0000
     40 ****         6.9039  -0.0582  -1.6220 H              1 S1                 0.0000
     41 ****         5.2330  -0.3844  -1.9979 H              1 S1                 0.0000
     42 ****         6.2602   1.4452   0.2274 H              1 S1                 0.0000
     43 ****         5.4785   1.9582  -1.2496 H              1 S1                 0.0000
     44 ****         3.8912   1.9739   0.6678 H              1 S1                 0.0000
     45 ****         3.3702   0.8758  -0.5804 H              1 S1                 0.0000
     46 ****         4.8309   0.1554   1.9895 H              1 S1                 0.0000
     47 ****         2.3993   0.7403   2.2163 H              1 S1                 0.0000
     48 ****         2.8022  -0.8748   2.7619 H              1 S1                 0.0000
     49 ****        -1.4266  -0.2206   3.9571 H              1 S1                 0.0000
     50 ****        -6.5935   0.0677  -1.4011 H              1 S1                 0.0000
     51 ****        -6.7474   0.3568   0.3132 H              1 S1                 0.0000
     52 ****        -7.9742   2.0561  -1.0707 H              1 S1                 0.0000
     53 ****        -6.7490   2.8296  -0.0879 H              1 S1                 0.0000
     54 ****        -4.5333   3.3253  -2.8863 H              1 S1                 0.0000
     55 ****        -4.7135   3.5824  -1.1647 H              1 S1                 0.0000
     56 ****        -3.1209   1.7133  -1.5908 H              1 S1                 0.0000
     57 ****        -4.2957   0.9081  -2.6009 H              1 S1                 0.0000
     58 ****        -4.8371   2.4210   0.6445 LP             1 S1                 0.0000
     59 ****        -3.4246   1.6057   0.7278 LP             1 S1                 0.0000
     60 ****         0.1411  -1.0491  -1.6839 LP             1 S1                 0.0000
     61 ****         1.8173  -0.1863   0.1934 LP             1 S1                 0.0000
     62 ****         5.1254  -3.2598   1.2516 LP             1 S1                 0.0000
     63 ****         3.9716  -2.5373   2.1534 LP             1 S1                 0.0000
     64 ****         0.7684  -0.4212   3.2894 LP             1 S1                 0.0000
     65 ****        -3.2383  -0.3456   2.4321 LP             1 S1                 0.0000
     66 ****        -6.7453   3.5297  -2.3228 LP             1 S1                 0.0000
     67 ****        -6.4628   2.0099  -2.8491 LP             1 S1                 0.0000
@<TRIPOS>BOND
    1    1    2 1     
    2    1   29 1     
    3    2   28 1     
    4    2    3 1     
    5    2   24 1     
    6    3    4 1     
    7    3   30 1     
    8    3   31 1     
    9    4   23 1     
   10    4    5 1     
   11    5    6 2     
   12    5   32 1     
   13    6    7 1     
   14    7   23 ar    
   15    7    8 ar    
   16    8    9 1     
   17    8   20 ar    
   18    9   19 1     
   19    9   10 1     
   20   10   11 1     
   21   10   33 1     
   22   10   34 1     
   23   11   12 1     
   24   11   35 1     
   25   11   36 1     
   26   12   18 1     
   27   12   13 1     
   28   12   14 1     
   29   13   37 1     
   30   14   15 1     
   31   14   38 1     
   32   14   39 1     
   33   15   16 1     
   34   15   40 1     
   35   15   41 1     
   36   16   17 1     
   37   16   42 1     
   38   16   43 1     
   39   17   18 1     
   40   17   44 1     
   41   17   45 1     
   42   18   19 1     
   43   18   46 1     
   44   19   47 1     
   45   19   48 1     
   46   20   21 ar    
   47   21   22 ar    
   48   21   49 1     
   49   22   23 ar    
   50   24   25 1     
   51   24   50 1     
   52   24   51 1     
   53   25   26 1     
   54   25   52 1     
   55   25   53 1     
   56   26   27 1     
   57   27   28 1     
   58   27   54 1     
   59   27   55 1     
   60   28   56 1     
   61   28   57 1     
   62    1   58 1     
   63    1   59 1     
   64    6   60 1     
   65    9   61 1     
   66   13   62 1     
   67   13   63 1     
   68   20   64 1     
   69   22   65 1     
   70   26   66 1     
   71   26   67 1     
@<TRIPOS>SUBSTRUCTURE
      1 S1             1
@<TRIPOS>SET
LONE_PAIRS      STATIC     ATOMS    <user>   **** ""
10 58 59 60 61 62 63 64 65 66 67
DONOR_HYDROGENS      STATIC     ATOMS    <user>   **** ""
2 29 37
ATOM$BLUE        STATIC     ATOMS    COLORGROUP SYSTEM
10 58 59 60 61 62 63 64 65 66 67
ATOM$RED        STATIC     ATOMS    COLORGROUP SYSTEM
2 29 37
