AV-unprocessed.smi:2991|AV-procd|sdf|11398|dock10
  -GOLD-   2272016323D 1   1.00000     0.00000
 Structure written by MMmdl.
 37 38  0  0  0  0  0  0  0  0  1 V2000
  152.1319  139.9042  156.0689 C   0  0  0  0  0  0  0  0  0  0  0  0
  150.7165  140.0336  155.5383 C   0  0  0  0  0  0  0  0  0  0  0  0
  150.1292  141.2355  155.7264 N   0  0  0  0  0  0  0  0  0  0  0  0
  148.8726  141.4062  155.2678 C   0  0  0  0  0  0  0  0  0  0  0  0
  148.1432  140.3967  154.6112 C   0  0  0  0  0  0  0  0  0  0  0  0
  148.7497  139.1311  154.4251 C   0  0  0  0  0  0  0  0  0  0  0  0
  148.1153  138.0471  153.7560 N   0  0  0  0  0  0  0  0  0  0  0  0
  146.8204  137.6882  153.7675 C   0  0  0  0  0  0  0  0  0  0  0  0
  145.9271  138.2537  154.3980 O   0  0  0  0  0  0  0  0  0  0  0  0
  146.6157  136.6050  153.0043 N   0  0  0  0  0  0  0  0  0  0  0  0
  145.3358  135.9221  152.8097 C   0  0  1  0  0  0  0  0  0  0  0  0
  145.5033  134.7552  151.8106 C   0  0  0  0  0  0  0  0  0  0  0  0
  144.1964  134.3275  151.1245 C   0  0  0  0  0  0  0  0  0  0  0  0
  143.1208  133.7760  152.0721 C   0  0  0  0  0  0  0  0  0  0  0  0
  142.5807  134.8173  153.0674 C   0  0  0  0  0  0  0  0  0  0  0  0
  143.4756  135.0283  154.1983 N   0  0  0  0  0  0  0  0  0  0  0  0
  144.7268  135.5118  154.1639 C   0  0  0  0  0  0  0  0  0  0  0  0
  145.3826  135.6190  155.2001 O   0  0  0  0  0  0  0  0  0  0  0  0
  150.0739  138.9523  154.8905 C   0  0  0  0  0  0  0  0  0  0  0  0
  150.8911  137.4399  154.6774 Cl  0  0  0  0  0  0  0  0  0  0  0  0
  152.1850  139.1127  156.8166 H   0  0  0  0  0  0  0  0  0  0  0  0
  152.4728  140.8300  156.5341 H   0  0  0  0  0  0  0  0  0  0  0  0
  152.8201  139.6619  155.2587 H   0  0  0  0  0  0  0  0  0  0  0  0
  148.4359  142.3819  155.4229 H   0  0  0  0  0  0  0  0  0  0  0  0
  147.1488  140.6174  154.2558 H   0  0  0  0  0  0  0  0  0  0  0  0
  148.7387  137.4311  153.2548 H   0  0  0  0  0  0  0  0  0  0  0  0
  147.4115  136.2001  152.5324 H   0  0  0  0  0  0  0  0  0  0  0  0
  144.6502  136.6530  152.3764 H   0  0  0  0  0  0  0  0  0  0  0  0
  146.2005  135.0455  151.0234 H   0  0  0  0  0  0  0  0  0  0  0  0
  145.9626  133.8995  152.3075 H   0  0  0  0  0  0  0  0  0  0  0  0
  143.7898  135.1684  150.5611 H   0  0  0  0  0  0  0  0  0  0  0  0
  144.4309  133.5616  150.3847 H   0  0  0  0  0  0  0  0  0  0  0  0
  142.2882  133.4212  151.4637 H   0  0  0  0  0  0  0  0  0  0  0  0
  143.4954  132.9004  152.6039 H   0  0  0  0  0  0  0  0  0  0  0  0
  142.3642  135.7641  152.5708 H   0  0  0  0  0  0  0  0  0  0  0  0
  141.6334  134.4627  153.4742 H   0  0  0  0  0  0  0  0  0  0  0  0
  143.1120  134.7702  155.1044 H   0  0  0  0  0  0  0  0  0  0  0  0
  1  2  1  0  0  0  0
  1 21  1  0  0  0  0
  1 22  1  0  0  0  0
  1 23  1  0  0  0  0
  2 19  1  0  0  0  0
  2  3  2  0  0  0  0
  3  4  1  0  0  0  0
  4  5  2  0  0  0  0
  4 24  1  0  0  0  0
  5  6  1  0  0  0  0
  5 25  1  0  0  0  0
  6  7  1  0  0  0  0
  6 19  2  0  0  0  0
  7  8  1  0  0  0  0
  7 26  1  0  0  0  0
  8  9  2  0  0  0  0
  8 10  1  0  0  0  0
 10 11  1  0  0  0  0
 10 27  1  0  0  0  0
 11 17  1  0  0  0  0
 11 12  1  0  0  0  0
 11 28  1  0  0  0  0
 12 13  1  0  0  0  0
 12 29  1  0  0  0  0
 12 30  1  0  0  0  0
 13 14  1  0  0  0  0
 13 31  1  0  0  0  0
 13 32  1  0  0  0  0
 14 15  1  0  0  0  0
 14 33  1  0  0  0  0
 14 34  1  0  0  0  0
 15 16  1  0  0  0  0
 15 35  1  0  0  0  0
 15 36  1  0  0  0  0
 16 17  1  0  0  0  0
 16 37  1  0  0  0  0
 17 18  2  0  0  0  0
 19 20  1  0  0  0  0
M  END
> <s_m_source_file>
AV-unprocessed.smi

> <i_m_source_file_index>
2991

> <i_lp_mmshare_version>
43012

> <i_f3d_flags>
0

> <s_epik_input>
W0NIM11jMW5bY0hdW2NIXWMoYzFDbClbTkhdQyg9TylbTkhdW0NAQEhdMltDSDJdW0NIMl1bQ0gyXVtDSDJdW05IXUMyPU8=

> <s_epik_cmdline>
J2VwaWtfcHl0aG9uJywgJy1waCcsICc3LjAnLCAnLXRuJywgJzgnLCAnLW1hJywgJzIwMCcsICctbWV0YWxfYmluZGluZycsICctaW1hZScsICc8aW5maWxlLm1hZT4nLCAnLW9tYWUnLCAnPG91dGZpbGUubWFlPic=

> <r_epik_Ionization_Penalty>
0.00809016

> <r_epik_Ionization_Penalty_Charging>
0

> <r_epik_Ionization_Penalty_Neutral>
0.00809016

> <r_epik_State_Penalty>
0.00605324

> <r_epik_Charging_Adjusted_Penalty>
0.00605324

> <i_epik_Tot_Q>
0

> <i_epik_Tot_abs_Q>
0

> <r_epik_Metal_State_Penalty>
0.00597181

> <b_epik_Metal_Only>
0

> <s_lp_Force_Field>
OPLS_2005

> <r_lp_Energy>
16.2223

> <b_lp_Chiralities_Consistent>
1

> <s_lp_Variant>
AV-unprocessed.smi:2991-2

> <Gold.Version>
5.8.1

> <Gold.Id.Protein>
6NUR|6NUR_protein|mol2

> <Gold.PLP.Fitness>
37.1234

> <Gold.PLP.PLP>
-28.6241

> <Gold.PLP.part.hbond>
-2.0000

> <Gold.PLP.part.metal>
0.0000

> <Gold.PLP.part.buried>
-3.1412

> <Gold.PLP.part.nonpolar>
-24.1778

> <Gold.PLP.part.repulsive>
0.2392

> <Gold.PLP.ligand.clash>
0.0000

> <Gold.PLP.ligand.torsion>
0.2639

> <Gold.PLP.Chemscore.Hbond>
2.0000

> <Gold.PLP.Chemscore.CHOScore>
1.0000

> <Gold.PLP.Chemscore.Metal>
0.0000

> <Gold.Chemscore.Hbonds>
donor molecule, donor type, donor heavy atom, donor atom, acceptor molecule, acceptor atom, score
      L1  H     7    26       P1  7948  0.96
      L1  H    10    27       P1  7948  1.00
      L1  C     4    24       P1  8028  1.00

> <Gold.PLP.Chemscore.Internal.Correction>
0.0270

> <Gold.Rescore>
     Score         DG    S(hbond)    S(metal)    S(lipo)     H(rot)  DE(clash)    DE(int)     intcor
     16.63     -17.80       1.96        0.00      71.31       1.00       0.06       1.12       ----

> <Gold.Chemscore.Fitness>
16.6259

> <Gold.Chemscore.DG>
-17.8040

> <Gold.Chemscore.ZeroCoef>
-5.4800

> <Gold.Chemscore.Hbond>
1.9583

> <Gold.Chemscore.Metal>
0.0000

> <Gold.Chemscore.Lipo>
71.3098

> <Gold.Chemscore.Internal_Hbond>
0.0000

> <Gold.Chemscore.DEClash>
0.0615

> <Gold.Chemscore.DEInternal>
1.1166

> <Gold.Chemscore.Rot>
1.0000

> <Gold.Chemscore.Internal.Correction>
   9.000000E+99

> <Gold.Chemscore.Hbonds>
donor molecule, donor type, donor heavy atom, donor atom, acceptor molecule, acceptor atom, score
      L1  H     7    26       P1  7948  0.92
      L1  H    10    27       P1  7948  0.98

> <Gold.Chemscore.Hbond.Weighted>
-6.5408

> <Gold.Chemscore.Metal.Weighted>
-0.0000

> <Gold.Chemscore.Lipo.Weighted>
-8.3433

> <Gold.Chemscore.Internal_Hbond.Weighted>
0.0000

> <Gold.Chemscore.DEClash.Weighted>
0.0615

> <Gold.Chemscore.DEInternal.Weighted>
1.1166

> <Gold.Chemscore.Rot.Weighted>
2.5600

> <Gold.Chemscore.Internal.Correction.Weighted>
   9.000000E+99

> <Gold.Protein.RotatedTorsions>
[ 6907 6896 6895 6894 ] final   93.02 input  -60.11 | X-H torsion
[ 7974 7965 7964 7962 ] final  100.48 input  175.53 | X-H torsion
[ 8008 7997 7996 7995 ] final -133.34 input   59.86 | X-H torsion
[ 10167 10162 10161 10158 ] final -157.43 input  -65.29 | X-H torsion
[ 10718 10713 10712 10709 ] final -131.26 input   66.30 | X-H torsion
[ 10763 10752 10751 10750 ] final  -44.33 input  -60.55 | X-H torsion
[ 11005 11000 10999 10996 ] final  -51.45 input  -57.11 | X-H torsion

> <Gold.Protein.ActiveResidues>
 VAL166  LYS551  ARG553  GLY616  TRP617  ASP618  TYR619  PRO620  LYS621  CYS622 
 ASP623  PHE694  ASN695  SER759  ASP760  ASP761  ALA762  ILE779  LEU786  VAL792 
 PHE793  MET794  SER795  GLU796  ALA797  LYS798  CYS799  TRP800  GLU811  SER814 

> <Gold.Protein.RotatedAtoms>
  152.5453  134.1413  159.8479 H   0  0  0  0  0  0  0  0  0  0  0  0  # atno 6907 bound_to 6896
  151.1448  133.4939  159.2603 H   0  0  0  0  0  0  0  0  0  0  0  0  # atno 6908 bound_to 6896
  151.1534  135.0249  159.8733 H   0  0  0  0  0  0  0  0  0  0  0  0  # atno 6909 bound_to 6896
  145.3850  139.2373  143.3383 H   0  0  0  0  0  0  0  0  0  0  0  0  # atno 7974 bound_to 7965
  155.3439  140.0473  157.3045 H   0  0  0  0  0  0  0  0  0  0  0  0  # atno 8008 bound_to 7997
  154.5262  140.2242  155.8850 H   0  0  0  0  0  0  0  0  0  0  0  0  # atno 8009 bound_to 7997
  156.1742  140.3089  155.9035 H   0  0  0  0  0  0  0  0  0  0  0  0  # atno 8010 bound_to 7997
  139.6771  143.9644  152.2316 H   0  0  0  0  0  0  0  0  0  0  0  0  # atno 10167 bound_to 10162
  156.2226  130.6988  151.0773 H   0  0  0  0  0  0  0  0  0  0  0  0  # atno 10718 bound_to 10713
  154.0104  135.6682  153.4765 H   0  0  0  0  0  0  0  0  0  0  0  0  # atno 10763 bound_to 10752
  153.0623  135.5020  154.8118 H   0  0  0  0  0  0  0  0  0  0  0  0  # atno 10764 bound_to 10752
  154.6999  135.3077  154.9320 H   0  0  0  0  0  0  0  0  0  0  0  0  # atno 10765 bound_to 10752
  141.0872  133.6640  156.3879 H   0  0  0  0  0  0  0  0  0  0  0  0  # atno 11005 bound_to 11000
  146.2824  140.4524  142.8771 LP  0  0  0  0  0  0  0  0  0  0  0  0  # atno 17320 bound_to 7965
  144.8480  140.6959  143.6186 LP  0  0  0  0  0  0  0  0  0  0  0  0  # atno 17321 bound_to 7965
  139.9424  144.6673  150.8253 LP  0  0  0  0  0  0  0  0  0  0  0  0  # atno 17342 bound_to 10162
  140.7639  143.3235  151.2567 LP  0  0  0  0  0  0  0  0  0  0  0  0  # atno 17343 bound_to 10162
  157.7095  131.0741  150.6550 LP  0  0  0  0  0  0  0  0  0  0  0  0  # atno 17370 bound_to 10713
  156.6614  130.4513  149.5686 LP  0  0  0  0  0  0  0  0  0  0  0  0  # atno 17371 bound_to 10713
  140.5336  134.6188  157.5358 LP  0  0  0  0  0  0  0  0  0  0  0  0  # atno 17394 bound_to 11000
  139.9692  134.7322  156.0077 LP  0  0  0  0  0  0  0  0  0  0  0  0  # atno 17395 bound_to 11000

$$$$
