AV-unprocessed.smi:45|AV-procd|sdf|410|dock3
  -GOLD-   2262016273D 1   1.00000     0.00000
 Structure written by MMmdl.
 61 64  0  0  0  0  0  0  0  0  2 V2000
  143.1382  134.7232  163.4984 C   0  0  0  0  0  0  0  0  0  0  0  0
  144.3784  134.0818  163.2400 O   0  0  0  0  0  0  0  0  0  0  0  0
  145.2403  134.6668  162.3351 C   0  0  0  0  0  0  0  0  0  0  0  0
  145.3135  136.0642  162.1052 C   0  0  0  0  0  0  0  0  0  0  0  0
  146.2207  136.5885  161.1646 C   0  0  0  0  0  0  0  0  0  0  0  0
  147.0672  135.7288  160.4363 C   0  0  0  0  0  0  0  0  0  0  0  0
  148.0492  136.2909  159.4269 C   0  0  0  0  0  0  0  0  0  0  0  0
  148.5912  135.2850  158.5231 N   0  0  0  0  0  0  0  0  0  0  0  0
  148.6011  135.4875  157.1324 C   0  0  0  0  0  0  0  0  0  0  0  0
  147.5929  134.9491  156.4105 N   0  0  0  0  0  0  0  0  0  0  0  0
  147.5473  135.1025  155.0809 C   0  0  0  0  0  0  0  0  0  0  0  0
  146.4936  134.5371  154.3637 N   0  0  0  0  0  0  0  0  0  0  0  0
  145.1072  134.7161  154.7810 C   0  0  0  0  0  0  0  0  0  0  0  0
  144.2792  134.7336  153.4972 C   0  0  0  0  0  0  0  0  0  0  0  0
  145.1004  133.8708  152.5484 C   0  0  0  0  0  0  0  0  0  0  0  0
  146.5509  134.1837  152.9437 C   0  0  2  0  0  0  0  0  0  0  0  0
  147.5115  133.0141  152.6402 C   0  0  0  0  0  0  0  0  0  0  0  0
  147.2224  132.4726  151.3692 O   0  0  0  0  0  0  0  0  0  0  0  0
  148.4956  135.7791  154.4138 N   0  3  0  0  0  0  0  0  0  0  0  0
  149.5318  136.3345  155.0864 C   0  0  0  0  0  0  0  0  0  0  0  0
  149.6373  136.2089  156.4885 C   0  0  0  0  0  0  0  0  0  0  0  0
  150.7772  136.8587  157.2265 C   0  0  0  0  0  0  0  0  0  0  0  0
  151.4030  136.2547  158.0978 O   0  0  0  0  0  0  0  0  0  0  0  0
  151.0637  138.1132  156.8441 N   0  0  0  0  0  0  0  0  0  0  0  0
  152.0971  138.9507  157.4414 C   0  0  0  0  0  0  0  0  0  0  0  0
  151.6569  140.3964  157.5904 C   0  0  0  0  0  0  0  0  0  0  0  0
  151.0305  140.9421  156.5421 N   0  0  0  0  0  0  0  0  0  0  0  0
  150.6308  142.2261  156.6711 C   0  0  0  0  0  0  0  0  0  0  0  0
  150.8578  142.9584  157.8535 C   0  0  0  0  0  0  0  0  0  0  0  0
  151.5262  142.2770  158.8908 C   0  0  0  0  0  0  0  0  0  0  0  0
  151.9252  140.9937  158.7559 N   0  0  0  0  0  0  0  0  0  0  0  0
  147.0021  134.3399  160.6617 C   0  0  0  0  0  0  0  0  0  0  0  0
  146.0953  133.8132  161.6024 C   0  0  0  0  0  0  0  0  0  0  0  0
  146.0409  132.1047  161.8519 Cl  0  0  0  0  0  0  0  0  0  0  0  0
  146.8787  135.0732  152.4034 H   0  0  0  0  0  0  0  0  0  0  0  0
  142.5779  134.1405  164.2292 H   0  0  0  0  0  0  0  0  0  0  0  0
  142.5292  134.7925  162.5960 H   0  0  0  0  0  0  0  0  0  0  0  0
  143.2840  135.7209  163.9148 H   0  0  0  0  0  0  0  0  0  0  0  0
  144.6834  136.7584  162.6398 H   0  0  0  0  0  0  0  0  0  0  0  0
  146.2651  137.6560  161.0051 H   0  0  0  0  0  0  0  0  0  0  0  0
  147.5385  137.0600  158.8464 H   0  0  0  0  0  0  0  0  0  0  0  0
  148.8715  136.7784  159.9520 H   0  0  0  0  0  0  0  0  0  0  0  0
  149.1197  134.5183  158.9157 H   0  0  0  0  0  0  0  0  0  0  0  0
  144.8212  133.8745  155.4127 H   0  0  0  0  0  0  0  0  0  0  0  0
  144.9596  135.6344  155.3506 H   0  0  0  0  0  0  0  0  0  0  0  0
  143.2631  134.3650  153.6408 H   0  0  0  0  0  0  0  0  0  0  0  0
  144.2187  135.7512  153.1088 H   0  0  0  0  0  0  0  0  0  0  0  0
  144.8722  132.8190  152.7291 H   0  0  0  0  0  0  0  0  0  0  0  0
  144.8940  134.0819  151.4987 H   0  0  0  0  0  0  0  0  0  0  0  0
  148.5527  133.3331  152.6330 H   0  0  0  0  0  0  0  0  0  0  0  0
  147.4240  132.2314  153.3947 H   0  0  0  0  0  0  0  0  0  0  0  0
  148.0330  132.2040  150.9635 H   0  0  0  0  0  0  0  0  0  0  0  0
  150.2422  136.8714  154.4741 H   0  0  0  0  0  0  0  0  0  0  0  0
  150.5109  138.5312  156.1101 H   0  0  0  0  0  0  0  0  0  0  0  0
  152.4036  138.5414  158.4061 H   0  0  0  0  0  0  0  0  0  0  0  0
  152.9796  138.9162  156.8019 H   0  0  0  0  0  0  0  0  0  0  0  0
  150.1272  142.6714  155.8260 H   0  0  0  0  0  0  0  0  0  0  0  0
  150.5387  143.9847  157.9589 H   0  0  0  0  0  0  0  0  0  0  0  0
  151.7408  142.7630  159.8308 H   0  0  0  0  0  0  0  0  0  0  0  0
  147.6485  133.6713  160.1120 H   0  0  0  0  0  0  0  0  0  0  0  0
  148.4418  135.8861  153.4007 H   0  0  0  0  0  0  0  0  0  0  0  0
  1  2  1  0  0  0  0
  1 36  1  0  0  0  0
  1 37  1  0  0  0  0
  1 38  1  0  0  0  0
  2  3  1  0  0  0  0
  3 33  1  0  0  0  0
  3  4  2  0  0  0  0
  4  5  1  0  0  0  0
  4 39  1  0  0  0  0
  5  6  2  0  0  0  0
  5 40  1  0  0  0  0
  6  7  1  0  0  0  0
  6 32  1  0  0  0  0
  7  8  1  0  0  0  0
  7 41  1  0  0  0  0
  7 42  1  0  0  0  0
  8  9  1  0  0  0  0
  8 43  1  0  0  0  0
  9 21  1  0  0  0  0
  9 10  2  0  0  0  0
 10 11  1  0  0  0  0
 11 12  1  0  0  0  0
 11 19  2  0  0  0  0
 12 16  1  0  0  0  0
 12 13  1  0  0  0  0
 13 14  1  0  0  0  0
 13 44  1  0  0  0  0
 13 45  1  0  0  0  0
 14 15  1  0  0  0  0
 14 46  1  0  0  0  0
 14 47  1  0  0  0  0
 15 16  1  0  0  0  0
 15 48  1  0  0  0  0
 15 49  1  0  0  0  0
 16 35  1  0  0  0  0
 16 17  1  0  0  0  0
 17 18  1  0  0  0  0
 17 50  1  0  0  0  0
 17 51  1  0  0  0  0
 18 52  1  0  0  0  0
 19 20  1  0  0  0  0
 19 61  1  0  0  0  0
 20 21  2  0  0  0  0
 20 53  1  0  0  0  0
 21 22  1  0  0  0  0
 22 23  2  0  0  0  0
 22 24  1  0  0  0  0
 24 25  1  0  0  0  0
 24 54  1  0  0  0  0
 25 26  1  0  0  0  0
 25 55  1  0  0  0  0
 25 56  1  0  0  0  0
 26 31  1  0  0  0  0
 26 27  2  0  0  0  0
 27 28  1  0  0  0  0
 28 29  2  0  0  0  0
 28 57  1  0  0  0  0
 29 30  1  0  0  0  0
 29 58  1  0  0  0  0
 30 31  2  0  0  0  0
 30 59  1  0  0  0  0
 32 33  2  0  0  0  0
 32 60  1  0  0  0  0
 33 34  1  0  0  0  0
M  CHG  1  19   1
M  END
> <s_m_source_file>
AV-unprocessed.smi

> <i_m_source_file_index>
45

> <i_lp_mmshare_version>
43012

> <i_f3d_flags>
0

> <s_epik_input>
W0NIM11PYzFbY0hdW2NIXWMoW2NIXWMxQ2wpW0NIMl1bTkhdYzJuYyhOM1tDSDJdW0NIMl1bQ0gyXVtDQEhdM1tDSDJdW09IXSluW2NIXWMyQyg9TylbTkhdW0NIMl1jNG5bY0hdW2NIXVtjSF1uNA==

> <s_epik_cmdline>
J2VwaWtfcHl0aG9uJywgJy1waCcsICc3LjAnLCAnLXRuJywgJzgnLCAnLW1hJywgJzIwMCcsICctbWV0YWxfYmluZGluZycsICctaW1hZScsICc8aW5maWxlLm1hZT4nLCAnLW9tYWUnLCAnPG91dGZpbGUubWFlPic=

> <r_lp_tautomer_probability>
0.575011

> <r_epik_Ionization_Penalty>
1.61454

> <r_epik_Ionization_Penalty_Charging>
1.61448

> <r_epik_Ionization_Penalty_Neutral>
6.30284e-05

> <r_epik_State_Penalty>
1.91123

> <r_epik_Charging_Adjusted_Penalty>
3.52572

> <i_epik_Tot_Q>
1

> <i_epik_Tot_abs_Q>
1

> <r_epik_Metal_State_Penalty>
1.95488

> <b_epik_Metal_Only>
0

> <s_epik_Chemistry_Notes>
This compound contains an electron-poor aromatic ring that is susceptible to covalent hydrolysis at low pH, typically resulting in measured values for nitrogen ring protonation that are around two units higher than predicted values.

> <s_lp_Force_Field>
OPLS_2005

> <r_lp_Energy>
37.0931

> <b_lp_Chiralities_Consistent>
1

> <s_lp_Variant>
AV-unprocessed.smi:45-4

> <Gold.Version>
5.8.1

> <Gold.Id.Protein>
6NUR|6NUR_protein|mol2

> <Gold.PLP.Fitness>
45.0799

> <Gold.PLP.PLP>
-37.5279

> <Gold.PLP.part.hbond>
-3.0000

> <Gold.PLP.part.metal>
0.0000

> <Gold.PLP.part.buried>
-8.2458

> <Gold.PLP.part.nonpolar>
-27.5575

> <Gold.PLP.part.repulsive>
0.2248

> <Gold.PLP.ligand.clash>
0.0000

> <Gold.PLP.ligand.torsion>
3.1343

> <Gold.PLP.Chemscore.Hbond>
3.4480

> <Gold.PLP.Chemscore.CHOScore>
0.9969

> <Gold.PLP.Chemscore.Metal>
0.0000

> <Gold.Chemscore.Hbonds>
donor molecule, donor type, donor heavy atom, donor atom, acceptor molecule, acceptor atom, score
      L1  H    18    52       P1 10747  0.94
      L1  H    19    61       P1  7948  2.00
      P1  H  6896  6908       L1    23  0.37
      L1  C    28    57       P1  8028  1.00

> <Gold.PLP.Chemscore.Internal.Correction>
0.4861

> <Gold.Rescore>
     Score         DG    S(hbond)    S(metal)    S(lipo)     H(rot)  DE(clash)    DE(int)     intcor
     14.30     -18.37       2.41        0.00     105.81       2.94       0.05       4.02       ----

> <Gold.Chemscore.Fitness>
14.3029

> <Gold.Chemscore.DG>
-18.3718

> <Gold.Chemscore.ZeroCoef>
-5.4800

> <Gold.Chemscore.Hbond>
2.4064

> <Gold.Chemscore.Metal>
0.0000

> <Gold.Chemscore.Lipo>
105.8084

> <Gold.Chemscore.Internal_Hbond>
0.0000

> <Gold.Chemscore.DEClash>
0.0502

> <Gold.Chemscore.DEInternal>
4.0188

> <Gold.Chemscore.Rot>
2.9395

> <Gold.Chemscore.Internal.Correction>
   9.000000E+99

> <Gold.Chemscore.Hbonds>
donor molecule, donor type, donor heavy atom, donor atom, acceptor molecule, acceptor atom, score
      L1  H    18    52       P1 10747  0.92
      L1  H    19    61       P1  7948  0.99
      P1  H  6896  6908       L1    23  0.36

> <Gold.Chemscore.Hbond.Weighted>
-8.0374

> <Gold.Chemscore.Metal.Weighted>
-0.0000

> <Gold.Chemscore.Lipo.Weighted>
-12.3796

> <Gold.Chemscore.Internal_Hbond.Weighted>
0.0000

> <Gold.Chemscore.DEClash.Weighted>
0.0502

> <Gold.Chemscore.DEInternal.Weighted>
4.0188

> <Gold.Chemscore.Rot.Weighted>
7.5251

> <Gold.Chemscore.Internal.Correction.Weighted>
   9.000000E+99

> <Gold.Protein.RotatedTorsions>
[ 6907 6896 6895 6894 ] final -154.12 input  -60.11 | X-H torsion
[ 7974 7965 7964 7962 ] final   88.17 input  175.53 | X-H torsion
[ 8008 7997 7996 7995 ] final  -88.93 input   59.86 | X-H torsion
[ 10167 10162 10161 10158 ] final   37.12 input  -65.29 | X-H torsion
[ 10718 10713 10712 10709 ] final   48.54 input   66.30 | X-H torsion
[ 10763 10752 10751 10750 ] final   -3.57 input  -60.55 | X-H torsion
[ 11005 11000 10999 10996 ] final   89.68 input  -57.11 | X-H torsion

> <Gold.Protein.ActiveResidues>
 VAL166  LYS551  ARG553  GLY616  TRP617  ASP618  TYR619  PRO620  LYS621  CYS622 
 ASP623  PHE694  ASN695  SER759  ASP760  ASP761  ALA762  ILE779  LEU786  VAL792 
 PHE793  MET794  SER795  GLU796  ALA797  LYS798  CYS799  TRP800  GLU811  SER814 

> <Gold.Protein.RotatedAtoms>
  151.2527  133.4342  159.2612 H   0  0  0  0  0  0  0  0  0  0  0  0  # atno 6907 bound_to 6896
  151.0602  134.9732  159.8267 H   0  0  0  0  0  0  0  0  0  0  0  0  # atno 6908 bound_to 6896
  152.5397  134.2478  159.8939 H   0  0  0  0  0  0  0  0  0  0  0  0  # atno 6909 bound_to 6896
  145.5492  139.2294  143.2522 H   0  0  0  0  0  0  0  0  0  0  0  0  # atno 7974 bound_to 7965
  154.6806  140.0547  157.0262 H   0  0  0  0  0  0  0  0  0  0  0  0  # atno 8008 bound_to 7997
  155.0957  140.3224  155.4542 H   0  0  0  0  0  0  0  0  0  0  0  0  # atno 8009 bound_to 7997
  156.2693  140.2040  156.6083 H   0  0  0  0  0  0  0  0  0  0  0  0  # atno 8010 bound_to 7997
  140.4063  144.1654  150.6136 H   0  0  0  0  0  0  0  0  0  0  0  0  # atno 10167 bound_to 10162
  157.4696  130.8247  149.7974 H   0  0  0  0  0  0  0  0  0  0  0  0  # atno 10718 bound_to 10713
  153.3732  135.6995  153.6622 H   0  0  0  0  0  0  0  0  0  0  0  0  # atno 10763 bound_to 10752
  153.5263  135.3601  155.2656 H   0  0  0  0  0  0  0  0  0  0  0  0  # atno 10764 bound_to 10752
  154.8684  135.4170  154.3014 H   0  0  0  0  0  0  0  0  0  0  0  0  # atno 10765 bound_to 10752
  139.8870  134.8566  156.3176 H   0  0  0  0  0  0  0  0  0  0  0  0  # atno 11005 bound_to 11000
  146.1928  140.6314  142.9138 LP  0  0  0  0  0  0  0  0  0  0  0  0  # atno 17320 bound_to 7965
  144.7538  140.5256  143.6783 LP  0  0  0  0  0  0  0  0  0  0  0  0  # atno 17321 bound_to 7965
  140.4686  143.2421  151.9121 LP  0  0  0  0  0  0  0  0  0  0  0  0  # atno 17342 bound_to 10162
  139.4783  144.5394  151.8551 LP  0  0  0  0  0  0  0  0  0  0  0  0  # atno 17343 bound_to 10162
  156.0067  130.3852  150.2406 LP  0  0  0  0  0  0  0  0  0  0  0  0  # atno 17370 bound_to 10713
  157.0588  131.0084  151.3229 LP  0  0  0  0  0  0  0  0  0  0  0  0  # atno 17371 bound_to 10713
  140.9808  133.7268  156.0670 LP  0  0  0  0  0  0  0  0  0  0  0  0  # atno 17394 bound_to 11000
  140.7751  134.3788  157.5499 LP  0  0  0  0  0  0  0  0  0  0  0  0  # atno 17395 bound_to 11000

$$$$
