#       Name:                AV-unprocessed.smi:1958
#       Creating user name   scv26
#       Creation time:       Fri Mar 27 10:07:34 2020


#       File generated by GOLD software.
#

@<TRIPOS>MOLECULE
AV-unprocessed.smi:1958
    57    58     1
SMALL
NO_CHARGES


@<TRIPOS>ATOM
      1 ****        -6.4078   2.0148   3.1670 C.3            1 S1                 0.0000
      2 ****        -5.9084   1.7206   1.8742 O.3            1 S1                 0.0000
      3 ****        -5.1682   0.5121   1.8407 C.3            1 S1                 0.0000
      4 ****        -4.6832   0.2659   0.4041 C.3            1 S1                 0.0000
      5 ****        -3.9002  -0.9698   0.3036 N.am           1 S1                 0.0000
      6 ****        -2.5309  -0.7757   0.3655 N.2            1 S1                 0.0000
      7 ****        -1.7217  -1.7831   0.2866 C.2            1 S1                 0.0000
      8 ****        -0.2372  -1.5943   0.3396 C.2            1 S1                 0.0000
      9 ****         0.4501  -2.6163   0.2130 O.2            1 S1                 0.0000
     10 ****         0.2420  -0.3247   0.5118 N.pl3          1 S1                -1.0000
     11 ****         1.6563   0.0514   0.5426 C.3            1 S1                 0.0000
     12 ****         2.2084   0.2507  -0.8962 C.3            1 S1                 0.0000
     13 ****         1.5619   1.4297  -1.6668 C.3            1 S1                 0.0000
     14 ****         3.7032   0.3132  -0.8844 N.4            1 S1                 1.0000
     15 ****         4.3305  -0.3249  -2.0687 C.3            1 S1                 0.0000
     16 ****         5.8581  -0.3816  -1.8988 C.3            1 S1                 0.0000
     17 ****         6.3695   0.9272  -1.6794 O.3            1 S1                 0.0000
     18 ****         5.8380   1.5163  -0.4988 C.3            1 S1                 0.0000
     19 ****         4.3132   1.6500  -0.6373 C.3            1 S1                 0.0000
     20 ****        -2.2403  -3.1359   0.1361 C.2            1 S1                 0.0000
     21 ****        -3.5789  -3.3099   0.0830 C.2            1 S1                 0.0000
     22 ****        -4.5106  -2.1851   0.1713 C.2            1 S1                 0.0000
     23 ****        -5.7335  -2.3197   0.1324 O.2            1 S1                 0.0000
     24 ****        -6.9619   2.9530   3.1410 H              1 S1                 0.0000
     25 ****        -5.5969   2.1223   3.8884 H              1 S1                 0.0000
     26 ****        -7.0852   1.2338   3.5147 H              1 S1                 0.0000
     27 ****        -4.3155   0.5780   2.5185 H              1 S1                 0.0000
     28 ****        -5.7945  -0.3155   2.1780 H              1 S1                 0.0000
     29 ****        -5.5346   0.2325  -0.2779 H              1 S1                 0.0000
     30 ****        -4.0812   1.1150   0.0747 H              1 S1                 0.0000
     31 ****         1.8090   0.9685   1.1118 H              1 S1                 0.0000
     32 ****         2.2601  -0.7013   1.0523 H              1 S1                 0.0000
     33 ****         1.9463  -0.6570  -1.4424 H              1 S1                 0.0000
     34 ****         0.4888   1.2848  -1.8041 H              1 S1                 0.0000
     35 ****         1.9899   1.5225  -2.6649 H              1 S1                 0.0000
     36 ****         1.6963   2.3883  -1.1624 H              1 S1                 0.0000
     37 ****         3.9473  -1.3379  -2.1983 H              1 S1                 0.0000
     38 ****         4.0722   0.2344  -2.9689 H              1 S1                 0.0000
     39 ****         6.1328  -1.0348  -1.0690 H              1 S1                 0.0000
     40 ****         6.3201  -0.7955  -2.7950 H              1 S1                 0.0000
     41 ****         6.1010   0.9174   0.3747 H              1 S1                 0.0000
     42 ****         6.2904   2.4984  -0.3603 H              1 S1                 0.0000
     43 ****         4.0875   2.3272  -1.4619 H              1 S1                 0.0000
     44 ****         3.9045   2.0992   0.2682 H              1 S1                 0.0000
     45 ****        -1.5824  -3.9898   0.0688 H              1 S1                 0.0000
     46 ****        -3.9751  -4.3083  -0.0280 H              1 S1                 0.0000
     47 ****         3.9730  -0.2647  -0.1009 H              1 S1                 0.0000
     48 ****        -5.3135   2.4694   1.5821 LP             1 S1                 0.0000
     49 ****        -6.6798   1.6419   1.2426 LP             1 S1                 0.0000
     50 ****        -2.1645   0.1486   0.4719 LP             1 S1                 0.0000
     51 ****         0.0075  -3.5037   0.0840 LP             1 S1                 0.0000
     52 ****         1.4478  -2.5544   0.2398 LP             1 S1                 0.0000
     53 ****        -0.4297   0.4073   0.6262 LP             1 S1                 0.0000
     54 ****         6.1316   1.5021  -2.4622 LP             1 S1                 0.0000
     55 ****         7.3645   0.8749  -1.5943 LP             1 S1                 0.0000
     56 ****        -6.3272  -1.5178   0.1988 LP             1 S1                 0.0000
     57 ****        -6.1334  -3.2311   0.0344 LP             1 S1                 0.0000
@<TRIPOS>BOND
    1    1    2 1     
    2    1   24 1     
    3    1   25 1     
    4    1   26 1     
    5    2    3 1     
    6    3    4 1     
    7    3   27 1     
    8    3   28 1     
    9    4    5 1     
   10    4   29 1     
   11    4   30 1     
   12    5   22 am    
   13    5    6 1     
   14    6    7 2     
   15    7    8 1     
   16    7   20 1     
   17    8    9 2     
   18    8   10 1     
   19   10   11 1     
   20   11   12 1     
   21   11   31 1     
   22   11   32 1     
   23   12   13 1     
   24   12   14 1     
   25   12   33 1     
   26   13   34 1     
   27   13   35 1     
   28   13   36 1     
   29   14   19 1     
   30   14   15 1     
   31   14   47 1     
   32   15   16 1     
   33   15   37 1     
   34   15   38 1     
   35   16   17 1     
   36   16   39 1     
   37   16   40 1     
   38   17   18 1     
   39   18   19 1     
   40   18   41 1     
   41   18   42 1     
   42   19   43 1     
   43   19   44 1     
   44   20   21 2     
   45   20   45 1     
   46   21   22 1     
   47   21   46 1     
   48   22   23 2     
   49    2   48 1     
   50    2   49 1     
   51    6   50 1     
   52    9   51 1     
   53    9   52 1     
   54   10   53 1     
   55   17   54 1     
   56   17   55 1     
   57   23   56 1     
   58   23   57 1     
@<TRIPOS>SUBSTRUCTURE
      1 S1             1
@<TRIPOS>SET
LONE_PAIRS      STATIC     ATOMS    <user>   **** ""
10 48 49 50 51 52 53 54 55 56 57
DONOR_HYDROGENS      STATIC     ATOMS    <user>   **** ""
1 47
ATOM$BLUE        STATIC     ATOMS    COLORGROUP SYSTEM
10 48 49 50 51 52 53 54 55 56 57
ATOM$RED        STATIC     ATOMS    COLORGROUP SYSTEM
1 47
