AV-unprocessed.smi:171|AV-procd|sdf|1414|dock2
  -GOLD-   2262019173D 1   1.00000     0.00000
 Structure written by MMmdl.
 56 59  0  0  0  0  0  0  0  0  1 V2000
  152.2095  137.7417  153.8755 C   0  0  0  0  0  0  0  0  0  0  0  0
  151.6173  138.9782  154.5718 C   0  0  0  0  0  0  0  0  0  0  0  0
  152.4200  139.3070  155.8408 C   0  0  0  0  0  0  0  0  0  0  0  0
  150.1087  138.8153  154.8996 C   0  0  0  0  0  0  0  0  0  0  0  0
  149.4571  139.9461  155.7484 C   0  0  2  0  0  0  0  0  0  0  0  0
  149.3990  141.3002  155.0049 C   0  0  0  0  0  0  0  0  0  0  0  0
  149.0126  141.3416  153.8382 O   0  0  0  0  0  0  0  0  0  0  0  0
  149.7442  142.4220  155.6601 N   0  0  0  0  0  0  0  0  0  0  0  0
  150.2164  142.4858  157.0403 C   0  0  0  0  0  0  0  0  0  0  0  0
  149.8127  141.2479  157.8533 C   0  0  0  0  0  0  0  0  0  0  0  0
  150.0770  140.0414  157.0808 N   0  0  0  0  0  0  0  0  0  0  0  0
  150.0584  138.9235  157.8404 C   0  0  0  0  0  0  0  0  0  0  0  0
  151.2200  138.3997  158.3114 N   0  0  0  0  0  0  0  0  0  0  0  0
  151.1917  137.3082  159.0825 C   0  0  0  0  0  0  0  0  0  0  0  0
  150.1345  136.6056  159.4972 N   0  0  0  0  0  0  0  0  0  0  0  0
  148.9697  137.1314  159.0194 C   0  0  0  0  0  0  0  0  0  0  0  0
  148.8452  138.2718  158.1800 C   0  0  0  0  0  0  0  0  0  0  0  0
  147.5091  138.5078  157.8847 N   0  0  0  0  0  0  0  0  0  0  0  0
  146.8751  137.5652  158.5266 C   0  0  0  0  0  0  0  0  0  0  0  0
  147.6733  136.7035  159.2461 N   0  0  0  0  0  0  0  0  0  0  0  0
  147.2333  135.5852  160.0651 C   0  0  0  0  0  0  0  0  0  0  0  0
  146.5425  136.0255  161.3830 C   0  0  1  0  0  0  0  0  0  0  0  0
  147.2637  137.1247  161.9139 O   0  0  0  0  0  0  0  0  0  0  0  0
  145.0943  136.4709  161.1914 C   0  0  0  0  0  0  0  0  0  0  0  0
  144.4462  136.1236  162.5225 C   0  0  0  0  0  0  0  0  0  0  0  0
  145.0522  134.8836  162.8398 O   0  0  0  0  0  0  0  0  0  0  0  0
  146.4344  134.9478  162.4992 C   0  0  1  0  0  0  0  0  0  0  0  0
  146.8966  133.5269  162.1405 C   0  0  0  0  0  0  0  0  0  0  0  0
  152.1019  136.8487  154.4919 H   0  0  0  0  0  0  0  0  0  0  0  0
  153.2723  137.8783  153.6745 H   0  0  0  0  0  0  0  0  0  0  0  0
  151.7276  137.5473  152.9186 H   0  0  0  0  0  0  0  0  0  0  0  0
  151.7513  139.8235  153.8978 H   0  0  0  0  0  0  0  0  0  0  0  0
  152.3426  138.5071  156.5779 H   0  0  0  0  0  0  0  0  0  0  0  0
  152.0623  140.2263  156.3062 H   0  0  0  0  0  0  0  0  0  0  0  0
  153.4766  139.4500  155.6126 H   0  0  0  0  0  0  0  0  0  0  0  0
  149.5484  138.6682  153.9753 H   0  0  0  0  0  0  0  0  0  0  0  0
  149.9650  137.8781  155.4386 H   0  0  0  0  0  0  0  0  0  0  0  0
  148.4095  139.6779  155.8947 H   0  0  0  0  0  0  0  0  0  0  0  0
  149.6856  143.2961  155.1578 H   0  0  0  0  0  0  0  0  0  0  0  0
  151.3034  142.5707  157.0159 H   0  0  0  0  0  0  0  0  0  0  0  0
  149.8383  143.3922  157.5133 H   0  0  0  0  0  0  0  0  0  0  0  0
  150.3558  141.2342  158.8000 H   0  0  0  0  0  0  0  0  0  0  0  0
  148.7492  141.2902  158.0951 H   0  0  0  0  0  0  0  0  0  0  0  0
  152.1528  136.9497  159.4205 H   0  0  0  0  0  0  0  0  0  0  0  0
  145.7987  137.4789  158.5011 H   0  0  0  0  0  0  0  0  0  0  0  0
  146.5550  134.9823  159.4606 H   0  0  0  0  0  0  0  0  0  0  0  0
  148.0994  134.9578  160.2790 H   0  0  0  0  0  0  0  0  0  0  0  0
  147.0408  137.2166  162.8276 H   0  0  0  0  0  0  0  0  0  0  0  0
  144.9862  137.5225  160.9208 H   0  0  0  0  0  0  0  0  0  0  0  0
  144.6203  135.8768  160.4091 H   0  0  0  0  0  0  0  0  0  0  0  0
  144.6900  136.8630  163.2868 H   0  0  0  0  0  0  0  0  0  0  0  0
  143.3618  136.0365  162.4547 H   0  0  0  0  0  0  0  0  0  0  0  0
  146.9760  135.2695  163.3909 H   0  0  0  0  0  0  0  0  0  0  0  0
  147.9546  133.5058  161.8784 H   0  0  0  0  0  0  0  0  0  0  0  0
  146.3282  133.1191  161.3044 H   0  0  0  0  0  0  0  0  0  0  0  0
  146.7581  132.8540  162.9869 H   0  0  0  0  0  0  0  0  0  0  0  0
  1  2  1  0  0  0  0
  1 29  1  0  0  0  0
  1 30  1  0  0  0  0
  1 31  1  0  0  0  0
  2  3  1  0  0  0  0
  2  4  1  0  0  0  0
  2 32  1  0  0  0  0
  3 33  1  0  0  0  0
  3 34  1  0  0  0  0
  3 35  1  0  0  0  0
  4  5  1  0  0  0  0
  4 36  1  0  0  0  0
  4 37  1  0  0  0  0
  5 11  1  0  0  0  0
  5  6  1  0  0  0  0
  5 38  1  0  0  0  0
  6  7  2  0  0  0  0
  6  8  1  0  0  0  0
  8  9  1  0  0  0  0
  8 39  1  0  0  0  0
  9 10  1  0  0  0  0
  9 40  1  0  0  0  0
  9 41  1  0  0  0  0
 10 11  1  0  0  0  0
 10 42  1  0  0  0  0
 10 43  1  0  0  0  0
 11 12  1  0  0  0  0
 12 17  1  0  0  0  0
 12 13  2  0  0  0  0
 13 14  1  0  0  0  0
 14 15  2  0  0  0  0
 14 44  1  0  0  0  0
 15 16  1  0  0  0  0
 16 20  1  0  0  0  0
 16 17  2  0  0  0  0
 17 18  1  0  0  0  0
 18 19  2  0  0  0  0
 19 20  1  0  0  0  0
 19 45  1  0  0  0  0
 20 21  1  0  0  0  0
 21 22  1  0  0  0  0
 21 46  1  0  0  0  0
 21 47  1  0  0  0  0
 22 27  1  0  0  0  0
 22 23  1  0  0  0  0
 22 24  1  0  0  0  0
 23 48  1  0  0  0  0
 24 25  1  0  0  0  0
 24 49  1  0  0  0  0
 24 50  1  0  0  0  0
 25 26  1  0  0  0  0
 25 51  1  0  0  0  0
 25 52  1  0  0  0  0
 26 27  1  0  0  0  0
 27 28  1  0  0  0  0
 27 53  1  0  0  0  0
 28 54  1  0  0  0  0
 28 55  1  0  0  0  0
 28 56  1  0  0  0  0
M  END
> <s_m_source_file>
AV-unprocessed.smi

> <i_m_source_file_index>
171

> <i_lp_mmshare_version>
43012

> <i_f3d_flags>
0

> <s_epik_input>
W0NIM11bQ0hdKFtDSDNdKVtDSDJdW0NAQEhdMUMoPU8pW05IXVtDSDJdW0NIMl1OMWMobltjSF1uMiljKGMyMyluW2NIXW4zW0NIMl1bQ0BAXTQoW09IXSlbQ0gyXVtDSDJdT1tDQEhdNFtDSDNd

> <s_epik_cmdline>
J2VwaWtfcHl0aG9uJywgJy1waCcsICc3LjAnLCAnLXRuJywgJzgnLCAnLW1hJywgJzIwMCcsICctbWV0YWxfYmluZGluZycsICctaW1hZScsICc8aW5maWxlLm1hZT4nLCAnLW9tYWUnLCAnPG91dGZpbGUubWFlPic=

> <r_lp_tautomer_probability>
1

> <r_epik_Ionization_Penalty>
0.000670584

> <r_epik_Ionization_Penalty_Charging>
0

> <r_epik_Ionization_Penalty_Neutral>
0.000670584

> <r_epik_State_Penalty>
0.000304767

> <r_epik_Charging_Adjusted_Penalty>
0.000304767

> <i_epik_Tot_Q>
0

> <i_epik_Tot_abs_Q>
0

> <r_epik_Metal_State_Penalty>
-0

> <b_epik_Metal_Only>
0

> <s_lp_Force_Field>
OPLS_2005

> <r_lp_Energy>
42.1077

> <b_lp_Chiralities_Consistent>
1

> <s_lp_Variant>
AV-unprocessed.smi:171-1

> <Gold.Version>
5.8.1

> <Gold.Id.Protein>
6NUR|6NUR_protein|mol2

> <Gold.PLP.Fitness>
49.8589

> <Gold.PLP.PLP>
-39.2855

> <Gold.PLP.part.hbond>
-5.1781

> <Gold.PLP.part.metal>
0.0000

> <Gold.PLP.part.buried>
-1.7098

> <Gold.PLP.part.nonpolar>
-32.8862

> <Gold.PLP.part.repulsive>
0.6683

> <Gold.PLP.ligand.clash>
0.0000

> <Gold.PLP.ligand.torsion>
0.7579

> <Gold.PLP.Chemscore.Hbond>
3.8784

> <Gold.PLP.Chemscore.CHOScore>
0.0000

> <Gold.PLP.Chemscore.Metal>
0.0000

> <Gold.Chemscore.Hbonds>
donor molecule, donor type, donor heavy atom, donor atom, acceptor molecule, acceptor atom, score
      L1  H     8    39       P1  8028  0.56
      P1  H  6896  6907       L1    15  0.80
      P1  H  6931  6943       L1    23  0.68
      P1  H  6934  6947       L1    23  0.60
      P1  H  8011  8017       L1     7  0.80

> <Gold.PLP.Chemscore.Internal.Correction>
0.4539

> <Gold.Rescore>
     Score         DG    S(hbond)    S(metal)    S(lipo)     H(rot)  DE(clash)    DE(int)     intcor
     12.24     -18.19       2.72        0.00      88.14       2.61       3.10       2.85       ----

> <Gold.Chemscore.Fitness>
12.2397

> <Gold.Chemscore.DG>
-18.1878

> <Gold.Chemscore.ZeroCoef>
-5.4800

> <Gold.Chemscore.Hbond>
2.7155

> <Gold.Chemscore.Metal>
0.0000

> <Gold.Chemscore.Lipo>
88.1444

> <Gold.Chemscore.Internal_Hbond>
0.0000

> <Gold.Chemscore.DEClash>
3.0988

> <Gold.Chemscore.DEInternal>
2.8493

> <Gold.Chemscore.Rot>
2.6074

> <Gold.Chemscore.Internal.Correction>
   9.000000E+99

> <Gold.Chemscore.Hbonds>
donor molecule, donor type, donor heavy atom, donor atom, acceptor molecule, acceptor atom, score
      L1  H     8    39       P1  8028  0.56
      P1  H  6896  6907       L1    15  0.12
      P1  H  6931  6943       L1    23  0.13
      P1  H  6934  6947       L1    23  0.43
      P1  H  8011  8017       L1     7  0.76

> <Gold.Chemscore.Hbond.Weighted>
-9.0697

> <Gold.Chemscore.Metal.Weighted>
-0.0000

> <Gold.Chemscore.Lipo.Weighted>
-10.3129

> <Gold.Chemscore.Internal_Hbond.Weighted>
0.0000

> <Gold.Chemscore.DEClash.Weighted>
3.0988

> <Gold.Chemscore.DEInternal.Weighted>
2.8493

> <Gold.Chemscore.Rot.Weighted>
6.6748

> <Gold.Chemscore.Internal.Correction.Weighted>
   9.000000E+99

> <Gold.Protein.RotatedTorsions>
[ 6907 6896 6895 6894 ] final  -31.27 input  -60.11 | X-H torsion
[ 7974 7965 7964 7962 ] final  -54.84 input  175.53 | X-H torsion
[ 8008 7997 7996 7995 ] final -111.38 input   59.86 | X-H torsion
[ 10167 10162 10161 10158 ] final -144.34 input  -65.29 | X-H torsion
[ 10718 10713 10712 10709 ] final  -36.42 input   66.30 | X-H torsion
[ 10763 10752 10751 10750 ] final  160.04 input  -60.55 | X-H torsion
[ 11005 11000 10999 10996 ] final -103.28 input  -57.11 | X-H torsion

> <Gold.Protein.ActiveResidues>
 VAL166  LYS551  ARG553  GLY616  TRP617  ASP618  TYR619  PRO620  LYS621  CYS622 
 ASP623  PHE694  ASN695  SER759  ASP760  ASP761  ALA762  ILE779  LEU786  VAL792 
 PHE793  MET794  SER795  GLU796  ALA797  LYS798  CYS799  TRP800  GLU811  SER814 

> <Gold.Protein.RotatedAtoms>
  151.0943  134.9935  159.8417 H   0  0  0  0  0  0  0  0  0  0  0  0  # atno 6907 bound_to 6896
  152.5432  134.2027  159.8728 H   0  0  0  0  0  0  0  0  0  0  0  0  # atno 6908 bound_to 6896
  151.2065  133.4536  159.2630 H   0  0  0  0  0  0  0  0  0  0  0  0  # atno 6909 bound_to 6896
  145.8810  140.8144  142.9840 H   0  0  0  0  0  0  0  0  0  0  0  0  # atno 7974 bound_to 7965
  154.9889  140.0395  157.2311 H   0  0  0  0  0  0  0  0  0  0  0  0  # atno 8008 bound_to 7997
  154.7646  140.2790  155.6164 H   0  0  0  0  0  0  0  0  0  0  0  0  # atno 8009 bound_to 7997
  156.2910  140.2622  156.2433 H   0  0  0  0  0  0  0  0  0  0  0  0  # atno 8010 bound_to 7997
  139.7908  143.7968  152.2649 H   0  0  0  0  0  0  0  0  0  0  0  0  # atno 10167 bound_to 10162
  156.3270  130.4274  149.7907 H   0  0  0  0  0  0  0  0  0  0  0  0  # atno 10718 bound_to 10713
  154.2413  135.2774  155.2853 H   0  0  0  0  0  0  0  0  0  0  0  0  # atno 10763 bound_to 10752
  154.5543  135.5666  153.6953 H   0  0  0  0  0  0  0  0  0  0  0  0  # atno 10764 bound_to 10752
  152.9999  135.6282  154.2557 H   0  0  0  0  0  0  0  0  0  0  0  0  # atno 10765 bound_to 10752
  141.1152  133.8627  157.1466 H   0  0  0  0  0  0  0  0  0  0  0  0  # atno 11005 bound_to 11000
  144.6727  140.1383  143.7439 LP  0  0  0  0  0  0  0  0  0  0  0  0  # atno 17320 bound_to 7965
  145.9024  139.2438  143.1486 LP  0  0  0  0  0  0  0  0  0  0  0  0  # atno 17321 bound_to 7965
  139.8059  144.7355  150.9762 LP  0  0  0  0  0  0  0  0  0  0  0  0  # atno 17342 bound_to 10162
  140.7820  143.4298  151.0711 LP  0  0  0  0  0  0  0  0  0  0  0  0  # atno 17343 bound_to 10162
  156.5194  130.8208  151.3198 LP  0  0  0  0  0  0  0  0  0  0  0  0  # atno 17370 bound_to 10713
  157.7423  130.9888  150.2507 LP  0  0  0  0  0  0  0  0  0  0  0  0  # atno 17371 bound_to 10713
  140.0070  135.0004  157.0315 LP  0  0  0  0  0  0  0  0  0  0  0  0  # atno 17394 bound_to 11000
  140.4664  134.1431  155.7197 LP  0  0  0  0  0  0  0  0  0  0  0  0  # atno 17395 bound_to 11000

$$$$
