AV-unprocessed.smi:2820|AV-procd|sdf|10854|dock4
  -GOLD-   2272015293D 1   1.00000     0.00000
 Structure written by MMmdl.
 29 30  0  0  0  0  0  0  0  0  1 V2000
  149.5403  141.0098  154.6527 C   0  0  0  0  0  0  0  0  0  0  0  0
  149.8666  142.0810  155.5793 N   0  0  0  0  0  0  0  0  0  0  0  0
  150.5453  141.8155  156.7771 C   0  0  0  0  0  0  0  0  0  0  0  0
  150.9661  140.5211  157.1610 C   0  0  0  0  0  0  0  0  0  0  0  0
  151.6425  140.3577  158.3854 C   0  0  0  0  0  0  0  0  0  0  0  0
  151.8773  141.4924  159.1890 C   0  0  0  0  0  0  0  0  0  0  0  0
  152.5524  141.3355  160.4079 N   0  0  0  0  0  0  0  0  0  0  0  0
  153.8472  140.6798  160.2724 C   0  0  0  0  0  0  0  0  0  0  0  0
  154.4603  140.4336  161.6618 C   0  0  0  0  0  0  0  0  0  0  0  0
  154.5493  141.6665  162.3707 O   0  0  0  0  0  0  0  0  0  0  0  0
  153.2716  142.2679  162.5614 C   0  0  0  0  0  0  0  0  0  0  0  0
  152.6301  142.5608  161.1940 C   0  0  0  0  0  0  0  0  0  0  0  0
  151.4779  142.7349  158.8290 N   0  0  0  0  0  0  0  0  0  0  0  0
  150.8305  142.8833  157.6540 C   0  0  0  0  0  0  0  0  0  0  0  0
  149.0143  141.4152  153.7883 H   0  0  0  0  0  0  0  0  0  0  0  0
  148.8944  140.2699  155.1265 H   0  0  0  0  0  0  0  0  0  0  0  0
  150.4446  140.5144  154.2980 H   0  0  0  0  0  0  0  0  0  0  0  0
  149.5934  143.0266  155.3519 H   0  0  0  0  0  0  0  0  0  0  0  0
  150.7822  139.6572  156.5398 H   0  0  0  0  0  0  0  0  0  0  0  0
  151.9738  139.3788  158.6995 H   0  0  0  0  0  0  0  0  0  0  0  0
  153.7301  139.7346  159.7407 H   0  0  0  0  0  0  0  0  0  0  0  0
  154.5168  141.3040  159.6789 H   0  0  0  0  0  0  0  0  0  0  0  0
  153.8632  139.7182  162.2294 H   0  0  0  0  0  0  0  0  0  0  0  0
  155.4588  140.0079  161.5625 H   0  0  0  0  0  0  0  0  0  0  0  0
  152.6349  141.6124  163.1576 H   0  0  0  0  0  0  0  0  0  0  0  0
  153.3944  143.1925  163.1253 H   0  0  0  0  0  0  0  0  0  0  0  0
  153.2227  143.3054  160.6609 H   0  0  0  0  0  0  0  0  0  0  0  0
  151.6314  142.9777  161.3291 H   0  0  0  0  0  0  0  0  0  0  0  0
  150.5306  143.8913  157.4069 H   0  0  0  0  0  0  0  0  0  0  0  0
  1  2  1  0  0  0  0
  1 15  1  0  0  0  0
  1 16  1  0  0  0  0
  1 17  1  0  0  0  0
  2  3  1  0  0  0  0
  2 18  1  0  0  0  0
  3 14  1  0  0  0  0
  3  4  2  0  0  0  0
  4  5  1  0  0  0  0
  4 19  1  0  0  0  0
  5  6  2  0  0  0  0
  5 20  1  0  0  0  0
  6  7  1  0  0  0  0
  6 13  1  0  0  0  0
  7 12  1  0  0  0  0
  7  8  1  0  0  0  0
  8  9  1  0  0  0  0
  8 21  1  0  0  0  0
  8 22  1  0  0  0  0
  9 10  1  0  0  0  0
  9 23  1  0  0  0  0
  9 24  1  0  0  0  0
 10 11  1  0  0  0  0
 11 12  1  0  0  0  0
 11 25  1  0  0  0  0
 11 26  1  0  0  0  0
 12 27  1  0  0  0  0
 12 28  1  0  0  0  0
 13 14  2  0  0  0  0
 14 29  1  0  0  0  0
M  END
> <s_m_source_file>
AV-unprocessed.smi

> <i_m_source_file_index>
2820

> <i_lp_mmshare_version>
43012

> <i_f3d_flags>
0

> <s_epik_input>
W0NIM11bTkhdYzFbY0hdW2NIXWMobltjSF0xKU4yW0NIMl1bQ0gyXU9bQ0gyXVtDSDJdMg==

> <s_epik_cmdline>
J2VwaWtfcHl0aG9uJywgJy1waCcsICc3LjAnLCAnLXRuJywgJzgnLCAnLW1hJywgJzIwMCcsICctbWV0YWxfYmluZGluZycsICctaW1hZScsICc8aW5maWxlLm1hZT4nLCAnLW9tYWUnLCAnPG91dGZpbGUubWFlPic=

> <r_lp_tautomer_probability>
1

> <r_epik_Ionization_Penalty>
0.0411205

> <r_epik_Ionization_Penalty_Charging>
0

> <r_epik_Ionization_Penalty_Neutral>
0.0411205

> <r_epik_State_Penalty>
0.0346301

> <r_epik_Charging_Adjusted_Penalty>
0.0346301

> <i_epik_Tot_Q>
0

> <i_epik_Tot_abs_Q>
0

> <r_epik_Metal_State_Penalty>
3.56611e-05

> <b_epik_Metal_Only>
0

> <s_lp_Force_Field>
OPLS_2005

> <r_lp_Energy>
22.0638

> <b_lp_Chiralities_Consistent>
1

> <s_lp_Variant>
AV-unprocessed.smi:2820-1

> <Gold.Version>
5.8.1

> <Gold.Id.Protein>
6NUR|6NUR_protein|mol2

> <Gold.PLP.Fitness>
36.3712

> <Gold.PLP.PLP>
-30.4014

> <Gold.PLP.part.hbond>
-2.0000

> <Gold.PLP.part.metal>
0.0000

> <Gold.PLP.part.buried>
-2.9318

> <Gold.PLP.part.nonpolar>
-25.3941

> <Gold.PLP.part.repulsive>
0.1922

> <Gold.PLP.ligand.clash>
0.0000

> <Gold.PLP.ligand.torsion>
0.0498

> <Gold.PLP.Chemscore.Hbond>
1.0000

> <Gold.PLP.Chemscore.CHOScore>
0.9900

> <Gold.PLP.Chemscore.Metal>
0.0000

> <Gold.Chemscore.Hbonds>
donor molecule, donor type, donor heavy atom, donor atom, acceptor molecule, acceptor atom, score
      L1  H     2    18       P1  8028  1.00
      L1  C    14    29       P1  8028  1.00

> <Gold.PLP.Chemscore.Internal.Correction>
0.0992

> <Gold.Rescore>
     Score         DG    S(hbond)    S(metal)    S(lipo)     H(rot)  DE(clash)    DE(int)     intcor
     14.22     -14.54       0.99        0.00      71.09       1.00       0.24       0.08       ----

> <Gold.Chemscore.Fitness>
14.2169

> <Gold.Chemscore.DG>
-14.5384

> <Gold.Chemscore.ZeroCoef>
-5.4800

> <Gold.Chemscore.Hbond>
0.9884

> <Gold.Chemscore.Metal>
0.0000

> <Gold.Chemscore.Lipo>
71.0857

> <Gold.Chemscore.Internal_Hbond>
0.0000

> <Gold.Chemscore.DEClash>
0.2407

> <Gold.Chemscore.DEInternal>
0.0808

> <Gold.Chemscore.Rot>
1.0000

> <Gold.Chemscore.Internal.Correction>
   9.000000E+99

> <Gold.Chemscore.Hbonds>
donor molecule, donor type, donor heavy atom, donor atom, acceptor molecule, acceptor atom, score
      L1  H     2    18       P1  8028  0.99

> <Gold.Chemscore.Hbond.Weighted>
-3.3014

> <Gold.Chemscore.Metal.Weighted>
-0.0000

> <Gold.Chemscore.Lipo.Weighted>
-8.3170

> <Gold.Chemscore.Internal_Hbond.Weighted>
0.0000

> <Gold.Chemscore.DEClash.Weighted>
0.2407

> <Gold.Chemscore.DEInternal.Weighted>
0.0808

> <Gold.Chemscore.Rot.Weighted>
2.5600

> <Gold.Chemscore.Internal.Correction.Weighted>
   9.000000E+99

> <Gold.Protein.RotatedTorsions>
[ 6907 6896 6895 6894 ] final  144.63 input  -60.11 | X-H torsion
[ 7974 7965 7964 7962 ] final  167.79 input  175.53 | X-H torsion
[ 8008 7997 7996 7995 ] final   86.93 input   59.86 | X-H torsion
[ 10167 10162 10161 10158 ] final    1.50 input  -65.29 | X-H torsion
[ 10718 10713 10712 10709 ] final -101.21 input   66.30 | X-H torsion
[ 10763 10752 10751 10750 ] final  -92.15 input  -60.55 | X-H torsion
[ 11005 11000 10999 10996 ] final   90.81 input  -57.11 | X-H torsion

> <Gold.Protein.ActiveResidues>
 VAL166  LYS551  ARG553  GLY616  TRP617  ASP618  TYR619  PRO620  LYS621  CYS622 
 ASP623  PHE694  ASN695  SER759  ASP760  ASP761  ALA762  ILE779  LEU786  VAL792 
 PHE793  MET794  SER795  GLU796  ALA797  LYS798  CYS799  TRP800  GLU811  SER814 

> <Gold.Protein.RotatedAtoms>
  152.1912  133.4774  159.5008 H   0  0  0  0  0  0  0  0  0  0  0  0  # atno 6907 bound_to 6896
  150.6951  134.1710  159.4221 H   0  0  0  0  0  0  0  0  0  0  0  0  # atno 6908 bound_to 6896
  151.9624  135.0116  160.0599 H   0  0  0  0  0  0  0  0  0  0  0  0  # atno 6909 bound_to 6896
  144.7411  139.8813  143.6396 H   0  0  0  0  0  0  0  0  0  0  0  0  # atno 7974 bound_to 7965
  155.9690  140.3387  155.6558 H   0  0  0  0  0  0  0  0  0  0  0  0  # atno 8008 bound_to 7997
  155.6699  140.0725  157.2542 H   0  0  0  0  0  0  0  0  0  0  0  0  # atno 8009 bound_to 7997
  154.4161  140.1693  156.1856 H   0  0  0  0  0  0  0  0  0  0  0  0  # atno 8010 bound_to 7997
  140.6679  143.7128  150.7864 H   0  0  0  0  0  0  0  0  0  0  0  0  # atno 10167 bound_to 10162
  156.0187  130.5363  150.6930 H   0  0  0  0  0  0  0  0  0  0  0  0  # atno 10718 bound_to 10713
  154.6832  135.5242  153.8291 H   0  0  0  0  0  0  0  0  0  0  0  0  # atno 10763 bound_to 10752
  153.0579  135.6557  154.0542 H   0  0  0  0  0  0  0  0  0  0  0  0  # atno 10764 bound_to 10752
  154.0426  135.2976  155.3332 H   0  0  0  0  0  0  0  0  0  0  0  0  # atno 10765 bound_to 10752
  139.8849  134.8636  156.3337 H   0  0  0  0  0  0  0  0  0  0  0  0  # atno 11005 bound_to 11000
  146.1209  139.4227  143.0229 LP  0  0  0  0  0  0  0  0  0  0  0  0  # atno 17320 bound_to 7965
  145.7306  141.0044  143.1354 LP  0  0  0  0  0  0  0  0  0  0  0  0  # atno 17321 bound_to 7965
  140.0808  143.4970  152.2531 LP  0  0  0  0  0  0  0  0  0  0  0  0  # atno 17342 bound_to 10162
  139.5936  144.7559  151.3341 LP  0  0  0  0  0  0  0  0  0  0  0  0  # atno 17343 bound_to 10162
  157.4607  131.0883  151.0748 LP  0  0  0  0  0  0  0  0  0  0  0  0  # atno 17370 bound_to 10713
  157.1237  130.6072  149.5511 LP  0  0  0  0  0  0  0  0  0  0  0  0  # atno 17371 bound_to 10713
  140.9705  133.7330  156.0528 LP  0  0  0  0  0  0  0  0  0  0  0  0  # atno 17394 bound_to 11000
  140.7876  134.3654  157.5472 LP  0  0  0  0  0  0  0  0  0  0  0  0  # atno 17395 bound_to 11000

$$$$
