AV-unprocessed.smi:699|AV-procd|sdf|3401|dock2
  -GOLD-   22720 0383D 1   1.00000     0.00000
 Structure written by MMmdl.
 34 35  0  0  0  0  0  0  0  0  1 V2000
  148.9134  137.8505  154.0633 N   0  0  0  0  0  0  0  0  0  0  0  0
  149.0545  139.1720  153.9333 C   0  0  0  0  0  0  0  0  0  0  0  0
  150.1197  139.7381  154.1738 O   0  0  0  0  0  0  0  0  0  0  0  0
  147.8115  139.9655  153.4747 C   0  0  2  0  0  0  0  0  0  0  0  0
  147.3137  140.8992  154.5883 C   0  0  0  0  0  0  0  0  0  0  0  0
  146.3366  140.0682  155.4243 C   0  0  0  0  0  0  0  0  0  0  0  0
  145.7435  139.0274  154.4661 C   0  0  0  0  0  0  0  0  0  0  0  0
  146.5580  139.1051  153.1606 C   0  0  2  0  0  0  0  0  0  0  0  0
  146.8445  137.7689  152.6350 N   0  0  0  0  0  0  0  0  0  0  0  0
  145.9281  136.9238  152.1415 C   0  0  0  0  0  0  0  0  0  0  0  0
  144.7270  137.1870  152.0882 O   0  0  0  0  0  0  0  0  0  0  0  0
  146.4987  135.7777  151.7310 N   0  0  0  0  0  0  0  0  0  0  0  0
  145.8937  134.6331  151.1423 C   0  0  0  0  0  0  0  0  0  0  0  0
  146.6281  133.4292  151.1562 C   0  0  0  0  0  0  0  0  0  0  0  0
  146.0623  132.2796  150.5695 C   0  0  0  0  0  0  0  0  0  0  0  0
  144.8470  132.2683  149.9831 N   0  0  0  0  0  0  0  0  0  0  0  0
  144.1498  133.4236  149.9596 C   0  0  0  0  0  0  0  0  0  0  0  0
  144.6233  134.6288  150.5165 C   0  0  0  0  0  0  0  0  0  0  0  0
  149.6978  137.2896  154.3626 H   0  0  0  0  0  0  0  0  0  0  0  0
  148.0237  137.4162  153.8643 H   0  0  0  0  0  0  0  0  0  0  0  0
  148.0856  140.5510  152.5953 H   0  0  0  0  0  0  0  0  0  0  0  0
  148.1185  141.3161  155.1958 H   0  0  0  0  0  0  0  0  0  0  0  0
  146.7847  141.7410  154.1394 H   0  0  0  0  0  0  0  0  0  0  0  0
  146.8734  139.5631  156.2280 H   0  0  0  0  0  0  0  0  0  0  0  0
  145.5684  140.6874  155.8879 H   0  0  0  0  0  0  0  0  0  0  0  0
  145.7977  138.0371  154.9210 H   0  0  0  0  0  0  0  0  0  0  0  0
  144.6904  139.2309  154.2690 H   0  0  0  0  0  0  0  0  0  0  0  0
  145.9544  139.6448  152.4280 H   0  0  0  0  0  0  0  0  0  0  0  0
  147.8110  137.4768  152.6398 H   0  0  0  0  0  0  0  0  0  0  0  0
  147.4910  135.6984  151.8979 H   0  0  0  0  0  0  0  0  0  0  0  0
  147.6072  133.3810  151.6102 H   0  0  0  0  0  0  0  0  0  0  0  0
  146.6021  131.3443  150.5703 H   0  0  0  0  0  0  0  0  0  0  0  0
  143.1847  133.3891  149.4763 H   0  0  0  0  0  0  0  0  0  0  0  0
  144.0104  135.5128  150.4406 H   0  0  0  0  0  0  0  0  0  0  0  0
  1  2  1  0  0  0  0
  1 19  1  0  0  0  0
  1 20  1  0  0  0  0
  2  3  2  0  0  0  0
  2  4  1  0  0  0  0
  4  8  1  0  0  0  0
  4  5  1  0  0  0  0
  4 21  1  0  0  0  0
  5  6  1  0  0  0  0
  5 22  1  0  0  0  0
  5 23  1  0  0  0  0
  6  7  1  0  0  0  0
  6 24  1  0  0  0  0
  6 25  1  0  0  0  0
  7  8  1  0  0  0  0
  7 26  1  0  0  0  0
  7 27  1  0  0  0  0
  8  9  1  0  0  0  0
  8 28  1  0  0  0  0
  9 10  1  0  0  0  0
  9 29  1  0  0  0  0
 10 11  2  0  0  0  0
 10 12  1  0  0  0  0
 12 13  1  0  0  0  0
 12 30  1  0  0  0  0
 13 18  1  0  0  0  0
 13 14  2  0  0  0  0
 14 15  1  0  0  0  0
 14 31  1  0  0  0  0
 15 16  2  0  0  0  0
 15 32  1  0  0  0  0
 16 17  1  0  0  0  0
 17 18  2  0  0  0  0
 17 33  1  0  0  0  0
 18 34  1  0  0  0  0
M  END
> <s_m_source_file>
AV-unprocessed.smi

> <i_m_source_file_index>
699

> <i_lp_mmshare_version>
43012

> <i_f3d_flags>
0

> <s_epik_input>
W05IMl1DKD1PKVtDQEBIXTFbQ0gyXVtDSDJdW0NIMl1bQ0BIXTFbTkhdQyg9TylbTkhdYzJbY0hdW2NIXW5bY0hdW2NIXTI=

> <s_epik_cmdline>
J2VwaWtfcHl0aG9uJywgJy1waCcsICc3LjAnLCAnLXRuJywgJzgnLCAnLW1hJywgJzIwMCcsICctbWV0YWxfYmluZGluZycsICctaW1hZScsICc8aW5maWxlLm1hZT4nLCAnLW9tYWUnLCAnPG91dGZpbGUubWFlPic=

> <r_epik_Ionization_Penalty>
0.113907

> <r_epik_Ionization_Penalty_Charging>
0

> <r_epik_Ionization_Penalty_Neutral>
0.113907

> <r_epik_State_Penalty>
0.103543

> <r_epik_Charging_Adjusted_Penalty>
0.103543

> <i_epik_Tot_Q>
0

> <i_epik_Tot_abs_Q>
0

> <r_epik_Metal_State_Penalty>
0.0867106

> <b_epik_Metal_Only>
0

> <s_lp_Force_Field>
OPLS_2005

> <r_lp_Energy>
19.4055

> <b_lp_Chiralities_Consistent>
1

> <s_lp_Variant>
AV-unprocessed.smi:699-3

> <Gold.Version>
5.8.1

> <Gold.Id.Protein>
6NUR|6NUR_protein|mol2

> <Gold.PLP.Fitness>
39.0086

> <Gold.PLP.PLP>
-24.8108

> <Gold.PLP.part.hbond>
-3.8947

> <Gold.PLP.part.metal>
0.0000

> <Gold.PLP.part.buried>
-2.6679

> <Gold.PLP.part.nonpolar>
-19.5927

> <Gold.PLP.part.repulsive>
1.1146

> <Gold.PLP.ligand.clash>
0.0000

> <Gold.PLP.ligand.torsion>
0.1840

> <Gold.PLP.Chemscore.Hbond>
2.8480

> <Gold.PLP.Chemscore.CHOScore>
2.0000

> <Gold.PLP.Chemscore.Metal>
0.0000

> <Gold.Chemscore.Hbonds>
donor molecule, donor type, donor heavy atom, donor atom, acceptor molecule, acceptor atom, score
      L1  H     9    29       P1  7948  0.82
      L1  H    12    30       P1  7948  0.99
      P1  H  7989  7998       L1     3  1.00
      L1  C    15    32       P1 10747  1.00
      L1  C    17    33       P1 10186  1.00

> <Gold.PLP.Chemscore.Internal.Correction>
0.0217

> <Gold.Rescore>
     Score         DG    S(hbond)    S(metal)    S(lipo)     H(rot)  DE(clash)    DE(int)     intcor
     13.64     -16.60       2.71        0.00      50.24       1.49       0.20       2.77       ----

> <Gold.Chemscore.Fitness>
13.6416

> <Gold.Chemscore.DG>
-16.6046

> <Gold.Chemscore.ZeroCoef>
-5.4800

> <Gold.Chemscore.Hbond>
2.7121

> <Gold.Chemscore.Metal>
0.0000

> <Gold.Chemscore.Lipo>
50.2433

> <Gold.Chemscore.Internal_Hbond>
0.0000

> <Gold.Chemscore.DEClash>
0.1967

> <Gold.Chemscore.DEInternal>
2.7663

> <Gold.Chemscore.Rot>
1.4892

> <Gold.Chemscore.Internal.Correction>
   9.000000E+99

> <Gold.Chemscore.Hbonds>
donor molecule, donor type, donor heavy atom, donor atom, acceptor molecule, acceptor atom, score
      L1  H     9    29       P1  7948  0.81
      L1  H    12    30       P1  7948  0.90
      P1  H  7989  7998       L1     3  0.94

> <Gold.Chemscore.Hbond.Weighted>
-9.0584

> <Gold.Chemscore.Metal.Weighted>
-0.0000

> <Gold.Chemscore.Lipo.Weighted>
-5.8785

> <Gold.Chemscore.Internal_Hbond.Weighted>
0.0000

> <Gold.Chemscore.DEClash.Weighted>
0.1967

> <Gold.Chemscore.DEInternal.Weighted>
2.7663

> <Gold.Chemscore.Rot.Weighted>
3.8123

> <Gold.Chemscore.Internal.Correction.Weighted>
   9.000000E+99

> <Gold.Protein.RotatedTorsions>
[ 6907 6896 6895 6894 ] final  -55.30 input  -60.11 | X-H torsion
[ 7974 7965 7964 7962 ] final   67.77 input  175.53 | X-H torsion
[ 8008 7997 7996 7995 ] final  138.68 input   59.86 | X-H torsion
[ 10167 10162 10161 10158 ] final   82.71 input  -65.29 | X-H torsion
[ 10718 10713 10712 10709 ] final  -18.93 input   66.30 | X-H torsion
[ 10763 10752 10751 10750 ] final   74.63 input  -60.55 | X-H torsion
[ 11005 11000 10999 10996 ] final -159.15 input  -57.11 | X-H torsion

> <Gold.Protein.ActiveResidues>
 VAL166  LYS551  ARG553  GLY616  TRP617  ASP618  TYR619  PRO620  LYS621  CYS622 
 ASP623  PHE694  ASN695  SER759  ASP760  ASP761  ALA762  ILE779  LEU786  VAL792 
 PHE793  MET794  SER795  GLU796  ALA797  LYS798  CYS799  TRP800  GLU811  SER814 

> <Gold.Protein.RotatedAtoms>
  150.8263  134.7496  159.6815 H   0  0  0  0  0  0  0  0  0  0  0  0  # atno 6907 bound_to 6896
  152.4373  134.5657  159.9916 H   0  0  0  0  0  0  0  0  0  0  0  0  # atno 6908 bound_to 6896
  151.5828  133.3338  159.3048 H   0  0  0  0  0  0  0  0  0  0  0  0  # atno 6909 bound_to 6896
  145.8106  139.3030  143.1101 H   0  0  0  0  0  0  0  0  0  0  0  0  # atno 7974 bound_to 7965
  156.2995  140.2387  156.4112 H   0  0  0  0  0  0  0  0  0  0  0  0  # atno 8008 bound_to 7997
  154.8439  140.0427  157.1579 H   0  0  0  0  0  0  0  0  0  0  0  0  # atno 8009 bound_to 7997
  154.9072  140.2985  155.5289 H   0  0  0  0  0  0  0  0  0  0  0  0  # atno 8010 bound_to 7997
  139.9259  144.6183  150.8393 H   0  0  0  0  0  0  0  0  0  0  0  0  # atno 10167 bound_to 10162
  156.5527  130.4705  149.6444 H   0  0  0  0  0  0  0  0  0  0  0  0  # atno 10718 bound_to 10713
  153.0600  135.5018  154.8071 H   0  0  0  0  0  0  0  0  0  0  0  0  # atno 10763 bound_to 10752
  154.6867  135.2977  154.9539 H   0  0  0  0  0  0  0  0  0  0  0  0  # atno 10764 bound_to 10752
  154.0307  135.6730  153.4833 H   0  0  0  0  0  0  0  0  0  0  0  0  # atno 10765 bound_to 10752
  140.6457  134.4504  157.5234 H   0  0  0  0  0  0  0  0  0  0  0  0  # atno 11005 bound_to 11000
  145.9781  140.8705  143.0128 LP  0  0  0  0  0  0  0  0  0  0  0  0  # atno 17320 bound_to 7965
  144.6758  140.2041  143.7384 LP  0  0  0  0  0  0  0  0  0  0  0  0  # atno 17321 bound_to 7965
  140.7650  143.3264  151.2507 LP  0  0  0  0  0  0  0  0  0  0  0  0  # atno 17342 bound_to 10162
  139.6822  143.9835  152.2815 LP  0  0  0  0  0  0  0  0  0  0  0  0  # atno 17343 bound_to 10162
  156.2870  130.7103  151.1942 LP  0  0  0  0  0  0  0  0  0  0  0  0  # atno 17370 bound_to 10713
  157.7384  131.0541  150.5295 LP  0  0  0  0  0  0  0  0  0  0  0  0  # atno 17371 bound_to 10713
  139.9064  134.8441  156.1692 LP  0  0  0  0  0  0  0  0  0  0  0  0  # atno 17394 bound_to 11000
  141.0574  133.6858  156.1886 LP  0  0  0  0  0  0  0  0  0  0  0  0  # atno 17395 bound_to 11000

$$$$
