AV-unprocessed.smi:581|AV-procd|sdf|2991|dock1
  -GOLD-   2262023493D 1   1.00000     0.00000
 Structure written by MMmdl.
 35 36  0  0  0  0  0  0  0  0  2 V2000
  153.2278  137.7955  158.1726 C   0  0  0  0  0  0  0  0  0  0  0  0
  152.4837  139.0053  157.6354 C   0  0  0  0  0  0  0  0  0  0  0  0
  152.4572  140.1235  158.4786 N   0  0  0  0  0  0  0  0  0  0  0  0
  151.8512  141.2075  158.1080 C   0  0  0  0  0  0  0  0  0  0  0  0
  151.7462  142.3827  158.8561 N   0  0  0  0  0  0  0  0  0  0  0  0
  151.6531  143.6978  158.2165 C   0  0  0  0  0  0  0  0  0  0  0  0
  151.0058  144.7313  159.1535 C   0  0  0  0  0  0  0  0  0  0  0  0
  151.7260  144.7870  160.3770 O   0  0  0  0  0  0  0  0  0  0  0  0
  151.6993  143.5362  161.0507 C   0  0  0  0  0  0  0  0  0  0  0  0
  152.3695  142.4624  160.1772 C   0  0  0  0  0  0  0  0  0  0  0  0
  151.2106  141.2633  156.8654 N   0  0  0  0  0  0  0  0  0  0  0  0
  151.1802  140.2421  155.9808 C   0  0  0  0  0  0  0  0  0  0  0  0
  150.6002  140.3701  154.9037 O   0  0  0  0  0  0  0  0  0  0  0  0
  151.8795  139.0215  156.4143 C   0  0  0  0  0  0  0  0  0  0  0  0
  151.8682  137.8205  155.4720 C   0  0  0  0  0  0  0  0  0  0  0  0
  150.7454  136.8203  155.8186 C   0  0  0  0  0  0  0  0  0  0  0  0
  151.0201  136.0187  157.0980 C   0  0  0  0  0  0  0  0  0  0  0  0
  150.2418  136.1474  158.0696 O   0  0  0  0  0  0  0  0  0  0  0  0
  152.0265  135.2774  157.0791 O   0  5  0  0  0  0  0  0  0  0  0  0
  150.7394  142.1167  156.6043 H   0  0  0  0  0  0  0  0  0  0  0  0
  153.9609  137.4405  157.4478 H   0  0  0  0  0  0  0  0  0  0  0  0
  152.5306  136.9853  158.3870 H   0  0  0  0  0  0  0  0  0  0  0  0
  153.7596  138.0344  159.0943 H   0  0  0  0  0  0  0  0  0  0  0  0
  152.6584  144.0235  157.9460 H   0  0  0  0  0  0  0  0  0  0  0  0
  151.0787  143.6592  157.2911 H   0  0  0  0  0  0  0  0  0  0  0  0
  151.0195  145.7175  158.6898 H   0  0  0  0  0  0  0  0  0  0  0  0
  149.9602  144.4832  159.3426 H   0  0  0  0  0  0  0  0  0  0  0  0
  152.2289  143.6326  161.9983 H   0  0  0  0  0  0  0  0  0  0  0  0
  150.6710  143.2581  161.2877 H   0  0  0  0  0  0  0  0  0  0  0  0
  152.3075  141.5009  160.6888 H   0  0  0  0  0  0  0  0  0  0  0  0
  153.4291  142.6895  160.0541 H   0  0  0  0  0  0  0  0  0  0  0  0
  151.7580  138.1608  154.4423 H   0  0  0  0  0  0  0  0  0  0  0  0
  152.8408  137.3264  155.5068 H   0  0  0  0  0  0  0  0  0  0  0  0
  149.7996  137.3490  155.9423 H   0  0  0  0  0  0  0  0  0  0  0  0
  150.6074  136.1172  154.9965 H   0  0  0  0  0  0  0  0  0  0  0  0
  1  2  1  0  0  0  0
  1 21  1  0  0  0  0
  1 22  1  0  0  0  0
  1 23  1  0  0  0  0
  2 14  2  0  0  0  0
  2  3  1  0  0  0  0
  3  4  2  0  0  0  0
  4  5  1  0  0  0  0
  4 11  1  0  0  0  0
  5 10  1  0  0  0  0
  5  6  1  0  0  0  0
  6  7  1  0  0  0  0
  6 24  1  0  0  0  0
  6 25  1  0  0  0  0
  7  8  1  0  0  0  0
  7 26  1  0  0  0  0
  7 27  1  0  0  0  0
  8  9  1  0  0  0  0
  9 10  1  0  0  0  0
  9 28  1  0  0  0  0
  9 29  1  0  0  0  0
 10 30  1  0  0  0  0
 10 31  1  0  0  0  0
 11 20  1  0  0  0  0
 11 12  1  0  0  0  0
 12 13  2  0  0  0  0
 12 14  1  0  0  0  0
 14 15  1  0  0  0  0
 15 16  1  0  0  0  0
 15 32  1  0  0  0  0
 15 33  1  0  0  0  0
 16 17  1  0  0  0  0
 16 34  1  0  0  0  0
 16 35  1  0  0  0  0
 17 18  2  0  0  0  0
 17 19  1  0  0  0  0
M  CHG  1  19  -1
M  END
> <s_m_source_file>
AV-unprocessed.smi

> <i_m_source_file_index>
581

> <i_lp_mmshare_version>
43012

> <i_f3d_flags>
0

> <s_epik_input>
W0NIMl0xW0NIMl1PW0NIMl1bQ0gyXU4xYyhuYzJbQ0gzXSlbbkhdYyg9TyljMltDSDJdW0NIMl1DKD1PKVtPSF0=

> <s_epik_cmdline>
J2VwaWtfcHl0aG9uJywgJy1waCcsICc3LjAnLCAnLXRuJywgJzgnLCAnLW1hJywgJzIwMCcsICctbWV0YWxfYmluZGluZycsICctaW1hZScsICc8aW5maWxlLm1hZT4nLCAnLW9tYWUnLCAnPG91dGZpbGUubWFlPic=

> <r_lp_tautomer_probability>
0.878553

> <r_epik_Ionization_Penalty>
0.00211884

> <r_epik_Ionization_Penalty_Charging>
0.00208365

> <r_epik_Ionization_Penalty_Neutral>
3.51846e-05

> <r_epik_State_Penalty>
0.0663044

> <r_epik_Charging_Adjusted_Penalty>
0.0683881

> <i_epik_Tot_Q>
-1

> <i_epik_Tot_abs_Q>
1

> <r_epik_Metal_State_Penalty>
0.312881

> <b_epik_Metal_Only>
0

> <s_lp_Force_Field>
OPLS_2005

> <r_lp_Energy>
24.7506

> <b_lp_Chiralities_Consistent>
1

> <s_lp_Variant>
AV-unprocessed.smi:581-1

> <Gold.Version>
5.8.1

> <Gold.Id.Protein>
6NUR|6NUR_protein|mol2

> <Gold.PLP.Fitness>
46.0085

> <Gold.PLP.PLP>
-33.7075

> <Gold.PLP.part.hbond>
-4.0143

> <Gold.PLP.part.metal>
0.0000

> <Gold.PLP.part.buried>
-3.3760

> <Gold.PLP.part.nonpolar>
-26.5227

> <Gold.PLP.part.repulsive>
0.2689

> <Gold.PLP.ligand.clash>
0.0000

> <Gold.PLP.ligand.torsion>
0.5744

> <Gold.PLP.Chemscore.Hbond>
4.4080

> <Gold.PLP.Chemscore.CHOScore>
0.0000

> <Gold.PLP.Chemscore.Metal>
0.0000

> <Gold.Chemscore.Hbonds>
donor molecule, donor type, donor heavy atom, donor atom, acceptor molecule, acceptor atom, score
      P1  H  6896  6909       L1    18  1.19
      P1  H  7989  7998       L1    13  1.00
      P1  H 10752 10764       L1    19  0.71

> <Gold.PLP.Chemscore.Internal.Correction>
0.2257

> <Gold.Rescore>
     Score         DG    S(hbond)    S(metal)    S(lipo)     H(rot)  DE(clash)    DE(int)     intcor
     16.95     -17.61       2.55        0.00      72.25       1.89       0.11       0.55       ----

> <Gold.Chemscore.Fitness>
16.9465

> <Gold.Chemscore.DG>
-17.6062

> <Gold.Chemscore.ZeroCoef>
-5.4800

> <Gold.Chemscore.Hbond>
2.5476

> <Gold.Chemscore.Metal>
0.0000

> <Gold.Chemscore.Lipo>
72.2484

> <Gold.Chemscore.Internal_Hbond>
0.0000

> <Gold.Chemscore.DEClash>
0.1103

> <Gold.Chemscore.DEInternal>
0.5495

> <Gold.Chemscore.Rot>
1.8890

> <Gold.Chemscore.Internal.Correction>
   9.000000E+99

> <Gold.Chemscore.Hbonds>
donor molecule, donor type, donor heavy atom, donor atom, acceptor molecule, acceptor atom, score
      P1  H  6896  6909       L1    18  0.44
      P1  H  7989  7998       L1    13  0.91
      P1  H 10752 10764       L1    19  0.36

> <Gold.Chemscore.Hbond.Weighted>
-8.5089

> <Gold.Chemscore.Metal.Weighted>
-0.0000

> <Gold.Chemscore.Lipo.Weighted>
-8.4531

> <Gold.Chemscore.Internal_Hbond.Weighted>
0.0000

> <Gold.Chemscore.DEClash.Weighted>
0.1103

> <Gold.Chemscore.DEInternal.Weighted>
0.5495

> <Gold.Chemscore.Rot.Weighted>
4.8357

> <Gold.Chemscore.Internal.Correction.Weighted>
   9.000000E+99

> <Gold.Protein.RotatedTorsions>
[ 6907 6896 6895 6894 ] final   71.89 input  -60.11 | X-H torsion
[ 7974 7965 7964 7962 ] final  149.60 input  175.53 | X-H torsion
[ 8008 7997 7996 7995 ] final  -16.31 input   59.86 | X-H torsion
[ 10167 10162 10161 10158 ] final   61.99 input  -65.29 | X-H torsion
[ 10718 10713 10712 10709 ] final   53.79 input   66.30 | X-H torsion
[ 10763 10752 10751 10750 ] final   -3.52 input  -60.55 | X-H torsion
[ 11005 11000 10999 10996 ] final   -3.29 input  -57.11 | X-H torsion

> <Gold.Protein.ActiveResidues>
 VAL166  LYS551  ARG553  GLY616  TRP617  ASP618  TYR619  PRO620  LYS621  CYS622 
 ASP623  PHE694  ASN695  SER759  ASP760  ASP761  ALA762  ILE779  LEU786  VAL792 
 PHE793  MET794  SER795  GLU796  ALA797  LYS798  CYS799  TRP800  GLU811  SER814 

> <Gold.Protein.RotatedAtoms>
  152.4836  134.4653  159.9618 H   0  0  0  0  0  0  0  0  0  0  0  0  # atno 6907 bound_to 6896
  151.4654  133.3576  159.2823 H   0  0  0  0  0  0  0  0  0  0  0  0  # atno 6908 bound_to 6896
  150.8928  134.8359  159.7366 H   0  0  0  0  0  0  0  0  0  0  0  0  # atno 6909 bound_to 6896
  144.8426  139.6301  143.6010 H   0  0  0  0  0  0  0  0  0  0  0  0  # atno 7974 bound_to 7965
  154.5062  140.2173  155.9246 H   0  0  0  0  0  0  0  0  0  0  0  0  # atno 8008 bound_to 7997
  156.1497  140.3164  155.8594 H   0  0  0  0  0  0  0  0  0  0  0  0  # atno 8009 bound_to 7997
  155.3963  140.0481  157.3029 H   0  0  0  0  0  0  0  0  0  0  0  0  # atno 8010 bound_to 7997
  140.1487  144.4483  150.6771 H   0  0  0  0  0  0  0  0  0  0  0  0  # atno 10167 bound_to 10162
  157.5199  130.8557  149.8544 H   0  0  0  0  0  0  0  0  0  0  0  0  # atno 10718 bound_to 10713
  153.3725  135.6995  153.6627 H   0  0  0  0  0  0  0  0  0  0  0  0  # atno 10763 bound_to 10752
  153.5271  135.3600  155.2659 H   0  0  0  0  0  0  0  0  0  0  0  0  # atno 10764 bound_to 10752
  154.8683  135.4172  154.3006 H   0  0  0  0  0  0  0  0  0  0  0  0  # atno 10765 bound_to 10752
  140.6677  133.9264  155.8475 H   0  0  0  0  0  0  0  0  0  0  0  0  # atno 11005 bound_to 11000
  146.2716  139.6649  142.9292 LP  0  0  0  0  0  0  0  0  0  0  0  0  # atno 17320 bound_to 7965
  145.4663  141.0434  143.2724 LP  0  0  0  0  0  0  0  0  0  0  0  0  # atno 17321 bound_to 7965
  140.6716  143.2288  151.5612 LP  0  0  0  0  0  0  0  0  0  0  0  0  # atno 17342 bound_to 10162
  139.5436  144.2581  152.1399 LP  0  0  0  0  0  0  0  0  0  0  0  0  # atno 17343 bound_to 10162
  156.0346  130.3755  150.1595 LP  0  0  0  0  0  0  0  0  0  0  0  0  # atno 17370 bound_to 10713
  156.9783  130.9856  151.3443 LP  0  0  0  0  0  0  0  0  0  0  0  0  # atno 17371 bound_to 10713
  141.0416  134.0613  157.3895 LP  0  0  0  0  0  0  0  0  0  0  0  0  # atno 17394 bound_to 11000
  139.8992  135.0157  156.7183 LP  0  0  0  0  0  0  0  0  0  0  0  0  # atno 17395 bound_to 11000

$$$$
