AV-unprocessed.smi:1809|AV-procd|sdf|7322|dock10
  -GOLD-   22720 8583D 1   1.00000     0.00000
 Structure written by MMmdl.
 39 41  0  0  0  0  0  0  0  0  3 V2000
  143.3468  136.1641  152.3028 C   0  0  0  0  0  0  0  0  0  0  0  0
  144.4506  137.0438  152.7813 C   0  0  0  0  0  0  0  0  0  0  0  0
  144.3846  137.7297  153.9250 N   0  0  0  0  0  0  0  0  0  0  0  0
  145.5319  138.4754  154.1543 N   0  0  0  0  0  0  0  0  0  0  0  0
  146.4427  138.3520  153.1783 C   0  0  0  0  0  0  0  0  0  0  0  0
  147.6251  138.9889  153.2116 N   0  5  0  0  0  0  0  0  0  0  0  0
  147.8739  139.9010  154.1774 C   0  0  0  0  0  0  0  0  0  0  0  0
  147.2149  140.0807  155.2042 O   0  0  0  0  0  0  0  0  0  0  0  0
  148.9556  140.6532  153.9406 N   0  0  0  0  0  0  0  0  0  0  0  0
  149.4570  141.6947  154.8254 C   0  0  0  0  0  0  0  0  0  0  0  0
  150.2569  141.0832  155.9917 C   0  0  1  0  0  0  0  0  0  0  0  0
  151.4400  141.9765  156.4358 C   0  0  0  0  0  0  0  0  0  0  0  0
  150.9123  143.1287  157.1904 N   0  3  2  0  0  0  0  0  0  0  0  0
  151.8706  144.1233  157.7019 C   0  0  0  0  0  0  0  0  0  0  0  0
  151.1488  144.7960  158.8865 C   0  0  0  0  0  0  0  0  0  0  0  0
  149.8477  143.9987  159.0902 C   0  0  0  0  0  0  0  0  0  0  0  0
  150.1176  142.6968  158.3422 C   0  0  1  0  0  0  0  0  0  0  0  0
  148.9132  141.8886  157.8454 C   0  0  0  0  0  0  0  0  0  0  0  0
  149.4123  140.7678  157.1104 O   0  0  0  0  0  0  0  0  0  0  0  0
  145.9423  137.2654  151.8828 S   0  0  0  0  0  0  0  0  0  0  0  0
  142.5808  136.7627  151.8100 H   0  0  0  0  0  0  0  0  0  0  0  0
  142.8944  135.6342  153.1415 H   0  0  0  0  0  0  0  0  0  0  0  0
  143.7293  135.4301  151.5933 H   0  0  0  0  0  0  0  0  0  0  0  0
  149.4720  140.4778  153.0907 H   0  0  0  0  0  0  0  0  0  0  0  0
  150.0971  142.3651  154.2500 H   0  0  0  0  0  0  0  0  0  0  0  0
  148.6243  142.2963  155.1917 H   0  0  0  0  0  0  0  0  0  0  0  0
  150.6696  140.1371  155.6393 H   0  0  0  0  0  0  0  0  0  0  0  0
  152.1226  141.4078  157.0690 H   0  0  0  0  0  0  0  0  0  0  0  0
  152.0129  142.3220  155.5744 H   0  0  0  0  0  0  0  0  0  0  0  0
  152.7764  143.6239  158.0496 H   0  0  0  0  0  0  0  0  0  0  0  0
  152.1506  144.8329  156.9229 H   0  0  0  0  0  0  0  0  0  0  0  0
  151.7736  144.7557  159.7796 H   0  0  0  0  0  0  0  0  0  0  0  0
  150.9335  145.8456  158.6839 H   0  0  0  0  0  0  0  0  0  0  0  0
  149.6091  143.8384  160.1422 H   0  0  0  0  0  0  0  0  0  0  0  0
  149.0120  144.5303  158.6325 H   0  0  0  0  0  0  0  0  0  0  0  0
  150.7385  142.0591  158.9755 H   0  0  0  0  0  0  0  0  0  0  0  0
  148.3251  141.5257  158.6885 H   0  0  0  0  0  0  0  0  0  0  0  0
  148.2475  142.4946  157.2303 H   0  0  0  0  0  0  0  0  0  0  0  0
  150.2808  143.6258  156.5784 H   0  0  0  0  0  0  0  0  0  0  0  0
  1  2  1  0  0  0  0
  1 21  1  0  0  0  0
  1 22  1  0  0  0  0
  1 23  1  0  0  0  0
  2 20  1  0  0  0  0
  2  3  2  0  0  0  0
  3  4  1  0  0  0  0
  4  5  2  0  0  0  0
  5  6  1  0  0  0  0
  5 20  1  0  0  0  0
  6  7  1  0  0  0  0
  7  8  2  0  0  0  0
  7  9  1  0  0  0  0
  9 10  1  0  0  0  0
  9 24  1  0  0  0  0
 10 11  1  0  0  0  0
 10 25  1  0  0  0  0
 10 26  1  0  0  0  0
 11 19  1  0  0  0  0
 11 12  1  0  0  0  0
 11 27  1  0  0  0  0
 12 13  1  0  0  0  0
 12 28  1  0  0  0  0
 12 29  1  0  0  0  0
 13 17  1  0  0  0  0
 13 14  1  0  0  0  0
 13 39  1  0  0  0  0
 14 15  1  0  0  0  0
 14 30  1  0  0  0  0
 14 31  1  0  0  0  0
 15 16  1  0  0  0  0
 15 32  1  0  0  0  0
 15 33  1  0  0  0  0
 16 17  1  0  0  0  0
 16 34  1  0  0  0  0
 16 35  1  0  0  0  0
 17 18  1  0  0  0  0
 17 36  1  0  0  0  0
 18 19  1  0  0  0  0
 18 37  1  0  0  0  0
 18 38  1  0  0  0  0
M  CHG  1   6  -1
M  CHG  1  13   1
M  END
> <s_m_source_file>
AV-unprocessed.smi

> <i_m_source_file_index>
1809

> <i_lp_mmshare_version>
43012

> <i_f3d_flags>
0

> <s_epik_input>
W0NIM11jMW5uYyhzMSlbTkhdQyg9TylbTkhdW0NIMl1bQ0BIXShbQ0gyXTIpT1tDSDJdW0NAQEhdKE4yMylbQ0gyXVtDSDJdW0NIMl0z

> <s_epik_cmdline>
J2VwaWtfcHl0aG9uJywgJy1waCcsICc3LjAnLCAnLXRuJywgJzgnLCAnLW1hJywgJzIwMCcsICctbWV0YWxfYmluZGluZycsICctaW1hZScsICc8aW5maWxlLm1hZT4nLCAnLW9tYWUnLCAnPG91dGZpbGUubWFlPic=

> <r_lp_tautomer_probability>
1

> <r_epik_Ionization_Penalty>
3.2601

> <r_epik_Ionization_Penalty_Charging>
3.1406

> <r_epik_Ionization_Penalty_Neutral>
0.119497

> <r_epik_State_Penalty>
3.08894

> <r_epik_Charging_Adjusted_Penalty>
6.22954

> <i_epik_Tot_Q>
0

> <i_epik_Tot_abs_Q>
2

> <r_epik_Metal_State_Penalty>
0.510807

> <b_epik_Metal_Only>
1

> <s_lp_Force_Field>
OPLS_2005

> <r_lp_Energy>
31.1034

> <b_lp_Chiralities_Consistent>
1

> <s_lp_Variant>
AV-unprocessed.smi:1809-14

> <Gold.Version>
5.8.1

> <Gold.Id.Protein>
6NUR|6NUR_protein|mol2

> <Gold.PLP.Fitness>
36.3947

> <Gold.PLP.PLP>
-28.5579

> <Gold.PLP.part.hbond>
-2.0000

> <Gold.PLP.part.metal>
0.0000

> <Gold.PLP.part.buried>
-4.3343

> <Gold.PLP.part.nonpolar>
-23.2273

> <Gold.PLP.part.repulsive>
1.3859

> <Gold.PLP.ligand.clash>
0.0000

> <Gold.PLP.ligand.torsion>
0.5876

> <Gold.PLP.Chemscore.Hbond>
3.0000

> <Gold.PLP.Chemscore.CHOScore>
0.0000

> <Gold.PLP.Chemscore.Metal>
0.0000

> <Gold.Chemscore.Hbonds>
donor molecule, donor type, donor heavy atom, donor atom, acceptor molecule, acceptor atom, score
      L1  H     9    24       P1  7957  1.00
      L1  H    13    39       P1  8028  2.00

> <Gold.PLP.Chemscore.Internal.Correction>
0.0120

> <Gold.Rescore>
     Score         DG    S(hbond)    S(metal)    S(lipo)     H(rot)  DE(clash)    DE(int)     intcor
     14.70     -17.47       1.98        0.00      74.94       1.32       0.35       2.42       ----

> <Gold.Chemscore.Fitness>
14.7035

> <Gold.Chemscore.DG>
-17.4732

> <Gold.Chemscore.ZeroCoef>
-5.4800

> <Gold.Chemscore.Hbond>
1.9809

> <Gold.Chemscore.Metal>
0.0000

> <Gold.Chemscore.Lipo>
74.9397

> <Gold.Chemscore.Internal_Hbond>
0.0000

> <Gold.Chemscore.DEClash>
0.3497

> <Gold.Chemscore.DEInternal>
2.4200

> <Gold.Chemscore.Rot>
1.3246

> <Gold.Chemscore.Internal.Correction>
   9.000000E+99

> <Gold.Chemscore.Hbonds>
donor molecule, donor type, donor heavy atom, donor atom, acceptor molecule, acceptor atom, score
      L1  H     9    24       P1  7957  0.94
      L1  H    13    39       P1  8028  0.97

> <Gold.Chemscore.Hbond.Weighted>
-6.6162

> <Gold.Chemscore.Metal.Weighted>
-0.0000

> <Gold.Chemscore.Lipo.Weighted>
-8.7679

> <Gold.Chemscore.Internal_Hbond.Weighted>
0.0000

> <Gold.Chemscore.DEClash.Weighted>
0.3497

> <Gold.Chemscore.DEInternal.Weighted>
2.4200

> <Gold.Chemscore.Rot.Weighted>
3.3910

> <Gold.Chemscore.Internal.Correction.Weighted>
   9.000000E+99

> <Gold.Protein.RotatedTorsions>
[ 6907 6896 6895 6894 ] final -138.20 input  -60.11 | X-H torsion
[ 7974 7965 7964 7962 ] final  -35.62 input  175.53 | X-H torsion
[ 8008 7997 7996 7995 ] final   29.04 input   59.86 | X-H torsion
[ 10167 10162 10161 10158 ] final -171.89 input  -65.29 | X-H torsion
[ 10718 10713 10712 10709 ] final   43.28 input   66.30 | X-H torsion
[ 10763 10752 10751 10750 ] final  -38.59 input  -60.55 | X-H torsion
[ 11005 11000 10999 10996 ] final   23.17 input  -57.11 | X-H torsion

> <Gold.Protein.ActiveResidues>
 VAL166  LYS551  ARG553  GLY616  TRP617  ASP618  TYR619  PRO620  LYS621  CYS622 
 ASP623  PHE694  ASN695  SER759  ASP760  ASP761  ALA762  ILE779  LEU786  VAL792 
 PHE793  MET794  SER795  GLU796  ALA797  LYS798  CYS799  TRP800  GLU811  SER814 

> <Gold.Protein.RotatedAtoms>
  151.0321  133.5781  159.2659 H   0  0  0  0  0  0  0  0  0  0  0  0  # atno 6907 bound_to 6896
  151.2859  135.0727  159.9196 H   0  0  0  0  0  0  0  0  0  0  0  0  # atno 6908 bound_to 6896
  152.5347  134.0027  159.7956 H   0  0  0  0  0  0  0  0  0  0  0  0  # atno 6909 bound_to 6896
  146.0731  140.6181  142.8943 H   0  0  0  0  0  0  0  0  0  0  0  0  # atno 7974 bound_to 7965
  155.0682  140.3197  155.4639 H   0  0  0  0  0  0  0  0  0  0  0  0  # atno 8008 bound_to 7997
  156.2797  140.2116  156.5755 H   0  0  0  0  0  0  0  0  0  0  0  0  # atno 8009 bound_to 7997
  154.7076  140.0501  157.0506 H   0  0  0  0  0  0  0  0  0  0  0  0  # atno 8010 bound_to 7997
  139.5776  144.1496  152.1472 H   0  0  0  0  0  0  0  0  0  0  0  0  # atno 10167 bound_to 10162
  157.4142  130.7931  149.7457 H   0  0  0  0  0  0  0  0  0  0  0  0  # atno 10718 bound_to 10713
  153.9154  135.6788  153.4749 H   0  0  0  0  0  0  0  0  0  0  0  0  # atno 10763 bound_to 10752
  153.1056  135.4807  154.8943 H   0  0  0  0  0  0  0  0  0  0  0  0  # atno 10764 bound_to 10752
  154.7505  135.3183  154.8521 H   0  0  0  0  0  0  0  0  0  0  0  0  # atno 10765 bound_to 10752
  140.3725  134.2007  155.7666 H   0  0  0  0  0  0  0  0  0  0  0  0  # atno 11005 bound_to 11000
  144.7244  140.4477  143.6984 LP  0  0  0  0  0  0  0  0  0  0  0  0  # atno 17320 bound_to 7965
  145.6356  139.1542  143.2944 LP  0  0  0  0  0  0  0  0  0  0  0  0  # atno 17321 bound_to 7965
  140.1042  144.5513  150.6968 LP  0  0  0  0  0  0  0  0  0  0  0  0  # atno 17342 bound_to 10162
  140.7057  143.2467  151.4732 LP  0  0  0  0  0  0  0  0  0  0  0  0  # atno 17343 bound_to 10162
  155.9860  130.3978  150.3235 LP  0  0  0  0  0  0  0  0  0  0  0  0  # atno 17370 bound_to 10713
  157.1376  131.0288  151.2942 LP  0  0  0  0  0  0  0  0  0  0  0  0  # atno 17371 bound_to 10713
  141.1950  133.8116  157.0734 LP  0  0  0  0  0  0  0  0  0  0  0  0  # atno 17394 bound_to 11000
  140.0540  134.9790  157.1188 LP  0  0  0  0  0  0  0  0  0  0  0  0  # atno 17395 bound_to 11000

$$$$
