#       Name:                AV-unprocessed.smi:3027
#       Creating user name   scv26
#       Creation time:       Fri Mar 27 16:45:23 2020


#       File generated by GOLD software.
#

@<TRIPOS>MOLECULE
AV-unprocessed.smi:3027
    38    39     1
SMALL
NO_CHARGES


@<TRIPOS>ATOM
      1 ****        -2.9893   2.7524   1.9300 C.3            1 S1                 0.0000
      2 ****        -2.6604   1.5812   1.0499 C.2            1 S1                 0.0000
      3 ****        -2.6467   1.5323  -0.3732 C.2            1 S1                 0.0000
      4 ****        -2.3081   0.3427  -0.8431 N.2            1 S1                 0.0000
      5 ****        -2.0977  -0.4075   0.2593 N.pl3          1 S1                 0.0000
      6 ****        -1.6898  -1.7934   0.1219 C.3            1 S1                 0.0000
      7 ****        -0.1610  -1.9780   0.2173 C.3            1 S1                 0.0000
      8 ****         0.2080  -3.4673   0.2221 C.3            1 S1                 0.0000
      9 ****         0.5304  -1.3048  -0.9071 N.4            1 S1                 1.0000
     10 ****         1.1529  -0.0021  -0.5837 C.3            1 S1                 0.0000
     11 ****         1.5852   0.7569  -1.8370 C.3            1 S1                 0.0000
     12 ****         2.6080   1.7766  -1.3276 C.3            1 S1                 0.0000
     13 ****         3.2124   1.1722  -0.0496 C.3            1 S1                 0.0000
     14 ****         2.4552  -0.1365   0.2102 C.3            1 S1                 0.0000
     15 ****        -2.3054   0.3138   1.4155 C.2            1 S1                 0.0000
     16 ****        -3.2850   3.6262   1.3492 H              1 S1                 0.0000
     17 ****        -2.1367   3.0470   2.5420 H              1 S1                 0.0000
     18 ****        -3.8112   2.5259   2.6096 H              1 S1                 0.0000
     19 ****        -2.8697   2.3228  -1.0747 H              1 S1                 0.0000
     20 ****        -2.1840  -2.3638   0.9097 H              1 S1                 0.0000
     21 ****        -2.0675  -2.1844  -0.8245 H              1 S1                 0.0000
     22 ****         0.1861  -1.5577   1.1625 H              1 S1                 0.0000
     23 ****        -0.2614  -3.9856   1.0589 H              1 S1                 0.0000
     24 ****         1.2859  -3.6040   0.3162 H              1 S1                 0.0000
     25 ****        -0.1124  -3.9605  -0.6963 H              1 S1                 0.0000
     26 ****         1.2566  -1.9157  -1.2524 H              1 S1                 0.0000
     27 ****         0.4523   0.6216  -0.0273 H              1 S1                 0.0000
     28 ****         2.0705   0.0774  -2.5395 H              1 S1                 0.0000
     29 ****         0.7474   1.2269  -2.3532 H              1 S1                 0.0000
     30 ****         3.3672   1.9959  -2.0790 H              1 S1                 0.0000
     31 ****         2.1069   2.7152  -1.0868 H              1 S1                 0.0000
     32 ****         4.2826   0.9913  -0.1550 H              1 S1                 0.0000
     33 ****         3.0802   1.8617   0.7852 H              1 S1                 0.0000
     34 ****         2.2848  -0.3113   1.2728 H              1 S1                 0.0000
     35 ****         3.0415  -0.9737  -0.1720 H              1 S1                 0.0000
     36 ****        -2.1802  -0.1285   2.3931 H              1 S1                 0.0000
     37 ****        -0.1459  -1.1644  -1.6444 H              1 S1                 0.0000
     38 ****        -2.2265   0.0624  -1.7995 LP             1 S1                 0.0000
@<TRIPOS>BOND
    1    1    2 1     
    2    1   16 1     
    3    1   17 1     
    4    1   18 1     
    5    2   15 2     
    6    2    3 1     
    7    3    4 2     
    8    3   19 1     
    9    4    5 1     
   10    5    6 1     
   11    5   15 1     
   12    6    7 1     
   13    6   20 1     
   14    6   21 1     
   15    7    8 1     
   16    7    9 1     
   17    7   22 1     
   18    8   23 1     
   19    8   24 1     
   20    8   25 1     
   21    9   10 1     
   22    9   26 1     
   23    9   37 1     
   24   10   14 1     
   25   10   11 1     
   26   10   27 1     
   27   11   12 1     
   28   11   28 1     
   29   11   29 1     
   30   12   13 1     
   31   12   30 1     
   32   12   31 1     
   33   13   14 1     
   34   13   32 1     
   35   13   33 1     
   36   14   34 1     
   37   14   35 1     
   38   15   36 1     
   39    4   38 1     
@<TRIPOS>SUBSTRUCTURE
      1 S1             1
@<TRIPOS>SET
LONE_PAIRS      STATIC     ATOMS    <user>   **** ""
1 38
DONOR_HYDROGENS      STATIC     ATOMS    <user>   **** ""
2 26 37
ATOM$BLUE        STATIC     ATOMS    COLORGROUP SYSTEM
1 38
ATOM$RED        STATIC     ATOMS    COLORGROUP SYSTEM
2 26 37
