AV-unprocessed.smi:1130|AV-procd|sdf|4849|dock8
  -GOLD-   22720 3413D 1   1.00000     0.00000
 Structure written by MMmdl.
 36 37  0  0  0  0  0  0  0  0  1 V2000
  143.0560  143.7964  157.2933 C   0  0  0  0  0  0  0  0  0  0  0  0
  144.1826  143.1854  156.5321 C   0  0  0  0  0  0  0  0  0  0  0  0
  145.0852  142.4167  157.1293 N   0  0  0  0  0  0  0  0  0  0  0  0
  145.9404  142.0483  156.0807 O   0  0  0  0  0  0  0  0  0  0  0  0
  145.4546  142.6619  154.9748 C   0  0  0  0  0  0  0  0  0  0  0  0
  146.1253  142.4235  153.6640 C   0  0  0  0  0  0  0  0  0  0  0  0
  147.4401  141.6411  153.8144 C   0  0  0  0  0  0  0  0  0  0  0  0
  148.2477  142.1449  154.9197 N   0  0  0  0  0  0  0  0  0  0  0  0
  149.3614  141.5608  155.3831 C   0  0  0  0  0  0  0  0  0  0  0  0
  149.8403  140.5259  154.9190 O   0  0  0  0  0  0  0  0  0  0  0  0
  149.8900  142.2410  156.4098 N   0  0  0  0  0  0  0  0  0  0  0  0
  151.1166  141.8774  157.1104 C   0  0  0  0  0  0  0  0  0  0  0  0
  151.1128  142.4000  158.5560 C   0  0  1  0  0  0  0  0  0  0  0  0
  152.4566  142.2478  159.2646 C   0  0  0  0  0  0  0  0  0  0  0  0
  152.3471  143.2951  160.3491 C   0  0  0  0  0  0  0  0  0  0  0  0
  151.6101  144.4211  159.6283 C   0  0  0  0  0  0  0  0  0  0  0  0
  150.8453  143.7995  158.5983 O   0  0  0  0  0  0  0  0  0  0  0  0
  144.3500  143.3708  155.1941 N   0  0  0  0  0  0  0  0  0  0  0  0
  143.0686  143.4751  158.3353 H   0  0  0  0  0  0  0  0  0  0  0  0
  142.1022  143.5028  156.8547 H   0  0  0  0  0  0  0  0  0  0  0  0
  143.1305  144.8838  157.2666 H   0  0  0  0  0  0  0  0  0  0  0  0
  145.4325  141.8854  153.0158 H   0  0  0  0  0  0  0  0  0  0  0  0
  146.3128  143.3875  153.1891 H   0  0  0  0  0  0  0  0  0  0  0  0
  147.2258  140.5892  154.0048 H   0  0  0  0  0  0  0  0  0  0  0  0
  148.0145  141.6786  152.8871 H   0  0  0  0  0  0  0  0  0  0  0  0
  147.9325  142.9938  155.3662 H   0  0  0  0  0  0  0  0  0  0  0  0
  149.4207  143.0795  156.7188 H   0  0  0  0  0  0  0  0  0  0  0  0
  151.1825  140.7893  157.1164 H   0  0  0  0  0  0  0  0  0  0  0  0
  151.9962  142.2358  156.5729 H   0  0  0  0  0  0  0  0  0  0  0  0
  150.3439  141.8916  159.1402 H   0  0  0  0  0  0  0  0  0  0  0  0
  152.6216  141.2430  159.6541 H   0  0  0  0  0  0  0  0  0  0  0  0
  153.2786  142.4935  158.5906 H   0  0  0  0  0  0  0  0  0  0  0  0
  151.7412  142.9157  161.1731 H   0  0  0  0  0  0  0  0  0  0  0  0
  153.3130  143.6049  160.7485 H   0  0  0  0  0  0  0  0  0  0  0  0
  150.9745  144.9952  160.3029 H   0  0  0  0  0  0  0  0  0  0  0  0
  152.3183  145.1085  159.1649 H   0  0  0  0  0  0  0  0  0  0  0  0
  1  2  1  0  0  0  0
  1 19  1  0  0  0  0
  1 20  1  0  0  0  0
  1 21  1  0  0  0  0
  2 18  1  0  0  0  0
  2  3  2  0  0  0  0
  3  4  1  0  0  0  0
  4  5  1  0  0  0  0
  5  6  1  0  0  0  0
  5 18  2  0  0  0  0
  6  7  1  0  0  0  0
  6 22  1  0  0  0  0
  6 23  1  0  0  0  0
  7  8  1  0  0  0  0
  7 24  1  0  0  0  0
  7 25  1  0  0  0  0
  8  9  1  0  0  0  0
  8 26  1  0  0  0  0
  9 10  2  0  0  0  0
  9 11  1  0  0  0  0
 11 12  1  0  0  0  0
 11 27  1  0  0  0  0
 12 13  1  0  0  0  0
 12 28  1  0  0  0  0
 12 29  1  0  0  0  0
 13 17  1  0  0  0  0
 13 14  1  0  0  0  0
 13 30  1  0  0  0  0
 14 15  1  0  0  0  0
 14 31  1  0  0  0  0
 14 32  1  0  0  0  0
 15 16  1  0  0  0  0
 15 33  1  0  0  0  0
 15 34  1  0  0  0  0
 16 17  1  0  0  0  0
 16 35  1  0  0  0  0
 16 36  1  0  0  0  0
M  END
> <s_m_source_file>
AV-unprocessed.smi

> <i_m_source_file_index>
1130

> <i_lp_mmshare_version>
43012

> <i_f3d_flags>
0

> <s_epik_input>
W0NIM11jMW5vYyhuMSlbQ0gyXVtDSDJdW05IXUMoPU8pW05IXVtDSDJdW0NAQEhdMltDSDJdW0NIMl1bQ0gyXU8y

> <s_epik_cmdline>
J2VwaWtfcHl0aG9uJywgJy1waCcsICc3LjAnLCAnLXRuJywgJzgnLCAnLW1hJywgJzIwMCcsICctbWV0YWxfYmluZGluZycsICctaW1hZScsICc8aW5maWxlLm1hZT4nLCAnLW9tYWUnLCAnPG91dGZpbGUubWFlPic=

> <r_lp_tautomer_probability>
1

> <r_epik_Ionization_Penalty>
4.67036e-05

> <r_epik_Ionization_Penalty_Charging>
0

> <r_epik_Ionization_Penalty_Neutral>
4.67036e-05

> <r_epik_State_Penalty>
-0

> <r_epik_Charging_Adjusted_Penalty>
0

> <i_epik_Tot_Q>
0

> <i_epik_Tot_abs_Q>
0

> <r_epik_Metal_State_Penalty>
-0

> <b_epik_Metal_Only>
0

> <s_lp_Force_Field>
OPLS_2005

> <r_lp_Energy>
9.65739

> <b_lp_Chiralities_Consistent>
1

> <s_lp_Variant>
AV-unprocessed.smi:1130-2

> <Gold.Version>
5.8.1

> <Gold.Id.Protein>
6NUR|6NUR_protein|mol2

> <Gold.PLP.Fitness>
39.5436

> <Gold.PLP.PLP>
-34.3213

> <Gold.PLP.part.hbond>
-2.0000

> <Gold.PLP.part.metal>
0.0000

> <Gold.PLP.part.buried>
-7.1040

> <Gold.PLP.part.nonpolar>
-25.9592

> <Gold.PLP.part.repulsive>
0.9773

> <Gold.PLP.ligand.clash>
0.0000

> <Gold.PLP.ligand.torsion>
0.3511

> <Gold.PLP.Chemscore.Hbond>
1.9680

> <Gold.PLP.Chemscore.CHOScore>
0.0000

> <Gold.PLP.Chemscore.Metal>
0.0000

> <Gold.Chemscore.Hbonds>
donor molecule, donor type, donor heavy atom, donor atom, acceptor molecule, acceptor atom, score
      L1  H     8    26       P1  8028  0.62
      L1  H    11    27       P1  8028  0.61
      P1  H  7989  7998       L1    10  0.27

> <Gold.PLP.Chemscore.Internal.Correction>
0.0206

> <Gold.Rescore>
     Score         DG    S(hbond)    S(metal)    S(lipo)     H(rot)  DE(clash)    DE(int)     intcor
     14.20     -14.51       1.94        0.00      72.74       2.33       0.01       0.31       ----

> <Gold.Chemscore.Fitness>
14.1957

> <Gold.Chemscore.DG>
-14.5087

> <Gold.Chemscore.ZeroCoef>
-5.4800

> <Gold.Chemscore.Hbond>
1.9400

> <Gold.Chemscore.Metal>
0.0000

> <Gold.Chemscore.Lipo>
72.7431

> <Gold.Chemscore.Internal_Hbond>
0.0000

> <Gold.Chemscore.DEClash>
0.0076

> <Gold.Chemscore.DEInternal>
0.3054

> <Gold.Chemscore.Rot>
2.3288

> <Gold.Chemscore.Internal.Correction>
   9.000000E+99

> <Gold.Chemscore.Hbonds>
donor molecule, donor type, donor heavy atom, donor atom, acceptor molecule, acceptor atom, score
      L1  H     8    26       P1  8028  0.48
      L1  H    11    27       P1  8028  0.57
      P1  H  7989  7998       L1    10  0.23

> <Gold.Chemscore.Hbond.Weighted>
-6.4795

> <Gold.Chemscore.Metal.Weighted>
-0.0000

> <Gold.Chemscore.Lipo.Weighted>
-8.5109

> <Gold.Chemscore.Internal_Hbond.Weighted>
0.0000

> <Gold.Chemscore.DEClash.Weighted>
0.0076

> <Gold.Chemscore.DEInternal.Weighted>
0.3054

> <Gold.Chemscore.Rot.Weighted>
5.9617

> <Gold.Chemscore.Internal.Correction.Weighted>
   9.000000E+99

> <Gold.Protein.RotatedTorsions>
[ 6907 6896 6895 6894 ] final -134.99 input  -60.11 | X-H torsion
[ 7974 7965 7964 7962 ] final   77.75 input  175.53 | X-H torsion
[ 8008 7997 7996 7995 ] final  -60.04 input   59.86 | X-H torsion
[ 10167 10162 10161 10158 ] final   39.54 input  -65.29 | X-H torsion
[ 10718 10713 10712 10709 ] final -115.06 input   66.30 | X-H torsion
[ 10763 10752 10751 10750 ] final   74.05 input  -60.55 | X-H torsion
[ 11005 11000 10999 10996 ] final  -71.78 input  -57.11 | X-H torsion

> <Gold.Protein.ActiveResidues>
 VAL166  LYS551  ARG553  GLY616  TRP617  ASP618  TYR619  PRO620  LYS621  CYS622 
 ASP623  PHE694  ASN695  SER759  ASP760  ASP761  ALA762  ILE779  LEU786  VAL792 
 PHE793  MET794  SER795  GLU796  ALA797  LYS798  CYS799  TRP800  GLU811  SER814 

> <Gold.Protein.RotatedAtoms>
  150.9924  133.6136  159.2706 H   0  0  0  0  0  0  0  0  0  0  0  0  # atno 6907 bound_to 6896
  151.3352  135.0850  159.9362 H   0  0  0  0  0  0  0  0  0  0  0  0  # atno 6908 bound_to 6896
  152.5250  133.9546  159.7742 H   0  0  0  0  0  0  0  0  0  0  0  0  # atno 6909 bound_to 6896
  145.6860  139.2538  143.1787 H   0  0  0  0  0  0  0  0  0  0  0  0  # atno 7974 bound_to 7965
  154.4380  140.1048  156.6210 H   0  0  0  0  0  0  0  0  0  0  0  0  # atno 8008 bound_to 7997
  155.5707  140.3489  155.4496 H   0  0  0  0  0  0  0  0  0  0  0  0  # atno 8009 bound_to 7997
  156.0391  140.1278  157.0164 H   0  0  0  0  0  0  0  0  0  0  0  0  # atno 8010 bound_to 7997
  140.3830  144.1954  150.6130 H   0  0  0  0  0  0  0  0  0  0  0  0  # atno 10167 bound_to 10162
  156.0870  130.6060  150.8856 H   0  0  0  0  0  0  0  0  0  0  0  0  # atno 10718 bound_to 10713
  153.0561  135.5040  154.7984 H   0  0  0  0  0  0  0  0  0  0  0  0  # atno 10763 bound_to 10752
  154.6809  135.2968  154.9616 H   0  0  0  0  0  0  0  0  0  0  0  0  # atno 10764 bound_to 10752
  154.0403  135.6718  153.4842 H   0  0  0  0  0  0  0  0  0  0  0  0  # atno 10765 bound_to 10752
  141.1598  133.6827  156.6957 H   0  0  0  0  0  0  0  0  0  0  0  0  # atno 11005 bound_to 11000
  146.0923  140.7641  142.9589 LP  0  0  0  0  0  0  0  0  0  0  0  0  # atno 17320 bound_to 7965
  144.7011  140.3656  143.7155 LP  0  0  0  0  0  0  0  0  0  0  0  0  # atno 17321 bound_to 7965
  140.4918  143.2345  151.8807 LP  0  0  0  0  0  0  0  0  0  0  0  0  # atno 17342 bound_to 10162
  139.4794  144.5157  151.8871 LP  0  0  0  0  0  0  0  0  0  0  0  0  # atno 17343 bound_to 10162
  157.6008  131.0941  150.8963 LP  0  0  0  0  0  0  0  0  0  0  0  0  # atno 17370 bound_to 10713
  156.9121  130.5284  149.5280 LP  0  0  0  0  0  0  0  0  0  0  0  0  # atno 17371 bound_to 10713
  140.2996  134.8174  157.4086 LP  0  0  0  0  0  0  0  0  0  0  0  0  # atno 17394 bound_to 11000
  140.1273  134.5141  155.8134 LP  0  0  0  0  0  0  0  0  0  0  0  0  # atno 17395 bound_to 11000

$$$$
