AV-unprocessed.smi:1373|AV-procd|sdf|5586|dock2
  -GOLD-   22720 5183D 1   1.00000     0.00000
 Structure written by MMmdl.
 42 43  0  0  0  0  0  0  0  0  1 V2000
  151.3129  145.7198  159.8561 C   0  0  0  0  0  0  0  0  0  0  0  0
  151.8373  144.3914  159.2998 C   0  0  0  0  0  0  0  0  0  0  0  0
  152.1030  143.3554  160.4007 C   0  0  0  0  0  0  0  0  0  0  0  0
  152.6287  142.0244  159.8405 C   0  0  0  0  0  0  0  0  0  0  0  0
  151.5924  141.3103  159.1049 N   0  0  0  0  0  0  0  0  0  0  0  0
  151.8117  140.3427  158.1993 C   0  0  0  0  0  0  0  0  0  0  0  0
  152.9359  139.9408  157.8996 O   0  0  0  0  0  0  0  0  0  0  0  0
  150.5778  139.7158  157.5421 C   0  0  0  0  0  0  0  0  0  0  0  0
  150.1245  138.4992  158.2864 C   0  0  0  0  0  0  0  0  0  0  0  0
  150.7970  138.0370  159.3345 N   0  0  0  0  0  0  0  0  0  0  0  0
  150.0729  136.8952  159.7067 O   0  0  0  0  0  0  0  0  0  0  0  0
  149.0403  136.8125  158.8340 C   0  0  0  0  0  0  0  0  0  0  0  0
  148.0880  135.6663  158.9441 C   0  0  0  0  0  0  0  0  0  0  0  0
  147.9717  135.1327  160.3002 N   0  0  0  0  0  0  0  0  0  0  0  0
  147.5128  136.1572  161.2310 C   0  0  0  0  0  0  0  0  0  0  0  0
  147.3873  135.6141  162.6649 C   0  0  0  0  0  0  0  0  0  0  0  0
  146.5102  134.4922  162.6747 O   0  0  0  0  0  0  0  0  0  0  0  0
  146.9466  133.4466  161.8121 C   0  0  0  0  0  0  0  0  0  0  0  0
  147.0737  133.9813  160.3750 C   0  0  0  0  0  0  0  0  0  0  0  0
  149.0135  137.7931  157.9355 N   0  0  0  0  0  0  0  0  0  0  0  0
  151.1398  146.4365  159.0529 H   0  0  0  0  0  0  0  0  0  0  0  0
  152.0260  146.1648  160.5507 H   0  0  0  0  0  0  0  0  0  0  0  0
  150.3703  145.5799  160.3861 H   0  0  0  0  0  0  0  0  0  0  0  0
  151.1162  143.9917  158.5859 H   0  0  0  0  0  0  0  0  0  0  0  0
  152.7561  144.5737  158.7413 H   0  0  0  0  0  0  0  0  0  0  0  0
  152.8222  143.7636  161.1123 H   0  0  0  0  0  0  0  0  0  0  0  0
  151.1837  143.1756  160.9596 H   0  0  0  0  0  0  0  0  0  0  0  0
  153.4590  142.2104  159.1584 H   0  0  0  0  0  0  0  0  0  0  0  0
  153.0220  141.3983  160.6435 H   0  0  0  0  0  0  0  0  0  0  0  0
  150.6359  141.5751  159.2925 H   0  0  0  0  0  0  0  0  0  0  0  0
  149.7669  140.4448  157.5037 H   0  0  0  0  0  0  0  0  0  0  0  0
  150.8144  139.4499  156.5110 H   0  0  0  0  0  0  0  0  0  0  0  0
  147.1129  136.0150  158.6019 H   0  0  0  0  0  0  0  0  0  0  0  0
  148.3978  134.8807  158.2531 H   0  0  0  0  0  0  0  0  0  0  0  0
  148.2043  137.0002  161.2241 H   0  0  0  0  0  0  0  0  0  0  0  0
  146.5452  136.5448  160.9076 H   0  0  0  0  0  0  0  0  0  0  0  0
  148.3644  135.3246  163.0551 H   0  0  0  0  0  0  0  0  0  0  0  0
  146.9915  136.3828  163.3287 H   0  0  0  0  0  0  0  0  0  0  0  0
  147.9014  133.0510  162.1622 H   0  0  0  0  0  0  0  0  0  0  0  0
  146.2274  132.6284  161.8495 H   0  0  0  0  0  0  0  0  0  0  0  0
  146.0856  134.2579  160.0038 H   0  0  0  0  0  0  0  0  0  0  0  0
  147.4343  133.1774  159.7330 H   0  0  0  0  0  0  0  0  0  0  0  0
  1  2  1  0  0  0  0
  1 21  1  0  0  0  0
  1 22  1  0  0  0  0
  1 23  1  0  0  0  0
  2  3  1  0  0  0  0
  2 24  1  0  0  0  0
  2 25  1  0  0  0  0
  3  4  1  0  0  0  0
  3 26  1  0  0  0  0
  3 27  1  0  0  0  0
  4  5  1  0  0  0  0
  4 28  1  0  0  0  0
  4 29  1  0  0  0  0
  5  6  1  0  0  0  0
  5 30  1  0  0  0  0
  6  7  2  0  0  0  0
  6  8  1  0  0  0  0
  8  9  1  0  0  0  0
  8 31  1  0  0  0  0
  8 32  1  0  0  0  0
  9 20  1  0  0  0  0
  9 10  2  0  0  0  0
 10 11  1  0  0  0  0
 11 12  1  0  0  0  0
 12 13  1  0  0  0  0
 12 20  2  0  0  0  0
 13 14  1  0  0  0  0
 13 33  1  0  0  0  0
 13 34  1  0  0  0  0
 14 19  1  0  0  0  0
 14 15  1  0  0  0  0
 15 16  1  0  0  0  0
 15 35  1  0  0  0  0
 15 36  1  0  0  0  0
 16 17  1  0  0  0  0
 16 37  1  0  0  0  0
 16 38  1  0  0  0  0
 17 18  1  0  0  0  0
 18 19  1  0  0  0  0
 18 39  1  0  0  0  0
 18 40  1  0  0  0  0
 19 41  1  0  0  0  0
 19 42  1  0  0  0  0
M  END
> <s_m_source_file>
AV-unprocessed.smi

> <i_m_source_file_index>
1373

> <i_lp_mmshare_version>
43012

> <i_f3d_flags>
0

> <s_epik_input>
W0NIM11bQ0gyXVtDSDJdW0NIMl1bTkhdQyg9TylbQ0gyXWMxbm9jKG4xKVtDSDJdTjJbQ0gyXVtDSDJdT1tDSDJdW0NIMl0y

> <s_epik_cmdline>
J2VwaWtfcHl0aG9uJywgJy1waCcsICc3LjAnLCAnLXRuJywgJzgnLCAnLW1hJywgJzIwMCcsICctbWV0YWxfYmluZGluZycsICctaW1hZScsICc8aW5maWxlLm1hZT4nLCAnLW9tYWUnLCAnPG91dGZpbGUubWFlPic=

> <r_lp_tautomer_probability>
1

> <r_epik_Ionization_Penalty>
0.0010147

> <r_epik_Ionization_Penalty_Charging>
0

> <r_epik_Ionization_Penalty_Neutral>
0.0010147

> <r_epik_State_Penalty>
0.00066205

> <r_epik_Charging_Adjusted_Penalty>
0.00066205

> <i_epik_Tot_Q>
0

> <i_epik_Tot_abs_Q>
0

> <r_epik_Metal_State_Penalty>
-0

> <b_epik_Metal_Only>
0

> <s_lp_Force_Field>
OPLS_2005

> <r_lp_Energy>
19.0751

> <b_lp_Chiralities_Consistent>
1

> <s_lp_Variant>
AV-unprocessed.smi:1373-1

> <Gold.Version>
5.8.1

> <Gold.Id.Protein>
6NUR|6NUR_protein|mol2

> <Gold.PLP.Fitness>
47.2256

> <Gold.PLP.PLP>
-42.7748

> <Gold.PLP.part.hbond>
-3.6123

> <Gold.PLP.part.metal>
0.0000

> <Gold.PLP.part.buried>
-6.6947

> <Gold.PLP.part.nonpolar>
-33.4590

> <Gold.PLP.part.repulsive>
0.1378

> <Gold.PLP.ligand.clash>
0.0000

> <Gold.PLP.ligand.torsion>
0.9089

> <Gold.PLP.Chemscore.Hbond>
2.0000

> <Gold.PLP.Chemscore.CHOScore>
0.0000

> <Gold.PLP.Chemscore.Metal>
0.0000

> <Gold.Chemscore.Hbonds>
donor molecule, donor type, donor heavy atom, donor atom, acceptor molecule, acceptor atom, score
      P1  H  6896  6908       L1    11  0.84
      P1  H  7997  8010       L1     7  1.00

> <Gold.PLP.Chemscore.Internal.Correction>
0.2684

> <Gold.Rescore>
     Score         DG    S(hbond)    S(metal)    S(lipo)     H(rot)  DE(clash)    DE(int)     intcor
     15.26     -16.27       1.84        0.00      89.92       2.29       0.08       0.94       ----

> <Gold.Chemscore.Fitness>
15.2614

> <Gold.Chemscore.DG>
-16.2750

> <Gold.Chemscore.ZeroCoef>
-5.4800

> <Gold.Chemscore.Hbond>
1.8384

> <Gold.Chemscore.Metal>
0.0000

> <Gold.Chemscore.Lipo>
89.9160

> <Gold.Chemscore.Internal_Hbond>
0.0000

> <Gold.Chemscore.DEClash>
0.0775

> <Gold.Chemscore.DEInternal>
0.9362

> <Gold.Chemscore.Rot>
2.2912

> <Gold.Chemscore.Internal.Correction>
   9.000000E+99

> <Gold.Chemscore.Hbonds>
donor molecule, donor type, donor heavy atom, donor atom, acceptor molecule, acceptor atom, score
      P1  H  6896  6908       L1    11  0.60
      P1  H  7997  8010       L1     7  0.98

> <Gold.Chemscore.Hbond.Weighted>
-6.1402

> <Gold.Chemscore.Metal.Weighted>
-0.0000

> <Gold.Chemscore.Lipo.Weighted>
-10.5202

> <Gold.Chemscore.Internal_Hbond.Weighted>
0.0000

> <Gold.Chemscore.DEClash.Weighted>
0.0775

> <Gold.Chemscore.DEInternal.Weighted>
0.9362

> <Gold.Chemscore.Rot.Weighted>
5.8654

> <Gold.Chemscore.Internal.Correction.Weighted>
   9.000000E+99

> <Gold.Protein.RotatedTorsions>
[ 6907 6896 6895 6894 ] final -152.37 input  -60.11 | X-H torsion
[ 7974 7965 7964 7962 ] final -101.50 input  175.53 | X-H torsion
[ 8008 7997 7996 7995 ] final   47.50 input   59.86 | X-H torsion
[ 10167 10162 10161 10158 ] final  139.19 input  -65.29 | X-H torsion
[ 10718 10713 10712 10709 ] final   26.74 input   66.30 | X-H torsion
[ 10763 10752 10751 10750 ] final  108.01 input  -60.55 | X-H torsion
[ 11005 11000 10999 10996 ] final   -3.92 input  -57.11 | X-H torsion

> <Gold.Protein.ActiveResidues>
 VAL166  LYS551  ARG553  GLY616  TRP617  ASP618  TYR619  PRO620  LYS621  CYS622 
 ASP623  PHE694  ASN695  SER759  ASP760  ASP761  ALA762  ILE779  LEU786  VAL792 
 PHE793  MET794  SER795  GLU796  ALA797  LYS798  CYS799  TRP800  GLU811  SER814 

> <Gold.Protein.RotatedAtoms>
  151.2268  133.4472  159.2602 H   0  0  0  0  0  0  0  0  0  0  0  0  # atno 6907 bound_to 6896
  151.0832  134.9871  159.8377 H   0  0  0  0  0  0  0  0  0  0  0  0  # atno 6908 bound_to 6896
  152.5426  134.2206  159.8839 H   0  0  0  0  0  0  0  0  0  0  0  0  # atno 6909 bound_to 6896
  145.2809  140.9326  143.2933 H   0  0  0  0  0  0  0  0  0  0  0  0  # atno 7974 bound_to 7965
  155.3700  140.3423  155.4243 H   0  0  0  0  0  0  0  0  0  0  0  0  # atno 8008 bound_to 7997
  156.1667  140.1618  156.8552 H   0  0  0  0  0  0  0  0  0  0  0  0  # atno 8009 bound_to 7997
  154.5192  140.0771  156.8122 H   0  0  0  0  0  0  0  0  0  0  0  0  # atno 8010 bound_to 7997
  139.5086  144.6309  151.5820 H   0  0  0  0  0  0  0  0  0  0  0  0  # atno 10167 bound_to 10162
  157.2109  130.6934  149.6228 H   0  0  0  0  0  0  0  0  0  0  0  0  # atno 10718 bound_to 10713
  153.4147  135.3826  155.2073 H   0  0  0  0  0  0  0  0  0  0  0  0  # atno 10763 bound_to 10752
  154.8740  135.3803  154.4457 H   0  0  0  0  0  0  0  0  0  0  0  0  # atno 10764 bound_to 10752
  153.4970  135.7088  153.5915 H   0  0  0  0  0  0  0  0  0  0  0  0  # atno 10765 bound_to 10752
  140.6746  133.9206  155.8516 H   0  0  0  0  0  0  0  0  0  0  0  0  # atno 11005 bound_to 11000
  144.9254  139.4361  143.6521 LP  0  0  0  0  0  0  0  0  0  0  0  0  # atno 17320 bound_to 7965
  146.3217  139.8137  142.8940 LP  0  0  0  0  0  0  0  0  0  0  0  0  # atno 17321 bound_to 7965
  140.6041  143.9556  150.6406 LP  0  0  0  0  0  0  0  0  0  0  0  0  # atno 17342 bound_to 10162
  140.2777  143.3411  152.1180 LP  0  0  0  0  0  0  0  0  0  0  0  0  # atno 17343 bound_to 10162
  155.9691  130.4551  150.5876 LP  0  0  0  0  0  0  0  0  0  0  0  0  # atno 17370 bound_to 10713
  157.3673  131.0760  151.1587 LP  0  0  0  0  0  0  0  0  0  0  0  0  # atno 17371 bound_to 10713
  141.0365  134.0682  157.3953 LP  0  0  0  0  0  0  0  0  0  0  0  0  # atno 17394 bound_to 11000
  139.8971  135.0148  156.7082 LP  0  0  0  0  0  0  0  0  0  0  0  0  # atno 17395 bound_to 11000

$$$$
