AV-unprocessed.smi:1859|AV-procd|sdf|7543|dock4
  -GOLD-   22720 9253D 1   1.00000     0.00000
 Structure written by MMmdl.
 45 47  0  0  0  0  0  0  0  0  1 V2000
  148.6581  139.0147  157.7270 O   0  0  0  0  0  0  0  0  0  0  0  0
  149.1573  138.2432  156.9077 C   0  0  0  0  0  0  0  0  0  0  0  0
  149.3744  136.9435  157.1669 N   0  0  0  0  0  0  0  0  0  0  0  0
  149.0844  136.2691  158.4301 C   0  0  0  0  0  0  0  0  0  0  0  0
  147.7989  136.7914  159.0987 C   0  0  0  0  0  0  0  0  0  0  0  0
  147.5427  136.2161  160.4814 C   0  0  0  0  0  0  0  0  0  0  0  0
  147.4541  134.8212  160.6780 C   0  0  0  0  0  0  0  0  0  0  0  0
  147.2274  134.3413  161.9822 C   0  0  0  0  0  0  0  0  0  0  0  0
  147.0923  135.2691  163.0329 C   0  0  0  0  0  0  0  0  0  0  0  0
  147.1904  136.6417  162.7312 C   0  0  0  0  0  0  0  0  0  0  0  0
  147.4182  137.1125  161.4862 N   0  0  0  0  0  0  0  0  0  0  0  0
  149.5790  138.7408  155.5113 C   0  0  2  0  0  0  0  0  0  0  0  0
  150.5249  137.7385  154.8015 C   0  0  0  0  0  0  0  0  0  0  0  0
  151.9902  137.8329  155.2766 C   0  0  0  0  0  0  0  0  0  0  0  0
  152.4684  139.2931  155.2648 C   0  0  0  0  0  0  0  0  0  0  0  0
  151.5739  140.0979  156.1076 N   0  0  0  0  0  0  0  0  0  0  0  0
  151.9146  140.7224  157.2621 C   0  0  0  0  0  0  0  0  0  0  0  0
  152.9548  140.4501  157.8622 O   0  0  0  0  0  0  0  0  0  0  0  0
  151.0010  141.8043  157.7623 C   0  0  0  0  0  0  0  0  0  0  0  0
  151.5063  143.2353  157.7289 C   0  0  0  0  0  0  0  0  0  0  0  0
  151.3980  142.5064  159.0438 C   0  0  0  0  0  0  0  0  0  0  0  0
  150.2144  140.1558  155.5474 C   0  0  0  0  0  0  0  0  0  0  0  0
  149.7865  136.3808  156.4369 H   0  0  0  0  0  0  0  0  0  0  0  0
  148.9751  135.2046  158.2222 H   0  0  0  0  0  0  0  0  0  0  0  0
  149.9264  136.3548  159.1189 H   0  0  0  0  0  0  0  0  0  0  0  0
  147.8402  137.8793  159.1669 H   0  0  0  0  0  0  0  0  0  0  0  0
  146.9413  136.5640  158.4645 H   0  0  0  0  0  0  0  0  0  0  0  0
  147.5565  134.1338  159.8513 H   0  0  0  0  0  0  0  0  0  0  0  0
  147.1511  133.2811  162.1724 H   0  0  0  0  0  0  0  0  0  0  0  0
  146.9087  134.9369  164.0438 H   0  0  0  0  0  0  0  0  0  0  0  0
  147.0869  137.3808  163.5117 H   0  0  0  0  0  0  0  0  0  0  0  0
  148.6702  138.8084  154.9108 H   0  0  0  0  0  0  0  0  0  0  0  0
  150.1629  136.7162  154.9211 H   0  0  0  0  0  0  0  0  0  0  0  0
  150.4955  137.9381  153.7296 H   0  0  0  0  0  0  0  0  0  0  0  0
  152.0919  137.4201  156.2805 H   0  0  0  0  0  0  0  0  0  0  0  0
  152.6269  137.2264  154.6320 H   0  0  0  0  0  0  0  0  0  0  0  0
  153.5179  139.3612  155.5476 H   0  0  0  0  0  0  0  0  0  0  0  0
  152.4310  139.6801  154.2453 H   0  0  0  0  0  0  0  0  0  0  0  0
  149.9387  141.6996  157.5533 H   0  0  0  0  0  0  0  0  0  0  0  0
  152.5065  143.4364  157.3492 H   0  0  0  0  0  0  0  0  0  0  0  0
  150.7732  144.0101  157.5141 H   0  0  0  0  0  0  0  0  0  0  0  0
  150.5944  142.7870  159.7214 H   0  0  0  0  0  0  0  0  0  0  0  0
  152.3267  142.2095  159.5283 H   0  0  0  0  0  0  0  0  0  0  0  0
  150.2662  140.5627  154.5366 H   0  0  0  0  0  0  0  0  0  0  0  0
  149.5597  140.8342  156.0975 H   0  0  0  0  0  0  0  0  0  0  0  0
  1  2  2  0  0  0  0
  2  3  1  0  0  0  0
  2 12  1  0  0  0  0
  3  4  1  0  0  0  0
  3 23  1  0  0  0  0
  4  5  1  0  0  0  0
  4 24  1  0  0  0  0
  4 25  1  0  0  0  0
  5  6  1  0  0  0  0
  5 26  1  0  0  0  0
  5 27  1  0  0  0  0
  6 11  1  0  0  0  0
  6  7  2  0  0  0  0
  7  8  1  0  0  0  0
  7 28  1  0  0  0  0
  8  9  2  0  0  0  0
  8 29  1  0  0  0  0
  9 10  1  0  0  0  0
  9 30  1  0  0  0  0
 10 11  2  0  0  0  0
 10 31  1  0  0  0  0
 12 22  1  0  0  0  0
 12 13  1  0  0  0  0
 12 32  1  0  0  0  0
 13 14  1  0  0  0  0
 13 33  1  0  0  0  0
 13 34  1  0  0  0  0
 14 15  1  0  0  0  0
 14 35  1  0  0  0  0
 14 36  1  0  0  0  0
 15 16  1  0  0  0  0
 15 37  1  0  0  0  0
 15 38  1  0  0  0  0
 16 17  1  0  0  0  0
 16 22  1  0  0  0  0
 17 18  2  0  0  0  0
 17 19  1  0  0  0  0
 19 21  1  0  0  0  0
 19 20  1  0  0  0  0
 19 39  1  0  0  0  0
 20 21  1  0  0  0  0
 20 40  1  0  0  0  0
 20 41  1  0  0  0  0
 21 42  1  0  0  0  0
 21 43  1  0  0  0  0
 22 44  1  0  0  0  0
 22 45  1  0  0  0  0
M  END
> <s_m_source_file>
AV-unprocessed.smi

> <i_m_source_file_index>
1859

> <i_lp_mmshare_version>
43012

> <i_f3d_flags>
0

> <s_epik_input>
W0NIMl0xW0NIMl1bQ0hdMUMoPU8pTihbQ0gyXTIpW0NIMl1bQ0gyXVtDSDJdW0NASF0yQyg9TylbTkhdW0NIMl1bQ0gyXWMzW2NIXVtjSF1bY0hdW2NIXW4z

> <s_epik_cmdline>
J2VwaWtfcHl0aG9uJywgJy1waCcsICc3LjAnLCAnLXRuJywgJzgnLCAnLW1hJywgJzIwMCcsICctbWV0YWxfYmluZGluZycsICctaW1hZScsICc8aW5maWxlLm1hZT4nLCAnLW9tYWUnLCAnPG91dGZpbGUubWFlPic=

> <r_epik_Ionization_Penalty>
0.0268048

> <r_epik_Ionization_Penalty_Charging>
0

> <r_epik_Ionization_Penalty_Neutral>
0.0268048

> <r_epik_State_Penalty>
0.0219025

> <r_epik_Charging_Adjusted_Penalty>
0.0219025

> <i_epik_Tot_Q>
0

> <i_epik_Tot_abs_Q>
0

> <r_epik_Metal_State_Penalty>
0.020951

> <b_epik_Metal_Only>
0

> <s_lp_Force_Field>
OPLS_2005

> <r_lp_Energy>
24.9831

> <b_lp_Chiralities_Consistent>
1

> <s_lp_Variant>
AV-unprocessed.smi:1859-1

> <Gold.Version>
5.8.1

> <Gold.Id.Protein>
6NUR|6NUR_protein|mol2

> <Gold.PLP.Fitness>
46.3093

> <Gold.PLP.PLP>
-40.3691

> <Gold.PLP.part.hbond>
-3.0000

> <Gold.PLP.part.metal>
0.0000

> <Gold.PLP.part.buried>
-1.8807

> <Gold.PLP.part.nonpolar>
-35.5793

> <Gold.PLP.part.repulsive>
0.0284

> <Gold.PLP.ligand.clash>
0.0769

> <Gold.PLP.ligand.torsion>
0.8605

> <Gold.PLP.Chemscore.Hbond>
2.4572

> <Gold.PLP.Chemscore.CHOScore>
0.0000

> <Gold.PLP.Chemscore.Metal>
0.0000

> <Gold.Chemscore.Hbonds>
donor molecule, donor type, donor heavy atom, donor atom, acceptor molecule, acceptor atom, score
      P1  H  6931  6943       L1    11  0.85
      P1  H  6934  6947       L1    11  0.91
      P1  H  7997  8010       L1    18  0.70

> <Gold.PLP.Chemscore.Internal.Correction>
0.3665

> <Gold.Rescore>
     Score         DG    S(hbond)    S(metal)    S(lipo)     H(rot)  DE(clash)    DE(int)     intcor
     16.87     -19.38       1.80        0.00     102.34       1.59       0.13       2.38       ----

> <Gold.Chemscore.Fitness>
16.8679

> <Gold.Chemscore.DG>
-19.3775

> <Gold.Chemscore.ZeroCoef>
-5.4800

> <Gold.Chemscore.Hbond>
1.7981

> <Gold.Chemscore.Metal>
0.0000

> <Gold.Chemscore.Lipo>
102.3359

> <Gold.Chemscore.Internal_Hbond>
0.0000

> <Gold.Chemscore.DEClash>
0.1326

> <Gold.Chemscore.DEInternal>
2.3771

> <Gold.Chemscore.Rot>
1.5943

> <Gold.Chemscore.Internal.Correction>
   9.000000E+99

> <Gold.Chemscore.Hbonds>
donor molecule, donor type, donor heavy atom, donor atom, acceptor molecule, acceptor atom, score
      P1  H  6931  6943       L1    11  0.15
      P1  H  6934  6947       L1    11  0.78
      P1  H  7997  8010       L1    18  0.55

> <Gold.Chemscore.Hbond.Weighted>
-6.0057

> <Gold.Chemscore.Metal.Weighted>
-0.0000

> <Gold.Chemscore.Lipo.Weighted>
-11.9733

> <Gold.Chemscore.Internal_Hbond.Weighted>
0.0000

> <Gold.Chemscore.DEClash.Weighted>
0.1326

> <Gold.Chemscore.DEInternal.Weighted>
2.3771

> <Gold.Chemscore.Rot.Weighted>
4.0814

> <Gold.Chemscore.Internal.Correction.Weighted>
   9.000000E+99

> <Gold.Protein.RotatedTorsions>
[ 6907 6896 6895 6894 ] final   25.88 input  -60.11 | X-H torsion
[ 7974 7965 7964 7962 ] final -107.92 input  175.53 | X-H torsion
[ 8008 7997 7996 7995 ] final   61.67 input   59.86 | X-H torsion
[ 10167 10162 10161 10158 ] final -124.62 input  -65.29 | X-H torsion
[ 10718 10713 10712 10709 ] final    2.26 input   66.30 | X-H torsion
[ 10763 10752 10751 10750 ] final  -62.58 input  -60.55 | X-H torsion
[ 11005 11000 10999 10996 ] final   27.41 input  -57.11 | X-H torsion

> <Gold.Protein.ActiveResidues>
 VAL166  LYS551  ARG553  GLY616  TRP617  ASP618  TYR619  PRO620  LYS621  CYS622 
 ASP623  PHE694  ASN695  SER759  ASP760  ASP761  ALA762  ILE779  LEU786  VAL792 
 PHE793  MET794  SER795  GLU796  ALA797  LYS798  CYS799  TRP800  GLU811  SER814 

> <Gold.Protein.RotatedAtoms>
  151.9792  135.0037  160.0556 H   0  0  0  0  0  0  0  0  0  0  0  0  # atno 6907 bound_to 6896
  152.1712  133.4640  159.4918 H   0  0  0  0  0  0  0  0  0  0  0  0  # atno 6908 bound_to 6896
  150.6902  134.1868  159.4313 H   0  0  0  0  0  0  0  0  0  0  0  0  # atno 6909 bound_to 6896
  145.1993  140.9049  143.3379 H   0  0  0  0  0  0  0  0  0  0  0  0  # atno 7974 bound_to 7965
  155.6020  140.3494  155.4596 H   0  0  0  0  0  0  0  0  0  0  0  0  # atno 8008 bound_to 7997
  156.0221  140.1256  157.0371 H   0  0  0  0  0  0  0  0  0  0  0  0  # atno 8009 bound_to 7997
  154.4319  140.1060  156.5964 H   0  0  0  0  0  0  0  0  0  0  0  0  # atno 8010 bound_to 7997
  139.9909  143.5642  152.2342 H   0  0  0  0  0  0  0  0  0  0  0  0  # atno 10167 bound_to 10162
  156.8604  130.5585  149.5663 H   0  0  0  0  0  0  0  0  0  0  0  0  # atno 10718 bound_to 10713
  154.3020  135.6232  153.5429 H   0  0  0  0  0  0  0  0  0  0  0  0  # atno 10763 bound_to 10752
  152.9839  135.5681  154.5273 H   0  0  0  0  0  0  0  0  0  0  0  0  # atno 10764 bound_to 10752
  154.4905  135.2867  155.1476 H   0  0  0  0  0  0  0  0  0  0  0  0  # atno 10765 bound_to 10752
  140.3266  134.2484  155.7708 H   0  0  0  0  0  0  0  0  0  0  0  0  # atno 11005 bound_to 11000
  144.9963  139.3641  143.6189 LP  0  0  0  0  0  0  0  0  0  0  0  0  # atno 17320 bound_to 7965
  146.3421  139.9167  142.8772 LP  0  0  0  0  0  0  0  0  0  0  0  0  # atno 17321 bound_to 7965
  139.6341  144.7648  151.2475 LP  0  0  0  0  0  0  0  0  0  0  0  0  # atno 17342 bound_to 10162
  140.7455  143.6429  150.8318 LP  0  0  0  0  0  0  0  0  0  0  0  0  # atno 17343 bound_to 10162
  156.0780  130.5797  150.9509 LP  0  0  0  0  0  0  0  0  0  0  0  0  # atno 17370 bound_to 10713
  157.6253  131.0926  150.8545 LP  0  0  0  0  0  0  0  0  0  0  0  0  # atno 17371 bound_to 10713
  141.2074  133.7807  157.0123 LP  0  0  0  0  0  0  0  0  0  0  0  0  # atno 17394 bound_to 11000
  140.0896  134.9600  157.1755 LP  0  0  0  0  0  0  0  0  0  0  0  0  # atno 17395 bound_to 11000

$$$$
