AV-unprocessed.smi:2296|AV-procd|sdf|9221|dock4
  -GOLD-   2272012443D 1   1.00000     0.00000
 Structure written by MMmdl.
 24 24  0  0  0  0  0  0  0  0  2 V2000
  144.1117  137.6108  152.3021 N   0  3  0  0  0  0  0  0  0  0  0  0
  145.4880  137.2529  151.9077 C   0  0  1  0  0  0  0  0  0  0  0  0
  146.4428  138.4272  152.1826 C   0  0  0  0  0  0  0  0  0  0  0  0
  147.7057  138.1757  151.6027 O   0  0  0  0  0  0  0  0  0  0  0  0
  145.9461  135.9745  152.6365 C   0  0  0  0  0  0  0  0  0  0  0  0
  145.5469  134.6995  151.9140 C   0  0  0  0  0  0  0  0  0  0  0  0
  144.2038  134.4634  151.5537 C   0  0  0  0  0  0  0  0  0  0  0  0
  143.8895  133.2655  150.8801 C   0  0  0  0  0  0  0  0  0  0  0  0
  144.8108  132.3324  150.5588 N   0  0  0  0  0  0  0  0  0  0  0  0
  146.0944  132.5635  150.9088 C   0  0  0  0  0  0  0  0  0  0  0  0
  146.5138  133.7274  151.5842 C   0  0  0  0  0  0  0  0  0  0  0  0
  143.8040  137.0037  153.0481 H   0  0  0  0  0  0  0  0  0  0  0  0
  143.4959  137.5101  151.5078 H   0  0  0  0  0  0  0  0  0  0  0  0
  145.4847  137.0540  150.8347 H   0  0  0  0  0  0  0  0  0  0  0  0
  146.0408  139.3640  151.7948 H   0  0  0  0  0  0  0  0  0  0  0  0
  146.5858  138.5578  153.2559 H   0  0  0  0  0  0  0  0  0  0  0  0
  148.1032  137.4430  152.0495 H   0  0  0  0  0  0  0  0  0  0  0  0
  147.0323  135.9765  152.7381 H   0  0  0  0  0  0  0  0  0  0  0  0
  145.5482  135.9571  153.6523 H   0  0  0  0  0  0  0  0  0  0  0  0
  143.4282  135.1782  151.7870 H   0  0  0  0  0  0  0  0  0  0  0  0
  142.8714  133.0534  150.5897 H   0  0  0  0  0  0  0  0  0  0  0  0
  146.8090  131.7994  150.6411 H   0  0  0  0  0  0  0  0  0  0  0  0
  147.5539  133.8663  151.8414 H   0  0  0  0  0  0  0  0  0  0  0  0
  144.0976  138.5692  152.6211 H   0  0  0  0  0  0  0  0  0  0  0  0
  1  2  1  0  0  0  0
  1 12  1  0  0  0  0
  1 13  1  0  0  0  0
  1 24  1  0  0  0  0
  2  3  1  0  0  0  0
  2  5  1  0  0  0  0
  2 14  1  0  0  0  0
  3  4  1  0  0  0  0
  3 15  1  0  0  0  0
  3 16  1  0  0  0  0
  4 17  1  0  0  0  0
  5  6  1  0  0  0  0
  5 18  1  0  0  0  0
  5 19  1  0  0  0  0
  6 11  1  0  0  0  0
  6  7  2  0  0  0  0
  7  8  1  0  0  0  0
  7 20  1  0  0  0  0
  8  9  2  0  0  0  0
  8 21  1  0  0  0  0
  9 10  1  0  0  0  0
 10 11  2  0  0  0  0
 10 22  1  0  0  0  0
 11 23  1  0  0  0  0
M  CHG  1   1   1
M  END
> <s_m_source_file>
AV-unprocessed.smi

> <i_m_source_file_index>
2296

> <i_lp_mmshare_version>
43012

> <i_f3d_flags>
0

> <s_epik_input>
W09IXVtDSDJdW0NAQEhdKFtOSDJdKVtDSDJdYzFbY0hdW2NIXW5bY0hdW2NIXTE=

> <s_epik_cmdline>
J2VwaWtfcHl0aG9uJywgJy1waCcsICc3LjAnLCAnLXRuJywgJzgnLCAnLW1hJywgJzIwMCcsICctbWV0YWxfYmluZGluZycsICctaW1hZScsICc8aW5maWxlLm1hZT4nLCAnLW9tYWUnLCAnPG91dGZpbGUubWFlPic=

> <r_epik_Ionization_Penalty>
0.0199414

> <r_epik_Ionization_Penalty_Charging>
0.0188044

> <r_epik_Ionization_Penalty_Neutral>
0.00113699

> <r_epik_State_Penalty>
0.00788343

> <r_epik_Charging_Adjusted_Penalty>
0.0266878

> <i_epik_Tot_Q>
1

> <i_epik_Tot_abs_Q>
1

> <r_epik_Metal_State_Penalty>
-0

> <b_epik_Metal_Only>
0

> <s_lp_Force_Field>
OPLS_2005

> <r_lp_Energy>
8.03463

> <b_lp_Chiralities_Consistent>
1

> <s_lp_Variant>
AV-unprocessed.smi:2296-2

> <Gold.Version>
5.8.1

> <Gold.Id.Protein>
6NUR|6NUR_protein|mol2

> <Gold.PLP.Fitness>
39.2932

> <Gold.PLP.PLP>
-21.3476

> <Gold.PLP.part.hbond>
-4.3595

> <Gold.PLP.part.metal>
0.0000

> <Gold.PLP.part.buried>
-0.9876

> <Gold.PLP.part.nonpolar>
-16.8716

> <Gold.PLP.part.repulsive>
0.1718

> <Gold.PLP.ligand.clash>
0.0000

> <Gold.PLP.ligand.torsion>
0.4071

> <Gold.PLP.Chemscore.Hbond>
4.2480

> <Gold.PLP.Chemscore.CHOScore>
2.0000

> <Gold.PLP.Chemscore.Metal>
0.0000

> <Gold.Chemscore.Hbonds>
donor molecule, donor type, donor heavy atom, donor atom, acceptor molecule, acceptor atom, score
      L1  H     1    13       P1 10171  0.40
      L1  H     1    24       P1 10175  2.00
      L1  H     4    17       P1  7948  0.72
      P1  H  7954  7966       L1     4  1.00
      L1  C     8    21       P1 10186  0.99
      L1  C    10    22       P1 10747  1.00

> <Gold.PLP.Chemscore.Internal.Correction>
0.0159

> <Gold.Rescore>
     Score         DG    S(hbond)    S(metal)    S(lipo)     H(rot)  DE(clash)    DE(int)     intcor
     14.14     -14.93       2.82        0.00      47.13       2.14       0.27       0.52       ----

> <Gold.Chemscore.Fitness>
14.1375

> <Gold.Chemscore.DG>
-14.9348

> <Gold.Chemscore.ZeroCoef>
-5.4800

> <Gold.Chemscore.Hbond>
2.8203

> <Gold.Chemscore.Metal>
0.0000

> <Gold.Chemscore.Lipo>
47.1337

> <Gold.Chemscore.Internal_Hbond>
0.0000

> <Gold.Chemscore.DEClash>
0.2744

> <Gold.Chemscore.DEInternal>
0.5229

> <Gold.Chemscore.Rot>
2.1405

> <Gold.Chemscore.Internal.Correction>
   9.000000E+99

> <Gold.Chemscore.Hbonds>
donor molecule, donor type, donor heavy atom, donor atom, acceptor molecule, acceptor atom, score
      L1  H     1    13       P1 10171  0.36
      L1  H     1    24       P1 10175  0.96
      L1  H     4    17       P1  7948  0.68
      P1  H  7954  7966       L1     4  0.34

> <Gold.Chemscore.Hbond.Weighted>
-9.4199

> <Gold.Chemscore.Metal.Weighted>
-0.0000

> <Gold.Chemscore.Lipo.Weighted>
-5.5146

> <Gold.Chemscore.Internal_Hbond.Weighted>
0.0000

> <Gold.Chemscore.DEClash.Weighted>
0.2744

> <Gold.Chemscore.DEInternal.Weighted>
0.5229

> <Gold.Chemscore.Rot.Weighted>
5.4797

> <Gold.Chemscore.Internal.Correction.Weighted>
   9.000000E+99

> <Gold.Protein.RotatedTorsions>
[ 6907 6896 6895 6894 ] final  106.68 input  -60.11 | X-H torsion
[ 7974 7965 7964 7962 ] final  177.74 input  175.53 | X-H torsion
[ 8008 7997 7996 7995 ] final  152.71 input   59.86 | X-H torsion
[ 10167 10162 10161 10158 ] final  -55.14 input  -65.29 | X-H torsion
[ 10718 10713 10712 10709 ] final   10.88 input   66.30 | X-H torsion
[ 10763 10752 10751 10750 ] final  177.73 input  -60.55 | X-H torsion
[ 11005 11000 10999 10996 ] final  -65.79 input  -57.11 | X-H torsion

> <Gold.Protein.ActiveResidues>
 VAL166  LYS551  ARG553  GLY616  TRP617  ASP618  TYR619  PRO620  LYS621  CYS622 
 ASP623  PHE694  ASN695  SER759  ASP760  ASP761  ALA762  ILE779  LEU786  VAL792 
 PHE793  MET794  SER795  GLU796  ALA797  LYS798  CYS799  TRP800  GLU811  SER814 

> <Gold.Protein.RotatedAtoms>
  152.5184  133.9345  159.7596 H   0  0  0  0  0  0  0  0  0  0  0  0  # atno 6907 bound_to 6896
  150.9688  133.6357  159.2748 H   0  0  0  0  0  0  0  0  0  0  0  0  # atno 6908 bound_to 6896
  151.3576  135.0903  159.9476 H   0  0  0  0  0  0  0  0  0  0  0  0  # atno 6909 bound_to 6896
  144.7165  140.0293  143.6439 H   0  0  0  0  0  0  0  0  0  0  0  0  # atno 7974 bound_to 7965
  156.2616  140.2013  156.6376 H   0  0  0  0  0  0  0  0  0  0  0  0  # atno 8008 bound_to 7997
  154.6634  140.0558  157.0112 H   0  0  0  0  0  0  0  0  0  0  0  0  # atno 8009 bound_to 7997
  155.1242  140.3227  155.4492 H   0  0  0  0  0  0  0  0  0  0  0  0  # atno 8010 bound_to 7997
  140.6391  143.2498  151.5038 H   0  0  0  0  0  0  0  0  0  0  0  0  # atno 10167 bound_to 10162
  156.9874  130.6029  149.5682 H   0  0  0  0  0  0  0  0  0  0  0  0  # atno 10718 bound_to 10713
  154.4983  135.2782  155.1441 H   0  0  0  0  0  0  0  0  0  0  0  0  # atno 10763 bound_to 10752
  154.3085  135.6234  153.5459 H   0  0  0  0  0  0  0  0  0  0  0  0  # atno 10764 bound_to 10752
  152.9898  135.5714  154.5420 H   0  0  0  0  0  0  0  0  0  0  0  0  # atno 10765 bound_to 10752
  141.1464  133.6687  156.6040 H   0  0  0  0  0  0  0  0  0  0  0  0  # atno 11005 bound_to 11000
  146.0116  139.3174  143.0867 LP  0  0  0  0  0  0  0  0  0  0  0  0  # atno 17320 bound_to 7965
  145.8675  140.9439  143.0668 LP  0  0  0  0  0  0  0  0  0  0  0  0  # atno 17321 bound_to 7965
  139.5601  144.2179  152.1676 LP  0  0  0  0  0  0  0  0  0  0  0  0  # atno 17342 bound_to 10162
  140.1444  144.5172  150.6725 LP  0  0  0  0  0  0  0  0  0  0  0  0  # atno 17343 bound_to 10162
  156.0220  130.5315  150.8303 LP  0  0  0  0  0  0  0  0  0  0  0  0  # atno 17370 bound_to 10713
  157.5483  131.0943  150.9732 LP  0  0  0  0  0  0  0  0  0  0  0  0  # atno 17371 bound_to 10713
  140.3666  134.7641  157.4570 LP  0  0  0  0  0  0  0  0  0  0  0  0  # atno 17394 bound_to 11000
  140.0743  134.5819  155.8608 LP  0  0  0  0  0  0  0  0  0  0  0  0  # atno 17395 bound_to 11000

$$$$
