AV-unprocessed.smi:914|AV-procd|sdf|4153|dock10
  -GOLD-   22720 2 53D 1   1.00000     0.00000
 Structure written by MMmdl.
 32 33  0  0  0  0  0  0  0  0  2 V2000
  152.5077  136.9656  156.4097 O   0  0  0  0  0  0  0  0  0  0  0  0
  152.1402  138.1371  156.4893 C   0  0  0  0  0  0  0  0  0  0  0  0
  151.3825  138.7386  155.5261 N   0  5  0  0  0  0  0  0  0  0  0  0
  150.9590  140.0384  155.5994 C   0  0  0  0  0  0  0  0  0  0  0  0
  150.2795  140.5578  154.7139 O   0  0  0  0  0  0  0  0  0  0  0  0
  151.3016  140.7807  156.6946 N   0  0  0  0  0  0  0  0  0  0  0  0
  150.8946  142.1830  156.8638 C   0  0  0  0  0  0  0  0  0  0  0  0
  149.8974  142.3510  158.0209 C   0  0  0  0  0  0  0  0  0  0  0  0
  150.6024  142.5638  159.2320 O   0  0  0  0  0  0  0  0  0  0  0  0
  151.4685  143.6835  159.1785 C   0  0  0  0  0  0  0  0  0  0  0  0
  152.6298  143.4538  160.1527 C   0  0  1  0  0  0  0  0  0  0  0  0
  152.2013  143.3980  161.6163 C   0  0  0  0  0  0  0  0  0  0  0  0
  153.3568  142.6493  162.2418 C   0  0  0  0  0  0  0  0  0  0  0  0
  153.7342  141.6507  161.1483 C   0  0  0  0  0  0  0  0  0  0  0  0
  153.2207  142.1784  159.9274 O   0  0  0  0  0  0  0  0  0  0  0  0
  152.0879  140.2116  157.7103 C   0  0  0  0  0  0  0  0  0  0  0  0
  152.5172  138.9360  157.6536 C   0  0  0  0  0  0  0  0  0  0  0  0
  153.4854  138.2645  158.9172 Cl  0  0  0  0  0  0  0  0  0  0  0  0
  151.7534  142.8394  157.0122 H   0  0  0  0  0  0  0  0  0  0  0  0
  150.4317  142.5308  155.9393 H   0  0  0  0  0  0  0  0  0  0  0  0
  149.2490  143.2054  157.8216 H   0  0  0  0  0  0  0  0  0  0  0  0
  149.2580  141.4708  158.1024 H   0  0  0  0  0  0  0  0  0  0  0  0
  151.8504  143.7875  158.1616 H   0  0  0  0  0  0  0  0  0  0  0  0
  150.9391  144.6042  159.4287 H   0  0  0  0  0  0  0  0  0  0  0  0
  153.3926  144.2248  160.0300 H   0  0  0  0  0  0  0  0  0  0  0  0
  152.0454  144.3851  162.0525 H   0  0  0  0  0  0  0  0  0  0  0  0
  151.2801  142.8238  161.7256 H   0  0  0  0  0  0  0  0  0  0  0  0
  154.1862  143.3337  162.4248 H   0  0  0  0  0  0  0  0  0  0  0  0
  153.0964  142.1701  163.1858 H   0  0  0  0  0  0  0  0  0  0  0  0
  154.8127  141.5033  161.0887 H   0  0  0  0  0  0  0  0  0  0  0  0
  153.2699  140.6808  161.3294 H   0  0  0  0  0  0  0  0  0  0  0  0
  152.3221  140.8751  158.5300 H   0  0  0  0  0  0  0  0  0  0  0  0
  1  2  2  0  0  0  0
  2 17  1  0  0  0  0
  2  3  1  0  0  0  0
  3  4  1  0  0  0  0
  4  5  2  0  0  0  0
  4  6  1  0  0  0  0
  6  7  1  0  0  0  0
  6 16  1  0  0  0  0
  7  8  1  0  0  0  0
  7 19  1  0  0  0  0
  7 20  1  0  0  0  0
  8  9  1  0  0  0  0
  8 21  1  0  0  0  0
  8 22  1  0  0  0  0
  9 10  1  0  0  0  0
 10 11  1  0  0  0  0
 10 23  1  0  0  0  0
 10 24  1  0  0  0  0
 11 15  1  0  0  0  0
 11 12  1  0  0  0  0
 11 25  1  0  0  0  0
 12 13  1  0  0  0  0
 12 26  1  0  0  0  0
 12 27  1  0  0  0  0
 13 14  1  0  0  0  0
 13 28  1  0  0  0  0
 13 29  1  0  0  0  0
 14 15  1  0  0  0  0
 14 30  1  0  0  0  0
 14 31  1  0  0  0  0
 16 17  2  0  0  0  0
 16 32  1  0  0  0  0
 17 18  1  0  0  0  0
M  CHG  1   3  -1
M  END
> <s_m_source_file>
AV-unprocessed.smi

> <i_m_source_file_index>
914

> <i_lp_mmshare_version>
43012

> <i_f3d_flags>
0

> <s_epik_input>
Tz1jMVtuSF1jKD1PKW4oW2NIXWMxQ2wpW0NIMl1bQ0gyXU9bQ0gyXVtDQEBIXTJbQ0gyXVtDSDJdW0NIMl1PMg==

> <s_epik_cmdline>
J2VwaWtfcHl0aG9uJywgJy1waCcsICc3LjAnLCAnLXRuJywgJzgnLCAnLW1hJywgJzIwMCcsICctbWV0YWxfYmluZGluZycsICctaW1hZScsICc8aW5maWxlLm1hZT4nLCAnLW9tYWUnLCAnPG91dGZpbGUubWFlPic=

> <r_epik_Ionization_Penalty>
1.76812

> <r_epik_Ionization_Penalty_Charging>
1.60097e-08

> <r_epik_Ionization_Penalty_Neutral>
1.76812

> <r_epik_State_Penalty>
1.87929

> <r_epik_Charging_Adjusted_Penalty>
1.87929

> <i_epik_Tot_Q>
-1

> <i_epik_Tot_abs_Q>
1

> <r_epik_Metal_State_Penalty>
0.0133872

> <b_epik_Metal_Only>
0

> <s_lp_Force_Field>
OPLS_2005

> <r_lp_Energy>
30.6138

> <b_lp_Chiralities_Consistent>
1

> <s_lp_Variant>
AV-unprocessed.smi:914-4

> <Gold.Version>
5.8.1

> <Gold.Id.Protein>
6NUR|6NUR_protein|mol2

> <Gold.PLP.Fitness>
42.5767

> <Gold.PLP.PLP>
-37.5569

> <Gold.PLP.part.hbond>
-2.6591

> <Gold.PLP.part.metal>
0.0000

> <Gold.PLP.part.buried>
-5.2741

> <Gold.PLP.part.nonpolar>
-29.2377

> <Gold.PLP.part.repulsive>
0.1501

> <Gold.PLP.ligand.clash>
0.0000

> <Gold.PLP.ligand.torsion>
0.4275

> <Gold.PLP.Chemscore.Hbond>
1.9520

> <Gold.PLP.Chemscore.CHOScore>
0.0000

> <Gold.PLP.Chemscore.Metal>
0.0000

> <Gold.Chemscore.Hbonds>
donor molecule, donor type, donor heavy atom, donor atom, acceptor molecule, acceptor atom, score
      P1  H  7989  7998       L1     5  0.88
      P1  H 10752 10765       L1     1  0.80

> <Gold.PLP.Chemscore.Internal.Correction>
0.0188

> <Gold.Rescore>
     Score         DG    S(hbond)    S(metal)    S(lipo)     H(rot)  DE(clash)    DE(int)     intcor
     15.81     -16.36       1.87        0.00      84.80       2.07       0.03       0.52       ----

> <Gold.Chemscore.Fitness>
15.8080

> <Gold.Chemscore.DG>
-16.3636

> <Gold.Chemscore.ZeroCoef>
-5.4800

> <Gold.Chemscore.Hbond>
1.8729

> <Gold.Chemscore.Metal>
0.0000

> <Gold.Chemscore.Lipo>
84.8008

> <Gold.Chemscore.Internal_Hbond>
0.0000

> <Gold.Chemscore.DEClash>
0.0316

> <Gold.Chemscore.DEInternal>
0.5241

> <Gold.Chemscore.Rot>
2.0678

> <Gold.Chemscore.Internal.Correction>
   9.000000E+99

> <Gold.Chemscore.Hbonds>
donor molecule, donor type, donor heavy atom, donor atom, acceptor molecule, acceptor atom, score
      P1  H  7989  7998       L1     5  0.20
      P1  H 10752 10765       L1     1  0.76

> <Gold.Chemscore.Hbond.Weighted>
-6.2554

> <Gold.Chemscore.Metal.Weighted>
-0.0000

> <Gold.Chemscore.Lipo.Weighted>
-9.9217

> <Gold.Chemscore.Internal_Hbond.Weighted>
0.0000

> <Gold.Chemscore.DEClash.Weighted>
0.0316

> <Gold.Chemscore.DEInternal.Weighted>
0.5241

> <Gold.Chemscore.Rot.Weighted>
5.2935

> <Gold.Chemscore.Internal.Correction.Weighted>
   9.000000E+99

> <Gold.Protein.RotatedTorsions>
[ 6907 6896 6895 6894 ] final   59.28 input  -60.11 | X-H torsion
[ 7974 7965 7964 7962 ] final    9.23 input  175.53 | X-H torsion
[ 8008 7997 7996 7995 ] final -100.77 input   59.86 | X-H torsion
[ 10167 10162 10161 10158 ] final    5.49 input  -65.29 | X-H torsion
[ 10718 10713 10712 10709 ] final -156.95 input   66.30 | X-H torsion
[ 10763 10752 10751 10750 ] final -147.91 input  -60.55 | X-H torsion
[ 11005 11000 10999 10996 ] final  -65.42 input  -57.11 | X-H torsion

> <Gold.Protein.ActiveResidues>
 VAL166  LYS551  ARG553  GLY616  TRP617  ASP618  TYR619  PRO620  LYS621  CYS622 
 ASP623  PHE694  ASN695  SER759  ASP760  ASP761  ALA762  ILE779  LEU786  VAL792 
 PHE793  MET794  SER795  GLU796  ALA797  LYS798  CYS799  TRP800  GLU811  SER814 

> <Gold.Protein.RotatedAtoms>
  152.3900  134.6456  160.0110 H   0  0  0  0  0  0  0  0  0  0  0  0  # atno 6907 bound_to 6896
  151.6693  133.3309  159.3200 H   0  0  0  0  0  0  0  0  0  0  0  0  # atno 6908 bound_to 6896
  150.7818  134.6813  159.6490 H   0  0  0  0  0  0  0  0  0  0  0  0  # atno 6909 bound_to 6896
  146.2406  139.9815  142.8435 H   0  0  0  0  0  0  0  0  0  0  0  0  # atno 7974 bound_to 7965
  154.8332  140.0439  157.1491 H   0  0  0  0  0  0  0  0  0  0  0  0  # atno 8008 bound_to 7997
  154.9129  140.3016  155.5236 H   0  0  0  0  0  0  0  0  0  0  0  0  # atno 8009 bound_to 7997
  156.2988  140.2355  156.4170 H   0  0  0  0  0  0  0  0  0  0  0  0  # atno 8010 bound_to 7997
  140.6479  143.7616  150.7528 H   0  0  0  0  0  0  0  0  0  0  0  0  # atno 10167 bound_to 10162
  156.5336  130.8532  151.2725 H   0  0  0  0  0  0  0  0  0  0  0  0  # atno 10718 bound_to 10713
  154.8261  135.3348  154.6891 H   0  0  0  0  0  0  0  0  0  0  0  0  # atno 10763 bound_to 10752
  153.7517  135.6939  153.4949 H   0  0  0  0  0  0  0  0  0  0  0  0  # atno 10764 bound_to 10752
  153.2172  135.4461  155.0398 H   0  0  0  0  0  0  0  0  0  0  0  0  # atno 10765 bound_to 10752
  141.1454  133.6681  156.5984 H   0  0  0  0  0  0  0  0  0  0  0  0  # atno 11005 bound_to 11000
  145.1588  140.9662  143.4389 LP  0  0  0  0  0  0  0  0  0  0  0  0  # atno 17320 bound_to 7965
  145.0136  139.3487  143.6108 LP  0  0  0  0  0  0  0  0  0  0  0  0  # atno 17321 bound_to 7965
  140.1261  143.4568  152.2283 LP  0  0  0  0  0  0  0  0  0  0  0  0  # atno 17342 bound_to 10162
  139.5691  144.7453  151.3939 LP  0  0  0  0  0  0  0  0  0  0  0  0  # atno 17343 bound_to 10162
  157.7417  130.9876  150.2467 LP  0  0  0  0  0  0  0  0  0  0  0  0  # atno 17370 bound_to 10713
  156.3037  130.3762  149.7726 LP  0  0  0  0  0  0  0  0  0  0  0  0  # atno 17371 bound_to 10713
  140.3708  134.7607  157.4597 LP  0  0  0  0  0  0  0  0  0  0  0  0  # atno 17394 bound_to 11000
  140.0712  134.5860  155.8640 LP  0  0  0  0  0  0  0  0  0  0  0  0  # atno 17395 bound_to 11000

$$$$
