AV-unprocessed.smi:2391|AV-procd|sdf|9483|dock8
  -GOLD-   2272013113D 1   1.00000     0.00000
 Structure written by MMmdl.
 35 36  0  0  0  0  0  0  0  0  1 V2000
  151.7458  137.2091  159.7184 O   0  0  0  0  0  0  0  0  0  0  0  0
  152.1690  137.7710  158.7040 C   0  0  0  0  0  0  0  0  0  0  0  0
  152.1421  137.3249  157.3875 N   0  0  0  0  0  0  0  0  0  0  0  0
  151.5910  138.0085  156.4269 C   0  0  0  0  0  0  0  0  0  0  0  0
  151.5947  137.5099  155.0621 C   0  0  0  0  0  0  0  0  0  0  0  0
  151.0263  138.2117  154.0544 C   0  0  0  0  0  0  0  0  0  0  0  0
  150.4050  139.4846  154.3617 C   0  0  0  0  0  0  0  0  0  0  0  0
  150.3762  139.9649  155.5597 N   0  0  0  0  0  0  0  0  0  0  0  0
  150.9450  139.2573  156.5570 N   0  0  0  0  0  0  0  0  0  0  0  0
  152.7498  138.9794  158.7589 N   0  0  0  0  0  0  0  0  0  0  0  0
  152.9703  139.7927  159.9579 C   0  0  2  0  0  0  0  0  0  0  0  0
  153.0667  141.2870  159.5537 C   0  0  0  0  0  0  0  0  0  0  0  0
  152.8944  142.2877  160.7020 C   0  0  0  0  0  0  0  0  0  0  0  0
  152.5643  143.6193  160.0227 C   0  0  0  0  0  0  0  0  0  0  0  0
  151.9086  143.2629  158.6822 C   0  0  0  0  0  0  0  0  0  0  0  0
  151.9907  141.7373  158.5541 C   0  0  0  0  0  0  0  0  0  0  0  0
  154.2184  139.2591  160.6980 C   0  0  0  0  0  0  0  0  0  0  0  0
  155.2879  139.3551  159.9069 F   0  0  0  0  0  0  0  0  0  0  0  0
  154.4441  139.9626  161.8083 F   0  0  0  0  0  0  0  0  0  0  0  0
  154.0703  137.9753  161.0222 F   0  0  0  0  0  0  0  0  0  0  0  0
  152.0527  136.5633  154.8148 H   0  0  0  0  0  0  0  0  0  0  0  0
  151.0283  137.8417  153.0398 H   0  0  0  0  0  0  0  0  0  0  0  0
  149.9638  140.0099  153.5147 H   0  0  0  0  0  0  0  0  0  0  0  0
  153.0756  139.3747  157.8886 H   0  0  0  0  0  0  0  0  0  0  0  0
  152.1237  139.6836  160.6375 H   0  0  0  0  0  0  0  0  0  0  0  0
  154.0412  141.4671  159.0963 H   0  0  0  0  0  0  0  0  0  0  0  0
  152.0608  141.9857  161.3379 H   0  0  0  0  0  0  0  0  0  0  0  0
  153.7819  142.3664  161.3303 H   0  0  0  0  0  0  0  0  0  0  0  0
  151.9198  144.2414  160.6444 H   0  0  0  0  0  0  0  0  0  0  0  0
  153.4826  144.1798  159.8423 H   0  0  0  0  0  0  0  0  0  0  0  0
  150.8729  143.6019  158.6385 H   0  0  0  0  0  0  0  0  0  0  0  0
  152.4438  143.7464  157.8642 H   0  0  0  0  0  0  0  0  0  0  0  0
  152.2122  141.4230  157.5337 H   0  0  0  0  0  0  0  0  0  0  0  0
  151.0280  141.3026  158.8272 H   0  0  0  0  0  0  0  0  0  0  0  0
  150.8978  139.6694  157.4781 H   0  0  0  0  0  0  0  0  0  0  0  0
  1  2  2  0  0  0  0
  2  3  1  0  0  0  0
  2 10  1  0  0  0  0
  3  4  2  0  0  0  0
  4  9  1  0  0  0  0
  4  5  1  0  0  0  0
  5  6  2  0  0  0  0
  5 21  1  0  0  0  0
  6  7  1  0  0  0  0
  6 22  1  0  0  0  0
  7  8  2  0  0  0  0
  7 23  1  0  0  0  0
  8  9  1  0  0  0  0
  9 35  1  0  0  0  0
 10 11  1  0  0  0  0
 10 24  1  0  0  0  0
 11 12  1  0  0  0  0
 11 17  1  0  0  0  0
 11 25  1  0  0  0  0
 12 16  1  0  0  0  0
 12 13  1  0  0  0  0
 12 26  1  0  0  0  0
 13 14  1  0  0  0  0
 13 27  1  0  0  0  0
 13 28  1  0  0  0  0
 14 15  1  0  0  0  0
 14 29  1  0  0  0  0
 14 30  1  0  0  0  0
 15 16  1  0  0  0  0
 15 31  1  0  0  0  0
 15 32  1  0  0  0  0
 16 33  1  0  0  0  0
 16 34  1  0  0  0  0
 17 18  1  0  0  0  0
 17 19  1  0  0  0  0
 17 20  1  0  0  0  0
M  END
> <s_m_source_file>
AV-unprocessed.smi

> <i_m_source_file_index>
2391

> <i_lp_mmshare_version>
43012

> <i_f3d_flags>
0

> <s_epik_input>
W0NIMl0xW0NIMl1bQ0gyXVtDSDJdW0NIXTFbQ0BIXShDKEYpKEYpRilbTkhdQyg9TylbTkhdYzJbY0hdW2NIXVtjSF1ubjI=

> <s_epik_cmdline>
J2VwaWtfcHl0aG9uJywgJy1waCcsICc3LjAnLCAnLXRuJywgJzgnLCAnLW1hJywgJzIwMCcsICctbWV0YWxfYmluZGluZycsICctaW1hZScsICc8aW5maWxlLm1hZT4nLCAnLW9tYWUnLCAnPG91dGZpbGUubWFlPic=

> <r_epik_Ionization_Penalty>
0.0611197

> <r_epik_Ionization_Penalty_Charging>
0.0611196

> <r_epik_Ionization_Penalty_Neutral>
6.50554e-08

> <r_epik_State_Penalty>
2.29873

> <r_epik_Charging_Adjusted_Penalty>
2.35985

> <i_epik_Tot_Q>
0

> <i_epik_Tot_abs_Q>
0

> <r_epik_Metal_State_Penalty>
2.32932

> <b_epik_Metal_Only>
0

> <s_lp_Force_Field>
OPLS_2005

> <r_lp_Energy>
49.9712

> <b_lp_Chiralities_Consistent>
1

> <s_lp_Variant>
AV-unprocessed.smi:2391-3

> <Gold.Version>
5.8.1

> <Gold.Id.Protein>
6NUR|6NUR_protein|mol2

> <Gold.PLP.Fitness>
38.9064

> <Gold.PLP.PLP>
-34.9054

> <Gold.PLP.part.hbond>
-0.9210

> <Gold.PLP.part.metal>
0.0000

> <Gold.PLP.part.buried>
-4.1204

> <Gold.PLP.part.nonpolar>
-30.2020

> <Gold.PLP.part.repulsive>
0.1526

> <Gold.PLP.ligand.clash>
0.0000

> <Gold.PLP.ligand.torsion>
1.0568

> <Gold.PLP.Chemscore.Hbond>
0.9425

> <Gold.PLP.Chemscore.CHOScore>
1.0000

> <Gold.PLP.Chemscore.Metal>
0.0000

> <Gold.Chemscore.Hbonds>
donor molecule, donor type, donor heavy atom, donor atom, acceptor molecule, acceptor atom, score
      P1  H  6896  6908       L1     1  0.93
      L1  C     7    23       P1  7957  1.00

> <Gold.PLP.Chemscore.Internal.Correction>
0.2871

> <Gold.Rescore>
     Score         DG    S(hbond)    S(metal)    S(lipo)     H(rot)  DE(clash)    DE(int)     intcor
     10.69     -15.65       0.99        0.00      87.85       1.33       0.04       4.92       ----

> <Gold.Chemscore.Fitness>
10.6919

> <Gold.Chemscore.DG>
-15.6471

> <Gold.Chemscore.ZeroCoef>
-5.4800

> <Gold.Chemscore.Hbond>
0.9863

> <Gold.Chemscore.Metal>
0.0000

> <Gold.Chemscore.Lipo>
87.8516

> <Gold.Chemscore.Internal_Hbond>
0.0000

> <Gold.Chemscore.DEClash>
0.0359

> <Gold.Chemscore.DEInternal>
4.9193

> <Gold.Chemscore.Rot>
1.3304

> <Gold.Chemscore.Internal.Correction>
   9.000000E+99

> <Gold.Chemscore.Hbonds>
donor molecule, donor type, donor heavy atom, donor atom, acceptor molecule, acceptor atom, score
      P1  H  6896  6908       L1     1  0.88

> <Gold.Chemscore.Hbond.Weighted>
-3.2942

> <Gold.Chemscore.Metal.Weighted>
-0.0000

> <Gold.Chemscore.Lipo.Weighted>
-10.2786

> <Gold.Chemscore.Internal_Hbond.Weighted>
0.0000

> <Gold.Chemscore.DEClash.Weighted>
0.0359

> <Gold.Chemscore.DEInternal.Weighted>
4.9193

> <Gold.Chemscore.Rot.Weighted>
3.4057

> <Gold.Chemscore.Internal.Correction.Weighted>
   9.000000E+99

> <Gold.Protein.RotatedTorsions>
[ 6907 6896 6895 6894 ] final -115.44 input  -60.11 | X-H torsion
[ 7974 7965 7964 7962 ] final   98.45 input  175.53 | X-H torsion
[ 8008 7997 7996 7995 ] final -125.91 input   59.86 | X-H torsion
[ 10167 10162 10161 10158 ] final -150.95 input  -65.29 | X-H torsion
[ 10718 10713 10712 10709 ] final  -68.94 input   66.30 | X-H torsion
[ 10763 10752 10751 10750 ] final  -21.28 input  -60.55 | X-H torsion
[ 11005 11000 10999 10996 ] final -153.32 input  -57.11 | X-H torsion

> <Gold.Protein.ActiveResidues>
 VAL166  LYS551  ARG553  GLY616  TRP617  ASP618  TYR619  PRO620  LYS621  CYS622 
 ASP623  PHE694  ASN695  SER759  ASP760  ASP761  ALA762  ILE779  LEU786  VAL792 
 PHE793  MET794  SER795  GLU796  ALA797  LYS798  CYS799  TRP800  GLU811  SER814 

> <Gold.Protein.RotatedAtoms>
  150.7978  133.8658  159.3244 H   0  0  0  0  0  0  0  0  0  0  0  0  # atno 6907 bound_to 6896
  151.6478  135.1003  160.0164 H   0  0  0  0  0  0  0  0  0  0  0  0  # atno 6908 bound_to 6896
  152.4062  133.6853  159.6393 H   0  0  0  0  0  0  0  0  0  0  0  0  # atno 6909 bound_to 6896
  145.4120  139.2332  143.3243 H   0  0  0  0  0  0  0  0  0  0  0  0  # atno 7974 bound_to 7965
  155.2210  140.0422  157.2948 H   0  0  0  0  0  0  0  0  0  0  0  0  # atno 8008 bound_to 7997
  154.5949  140.2437  155.7841 H   0  0  0  0  0  0  0  0  0  0  0  0  # atno 8009 bound_to 7997
  156.2284  140.2947  156.0134 H   0  0  0  0  0  0  0  0  0  0  0  0  # atno 8010 bound_to 7997
  139.7309  143.8809  152.2534 H   0  0  0  0  0  0  0  0  0  0  0  0  # atno 10167 bound_to 10162
  156.0480  130.4303  150.2074 H   0  0  0  0  0  0  0  0  0  0  0  0  # atno 10718 bound_to 10713
  153.6336  135.6988  153.5266 H   0  0  0  0  0  0  0  0  0  0  0  0  # atno 10763 bound_to 10752
  153.2839  135.4177  155.1104 H   0  0  0  0  0  0  0  0  0  0  0  0  # atno 10764 bound_to 10752
  154.8516  135.3609  154.5879 H   0  0  0  0  0  0  0  0  0  0  0  0  # atno 10765 bound_to 10752
  140.7094  134.3849  157.5199 H   0  0  0  0  0  0  0  0  0  0  0  0  # atno 11005 bound_to 11000
  146.2700  140.4832  142.8818 LP  0  0  0  0  0  0  0  0  0  0  0  0  # atno 17320 bound_to 7965
  144.8303  140.6695  143.6295 LP  0  0  0  0  0  0  0  0  0  0  0  0  # atno 17321 bound_to 7965
  139.8732  144.7057  150.8963 LP  0  0  0  0  0  0  0  0  0  0  0  0  # atno 17342 bound_to 10162
  140.7771  143.3721  151.1630 LP  0  0  0  0  0  0  0  0  0  0  0  0  # atno 17343 bound_to 10162
  157.0162  130.9965  151.3352 LP  0  0  0  0  0  0  0  0  0  0  0  0  # atno 17370 bound_to 10713
  157.5376  130.8099  149.7990 LP  0  0  0  0  0  0  0  0  0  0  0  0  # atno 17371 bound_to 10713
  139.8875  134.8879  156.2522 LP  0  0  0  0  0  0  0  0  0  0  0  0  # atno 17394 bound_to 11000
  141.0097  133.7103  156.1092 LP  0  0  0  0  0  0  0  0  0  0  0  0  # atno 17395 bound_to 11000

$$$$
