AV-unprocessed.smi:3187|AV-procd|sdf|12175|dock9
  -GOLD-   2272018 13D 1   1.00000     0.00000
 Structure written by MMmdl.
 41 42  0  0  0  0  0  0  0  0  2 V2000
  151.6219  139.4060  155.5258 C   0  0  0  0  0  0  0  0  0  0  0  0
  150.1532  139.4406  155.1354 C   0  0  0  0  0  0  0  0  0  0  0  0
  149.4639  138.2984  154.9444 C   0  0  0  0  0  0  0  0  0  0  0  0
  148.0138  138.2248  154.4993 C   0  0  0  0  0  0  0  0  0  0  0  0
  147.3234  139.5979  154.4595 C   0  0  0  0  0  0  0  0  0  0  0  0
  148.2846  140.6974  153.9759 C   0  0  1  0  0  0  0  0  0  0  0  0
  147.5552  142.0244  153.7041 C   0  0  0  0  0  0  0  0  0  0  0  0
  149.5130  140.8192  154.9220 C   0  0  1  0  0  0  0  0  0  0  0  0
  149.1764  141.5243  156.2624 C   0  0  0  0  0  0  0  0  0  0  0  0
  150.2420  142.4404  156.7141 N   0  3  0  0  0  0  0  0  0  0  0  0
  150.4802  142.4168  158.1699 C   0  0  0  0  0  0  0  0  0  0  0  0
  151.3740  143.5871  158.6014 C   0  0  0  0  0  0  0  0  0  0  0  0
  151.5924  143.5853  160.0337 N   0  0  0  0  0  0  0  0  0  0  0  0
  151.1570  144.5340  160.9495 C   0  0  0  0  0  0  0  0  0  0  0  0
  151.6042  144.1218  162.1847 C   0  0  0  0  0  0  0  0  0  0  0  0
  152.3124  142.9297  162.0525 N   0  0  0  0  0  0  0  0  0  0  0  0
  152.2619  142.6733  160.7521 C   0  0  0  0  0  0  0  0  0  0  0  0
  152.2050  140.0662  154.8832 H   0  0  0  0  0  0  0  0  0  0  0  0
  152.0305  138.4002  155.4218 H   0  0  0  0  0  0  0  0  0  0  0  0
  151.7680  139.7067  156.5618 H   0  0  0  0  0  0  0  0  0  0  0  0
  149.9585  137.3474  155.0806 H   0  0  0  0  0  0  0  0  0  0  0  0
  148.0008  137.7801  153.5038 H   0  0  0  0  0  0  0  0  0  0  0  0
  147.4654  137.5468  155.1538 H   0  0  0  0  0  0  0  0  0  0  0  0
  146.4481  139.5423  153.8110 H   0  0  0  0  0  0  0  0  0  0  0  0
  146.9464  139.8478  155.4514 H   0  0  0  0  0  0  0  0  0  0  0  0
  148.6702  140.3727  153.0077 H   0  0  0  0  0  0  0  0  0  0  0  0
  146.9969  142.3703  154.5739 H   0  0  0  0  0  0  0  0  0  0  0  0
  146.8389  141.9105  152.8900 H   0  0  0  0  0  0  0  0  0  0  0  0
  148.2556  142.8082  153.4150 H   0  0  0  0  0  0  0  0  0  0  0  0
  150.2460  141.4343  154.3976 H   0  0  0  0  0  0  0  0  0  0  0  0
  148.2696  142.1199  156.1676 H   0  0  0  0  0  0  0  0  0  0  0  0
  148.9914  140.7844  157.0417 H   0  0  0  0  0  0  0  0  0  0  0  0
  151.0992  142.1857  156.2445 H   0  0  0  0  0  0  0  0  0  0  0  0
  149.5228  142.4648  158.6906 H   0  0  0  0  0  0  0  0  0  0  0  0
  150.9494  141.4702  158.4416 H   0  0  0  0  0  0  0  0  0  0  0  0
  152.3429  143.5334  158.1028 H   0  0  0  0  0  0  0  0  0  0  0  0
  150.9228  144.5398  158.3201 H   0  0  0  0  0  0  0  0  0  0  0  0
  150.5820  145.4003  160.6564 H   0  0  0  0  0  0  0  0  0  0  0  0
  151.4732  144.5875  163.1502 H   0  0  0  0  0  0  0  0  0  0  0  0
  152.7259  141.8030  160.3114 H   0  0  0  0  0  0  0  0  0  0  0  0
  149.9920  143.3808  156.4429 H   0  0  0  0  0  0  0  0  0  0  0  0
  1  2  1  0  0  0  0
  1 18  1  0  0  0  0
  1 19  1  0  0  0  0
  1 20  1  0  0  0  0
  2  8  1  0  0  0  0
  2  3  2  0  0  0  0
  3  4  1  0  0  0  0
  3 21  1  0  0  0  0
  4  5  1  0  0  0  0
  4 22  1  0  0  0  0
  4 23  1  0  0  0  0
  5  6  1  0  0  0  0
  5 24  1  0  0  0  0
  5 25  1  0  0  0  0
  6  7  1  0  0  0  0
  6  8  1  0  0  0  0
  6 26  1  0  0  0  0
  7 27  1  0  0  0  0
  7 28  1  0  0  0  0
  7 29  1  0  0  0  0
  8  9  1  0  0  0  0
  8 30  1  0  0  0  0
  9 10  1  0  0  0  0
  9 31  1  0  0  0  0
  9 32  1  0  0  0  0
 10 11  1  0  0  0  0
 10 33  1  0  0  0  0
 10 41  1  0  0  0  0
 11 12  1  0  0  0  0
 11 34  1  0  0  0  0
 11 35  1  0  0  0  0
 12 13  1  0  0  0  0
 12 36  1  0  0  0  0
 12 37  1  0  0  0  0
 13 17  1  0  0  0  0
 13 14  1  0  0  0  0
 14 15  2  0  0  0  0
 14 38  1  0  0  0  0
 15 16  1  0  0  0  0
 15 39  1  0  0  0  0
 16 17  2  0  0  0  0
 17 40  1  0  0  0  0
M  CHG  1  10   1
M  END
> <s_m_source_file>
AV-unprocessed.smi

> <i_m_source_file_index>
3187

> <i_lp_mmshare_version>
43012

> <i_f3d_flags>
0

> <s_epik_input>
W0NIM11DMT1bQ0hdW0NIMl1bQ0gyXVtDQEBIXShbQ0gzXSlbQ0BIXTFbQ0gyXVtOSF1bQ0gyXVtDSDJdbjJbY0hdW2NIXW5bY0hdMg==

> <s_epik_cmdline>
J2VwaWtfcHl0aG9uJywgJy1waCcsICc3LjAnLCAnLXRuJywgJzgnLCAnLW1hJywgJzIwMCcsICctbWV0YWxfYmluZGluZycsICctaW1hZScsICc8aW5maWxlLm1hZT4nLCAnLW9tYWUnLCAnPG91dGZpbGUubWFlPic=

> <r_lp_tautomer_probability>
1

> <r_epik_Ionization_Penalty>
0.0501625

> <r_epik_Ionization_Penalty_Charging>
0.0501625

> <r_epik_Ionization_Penalty_Neutral>
0

> <r_epik_State_Penalty>
0.0972392

> <r_epik_Charging_Adjusted_Penalty>
0.147402

> <i_epik_Tot_Q>
1

> <i_epik_Tot_abs_Q>
1

> <r_epik_Metal_State_Penalty>
0.000104376

> <b_epik_Metal_Only>
0

> <s_lp_Force_Field>
OPLS_2005

> <r_lp_Energy>
16.942

> <b_lp_Chiralities_Consistent>
1

> <s_lp_Variant>
AV-unprocessed.smi:3187-1

> <Gold.Version>
5.8.1

> <Gold.Id.Protein>
6NUR|6NUR_protein|mol2

> <Gold.PLP.Fitness>
45.2327

> <Gold.PLP.PLP>
-40.9222

> <Gold.PLP.part.hbond>
-1.0000

> <Gold.PLP.part.metal>
0.0000

> <Gold.PLP.part.buried>
-5.2865

> <Gold.PLP.part.nonpolar>
-35.4390

> <Gold.PLP.part.repulsive>
0.1047

> <Gold.PLP.ligand.clash>
0.0000

> <Gold.PLP.ligand.torsion>
0.8556

> <Gold.PLP.Chemscore.Hbond>
2.0000

> <Gold.PLP.Chemscore.CHOScore>
0.0000

> <Gold.PLP.Chemscore.Metal>
0.0000

> <Gold.Chemscore.Hbonds>
donor molecule, donor type, donor heavy atom, donor atom, acceptor molecule, acceptor atom, score
      L1  H    10    41       P1  8028  2.00

> <Gold.PLP.Chemscore.Internal.Correction>
0.0216

> <Gold.Rescore>
     Score         DG    S(hbond)    S(metal)    S(lipo)     H(rot)  DE(clash)    DE(int)     intcor
     14.45     -15.37       0.99        0.00      97.42       1.89       0.08       0.84       ----

> <Gold.Chemscore.Fitness>
14.4483

> <Gold.Chemscore.DG>
-15.3730

> <Gold.Chemscore.ZeroCoef>
-5.4800

> <Gold.Chemscore.Hbond>
0.9944

> <Gold.Chemscore.Metal>
0.0000

> <Gold.Chemscore.Lipo>
97.4175

> <Gold.Chemscore.Internal_Hbond>
0.0000

> <Gold.Chemscore.DEClash>
0.0811

> <Gold.Chemscore.DEInternal>
0.8435

> <Gold.Chemscore.Rot>
1.8853

> <Gold.Chemscore.Internal.Correction>
   9.000000E+99

> <Gold.Chemscore.Hbonds>
donor molecule, donor type, donor heavy atom, donor atom, acceptor molecule, acceptor atom, score
      L1  H    10    41       P1  8028  0.98

> <Gold.Chemscore.Hbond.Weighted>
-3.3214

> <Gold.Chemscore.Metal.Weighted>
-0.0000

> <Gold.Chemscore.Lipo.Weighted>
-11.3978

> <Gold.Chemscore.Internal_Hbond.Weighted>
0.0000

> <Gold.Chemscore.DEClash.Weighted>
0.0811

> <Gold.Chemscore.DEInternal.Weighted>
0.8435

> <Gold.Chemscore.Rot.Weighted>
4.8263

> <Gold.Chemscore.Internal.Correction.Weighted>
   9.000000E+99

> <Gold.Protein.RotatedTorsions>
[ 6907 6896 6895 6894 ] final  144.42 input  -60.11 | X-H torsion
[ 7974 7965 7964 7962 ] final  103.59 input  175.53 | X-H torsion
[ 8008 7997 7996 7995 ] final   97.41 input   59.86 | X-H torsion
[ 10167 10162 10161 10158 ] final  -35.02 input  -65.29 | X-H torsion
[ 10718 10713 10712 10709 ] final  -64.02 input   66.30 | X-H torsion
[ 10763 10752 10751 10750 ] final  -83.88 input  -60.55 | X-H torsion
[ 11005 11000 10999 10996 ] final -139.85 input  -57.11 | X-H torsion

> <Gold.Protein.ActiveResidues>
 VAL166  LYS551  ARG553  GLY616  TRP617  ASP618  TYR619  PRO620  LYS621  CYS622 
 ASP623  PHE694  ASN695  SER759  ASP760  ASP761  ALA762  ILE779  LEU786  VAL792 
 PHE793  MET794  SER795  GLU796  ALA797  LYS798  CYS799  TRP800  GLU811  SER814 

> <Gold.Protein.RotatedAtoms>
  152.1939  133.4792  159.5022 H   0  0  0  0  0  0  0  0  0  0  0  0  # atno 6907 bound_to 6896
  150.6956  134.1677  159.4209 H   0  0  0  0  0  0  0  0  0  0  0  0  # atno 6908 bound_to 6896
  151.9593  135.0131  160.0597 H   0  0  0  0  0  0  0  0  0  0  0  0  # atno 6909 bound_to 6896
  145.3439  139.2455  143.3595 H   0  0  0  0  0  0  0  0  0  0  0  0  # atno 7974 bound_to 7965
  156.0898  140.3259  155.7801 H   0  0  0  0  0  0  0  0  0  0  0  0  # atno 8008 bound_to 7997
  155.5015  140.0569  157.2955 H   0  0  0  0  0  0  0  0  0  0  0  0  # atno 8009 bound_to 7997
  154.4631  140.1976  156.0207 H   0  0  0  0  0  0  0  0  0  0  0  0  # atno 8010 bound_to 7997
  140.7174  143.3506  151.2163 H   0  0  0  0  0  0  0  0  0  0  0  0  # atno 10167 bound_to 10162
  156.0754  130.4228  150.1361 H   0  0  0  0  0  0  0  0  0  0  0  0  # atno 10718 bound_to 10713
  154.5930  135.5540  153.7297 H   0  0  0  0  0  0  0  0  0  0  0  0  # atno 10763 bound_to 10752
  153.0124  135.6348  154.1822 H   0  0  0  0  0  0  0  0  0  0  0  0  # atno 10764 bound_to 10752
  154.1763  135.2889  155.3046 H   0  0  0  0  0  0  0  0  0  0  0  0  # atno 10765 bound_to 10752
  140.8480  134.2321  157.4775 H   0  0  0  0  0  0  0  0  0  0  0  0  # atno 11005 bound_to 11000
  146.2996  140.4041  142.8709 LP  0  0  0  0  0  0  0  0  0  0  0  0  # atno 17320 bound_to 7965
  144.8769  140.7349  143.6011 LP  0  0  0  0  0  0  0  0  0  0  0  0  # atno 17321 bound_to 7965
  139.7036  143.9491  152.2917 LP  0  0  0  0  0  0  0  0  0  0  0  0  # atno 17342 bound_to 10162
  139.9193  144.6809  150.8478 LP  0  0  0  0  0  0  0  0  0  0  0  0  # atno 17343 bound_to 10162
  156.9403  130.9742  151.3517 LP  0  0  0  0  0  0  0  0  0  0  0  0  # atno 17370 bound_to 10713
  157.5847  130.8401  149.8573 LP  0  0  0  0  0  0  0  0  0  0  0  0  # atno 17371 bound_to 10713
  139.8703  134.9669  156.4578 LP  0  0  0  0  0  0  0  0  0  0  0  0  # atno 17394 bound_to 11000
  140.8822  133.7909  155.9479 LP  0  0  0  0  0  0  0  0  0  0  0  0  # atno 17395 bound_to 11000

$$$$
