#       Name:                AV-unprocessed.smi:1643
#       Creating user name   scv26
#       Creation time:       Fri Mar 27 07:27:12 2020


#       File generated by GOLD software.
#

@<TRIPOS>MOLECULE
AV-unprocessed.smi:1643
    59    61     1
SMALL
NO_CHARGES


@<TRIPOS>ATOM
      1 ****        -5.1610   1.7370  -2.5972 C.3            1 S1                 0.0000
      2 ****        -5.0733   0.5225  -1.6693 C.2            1 S1                 0.0000
      3 ****        -5.6434   0.5798  -0.5795 O.2            1 S1                 0.0000
      4 ****        -4.3731  -0.5651  -2.0717 N.am           1 S1                 0.0000
      5 ****        -4.1957  -1.7428  -1.2149 C.3            1 S1                 0.0000
      6 ****        -2.9122  -1.6096  -0.3795 C.3            1 S1                 0.0000
      7 ****        -1.6292  -1.3706  -1.2034 C.3            1 S1                 0.0000
      8 ****        -1.5817  -0.0572  -1.8620 N.3            1 S1                 0.0000
      9 ****        -0.2202   0.4755  -1.9534 C.3            1 S1                 0.0000
     10 ****         0.3804   0.9665  -0.6206 C.3            1 S1                 0.0000
     11 ****        -0.3323   2.1148  -0.2041 O.3            1 S1                 0.0000
     12 ****         1.8690   1.3319  -0.7706 C.3            1 S1                 0.0000
     13 ****         2.4712   1.7763   0.4926 N.pl3          1 S1                 0.0000
     14 ****         2.6710   3.0333   0.9729 C.2            1 S1                 0.0000
     15 ****         3.2606   2.9160   2.1952 N.pl3          1 S1                 1.0000
     16 ****         3.4395   1.5641   2.4984 C.ar           1 S1                 0.0000
     17 ****         3.9926   0.9447   3.6129 C.ar           1 S1                 0.0000
     18 ****         4.0258  -0.4683   3.6153 C.ar           1 S1                 0.0000
     19 ****         4.6279  -1.1770   4.8166 C.3            1 S1                 0.0000
     20 ****         3.5086  -1.2133   2.5236 C.ar           1 S1                 0.0000
     21 ****         3.5454  -2.7321   2.5388 C.3            1 S1                 0.0000
     22 ****         2.9505  -0.5645   1.3990 C.ar           1 S1                 0.0000
     23 ****         2.9312   0.8278   1.4109 C.ar           1 S1                 0.0000
     24 ****        -2.1861  -0.0881  -3.2031 C.3            1 S1                 0.0000
     25 ****        -3.6213  -0.6475  -3.3287 C.3            1 S1                 0.0000
     26 ****        -4.1681   2.1007  -2.8610 H              1 S1                 0.0000
     27 ****        -5.6931   2.5542  -2.1091 H              1 S1                 0.0000
     28 ****        -5.7011   1.4873  -3.5106 H              1 S1                 0.0000
     29 ****        -5.0532  -1.8823  -0.5547 H              1 S1                 0.0000
     30 ****        -4.1532  -2.6543  -1.8121 H              1 S1                 0.0000
     31 ****        -3.0292  -0.8011   0.3434 H              1 S1                 0.0000
     32 ****        -2.7879  -2.5183   0.2102 H              1 S1                 0.0000
     33 ****        -0.7954  -1.4776  -0.5123 H              1 S1                 0.0000
     34 ****        -1.4894  -2.1675  -1.9352 H              1 S1                 0.0000
     35 ****         0.4295  -0.2854  -2.3885 H              1 S1                 0.0000
     36 ****        -0.1995   1.3134  -2.6524 H              1 S1                 0.0000
     37 ****         0.2830   0.2101   0.1567 H              1 S1                 0.0000
     38 ****        -1.2482   1.8881  -0.1420 H              1 S1                 0.0000
     39 ****         2.4442   0.4859  -1.1488 H              1 S1                 0.0000
     40 ****         1.9931   2.1378  -1.4954 H              1 S1                 0.0000
     41 ****         2.4045   3.9554   0.4764 H              1 S1                 0.0000
     42 ****         4.3812   1.5182   4.4417 H              1 S1                 0.0000
     43 ****         5.4483  -1.8257   4.5089 H              1 S1                 0.0000
     44 ****         3.8745  -1.7841   5.3190 H              1 S1                 0.0000
     45 ****         5.0217  -0.4659   5.5432 H              1 S1                 0.0000
     46 ****         3.0608  -3.1520   1.6568 H              1 S1                 0.0000
     47 ****         3.0292  -3.1207   3.4170 H              1 S1                 0.0000
     48 ****         4.5756  -3.0884   2.5556 H              1 S1                 0.0000
     49 ****         2.5562  -1.1300   0.5676 H              1 S1                 0.0000
     50 ****        -2.2003   0.9316  -3.5895 H              1 S1                 0.0000
     51 ****        -1.5402  -0.6436  -3.8849 H              1 S1                 0.0000
     52 ****        -3.5575  -1.6875  -3.6499 H              1 S1                 0.0000
     53 ****        -4.1472  -0.1533  -4.1459 H              1 S1                 0.0000
     54 ****         3.5182   3.7025   2.7776 H              1 S1                 0.0000
     55 ****        -6.1465   1.4045  -0.3212 LP             1 S1                 0.0000
     56 ****        -5.6033  -0.1984   0.0473 LP             1 S1                 0.0000
     57 ****        -2.1200   0.5523  -1.2800 LP             1 S1                 0.0000
     58 ****        -0.2100   2.8495  -0.8713 LP             1 S1                 0.0000
     59 ****         0.0031   2.4160   0.6885 LP             1 S1                 0.0000
@<TRIPOS>BOND
    1    1    2 1     
    2    1   26 1     
    3    1   27 1     
    4    1   28 1     
    5    2    3 2     
    6    2    4 am    
    7    4   25 1     
    8    4    5 1     
    9    5    6 1     
   10    5   29 1     
   11    5   30 1     
   12    6    7 1     
   13    6   31 1     
   14    6   32 1     
   15    7    8 1     
   16    7   33 1     
   17    7   34 1     
   18    8    9 1     
   19    8   24 1     
   20    9   10 1     
   21    9   35 1     
   22    9   36 1     
   23   10   11 1     
   24   10   12 1     
   25   10   37 1     
   26   11   38 1     
   27   12   13 1     
   28   12   39 1     
   29   12   40 1     
   30   13   23 1     
   31   13   14 1     
   32   14   15 2     
   33   14   41 1     
   34   15   16 1     
   35   15   54 1     
   36   16   23 ar    
   37   16   17 ar    
   38   17   18 ar    
   39   17   42 1     
   40   18   19 1     
   41   18   20 ar    
   42   19   43 1     
   43   19   44 1     
   44   19   45 1     
   45   20   21 1     
   46   20   22 ar    
   47   21   46 1     
   48   21   47 1     
   49   21   48 1     
   50   22   23 ar    
   51   22   49 1     
   52   24   25 1     
   53   24   50 1     
   54   24   51 1     
   55   25   52 1     
   56   25   53 1     
   57    3   55 1     
   58    3   56 1     
   59    8   57 1     
   60   11   58 1     
   61   11   59 1     
@<TRIPOS>SUBSTRUCTURE
      1 S1             1
@<TRIPOS>SET
LONE_PAIRS      STATIC     ATOMS    <user>   **** ""
5 55 56 57 58 59
DONOR_HYDROGENS      STATIC     ATOMS    <user>   **** ""
2 38 54
ATOM$BLUE        STATIC     ATOMS    COLORGROUP SYSTEM
5 55 56 57 58 59
ATOM$RED        STATIC     ATOMS    COLORGROUP SYSTEM
2 38 54
