AV-unprocessed.smi:1191|AV-procd|sdf|4986|dock4
  -GOLD-   22720 3583D 1   1.00000     0.00000
 Structure written by MMmdl.
 47 48  0  0  0  0  0  0  0  0  2 V2000
  152.4329  144.0959  158.9978 C   0  0  0  0  0  0  0  0  0  0  0  0
  152.7328  142.6483  159.2536 C   0  0  0  0  0  0  0  0  0  0  0  0
  153.5251  142.0815  160.2906 C   0  0  0  0  0  0  0  0  0  0  0  0
  153.4667  140.7352  160.0633 C   0  0  0  0  0  0  0  0  0  0  0  0
  154.0911  139.6036  160.8118 C   0  0  0  0  0  0  0  0  0  0  0  0
  152.6765  140.5518  158.9423 N   0  0  0  0  0  0  0  0  0  0  0  0
  152.2900  139.3135  158.2837 C   0  0  0  0  0  0  0  0  0  0  0  0
  151.8281  139.5718  156.8489 C   0  0  0  0  0  0  0  0  0  0  0  0
  152.6538  139.8121  155.9684 O   0  0  0  0  0  0  0  0  0  0  0  0
  150.5060  139.5144  156.6255 N   0  0  0  0  0  0  0  0  0  0  0  0
  149.8670  139.7038  155.3298 C   0  0  0  0  0  0  0  0  0  0  0  0
  149.8385  138.3931  154.5207 C   0  0  0  0  0  0  0  0  0  0  0  0
  148.4619  138.0155  154.1149 N   0  3  1  0  0  0  0  0  0  0  0  0
  147.7879  137.1624  155.1272 C   0  0  0  0  0  0  0  0  0  0  0  0
  146.4334  136.6545  154.6083 C   0  0  0  0  0  0  0  0  0  0  0  0
  145.5322  137.8219  154.1816 C   0  0  0  0  0  0  0  0  0  0  0  0
  146.2504  138.7476  153.1819 C   0  0  2  0  0  0  0  0  0  0  0  0
  146.3641  138.1346  151.7751 C   0  0  0  0  0  0  0  0  0  0  0  0
  147.6212  139.1845  153.7382 C   0  0  0  0  0  0  0  0  0  0  0  0
  152.2259  141.7272  158.4508 N   0  0  0  0  0  0  0  0  0  0  0  0
  152.9763  144.7396  159.6897 H   0  0  0  0  0  0  0  0  0  0  0  0
  151.3694  144.3030  159.1183 H   0  0  0  0  0  0  0  0  0  0  0  0
  152.7171  144.3839  157.9853 H   0  0  0  0  0  0  0  0  0  0  0  0
  154.0568  142.5873  161.0829 H   0  0  0  0  0  0  0  0  0  0  0  0
  154.6659  139.9700  161.6627 H   0  0  0  0  0  0  0  0  0  0  0  0
  154.7673  139.0384  160.1700 H   0  0  0  0  0  0  0  0  0  0  0  0
  153.3307  138.9207  161.1909 H   0  0  0  0  0  0  0  0  0  0  0  0
  153.1345  138.6222  158.2830 H   0  0  0  0  0  0  0  0  0  0  0  0
  151.4930  138.8377  158.8560 H   0  0  0  0  0  0  0  0  0  0  0  0
  149.9034  139.3096  157.4103 H   0  0  0  0  0  0  0  0  0  0  0  0
  148.8581  140.0687  155.5174 H   0  0  0  0  0  0  0  0  0  0  0  0
  150.3822  140.4875  154.7715 H   0  0  0  0  0  0  0  0  0  0  0  0
  150.4478  138.5303  153.6263 H   0  0  0  0  0  0  0  0  0  0  0  0
  150.2984  137.5779  155.0814 H   0  0  0  0  0  0  0  0  0  0  0  0
  148.4175  136.3048  155.3686 H   0  0  0  0  0  0  0  0  0  0  0  0
  147.6525  137.7277  156.0506 H   0  0  0  0  0  0  0  0  0  0  0  0
  146.5917  135.9784  153.7675 H   0  0  0  0  0  0  0  0  0  0  0  0
  145.9370  136.0676  155.3815 H   0  0  0  0  0  0  0  0  0  0  0  0
  144.6007  137.4465  153.7565 H   0  0  0  0  0  0  0  0  0  0  0  0
  145.2540  138.3967  155.0660 H   0  0  0  0  0  0  0  0  0  0  0  0
  145.6399  139.6455  153.0763 H   0  0  0  0  0  0  0  0  0  0  0  0
  146.9826  137.2372  151.7693 H   0  0  0  0  0  0  0  0  0  0  0  0
  146.8078  138.8433  151.0751 H   0  0  0  0  0  0  0  0  0  0  0  0
  145.3823  137.8634  151.3857 H   0  0  0  0  0  0  0  0  0  0  0  0
  147.4771  139.8152  154.6171 H   0  0  0  0  0  0  0  0  0  0  0  0
  148.1292  139.8016  152.9977 H   0  0  0  0  0  0  0  0  0  0  0  0
  148.5580  137.4429  153.2883 H   0  0  0  0  0  0  0  0  0  0  0  0
  1  2  1  0  0  0  0
  1 21  1  0  0  0  0
  1 22  1  0  0  0  0
  1 23  1  0  0  0  0
  2 20  2  0  0  0  0
  2  3  1  0  0  0  0
  3  4  2  0  0  0  0
  3 24  1  0  0  0  0
  4  5  1  0  0  0  0
  4  6  1  0  0  0  0
  5 25  1  0  0  0  0
  5 26  1  0  0  0  0
  5 27  1  0  0  0  0
  6  7  1  0  0  0  0
  6 20  1  0  0  0  0
  7  8  1  0  0  0  0
  7 28  1  0  0  0  0
  7 29  1  0  0  0  0
  8  9  2  0  0  0  0
  8 10  1  0  0  0  0
 10 11  1  0  0  0  0
 10 30  1  0  0  0  0
 11 12  1  0  0  0  0
 11 31  1  0  0  0  0
 11 32  1  0  0  0  0
 12 13  1  0  0  0  0
 12 33  1  0  0  0  0
 12 34  1  0  0  0  0
 13 19  1  0  0  0  0
 13 14  1  0  0  0  0
 13 47  1  0  0  0  0
 14 15  1  0  0  0  0
 14 35  1  0  0  0  0
 14 36  1  0  0  0  0
 15 16  1  0  0  0  0
 15 37  1  0  0  0  0
 15 38  1  0  0  0  0
 16 17  1  0  0  0  0
 16 39  1  0  0  0  0
 16 40  1  0  0  0  0
 17 18  1  0  0  0  0
 17 19  1  0  0  0  0
 17 41  1  0  0  0  0
 18 42  1  0  0  0  0
 18 43  1  0  0  0  0
 18 44  1  0  0  0  0
 19 45  1  0  0  0  0
 19 46  1  0  0  0  0
M  CHG  1  13   1
M  END
> <s_m_source_file>
AV-unprocessed.smi

> <i_m_source_file_index>
1191

> <i_lp_mmshare_version>
43012

> <i_f3d_flags>
0

> <s_epik_input>
W0NIM11jMVtjSF1jKFtDSDNdKW4objEpW0NIMl1DKD1PKVtOSF1bQ0gyXVtDSDJdTjJbQ0gyXVtDSDJdW0NIMl1bQ0BASF0oW0NIM10pW0NIMl0y

> <s_epik_cmdline>
J2VwaWtfcHl0aG9uJywgJy1waCcsICc3LjAnLCAnLXRuJywgJzgnLCAnLW1hJywgJzIwMCcsICctbWV0YWxfYmluZGluZycsICctaW1hZScsICc8aW5maWxlLm1hZT4nLCAnLW9tYWUnLCAnPG91dGZpbGUubWFlPic=

> <r_lp_tautomer_probability>
1

> <r_epik_Ionization_Penalty>
0.00249932

> <r_epik_Ionization_Penalty_Charging>
0.00230623

> <r_epik_Ionization_Penalty_Neutral>
0.000193092

> <r_epik_State_Penalty>
-0

> <r_epik_Charging_Adjusted_Penalty>
0.00230623

> <i_epik_Tot_Q>
1

> <i_epik_Tot_abs_Q>
1

> <r_epik_Metal_State_Penalty>
-0

> <b_epik_Metal_Only>
0

> <s_lp_Force_Field>
OPLS_2005

> <r_lp_Energy>
16.3649

> <b_lp_Chiralities_Consistent>
1

> <s_lp_Variant>
AV-unprocessed.smi:1191-3

> <Gold.Version>
5.8.1

> <Gold.Id.Protein>
6NUR|6NUR_protein|mol2

> <Gold.PLP.Fitness>
41.4237

> <Gold.PLP.PLP>
-35.0322

> <Gold.PLP.part.hbond>
-2.0000

> <Gold.PLP.part.metal>
0.0000

> <Gold.PLP.part.buried>
1.0598

> <Gold.PLP.part.nonpolar>
-34.6167

> <Gold.PLP.part.repulsive>
0.0502

> <Gold.PLP.ligand.clash>
0.0000

> <Gold.PLP.ligand.torsion>
1.3185

> <Gold.PLP.Chemscore.Hbond>
3.0000

> <Gold.PLP.Chemscore.CHOScore>
0.0000

> <Gold.PLP.Chemscore.Metal>
0.0000

> <Gold.Chemscore.Hbonds>
donor molecule, donor type, donor heavy atom, donor atom, acceptor molecule, acceptor atom, score
      L1  H    13    47       P1  7948  2.00
      P1  H  7997  8010       L1     9  1.00

> <Gold.PLP.Chemscore.Internal.Correction>
0.0285

> <Gold.Rescore>
     Score         DG    S(hbond)    S(metal)    S(lipo)     H(rot)  DE(clash)    DE(int)     intcor
     17.76     -19.09       2.00        0.00      95.76       1.67       0.19       1.14       ----

> <Gold.Chemscore.Fitness>
17.7558

> <Gold.Chemscore.DG>
-19.0927

> <Gold.Chemscore.ZeroCoef>
-5.4800

> <Gold.Chemscore.Hbond>
1.9980

> <Gold.Chemscore.Metal>
0.0000

> <Gold.Chemscore.Lipo>
95.7561

> <Gold.Chemscore.Internal_Hbond>
0.0000

> <Gold.Chemscore.DEClash>
0.1926

> <Gold.Chemscore.DEInternal>
1.1442

> <Gold.Chemscore.Rot>
1.6657

> <Gold.Chemscore.Internal.Correction>
   9.000000E+99

> <Gold.Chemscore.Hbonds>
donor molecule, donor type, donor heavy atom, donor atom, acceptor molecule, acceptor atom, score
      L1  H    13    47       P1  7948  1.00
      P1  H  7997  8010       L1     9  0.96

> <Gold.Chemscore.Hbond.Weighted>
-6.6733

> <Gold.Chemscore.Metal.Weighted>
-0.0000

> <Gold.Chemscore.Lipo.Weighted>
-11.2035

> <Gold.Chemscore.Internal_Hbond.Weighted>
0.0000

> <Gold.Chemscore.DEClash.Weighted>
0.1926

> <Gold.Chemscore.DEInternal.Weighted>
1.1442

> <Gold.Chemscore.Rot.Weighted>
4.2641

> <Gold.Chemscore.Internal.Correction.Weighted>
   9.000000E+99

> <Gold.Protein.RotatedTorsions>
[ 6907 6896 6895 6894 ] final -163.00 input  -60.11 | X-H torsion
[ 7974 7965 7964 7962 ] final -119.32 input  175.53 | X-H torsion
[ 8008 7997 7996 7995 ] final  101.34 input   59.86 | X-H torsion
[ 10167 10162 10161 10158 ] final   62.41 input  -65.29 | X-H torsion
[ 10718 10713 10712 10709 ] final  -41.82 input   66.30 | X-H torsion
[ 10763 10752 10751 10750 ] final   -2.62 input  -60.55 | X-H torsion
[ 11005 11000 10999 10996 ] final   -6.24 input  -57.11 | X-H torsion

> <Gold.Protein.ActiveResidues>
 VAL166  LYS551  ARG553  GLY616  TRP617  ASP618  TYR619  PRO620  LYS621  CYS622 
 ASP623  PHE694  ASN695  SER759  ASP760  ASP761  ALA762  ILE779  LEU786  VAL792 
 PHE793  MET794  SER795  GLU796  ALA797  LYS798  CYS799  TRP800  GLU811  SER814 

> <Gold.Protein.RotatedAtoms>
  151.3892  133.3794  159.2718 H   0  0  0  0  0  0  0  0  0  0  0  0  # atno 6907 bound_to 6896
  150.9518  134.8918  159.7687 H   0  0  0  0  0  0  0  0  0  0  0  0  # atno 6908 bound_to 6896
  152.5115  134.3848  159.9416 H   0  0  0  0  0  0  0  0  0  0  0  0  # atno 6909 bound_to 6896
  145.0639  140.8310  143.4136 H   0  0  0  0  0  0  0  0  0  0  0  0  # atno 7974 bound_to 7965
  156.1289  140.3199  155.8320 H   0  0  0  0  0  0  0  0  0  0  0  0  # atno 8008 bound_to 7997
  155.4368  140.0522  157.3031 H   0  0  0  0  0  0  0  0  0  0  0  0  # atno 8009 bound_to 7997
  154.4884  140.2082  155.9616 H   0  0  0  0  0  0  0  0  0  0  0  0  # atno 8010 bound_to 7997
  140.1442  144.4525  150.6794 H   0  0  0  0  0  0  0  0  0  0  0  0  # atno 10167 bound_to 10162
  156.2663  130.4202  149.8487 H   0  0  0  0  0  0  0  0  0  0  0  0  # atno 10718 bound_to 10713
  153.3604  135.6990  153.6717 H   0  0  0  0  0  0  0  0  0  0  0  0  # atno 10763 bound_to 10752
  153.5407  135.3573  155.2718 H   0  0  0  0  0  0  0  0  0  0  0  0  # atno 10764 bound_to 10752
  154.8667  135.4203  154.2860 H   0  0  0  0  0  0  0  0  0  0  0  0  # atno 10765 bound_to 10752
  140.6999  133.8999  155.8676 H   0  0  0  0  0  0  0  0  0  0  0  0  # atno 11005 bound_to 11000
  145.1375  139.2593  143.5507 LP  0  0  0  0  0  0  0  0  0  0  0  0  # atno 17320 bound_to 7965
  146.3526  140.1043  142.8606 LP  0  0  0  0  0  0  0  0  0  0  0  0  # atno 17321 bound_to 7965
  140.6742  143.2298  151.5549 LP  0  0  0  0  0  0  0  0  0  0  0  0  # atno 17342 bound_to 10162
  139.5457  144.2527  152.1438 LP  0  0  0  0  0  0  0  0  0  0  0  0  # atno 17343 bound_to 10162
  156.5984  130.8536  151.3426 LP  0  0  0  0  0  0  0  0  0  0  0  0  # atno 17370 bound_to 10713
  157.7268  130.9634  150.1673 LP  0  0  0  0  0  0  0  0  0  0  0  0  # atno 17371 bound_to 10713
  141.0172  134.0939  157.4159 LP  0  0  0  0  0  0  0  0  0  0  0  0  # atno 17394 bound_to 11000
  139.8900  135.0109  156.6709 LP  0  0  0  0  0  0  0  0  0  0  0  0  # atno 17395 bound_to 11000

$$$$
