#       Name:                AV-unprocessed.smi:3343
#       Creating user name   scv26
#       Creation time:       Fri Mar 27 19:29:52 2020


#       File generated by GOLD software.
#

@<TRIPOS>MOLECULE
AV-unprocessed.smi:3343
    47    48     1
SMALL
NO_CHARGES


@<TRIPOS>ATOM
      1 ****        -2.5298   2.0447  -1.0773 C.3            1 S1                 0.0000
      2 ****        -2.3414   0.5630  -1.4600 C.3            1 S1                 0.0000
      3 ****        -0.8651   0.2021  -1.6827 C.2            1 S1                 0.0000
      4 ****        -0.0958   1.0076  -2.2076 O.2            1 S1                 0.0000
      5 ****        -0.4815  -1.0183  -1.2759 N.am           1 S1                 0.0000
      6 ****         0.8636  -1.5710  -1.4063 C.3            1 S1                 0.0000
      7 ****         1.8902  -0.8818  -0.4822 C.3            1 S1                 0.0000
      8 ****         2.0273  -1.5479   0.8162 N.3            1 S1                 0.0000
      9 ****         3.2016  -1.0769   1.5566 C.3            1 S1                 0.0000
     10 ****         3.0248   0.3690   2.0705 C.3            1 S1                 0.0000
     11 ****         1.8173   0.4733   2.9225 N.4            1 S1                 1.0000
     12 ****         1.6319   1.8264   3.4879 C.3            1 S1                 0.0000
     13 ****         0.6211  -0.0131   2.1962 C.3            1 S1                 0.0000
     14 ****         0.8516  -1.4521   1.6886 C.3            1 S1                 0.0000
     15 ****        -3.1311   0.1873  -2.6264 N.pl3          1 S1                 0.0000
     16 ****        -3.8524  -0.9123  -2.8551 C.2            1 S1                 0.0000
     17 ****        -4.4114  -0.9505  -4.0566 N.2            1 S1                 0.0000
     18 ****        -3.9525   0.2339  -4.5589 C.2            1 S1                 0.0000
     19 ****        -3.1744   0.9498  -3.7475 N.2            1 S1                 0.0000
     20 ****        -1.9696   2.2905  -0.1745 H              1 S1                 0.0000
     21 ****        -3.5795   2.2635  -0.8795 H              1 S1                 0.0000
     22 ****        -2.1962   2.7200  -1.8663 H              1 S1                 0.0000
     23 ****        -2.7068  -0.0336  -0.6222 H              1 S1                 0.0000
     24 ****        -1.1787  -1.6181  -0.8594 H              1 S1                 0.0000
     25 ****         0.8347  -2.6466  -1.2278 H              1 S1                 0.0000
     26 ****         1.1766  -1.4489  -2.4444 H              1 S1                 0.0000
     27 ****         2.8601  -0.9493  -0.9766 H              1 S1                 0.0000
     28 ****         1.6854   0.1831  -0.3809 H              1 S1                 0.0000
     29 ****         3.3717  -1.7458   2.4015 H              1 S1                 0.0000
     30 ****         4.0892  -1.1497   0.9269 H              1 S1                 0.0000
     31 ****         3.9006   0.6523   2.6551 H              1 S1                 0.0000
     32 ****         2.9630   1.0772   1.2432 H              1 S1                 0.0000
     33 ****         1.4681   2.5621   2.6992 H              1 S1                 0.0000
     34 ****         2.5103   2.1271   4.0602 H              1 S1                 0.0000
     35 ****         0.7732   1.8471   4.1599 H              1 S1                 0.0000
     36 ****        -0.2358  -0.0030   2.8707 H              1 S1                 0.0000
     37 ****         0.3760   0.6611   1.3743 H              1 S1                 0.0000
     38 ****        -0.0350  -1.8243   1.1772 H              1 S1                 0.0000
     39 ****         1.0013  -2.1162   2.5412 H              1 S1                 0.0000
     40 ****        -3.9684  -1.7036  -2.1292 H              1 S1                 0.0000
     41 ****        -4.1945   0.5762  -5.5543 H              1 S1                 0.0000
     42 ****         1.9583  -0.1536   3.7021 H              1 S1                 0.0000
     43 ****        -0.4305   1.9056  -2.4929 LP             1 S1                 0.0000
     44 ****         0.8638   0.7637  -2.3485 LP             1 S1                 0.0000
     45 ****         2.1349  -2.5115   0.5712 LP             1 S1                 0.0000
     46 ****        -4.9982  -1.6445  -4.4737 LP             1 S1                 0.0000
     47 ****        -2.7325   1.8298  -3.9217 LP             1 S1                 0.0000
@<TRIPOS>BOND
    1    1    2 1     
    2    1   20 1     
    3    1   21 1     
    4    1   22 1     
    5    2    3 1     
    6    2   15 1     
    7    2   23 1     
    8    3    4 2     
    9    3    5 am    
   10    5    6 1     
   11    5   24 1     
   12    6    7 1     
   13    6   25 1     
   14    6   26 1     
   15    7    8 1     
   16    7   27 1     
   17    7   28 1     
   18    8   14 1     
   19    8    9 1     
   20    9   10 1     
   21    9   29 1     
   22    9   30 1     
   23   10   11 1     
   24   10   31 1     
   25   10   32 1     
   26   11   12 1     
   27   11   13 1     
   28   11   42 1     
   29   12   33 1     
   30   12   34 1     
   31   12   35 1     
   32   13   14 1     
   33   13   36 1     
   34   13   37 1     
   35   14   38 1     
   36   14   39 1     
   37   15   19 1     
   38   15   16 1     
   39   16   17 2     
   40   16   40 1     
   41   17   18 1     
   42   18   19 2     
   43   18   41 1     
   44    4   43 1     
   45    4   44 1     
   46    8   45 1     
   47   17   46 1     
   48   19   47 1     
@<TRIPOS>SUBSTRUCTURE
      1 S1             1
@<TRIPOS>SET
LONE_PAIRS      STATIC     ATOMS    <user>   **** ""
5 43 44 45 46 47
DONOR_HYDROGENS      STATIC     ATOMS    <user>   **** ""
2 24 42
ATOM$BLUE        STATIC     ATOMS    COLORGROUP SYSTEM
5 43 44 45 46 47
ATOM$RED        STATIC     ATOMS    COLORGROUP SYSTEM
2 24 42
