AV-unprocessed.smi:3201|AV-procd|sdf|12238|dock10
  -GOLD-   2272018 73D 1   1.00000     0.00000
 Structure written by MMmdl.
 41 43  0  0  0  0  0  0  0  0  2 V2000
  152.8575  141.2661  159.9591 C   0  0  0  0  0  0  0  0  0  0  0  0
  152.4622  142.6952  160.1479 C   0  0  0  0  0  0  0  0  0  0  0  0
  151.9438  143.6044  159.2648 C   0  0  0  0  0  0  0  0  0  0  0  0
  151.6133  143.4297  157.8079 C   0  0  0  0  0  0  0  0  0  0  0  0
  150.5609  142.3330  157.5987 C   0  0  0  0  0  0  0  0  0  0  0  0
  150.2199  142.1896  156.1689 N   0  3  0  0  0  0  0  0  0  0  0  0
  149.2146  141.1436  155.8796 C   0  0  1  0  0  0  0  0  0  0  0  0
  147.8084  141.5079  156.4117 C   0  0  0  0  0  0  0  0  0  0  0  0
  146.9348  141.4477  155.1457 C   0  0  2  0  0  0  0  0  0  0  0  0
  146.8014  139.9867  154.6773 C   0  0  0  0  0  0  0  0  0  0  0  0
  148.2008  139.6839  154.1087 C   0  0  0  0  0  0  0  0  0  0  0  0
  148.9634  140.9984  154.3627 C   0  0  1  0  0  0  0  0  0  0  0  0
  147.8734  142.0334  154.0985 C   0  0  0  0  0  0  0  0  0  0  0  0
  151.7856  144.7824  160.0482 C   0  0  0  0  0  0  0  0  0  0  0  0
  152.1733  144.6219  161.3006 N   0  0  0  0  0  0  0  0  0  0  0  0
  152.5875  143.3399  161.3645 N   0  0  0  0  0  0  0  0  0  0  0  0
  153.0900  142.8174  162.6204 C   0  0  0  0  0  0  0  0  0  0  0  0
  152.7200  140.9500  158.9253 H   0  0  0  0  0  0  0  0  0  0  0  0
  152.2564  140.6120  160.5909 H   0  0  0  0  0  0  0  0  0  0  0  0
  153.9060  141.1164  160.2177 H   0  0  0  0  0  0  0  0  0  0  0  0
  151.2501  144.3667  157.3842 H   0  0  0  0  0  0  0  0  0  0  0  0
  152.5116  143.1789  157.2423 H   0  0  0  0  0  0  0  0  0  0  0  0
  150.9360  141.3800  157.9742 H   0  0  0  0  0  0  0  0  0  0  0  0
  149.6606  142.5699  158.1667 H   0  0  0  0  0  0  0  0  0  0  0  0
  149.8776  143.0730  155.8191 H   0  0  0  0  0  0  0  0  0  0  0  0
  149.5651  140.1977  156.2958 H   0  0  0  0  0  0  0  0  0  0  0  0
  147.4659  140.8171  157.1832 H   0  0  0  0  0  0  0  0  0  0  0  0
  147.7829  142.5136  156.8342 H   0  0  0  0  0  0  0  0  0  0  0  0
  145.9796  141.9635  155.2488 H   0  0  0  0  0  0  0  0  0  0  0  0
  146.5282  139.3155  155.4924 H   0  0  0  0  0  0  0  0  0  0  0  0
  146.0433  139.8938  153.8983 H   0  0  0  0  0  0  0  0  0  0  0  0
  148.6711  138.8264  154.5915 H   0  0  0  0  0  0  0  0  0  0  0  0
  148.1407  139.4720  153.0403 H   0  0  0  0  0  0  0  0  0  0  0  0
  149.8596  141.1011  153.7495 H   0  0  0  0  0  0  0  0  0  0  0  0
  147.4709  141.9904  153.0848 H   0  0  0  0  0  0  0  0  0  0  0  0
  148.1815  143.0575  154.3167 H   0  0  0  0  0  0  0  0  0  0  0  0
  151.4043  145.7458  159.7435 H   0  0  0  0  0  0  0  0  0  0  0  0
  152.5760  141.8874  162.8649 H   0  0  0  0  0  0  0  0  0  0  0  0
  152.9255  143.5319  163.4284 H   0  0  0  0  0  0  0  0  0  0  0  0
  154.1594  142.6219  162.5335 H   0  0  0  0  0  0  0  0  0  0  0  0
  151.0678  141.9538  155.6730 H   0  0  0  0  0  0  0  0  0  0  0  0
  1  2  1  0  0  0  0
  1 18  1  0  0  0  0
  1 19  1  0  0  0  0
  1 20  1  0  0  0  0
  2 16  1  0  0  0  0
  2  3  2  0  0  0  0
  3  4  1  0  0  0  0
  3 14  1  0  0  0  0
  4  5  1  0  0  0  0
  4 21  1  0  0  0  0
  4 22  1  0  0  0  0
  5  6  1  0  0  0  0
  5 23  1  0  0  0  0
  5 24  1  0  0  0  0
  6  7  1  0  0  0  0
  6 25  1  0  0  0  0
  6 41  1  0  0  0  0
  7 12  1  0  0  0  0
  7  8  1  0  0  0  0
  7 26  1  0  0  0  0
  8  9  1  0  0  0  0
  8 27  1  0  0  0  0
  8 28  1  0  0  0  0
  9 13  1  0  0  0  0
  9 10  1  0  0  0  0
  9 29  1  0  0  0  0
 10 11  1  0  0  0  0
 10 30  1  0  0  0  0
 10 31  1  0  0  0  0
 11 12  1  0  0  0  0
 11 32  1  0  0  0  0
 11 33  1  0  0  0  0
 12 13  1  0  0  0  0
 12 34  1  0  0  0  0
 13 35  1  0  0  0  0
 13 36  1  0  0  0  0
 14 15  2  0  0  0  0
 14 37  1  0  0  0  0
 15 16  1  0  0  0  0
 16 17  1  0  0  0  0
 17 38  1  0  0  0  0
 17 39  1  0  0  0  0
 17 40  1  0  0  0  0
M  CHG  1   6   1
M  END
> <s_m_source_file>
AV-unprocessed.smi

> <i_m_source_file_index>
3201

> <i_lp_mmshare_version>
43012

> <i_f3d_flags>
0

> <s_epik_input>
W0NIM11uMW5bY0hdYyhjMVtDSDNdKVtDSDJdW0NIMl1bTkhdW0NASF0oW0NIMl1bQ0BIXTIzKVtDQEhdKFtDSDJdMylbQ0gyXVtDSDJdMg==

> <s_epik_cmdline>
J2VwaWtfcHl0aG9uJywgJy1waCcsICc3LjAnLCAnLXRuJywgJzgnLCAnLW1hJywgJzIwMCcsICctbWV0YWxfYmluZGluZycsICctaW1hZScsICc8aW5maWxlLm1hZT4nLCAnLW9tYWUnLCAnPG91dGZpbGUubWFlPic=

> <r_lp_tautomer_probability>
1

> <r_epik_Ionization_Penalty>
0.000331174

> <r_epik_Ionization_Penalty_Charging>
0.000242709

> <r_epik_Ionization_Penalty_Neutral>
8.84659e-05

> <r_epik_State_Penalty>
-0

> <r_epik_Charging_Adjusted_Penalty>
0.000242709

> <i_epik_Tot_Q>
1

> <i_epik_Tot_abs_Q>
1

> <r_epik_Metal_State_Penalty>
-0

> <b_epik_Metal_Only>
0

> <s_lp_Force_Field>
OPLS_2005

> <r_lp_Energy>
49.6372

> <b_lp_Chiralities_Consistent>
1

> <s_lp_Variant>
AV-unprocessed.smi:3201-2

> <Gold.Version>
5.8.1

> <Gold.Id.Protein>
6NUR|6NUR_protein|mol2

> <Gold.PLP.Fitness>
48.1840

> <Gold.PLP.PLP>
-42.2184

> <Gold.PLP.part.hbond>
-1.0000

> <Gold.PLP.part.metal>
0.0000

> <Gold.PLP.part.buried>
-4.9502

> <Gold.PLP.part.nonpolar>
-37.1517

> <Gold.PLP.part.repulsive>
0.2973

> <Gold.PLP.ligand.clash>
0.0000

> <Gold.PLP.ligand.torsion>
0.0217

> <Gold.PLP.Chemscore.Hbond>
2.0000

> <Gold.PLP.Chemscore.CHOScore>
0.0000

> <Gold.PLP.Chemscore.Metal>
0.0000

> <Gold.Chemscore.Hbonds>
donor molecule, donor type, donor heavy atom, donor atom, acceptor molecule, acceptor atom, score
      L1  H     6    25       P1  8028  2.00

> <Gold.PLP.Chemscore.Internal.Correction>
0.0090

> <Gold.Rescore>
     Score         DG    S(hbond)    S(metal)    S(lipo)     H(rot)  DE(clash)    DE(int)     intcor
     18.41     -18.53       0.99        0.00     112.87       1.36       0.09       0.02       ----

> <Gold.Chemscore.Fitness>
18.4091

> <Gold.Chemscore.DG>
-18.5259

> <Gold.Chemscore.ZeroCoef>
-5.4800

> <Gold.Chemscore.Hbond>
0.9938

> <Gold.Chemscore.Metal>
0.0000

> <Gold.Chemscore.Lipo>
112.8659

> <Gold.Chemscore.Internal_Hbond>
0.0000

> <Gold.Chemscore.DEClash>
0.0933

> <Gold.Chemscore.DEInternal>
0.0235

> <Gold.Chemscore.Rot>
1.3588

> <Gold.Chemscore.Internal.Correction>
   9.000000E+99

> <Gold.Chemscore.Hbonds>
donor molecule, donor type, donor heavy atom, donor atom, acceptor molecule, acceptor atom, score
      L1  H     6    25       P1  8028  0.99

> <Gold.Chemscore.Hbond.Weighted>
-3.3192

> <Gold.Chemscore.Metal.Weighted>
-0.0000

> <Gold.Chemscore.Lipo.Weighted>
-13.2053

> <Gold.Chemscore.Internal_Hbond.Weighted>
0.0000

> <Gold.Chemscore.DEClash.Weighted>
0.0933

> <Gold.Chemscore.DEInternal.Weighted>
0.0235

> <Gold.Chemscore.Rot.Weighted>
3.4786

> <Gold.Chemscore.Internal.Correction.Weighted>
   9.000000E+99

> <Gold.Protein.RotatedTorsions>
[ 6907 6896 6895 6894 ] final  165.70 input  -60.11 | X-H torsion
[ 7974 7965 7964 7962 ] final  175.63 input  175.53 | X-H torsion
[ 8008 7997 7996 7995 ] final  153.25 input   59.86 | X-H torsion
[ 10167 10162 10161 10158 ] final   -1.12 input  -65.29 | X-H torsion
[ 10718 10713 10712 10709 ] final  104.47 input   66.30 | X-H torsion
[ 10763 10752 10751 10750 ] final   -2.34 input  -60.55 | X-H torsion
[ 11005 11000 10999 10996 ] final  -21.15 input  -57.11 | X-H torsion

> <Gold.Protein.ActiveResidues>
 VAL166  LYS551  ARG553  GLY616  TRP617  ASP618  TYR619  PRO620  LYS621  CYS622 
 ASP623  PHE694  ASN695  SER759  ASP760  ASP761  ALA762  ILE779  LEU786  VAL792 
 PHE793  MET794  SER795  GLU796  ALA797  LYS798  CYS799  TRP800  GLU811  SER814 

> <Gold.Protein.RotatedAtoms>
  151.8904  133.3515  159.3795 H   0  0  0  0  0  0  0  0  0  0  0  0  # atno 6907 bound_to 6896
  150.7105  134.4930  159.5534 H   0  0  0  0  0  0  0  0  0  0  0  0  # atno 6908 bound_to 6896
  152.2499  134.8144  160.0498 H   0  0  0  0  0  0  0  0  0  0  0  0  # atno 6909 bound_to 6896
  144.7198  139.9976  143.6440 H   0  0  0  0  0  0  0  0  0  0  0  0  # atno 7974 bound_to 7965
  156.2590  140.1999  156.6461 H   0  0  0  0  0  0  0  0  0  0  0  0  # atno 8008 bound_to 7997
  154.6572  140.0565  157.0047 H   0  0  0  0  0  0  0  0  0  0  0  0  # atno 8009 bound_to 7997
  155.1329  140.3235  155.4472 H   0  0  0  0  0  0  0  0  0  0  0  0  # atno 8010 bound_to 7997
  140.6797  143.6812  150.8104 H   0  0  0  0  0  0  0  0  0  0  0  0  # atno 10167 bound_to 10162
  157.6739  131.0804  150.5710 H   0  0  0  0  0  0  0  0  0  0  0  0  # atno 10718 bound_to 10713
  153.3567  135.6988  153.6745 H   0  0  0  0  0  0  0  0  0  0  0  0  # atno 10763 bound_to 10752
  153.5449  135.3565  155.2735 H   0  0  0  0  0  0  0  0  0  0  0  0  # atno 10764 bound_to 10752
  154.8662  135.4212  154.2815 H   0  0  0  0  0  0  0  0  0  0  0  0  # atno 10765 bound_to 10752
  140.8533  133.7841  155.9991 H   0  0  0  0  0  0  0  0  0  0  0  0  # atno 11005 bound_to 11000
  146.0361  139.3379  143.0725 LP  0  0  0  0  0  0  0  0  0  0  0  0  # atno 17320 bound_to 7965
  145.8392  140.9589  143.0808 LP  0  0  0  0  0  0  0  0  0  0  0  0  # atno 17321 bound_to 7965
  140.0511  143.5249  152.2673 LP  0  0  0  0  0  0  0  0  0  0  0  0  # atno 17342 bound_to 10162
  139.6111  144.7609  151.2950 LP  0  0  0  0  0  0  0  0  0  0  0  0  # atno 17343 bound_to 10162
  156.6012  130.4355  149.5896 LP  0  0  0  0  0  0  0  0  0  0  0  0  # atno 17370 bound_to 10713
  156.2505  130.6904  151.1640 LP  0  0  0  0  0  0  0  0  0  0  0  0  # atno 17371 bound_to 10713
  140.8766  134.2662  157.5165 LP  0  0  0  0  0  0  0  0  0  0  0  0  # atno 17394 bound_to 11000
  139.8704  134.9594  156.4330 LP  0  0  0  0  0  0  0  0  0  0  0  0  # atno 17395 bound_to 11000

$$$$
