AV-unprocessed.smi:1803|AV-procd|sdf|7293|dock4
  -GOLD-   22720 8553D 1   1.00000     0.00000
 Structure written by MMmdl.
 35 37  0  0  0  0  0  0  0  0  3 V2000
  149.4825  133.1190  158.0022 O   0  0  0  0  0  0  0  0  0  0  0  0
  148.5946  133.9269  158.2718 C   0  0  0  0  0  0  0  0  0  0  0  0
  147.7755  133.8047  159.3482 N   0  5  0  0  0  0  0  0  0  0  0  0
  147.8082  134.6613  160.3860 C   0  0  0  0  0  0  0  0  0  0  0  0
  148.1299  135.9570  160.2408 N   0  0  0  0  0  0  0  0  0  0  0  0
  148.1102  136.6613  161.4367 N   0  0  0  0  0  0  0  0  0  0  0  0
  147.7589  135.8781  162.4562 C   0  0  0  0  0  0  0  0  0  0  0  0
  147.4293  134.2073  162.0490 S   0  0  0  0  0  0  0  0  0  0  0  0
  148.4094  134.9837  157.4574 N   0  0  0  0  0  0  0  0  0  0  0  0
  149.1448  135.2481  156.2252 C   0  0  2  0  0  0  0  0  0  0  0  0
  150.6566  135.2273  156.4080 C   0  0  0  0  0  0  0  0  0  0  0  0
  151.1624  135.9868  155.1770 C   0  0  0  0  0  0  0  0  0  0  0  0
  150.0741  136.9060  154.7613 N   0  3  2  0  0  0  0  0  0  0  0  0
  150.4880  138.3317  154.6662 C   0  0  0  0  0  0  0  0  0  0  0  0
  149.2641  139.2594  154.6424 C   0  0  0  0  0  0  0  0  0  0  0  0
  148.4442  139.1412  155.9411 C   0  0  0  0  0  0  0  0  0  0  0  0
  148.6389  137.7815  156.6390 C   0  0  0  0  0  0  0  0  0  0  0  0
  148.8857  136.6405  155.6204 C   0  0  2  0  0  0  0  0  0  0  0  0
  147.6943  136.2863  163.4538 H   0  0  0  0  0  0  0  0  0  0  0  0
  147.6761  135.6339  157.7003 H   0  0  0  0  0  0  0  0  0  0  0  0
  148.8898  134.4863  155.4854 H   0  0  0  0  0  0  0  0  0  0  0  0
  150.9360  135.7653  157.3152 H   0  0  0  0  0  0  0  0  0  0  0  0
  151.0627  134.2176  156.4776 H   0  0  0  0  0  0  0  0  0  0  0  0
  152.1040  136.4982  155.3812 H   0  0  0  0  0  0  0  0  0  0  0  0
  151.3428  135.2912  154.3569 H   0  0  0  0  0  0  0  0  0  0  0  0
  151.1205  138.5980  155.5149 H   0  0  0  0  0  0  0  0  0  0  0  0
  151.0912  138.4667  153.7679 H   0  0  0  0  0  0  0  0  0  0  0  0
  149.5705  140.2943  154.4875 H   0  0  0  0  0  0  0  0  0  0  0  0
  148.6363  138.9965  153.7898 H   0  0  0  0  0  0  0  0  0  0  0  0
  148.7221  139.9363  156.6341 H   0  0  0  0  0  0  0  0  0  0  0  0
  147.3895  139.2956  155.7106 H   0  0  0  0  0  0  0  0  0  0  0  0
  149.4871  137.8440  157.3221 H   0  0  0  0  0  0  0  0  0  0  0  0
  147.7669  137.5758  157.2605 H   0  0  0  0  0  0  0  0  0  0  0  0
  148.0086  136.5837  154.9738 H   0  0  0  0  0  0  0  0  0  0  0  0
  149.8042  136.6202  153.8310 H   0  0  0  0  0  0  0  0  0  0  0  0
  1  2  2  0  0  0  0
  2  3  1  0  0  0  0
  2  9  1  0  0  0  0
  3  4  1  0  0  0  0
  4  8  1  0  0  0  0
  4  5  2  0  0  0  0
  5  6  1  0  0  0  0
  6  7  2  0  0  0  0
  7  8  1  0  0  0  0
  7 19  1  0  0  0  0
  9 10  1  0  0  0  0
  9 20  1  0  0  0  0
 10 18  1  0  0  0  0
 10 11  1  0  0  0  0
 10 21  1  0  0  0  0
 11 12  1  0  0  0  0
 11 22  1  0  0  0  0
 11 23  1  0  0  0  0
 12 13  1  0  0  0  0
 12 24  1  0  0  0  0
 12 25  1  0  0  0  0
 13 18  1  0  0  0  0
 13 14  1  0  0  0  0
 13 35  1  0  0  0  0
 14 15  1  0  0  0  0
 14 26  1  0  0  0  0
 14 27  1  0  0  0  0
 15 16  1  0  0  0  0
 15 28  1  0  0  0  0
 15 29  1  0  0  0  0
 16 17  1  0  0  0  0
 16 30  1  0  0  0  0
 16 31  1  0  0  0  0
 17 18  1  0  0  0  0
 17 32  1  0  0  0  0
 17 33  1  0  0  0  0
 18 34  1  0  0  0  0
M  CHG  1   3  -1
M  CHG  1  13   1
M  END
> <s_m_source_file>
AV-unprocessed.smi

> <i_m_source_file_index>
1803

> <i_lp_mmshare_version>
43012

> <i_f3d_flags>
0

> <s_epik_input>
czFbY0hdbm5jMVtOSF1DKD1PKVtOSF1bQ0BIXShbQ0gyXVtDSDJdMilbQ0BASF0oTjIzKVtDSDJdW0NIMl1bQ0gyXVtDSDJdMw==

> <s_epik_cmdline>
J2VwaWtfcHl0aG9uJywgJy1waCcsICc3LjAnLCAnLXRuJywgJzgnLCAnLW1hJywgJzIwMCcsICctbWV0YWxfYmluZGluZycsICctaW1hZScsICc8aW5maWxlLm1hZT4nLCAnLW9tYWUnLCAnPG91dGZpbGUubWFlPic=

> <r_lp_tautomer_probability>
1

> <r_epik_Ionization_Penalty>
3.78828

> <r_epik_Ionization_Penalty_Charging>
3.7591

> <r_epik_Ionization_Penalty_Neutral>
0.0291838

> <r_epik_State_Penalty>
3.757

> <r_epik_Charging_Adjusted_Penalty>
7.51609

> <i_epik_Tot_Q>
0

> <i_epik_Tot_abs_Q>
2

> <r_epik_Metal_State_Penalty>
0.558016

> <b_epik_Metal_Only>
1

> <s_lp_Force_Field>
OPLS_2005

> <r_lp_Energy>
34.1757

> <b_lp_Chiralities_Consistent>
1

> <s_lp_Variant>
AV-unprocessed.smi:1803-15

> <Gold.Version>
5.8.1

> <Gold.Id.Protein>
6NUR|6NUR_protein|mol2

> <Gold.PLP.Fitness>
35.2327

> <Gold.PLP.PLP>
-22.6446

> <Gold.PLP.part.hbond>
-4.0000

> <Gold.PLP.part.metal>
0.0000

> <Gold.PLP.part.buried>
-3.9590

> <Gold.PLP.part.nonpolar>
-15.4948

> <Gold.PLP.part.repulsive>
0.0382

> <Gold.PLP.ligand.clash>
0.0000

> <Gold.PLP.ligand.torsion>
0.9104

> <Gold.PLP.Chemscore.Hbond>
4.8000

> <Gold.PLP.Chemscore.CHOScore>
0.0000

> <Gold.PLP.Chemscore.Metal>
0.0000

> <Gold.Chemscore.Hbonds>
donor molecule, donor type, donor heavy atom, donor atom, acceptor molecule, acceptor atom, score
      L1  H    13    35       P1  7948  1.43
      P1  H  6896  6908       L1     1  0.80
      P1  H  6931  6943       L1     6  1.00

> <Gold.PLP.Chemscore.Internal.Correction>
0.0089

> <Gold.Rescore>
     Score         DG    S(hbond)    S(metal)    S(lipo)     H(rot)  DE(clash)    DE(int)     intcor
     17.84     -19.62       3.45        0.00      44.34       1.00       0.04       1.74       ----

> <Gold.Chemscore.Fitness>
17.8388

> <Gold.Chemscore.DG>
-19.6193

> <Gold.Chemscore.ZeroCoef>
-5.4800

> <Gold.Chemscore.Hbond>
3.4466

> <Gold.Chemscore.Metal>
0.0000

> <Gold.Chemscore.Lipo>
44.3390

> <Gold.Chemscore.Internal_Hbond>
0.0000

> <Gold.Chemscore.DEClash>
0.0411

> <Gold.Chemscore.DEInternal>
1.7394

> <Gold.Chemscore.Rot>
1.0000

> <Gold.Chemscore.Internal.Correction>
   9.000000E+99

> <Gold.Chemscore.Hbonds>
donor molecule, donor type, donor heavy atom, donor atom, acceptor molecule, acceptor atom, score
      L1  H    13    35       P1  7948  0.35
      P1  H  6896  6908       L1     1  0.12
      P1  H  6931  6943       L1     6  0.91

> <Gold.Chemscore.Hbond.Weighted>
-11.5117

> <Gold.Chemscore.Metal.Weighted>
-0.0000

> <Gold.Chemscore.Lipo.Weighted>
-5.1877

> <Gold.Chemscore.Internal_Hbond.Weighted>
0.0000

> <Gold.Chemscore.DEClash.Weighted>
0.0411

> <Gold.Chemscore.DEInternal.Weighted>
1.7394

> <Gold.Chemscore.Rot.Weighted>
2.5600

> <Gold.Chemscore.Internal.Correction.Weighted>
   9.000000E+99

> <Gold.Protein.RotatedTorsions>
[ 6907 6896 6895 6894 ] final  121.26 input  -60.11 | X-H torsion
[ 7974 7965 7964 7962 ] final -164.36 input  175.53 | X-H torsion
[ 8008 7997 7996 7995 ] final  -95.94 input   59.86 | X-H torsion
[ 10167 10162 10161 10158 ] final -109.18 input  -65.29 | X-H torsion
[ 10718 10713 10712 10709 ] final  168.27 input   66.30 | X-H torsion
[ 10763 10752 10751 10750 ] final  116.89 input  -60.55 | X-H torsion
[ 11005 11000 10999 10996 ] final    3.34 input  -57.11 | X-H torsion

> <Gold.Protein.ActiveResidues>
 VAL166  LYS551  ARG553  GLY616  TRP617  ASP618  TYR619  PRO620  LYS621  CYS622 
 ASP623  PHE694  ASN695  SER759  ASP760  ASP761  ALA762  ILE779  LEU786  VAL792 
 PHE793  MET794  SER795  GLU796  ALA797  LYS798  CYS799  TRP800  GLU811  SER814 

> <Gold.Protein.RotatedAtoms>
  152.4335  133.7320  159.6592 H   0  0  0  0  0  0  0  0  0  0  0  0  # atno 6907 bound_to 6896
  150.8216  133.8231  159.3142 H   0  0  0  0  0  0  0  0  0  0  0  0  # atno 6908 bound_to 6896
  151.5912  135.1055  160.0091 H   0  0  0  0  0  0  0  0  0  0  0  0  # atno 6909 bound_to 6896
  144.7299  140.2972  143.6210 H   0  0  0  0  0  0  0  0  0  0  0  0  # atno 7974 bound_to 7965
  154.7679  140.0475  157.1027 H   0  0  0  0  0  0  0  0  0  0  0  0  # atno 8008 bound_to 7997
  154.9856  140.3107  155.4908 H   0  0  0  0  0  0  0  0  0  0  0  0  # atno 8009 bound_to 7997
  156.2916  140.2228  156.4958 H   0  0  0  0  0  0  0  0  0  0  0  0  # atno 8010 bound_to 7997
  140.1582  143.4142  152.1445 H   0  0  0  0  0  0  0  0  0  0  0  0  # atno 10167 bound_to 10162
  157.0395  131.0282  151.2718 H   0  0  0  0  0  0  0  0  0  0  0  0  # atno 10718 bound_to 10713
  153.5441  135.3553  155.2731 H   0  0  0  0  0  0  0  0  0  0  0  0  # atno 10763 bound_to 10752
  154.8714  135.4098  154.3011 H   0  0  0  0  0  0  0  0  0  0  0  0  # atno 10764 bound_to 10752
  153.3724  135.7065  153.6696 H   0  0  0  0  0  0  0  0  0  0  0  0  # atno 10765 bound_to 10752
  140.5942  133.9896  155.8102 H   0  0  0  0  0  0  0  0  0  0  0  0  # atno 11005 bound_to 11000
  145.7797  139.1887  143.2165 LP  0  0  0  0  0  0  0  0  0  0  0  0  # atno 17320 bound_to 7965
  146.0844  140.7727  142.9626 LP  0  0  0  0  0  0  0  0  0  0  0  0  # atno 17321 bound_to 7965
  139.5394  144.7241  151.4785 LP  0  0  0  0  0  0  0  0  0  0  0  0  # atno 17342 bound_to 10162
  140.6660  143.8397  150.6942 LP  0  0  0  0  0  0  0  0  0  0  0  0  # atno 17343 bound_to 10162
  157.5116  130.7942  149.7711 LP  0  0  0  0  0  0  0  0  0  0  0  0  # atno 17370 bound_to 10713
  156.0043  130.3864  150.2489 LP  0  0  0  0  0  0  0  0  0  0  0  0  # atno 17371 bound_to 10713
  141.0915  133.9909  157.3229 LP  0  0  0  0  0  0  0  0  0  0  0  0  # atno 17394 bound_to 11000
  139.9261  135.0201  156.8237 LP  0  0  0  0  0  0  0  0  0  0  0  0  # atno 17395 bound_to 11000

$$$$
