AV-unprocessed.smi:3112|AV-procd|sdf|11844|dock4
  -GOLD-   2272017223D 1   1.00000     0.00000
 Structure written by MMmdl.
 36 36  0  0  0  0  0  0  0  0  1 V2000
  147.0995  140.1236  153.0588 C   0  0  0  0  0  0  0  0  0  0  0  0
  147.5481  140.3594  154.5078 C   0  0  0  0  0  0  0  0  0  0  0  0
  148.7435  141.3255  154.6278 C   0  0  2  0  0  0  0  0  0  0  0  0
  149.8023  140.8323  153.8329 O   0  0  0  0  0  0  0  0  0  0  0  0
  149.2694  141.4573  156.0672 C   0  0  0  0  0  0  0  0  0  0  0  0
  150.3481  142.4435  156.1526 N   0  0  0  0  0  0  0  0  0  0  0  0
  151.3445  142.1815  157.1958 C   0  0  2  0  0  0  0  0  0  0  0  0
  151.6542  140.6725  157.1938 C   0  0  0  0  0  0  0  0  0  0  0  0
  150.8687  142.6853  158.5917 C   0  0  2  0  0  0  0  0  0  0  0  0
  150.3888  144.1486  158.6119 C   0  0  0  0  0  0  0  0  0  0  0  0
  151.8920  142.4945  159.6129 N   0  0  0  0  0  0  0  0  0  0  0  0
  153.1906  142.0579  159.4486 C   0  0  0  0  0  0  0  0  0  0  0  0
  153.7754  142.0400  160.6822 C   0  0  0  0  0  0  0  0  0  0  0  0
  152.7422  142.4865  161.5522 C   0  0  0  0  0  0  0  0  0  0  0  0
  151.6174  142.7581  160.9111 N   0  0  0  0  0  0  0  0  0  0  0  0
  146.2365  139.4585  153.0244 H   0  0  0  0  0  0  0  0  0  0  0  0
  147.8909  139.6668  152.4644 H   0  0  0  0  0  0  0  0  0  0  0  0
  146.8157  141.0602  152.5776 H   0  0  0  0  0  0  0  0  0  0  0  0
  146.6987  140.7601  155.0618 H   0  0  0  0  0  0  0  0  0  0  0  0
  147.7907  139.4051  154.9770 H   0  0  0  0  0  0  0  0  0  0  0  0
  148.4689  142.3114  154.2500 H   0  0  0  0  0  0  0  0  0  0  0  0
  149.4525  140.5766  152.9930 H   0  0  0  0  0  0  0  0  0  0  0  0
  148.4515  141.7401  156.7314 H   0  0  0  0  0  0  0  0  0  0  0  0
  149.6142  140.4844  156.4119 H   0  0  0  0  0  0  0  0  0  0  0  0
  149.9400  143.3604  156.3034 H   0  0  0  0  0  0  0  0  0  0  0  0
  152.2760  142.6892  156.9406 H   0  0  0  0  0  0  0  0  0  0  0  0
  152.4808  140.4253  157.8600 H   0  0  0  0  0  0  0  0  0  0  0  0
  151.9413  140.3334  156.1978 H   0  0  0  0  0  0  0  0  0  0  0  0
  150.7876  140.0887  157.5062 H   0  0  0  0  0  0  0  0  0  0  0  0
  150.0204  142.0680  158.8923 H   0  0  0  0  0  0  0  0  0  0  0  0
  149.4585  144.2690  158.0578 H   0  0  0  0  0  0  0  0  0  0  0  0
  151.1323  144.8213  158.1832 H   0  0  0  0  0  0  0  0  0  0  0  0
  150.1894  144.4809  159.6312 H   0  0  0  0  0  0  0  0  0  0  0  0
  153.5868  141.8004  158.4775 H   0  0  0  0  0  0  0  0  0  0  0  0
  154.7870  141.7517  160.9264 H   0  0  0  0  0  0  0  0  0  0  0  0
  152.7758  142.6209  162.6234 H   0  0  0  0  0  0  0  0  0  0  0  0
  1  2  1  0  0  0  0
  1 16  1  0  0  0  0
  1 17  1  0  0  0  0
  1 18  1  0  0  0  0
  2  3  1  0  0  0  0
  2 19  1  0  0  0  0
  2 20  1  0  0  0  0
  3  4  1  0  0  0  0
  3  5  1  0  0  0  0
  3 21  1  0  0  0  0
  4 22  1  0  0  0  0
  5  6  1  0  0  0  0
  5 23  1  0  0  0  0
  5 24  1  0  0  0  0
  6  7  1  0  0  0  0
  6 25  1  0  0  0  0
  7  8  1  0  0  0  0
  7  9  1  0  0  0  0
  7 26  1  0  0  0  0
  8 27  1  0  0  0  0
  8 28  1  0  0  0  0
  8 29  1  0  0  0  0
  9 10  1  0  0  0  0
  9 11  1  0  0  0  0
  9 30  1  0  0  0  0
 10 31  1  0  0  0  0
 10 32  1  0  0  0  0
 10 33  1  0  0  0  0
 11 15  1  0  0  0  0
 11 12  1  0  0  0  0
 12 13  2  0  0  0  0
 12 34  1  0  0  0  0
 13 14  1  0  0  0  0
 13 35  1  0  0  0  0
 14 15  2  0  0  0  0
 14 36  1  0  0  0  0
M  END
> <s_m_source_file>
AV-unprocessed.smi

> <i_m_source_file_index>
3112

> <i_lp_mmshare_version>
43012

> <i_f3d_flags>
0

> <s_epik_input>
W0NIM11bQ0gyXVtDQEhdKFtPSF0pW0NIMl1bTkhdW0NASF0oW0NIM10pW0NASF0oW0NIM10pbjFbY0hdW2NIXVtjSF1uMQ==

> <s_epik_cmdline>
J2VwaWtfcHl0aG9uJywgJy1waCcsICc3LjAnLCAnLXRuJywgJzgnLCAnLW1hJywgJzIwMCcsICctbWV0YWxfYmluZGluZycsICctaW1hZScsICc8aW5maWxlLm1hZT4nLCAnLW9tYWUnLCAnPG91dGZpbGUubWFlPic=

> <r_lp_tautomer_probability>
1

> <r_epik_Ionization_Penalty>
2.16876

> <r_epik_Ionization_Penalty_Charging>
0

> <r_epik_Ionization_Penalty_Neutral>
2.16876

> <r_epik_State_Penalty>
2.30854

> <r_epik_Charging_Adjusted_Penalty>
2.30854

> <i_epik_Tot_Q>
0

> <i_epik_Tot_abs_Q>
0

> <r_epik_Metal_State_Penalty>
2.3073

> <b_epik_Metal_Only>
0

> <s_lp_Force_Field>
OPLS_2005

> <r_lp_Energy>
16.1769

> <b_lp_Chiralities_Consistent>
1

> <s_lp_Variant>
AV-unprocessed.smi:3112-9

> <Gold.Version>
5.8.1

> <Gold.Id.Protein>
6NUR|6NUR_protein|mol2

> <Gold.PLP.Fitness>
42.5144

> <Gold.PLP.PLP>
-35.3041

> <Gold.PLP.part.hbond>
-4.4540

> <Gold.PLP.part.metal>
0.0000

> <Gold.PLP.part.buried>
-4.9484

> <Gold.PLP.part.nonpolar>
-25.9569

> <Gold.PLP.part.repulsive>
0.0835

> <Gold.PLP.ligand.clash>
0.0000

> <Gold.PLP.ligand.torsion>
0.4763

> <Gold.PLP.Chemscore.Hbond>
2.6712

> <Gold.PLP.Chemscore.CHOScore>
0.0000

> <Gold.PLP.Chemscore.Metal>
0.0000

> <Gold.Chemscore.Hbonds>
donor molecule, donor type, donor heavy atom, donor atom, acceptor molecule, acceptor atom, score
      L1  H     4    22       P1  7957  1.00
      L1  H     6    25       P1  8028  0.96
      P1  H  6933  6945       L1    15  0.12
      P1  H  7989  7998       L1     4  0.46

> <Gold.PLP.Chemscore.Internal.Correction>
0.1493

> <Gold.Rescore>
     Score         DG    S(hbond)    S(metal)    S(lipo)     H(rot)  DE(clash)    DE(int)     intcor
     16.90     -17.66       2.28        0.00      89.64       2.31       0.24       0.53       ----

> <Gold.Chemscore.Fitness>
16.9015

> <Gold.Chemscore.DG>
-17.6640

> <Gold.Chemscore.ZeroCoef>
-5.4800

> <Gold.Chemscore.Hbond>
2.2789

> <Gold.Chemscore.Metal>
0.0000

> <Gold.Chemscore.Lipo>
89.6414

> <Gold.Chemscore.Internal_Hbond>
0.0000

> <Gold.Chemscore.DEClash>
0.2353

> <Gold.Chemscore.DEInternal>
0.5272

> <Gold.Chemscore.Rot>
2.3108

> <Gold.Chemscore.Internal.Correction>
   9.000000E+99

> <Gold.Chemscore.Hbonds>
donor molecule, donor type, donor heavy atom, donor atom, acceptor molecule, acceptor atom, score
      L1  H     4    22       P1  7957  0.97
      L1  H     6    25       P1  8028  0.92
      P1  H  6933  6945       L1    15  0.05
      P1  H  7989  7998       L1     4  0.14

> <Gold.Chemscore.Hbond.Weighted>
-7.6116

> <Gold.Chemscore.Metal.Weighted>
-0.0000

> <Gold.Chemscore.Lipo.Weighted>
-10.4880

> <Gold.Chemscore.Internal_Hbond.Weighted>
0.0000

> <Gold.Chemscore.DEClash.Weighted>
0.2353

> <Gold.Chemscore.DEInternal.Weighted>
0.5272

> <Gold.Chemscore.Rot.Weighted>
5.9157

> <Gold.Chemscore.Internal.Correction.Weighted>
   9.000000E+99

> <Gold.Protein.RotatedTorsions>
[ 6907 6896 6895 6894 ] final -171.36 input  -60.11 | X-H torsion
[ 7974 7965 7964 7962 ] final -128.45 input  175.53 | X-H torsion
[ 8008 7997 7996 7995 ] final -110.25 input   59.86 | X-H torsion
[ 10167 10162 10161 10158 ] final -152.21 input  -65.29 | X-H torsion
[ 10718 10713 10712 10709 ] final  141.57 input   66.30 | X-H torsion
[ 10763 10752 10751 10750 ] final -100.85 input  -60.55 | X-H torsion
[ 11005 11000 10999 10996 ] final  -58.61 input  -57.11 | X-H torsion

> <Gold.Protein.ActiveResidues>
 VAL166  LYS551  ARG553  GLY616  TRP617  ASP618  TYR619  PRO620  LYS621  CYS622 
 ASP623  PHE694  ASN695  SER759  ASP760  ASP761  ALA762  ILE779  LEU786  VAL792 
 PHE793  MET794  SER795  GLU796  ALA797  LYS798  CYS799  TRP800  GLU811  SER814 

> <Gold.Protein.RotatedAtoms>
  151.5225  133.3464  159.2903 H   0  0  0  0  0  0  0  0  0  0  0  0  # atno 6907 bound_to 6896
  150.8643  134.8005  159.7118 H   0  0  0  0  0  0  0  0  0  0  0  0  # atno 6908 bound_to 6896
  152.4653  134.5100  159.9802 H   0  0  0  0  0  0  0  0  0  0  0  0  # atno 6909 bound_to 6896
  144.9670  140.7506  143.4694 H   0  0  0  0  0  0  0  0  0  0  0  0  # atno 7974 bound_to 7965
  154.9717  140.0397  157.2237 H   0  0  0  0  0  0  0  0  0  0  0  0  # atno 8008 bound_to 7997
  154.7795  140.2816  155.6052 H   0  0  0  0  0  0  0  0  0  0  0  0  # atno 8009 bound_to 7997
  156.2934  140.2594  156.2617 H   0  0  0  0  0  0  0  0  0  0  0  0  # atno 8010 bound_to 7997
  139.7200  143.8971  152.2500 H   0  0  0  0  0  0  0  0  0  0  0  0  # atno 10167 bound_to 10162
  157.3905  131.1004  151.0651 H   0  0  0  0  0  0  0  0  0  0  0  0  # atno 10718 bound_to 10713
  154.7611  135.4920  153.9467 H   0  0  0  0  0  0  0  0  0  0  0  0  # atno 10763 bound_to 10752
  153.1253  135.6741  153.9275 H   0  0  0  0  0  0  0  0  0  0  0  0  # atno 10764 bound_to 10752
  153.8995  135.3111  155.3427 H   0  0  0  0  0  0  0  0  0  0  0  0  # atno 10765 bound_to 10752
  141.1214  133.6613  156.4947 H   0  0  0  0  0  0  0  0  0  0  0  0  # atno 11005 bound_to 11000
  145.2615  139.1990  143.4889 LP  0  0  0  0  0  0  0  0  0  0  0  0  # atno 17320 bound_to 7965
  146.3370  140.2546  142.8600 LP  0  0  0  0  0  0  0  0  0  0  0  0  # atno 17321 bound_to 7965
  139.8865  144.6989  150.8819 LP  0  0  0  0  0  0  0  0  0  0  0  0  # atno 17342 bound_to 10162
  140.7752  143.3620  151.1810 LP  0  0  0  0  0  0  0  0  0  0  0  0  # atno 17343 bound_to 10162
  157.1686  130.6257  149.5633 LP  0  0  0  0  0  0  0  0  0  0  0  0  # atno 17370 bound_to 10713
  155.9797  130.4792  150.6731 LP  0  0  0  0  0  0  0  0  0  0  0  0  # atno 17371 bound_to 10713
  140.4495  134.6942  157.5032 LP  0  0  0  0  0  0  0  0  0  0  0  0  # atno 17394 bound_to 11000
  140.0175  134.6597  155.9288 LP  0  0  0  0  0  0  0  0  0  0  0  0  # atno 17395 bound_to 11000

$$$$
