AV-unprocessed.smi:287|AV-procd|sdf|2200|dock5
  -GOLD-   2262022 13D 1   1.00000     0.00000
 Structure written by MMmdl.
 55 58  0  0  0  0  0  0  0  0  1 V2000
  153.6148  141.0501  161.6395 C   0  0  0  0  0  0  0  0  0  0  0  0
  152.8920  141.9344  160.6823 C   0  0  0  0  0  0  0  0  0  0  0  0
  152.3056  141.7312  159.4671 C   0  0  0  0  0  0  0  0  0  0  0  0
  151.7547  142.9787  159.0460 C   0  0  0  0  0  0  0  0  0  0  0  0
  151.0040  143.2446  157.7480 C   0  0  2  0  0  0  0  0  0  0  0  0
  151.6789  144.3974  156.9872 C   0  0  0  0  0  0  0  0  0  0  0  0
  149.6715  143.6657  157.9682 O   0  0  0  0  0  0  0  0  0  0  0  0
  150.9040  141.9950  156.8422 C   0  0  0  0  0  0  0  0  0  0  0  0
  149.6441  141.9234  156.1092 N   0  0  0  0  0  0  0  0  0  0  0  0
  149.2949  140.7900  155.4665 C   0  0  0  0  0  0  0  0  0  0  0  0
  150.2191  140.0462  154.8044 N   0  0  0  0  0  0  0  0  0  0  0  0
  149.8460  138.9312  154.1694 C   0  0  0  0  0  0  0  0  0  0  0  0
  148.6286  138.3929  154.0750 N   0  0  0  0  0  0  0  0  0  0  0  0
  147.6973  139.1339  154.7430 C   0  0  0  0  0  0  0  0  0  0  0  0
  147.9505  140.3375  155.4579 C   0  0  0  0  0  0  0  0  0  0  0  0
  146.7694  140.8167  156.0087 N   0  0  0  0  0  0  0  0  0  0  0  0
  145.8717  139.9444  155.6363 C   0  0  0  0  0  0  0  0  0  0  0  0
  146.3432  138.8995  154.8729 N   0  0  0  0  0  0  0  0  0  0  0  0
  145.5588  137.7625  154.3052 C   0  0  1  0  0  0  0  0  0  0  0  0
  145.8216  136.6291  155.0683 O   0  0  0  0  0  0  0  0  0  0  0  0
  144.6497  135.8294  155.1234 C   0  0  1  0  0  0  0  0  0  0  0  0
  144.7207  134.8271  156.2889 C   0  0  0  0  0  0  0  0  0  0  0  0
  143.4843  134.1607  156.4300 O   0  0  0  0  0  0  0  0  0  0  0  0
  143.5188  136.8674  155.2028 C   0  0  1  0  0  0  0  0  0  0  0  0
  143.2734  137.2743  156.5361 O   0  0  0  0  0  0  0  0  0  0  0  0
  144.0460  138.0376  154.3739 C   0  0  2  0  0  0  0  0  0  0  0  0
  143.4659  137.9984  153.0850 O   0  0  0  0  0  0  0  0  0  0  0  0
  152.0786  143.8604  160.0487 C   0  0  0  0  0  0  0  0  0  0  0  0
  151.8471  145.3208  160.2573 C   0  0  0  0  0  0  0  0  0  0  0  0
  152.7612  143.2342  161.0475 O   0  0  0  0  0  0  0  0  0  0  0  0
  145.9376  137.6355  153.2898 H   0  0  0  0  0  0  0  0  0  0  0  0
  144.5537  135.2965  154.1751 H   0  0  0  0  0  0  0  0  0  0  0  0
  142.5843  136.4631  154.8109 H   0  0  0  0  0  0  0  0  0  0  0  0
  143.8363  139.0051  154.8340 H   0  0  0  0  0  0  0  0  0  0  0  0
  153.6681  140.0289  161.2618 H   0  0  0  0  0  0  0  0  0  0  0  0
  153.1067  141.0275  162.6036 H   0  0  0  0  0  0  0  0  0  0  0  0
  154.6329  141.4047  161.8007 H   0  0  0  0  0  0  0  0  0  0  0  0
  152.2671  140.7889  158.9409 H   0  0  0  0  0  0  0  0  0  0  0  0
  152.7131  144.1545  156.7406 H   0  0  0  0  0  0  0  0  0  0  0  0
  151.6899  145.3121  157.5819 H   0  0  0  0  0  0  0  0  0  0  0  0
  151.1623  144.6173  156.0521 H   0  0  0  0  0  0  0  0  0  0  0  0
  149.3856  144.1608  157.2159 H   0  0  0  0  0  0  0  0  0  0  0  0
  151.7504  141.9482  156.1551 H   0  0  0  0  0  0  0  0  0  0  0  0
  150.9601  141.1015  157.4660 H   0  0  0  0  0  0  0  0  0  0  0  0
  149.0527  142.7409  156.1619 H   0  0  0  0  0  0  0  0  0  0  0  0
  150.6346  138.3937  153.6644 H   0  0  0  0  0  0  0  0  0  0  0  0
  144.8316  140.0399  155.9121 H   0  0  0  0  0  0  0  0  0  0  0  0
  145.5252  134.1052  156.1436 H   0  0  0  0  0  0  0  0  0  0  0  0
  144.9152  135.3506  157.2251 H   0  0  0  0  0  0  0  0  0  0  0  0
  142.8089  134.8068  156.5700 H   0  0  0  0  0  0  0  0  0  0  0  0
  143.5324  136.5764  157.1178 H   0  0  0  0  0  0  0  0  0  0  0  0
  143.4212  138.8806  152.7489 H   0  0  0  0  0  0  0  0  0  0  0  0
  152.1791  145.8921  159.3903 H   0  0  0  0  0  0  0  0  0  0  0  0
  152.3916  145.6872  161.1278 H   0  0  0  0  0  0  0  0  0  0  0  0
  150.7880  145.5254  160.4127 H   0  0  0  0  0  0  0  0  0  0  0  0
  1  2  1  0  0  0  0
  1 35  1  0  0  0  0
  1 36  1  0  0  0  0
  1 37  1  0  0  0  0
  2 30  1  0  0  0  0
  2  3  2  0  0  0  0
  3  4  1  0  0  0  0
  3 38  1  0  0  0  0
  4  5  1  0  0  0  0
  4 28  2  0  0  0  0
  5  6  1  0  0  0  0
  5  7  1  0  0  0  0
  5  8  1  0  0  0  0
  6 39  1  0  0  0  0
  6 40  1  0  0  0  0
  6 41  1  0  0  0  0
  7 42  1  0  0  0  0
  8  9  1  0  0  0  0
  8 43  1  0  0  0  0
  8 44  1  0  0  0  0
  9 10  1  0  0  0  0
  9 45  1  0  0  0  0
 10 15  1  0  0  0  0
 10 11  2  0  0  0  0
 11 12  1  0  0  0  0
 12 13  2  0  0  0  0
 12 46  1  0  0  0  0
 13 14  1  0  0  0  0
 14 18  1  0  0  0  0
 14 15  2  0  0  0  0
 15 16  1  0  0  0  0
 16 17  2  0  0  0  0
 17 18  1  0  0  0  0
 17 47  1  0  0  0  0
 18 19  1  0  0  0  0
 19 31  1  0  0  0  0
 19 26  1  0  0  0  0
 19 20  1  0  0  0  0
 20 21  1  0  0  0  0
 21 32  1  0  0  0  0
 21 22  1  0  0  0  0
 21 24  1  0  0  0  0
 22 23  1  0  0  0  0
 22 48  1  0  0  0  0
 22 49  1  0  0  0  0
 23 50  1  0  0  0  0
 24 33  1  0  0  0  0
 24 25  1  0  0  0  0
 24 26  1  0  0  0  0
 25 51  1  0  0  0  0
 26 34  1  0  0  0  0
 26 27  1  0  0  0  0
 27 52  1  0  0  0  0
 28 29  1  0  0  0  0
 28 30  1  0  0  0  0
 29 53  1  0  0  0  0
 29 54  1  0  0  0  0
 29 55  1  0  0  0  0
M  END
> <s_m_source_file>
AV-unprocessed.smi

> <i_m_source_file_index>
287

> <i_lp_mmshare_version>
43012

> <i_f3d_flags>
0

> <s_epik_input>
W0NIM11jMVtjSF1jKGMobzEpW0NIM10pW0NAQF0oW0NIM10pKFtPSF0pW0NIMl1bTkhdYyhuW2NIXW4yKWMoYzIzKW5bY0hdbjNbQ0BASF00T1tDQEhdKFtDSDJdW09IXSlbQ0BASF0oW09IXSlbQ0BIXTRbT0hd

> <s_epik_cmdline>
J2VwaWtfcHl0aG9uJywgJy1waCcsICc3LjAnLCAnLXRuJywgJzgnLCAnLW1hJywgJzIwMCcsICctbWV0YWxfYmluZGluZycsICctaW1hZScsICc8aW5maWxlLm1hZT4nLCAnLW9tYWUnLCAnPG91dGZpbGUubWFlPic=

> <r_lp_tautomer_probability>
1

> <r_epik_Ionization_Penalty>
0.000992612

> <r_epik_Ionization_Penalty_Charging>
0

> <r_epik_Ionization_Penalty_Neutral>
0.000992612

> <r_epik_State_Penalty>
-0

> <r_epik_Charging_Adjusted_Penalty>
0

> <i_epik_Tot_Q>
0

> <i_epik_Tot_abs_Q>
0

> <r_epik_Metal_State_Penalty>
-0

> <b_epik_Metal_Only>
0

> <s_epik_Chemistry_Notes>
This compound contains an acetal/aminal-like group ( X-CH(R)-Y where X, Y are N, S, or O) that may be acid/base labile, releasing an aldehyde.

> <s_lp_Force_Field>
OPLS_2005

> <r_lp_Energy>
38.4634

> <b_lp_Chiralities_Consistent>
1

> <s_lp_Variant>
AV-unprocessed.smi:287-24

> <Gold.Version>
5.8.1

> <Gold.Id.Protein>
6NUR|6NUR_protein|mol2

> <Gold.PLP.Fitness>
49.3342

> <Gold.PLP.PLP>
-40.4768

> <Gold.PLP.part.hbond>
-6.4456

> <Gold.PLP.part.metal>
0.0000

> <Gold.PLP.part.buried>
-4.3367

> <Gold.PLP.part.nonpolar>
-31.2614

> <Gold.PLP.part.repulsive>
0.8495

> <Gold.PLP.ligand.clash>
0.0000

> <Gold.PLP.ligand.torsion>
1.4988

> <Gold.PLP.Chemscore.Hbond>
3.8805

> <Gold.PLP.Chemscore.CHOScore>
0.0000

> <Gold.PLP.Chemscore.Metal>
0.0000

> <Gold.Chemscore.Hbonds>
donor molecule, donor type, donor heavy atom, donor atom, acceptor molecule, acceptor atom, score
      L1  H     7    42       P1  8028  0.95
      L1  H     9    45       P1  8028  0.86
      L1  H    27    52       P1 10175  1.00
      P1  H  7989  7998       L1    11  0.84

> <Gold.PLP.Chemscore.Internal.Correction>
0.2136

> <Gold.Rescore>
     Score         DG    S(hbond)    S(metal)    S(lipo)     H(rot)  DE(clash)    DE(int)     intcor
     11.72     -15.14       3.27        0.00     104.62       5.27       1.83       1.59       ----

> <Gold.Chemscore.Fitness>
11.7210

> <Gold.Chemscore.DG>
-15.1418

> <Gold.Chemscore.ZeroCoef>
-5.4800

> <Gold.Chemscore.Hbond>
3.2651

> <Gold.Chemscore.Metal>
0.0000

> <Gold.Chemscore.Lipo>
104.6173

> <Gold.Chemscore.Internal_Hbond>
0.0000

> <Gold.Chemscore.DEClash>
1.8271

> <Gold.Chemscore.DEInternal>
1.5936

> <Gold.Chemscore.Rot>
5.2672

> <Gold.Chemscore.Internal.Correction>
   9.000000E+99

> <Gold.Chemscore.Hbonds>
donor molecule, donor type, donor heavy atom, donor atom, acceptor molecule, acceptor atom, score
      L1  H     7    42       P1  8028  0.22
      L1  H     9    45       P1  8028  0.80
      L1  H    27    52       P1 10175  0.98
      P1  H  7989  7998       L1    11  0.33

> <Gold.Chemscore.Hbond.Weighted>
-10.9055

> <Gold.Chemscore.Metal.Weighted>
-0.0000

> <Gold.Chemscore.Lipo.Weighted>
-12.2402

> <Gold.Chemscore.Internal_Hbond.Weighted>
0.0000

> <Gold.Chemscore.DEClash.Weighted>
1.8271

> <Gold.Chemscore.DEInternal.Weighted>
1.5936

> <Gold.Chemscore.Rot.Weighted>
13.4839

> <Gold.Chemscore.Internal.Correction.Weighted>
   9.000000E+99

> <Gold.Protein.RotatedTorsions>
[ 6907 6896 6895 6894 ] final  -50.76 input  -60.11 | X-H torsion
[ 7974 7965 7964 7962 ] final    8.88 input  175.53 | X-H torsion
[ 8008 7997 7996 7995 ] final   -0.70 input   59.86 | X-H torsion
[ 10167 10162 10161 10158 ] final  -20.87 input  -65.29 | X-H torsion
[ 10718 10713 10712 10709 ] final  138.74 input   66.30 | X-H torsion
[ 10763 10752 10751 10750 ] final    3.34 input  -60.55 | X-H torsion
[ 11005 11000 10999 10996 ] final  -19.71 input  -57.11 | X-H torsion

> <Gold.Protein.ActiveResidues>
 VAL166  LYS551  ARG553  GLY616  TRP617  ASP618  TYR619  PRO620  LYS621  CYS622 
 ASP623  PHE694  ASN695  SER759  ASP760  ASP761  ALA762  ILE779  LEU786  VAL792 
 PHE793  MET794  SER795  GLU796  ALA797  LYS798  CYS799  TRP800  GLU811  SER814 

> <Gold.Protein.RotatedAtoms>
  150.8676  134.8043  159.7130 H   0  0  0  0  0  0  0  0  0  0  0  0  # atno 6907 bound_to 6896
  152.4692  134.4998  159.9731 H   0  0  0  0  0  0  0  0  0  0  0  0  # atno 6908 bound_to 6896
  151.5092  133.3450  159.2917 H   0  0  0  0  0  0  0  0  0  0  0  0  # atno 6909 bound_to 6896
  146.2411  139.9867  142.8430 H   0  0  0  0  0  0  0  0  0  0  0  0  # atno 7974 bound_to 7965
  154.6551  140.2578  155.7170 H   0  0  0  0  0  0  0  0  0  0  0  0  # atno 8008 bound_to 7997
  156.2593  140.2860  156.0922 H   0  0  0  0  0  0  0  0  0  0  0  0  # atno 8009 bound_to 7997
  155.1392  140.0380  157.2784 H   0  0  0  0  0  0  0  0  0  0  0  0  # atno 8010 bound_to 7997
  140.7279  143.4682  151.0284 H   0  0  0  0  0  0  0  0  0  0  0  0  # atno 10167 bound_to 10162
  157.4220  131.1039  151.0343 H   0  0  0  0  0  0  0  0  0  0  0  0  # atno 10718 bound_to 10713
  153.2845  135.6943  153.7352 H   0  0  0  0  0  0  0  0  0  0  0  0  # atno 10763 bound_to 10752
  153.6327  135.3407  155.3047 H   0  0  0  0  0  0  0  0  0  0  0  0  # atno 10764 bound_to 10752
  154.8505  135.4413  154.1909 H   0  0  0  0  0  0  0  0  0  0  0  0  # atno 10765 bound_to 10752
  140.8393  133.7938  155.9843 H   0  0  0  0  0  0  0  0  0  0  0  0  # atno 11005 bound_to 11000
  145.1541  140.9638  143.4415 LP  0  0  0  0  0  0  0  0  0  0  0  0  # atno 17320 bound_to 7965
  145.0177  139.3452  143.6088 LP  0  0  0  0  0  0  0  0  0  0  0  0  # atno 17321 bound_to 7965
  139.8372  143.7612  152.3180 LP  0  0  0  0  0  0  0  0  0  0  0  0  # atno 17342 bound_to 10162
  139.7748  144.7464  151.0172 LP  0  0  0  0  0  0  0  0  0  0  0  0  # atno 17343 bound_to 10162
  157.1270  130.6086  149.5519 LP  0  0  0  0  0  0  0  0  0  0  0  0  # atno 17370 bound_to 10713
  155.9884  130.4927  150.7167 LP  0  0  0  0  0  0  0  0  0  0  0  0  # atno 17371 bound_to 10713
  140.8913  134.2492  157.5093 LP  0  0  0  0  0  0  0  0  0  0  0  0  # atno 17394 bound_to 11000
  139.8703  134.9663  156.4556 LP  0  0  0  0  0  0  0  0  0  0  0  0  # atno 17395 bound_to 11000

$$$$
