AV-unprocessed.smi:1802|AV-procd|sdf|7274|dock7
  -GOLD-   22720 8533D 1   1.00000     0.00000
 Structure written by MMmdl.
 41 42  0  0  0  0  0  0  0  0  2 V2000
  147.1229  132.7341  154.7041 C   0  0  0  0  0  0  0  0  0  0  0  0
  147.1605  133.3906  153.3169 C   0  0  1  0  0  0  0  0  0  0  0  0
  146.7374  132.4027  152.2166 C   0  0  0  0  0  0  0  0  0  0  0  0
  146.7571  133.0919  150.8467 C   0  0  0  0  0  0  0  0  0  0  0  0
  145.8905  134.3611  150.8572 C   0  0  0  0  0  0  0  0  0  0  0  0
  146.3290  135.2975  151.9241 N   0  3  1  0  0  0  0  0  0  0  0  0
  145.6067  136.5935  151.8687 C   0  0  0  0  0  0  0  0  0  0  0  0
  145.9001  137.4783  153.0921 C   0  0  0  0  0  0  0  0  0  0  0  0
  146.3553  138.8919  152.6926 C   0  0  0  0  0  0  0  0  0  0  0  0
  147.8046  139.0356  152.7741 N   0  0  0  0  0  0  0  0  0  0  0  0
  148.5399  138.7606  153.8614 C   0  0  0  0  0  0  0  0  0  0  0  0
  148.0546  138.3694  154.9234 O   0  0  0  0  0  0  0  0  0  0  0  0
  149.8489  138.9670  153.6328 N   0  0  0  0  0  0  0  0  0  0  0  0
  150.9368  138.7842  154.5275 C   0  0  0  0  0  0  0  0  0  0  0  0
  151.8925  139.7039  154.7343 N   0  0  0  0  0  0  0  0  0  0  0  0
  152.8370  139.2736  155.6574 N   0  0  0  0  0  0  0  0  0  0  0  0
  152.5574  138.0479  156.1096 C   0  0  0  0  0  0  0  0  0  0  0  0
  151.1132  137.2988  155.4506 S   0  0  0  0  0  0  0  0  0  0  0  0
  146.2812  134.6564  153.2658 C   0  0  0  0  0  0  0  0  0  0  0  0
  146.1142  132.4111  154.9641 H   0  0  0  0  0  0  0  0  0  0  0  0
  147.4604  133.4267  155.4757 H   0  0  0  0  0  0  0  0  0  0  0  0
  147.7729  131.8596  154.7418 H   0  0  0  0  0  0  0  0  0  0  0  0
  148.1920  133.6896  153.1241 H   0  0  0  0  0  0  0  0  0  0  0  0
  147.4030  131.5390  152.2066 H   0  0  0  0  0  0  0  0  0  0  0  0
  145.7357  132.0220  152.4209 H   0  0  0  0  0  0  0  0  0  0  0  0
  147.7828  133.3502  150.5796 H   0  0  0  0  0  0  0  0  0  0  0  0
  146.4019  132.4038  150.0790 H   0  0  0  0  0  0  0  0  0  0  0  0
  145.9627  134.8481  149.8838 H   0  0  0  0  0  0  0  0  0  0  0  0
  144.8412  134.1014  151.0065 H   0  0  0  0  0  0  0  0  0  0  0  0
  145.9231  137.1405  150.9794 H   0  0  0  0  0  0  0  0  0  0  0  0
  144.5349  136.4217  151.7579 H   0  0  0  0  0  0  0  0  0  0  0  0
  145.0177  137.5583  153.7268 H   0  0  0  0  0  0  0  0  0  0  0  0
  146.6731  137.0020  153.6970 H   0  0  0  0  0  0  0  0  0  0  0  0
  146.0162  139.1333  151.6837 H   0  0  0  0  0  0  0  0  0  0  0  0
  145.9026  139.6295  153.3555 H   0  0  0  0  0  0  0  0  0  0  0  0
  148.2806  139.3525  151.9419 H   0  0  0  0  0  0  0  0  0  0  0  0
  150.0987  139.2859  152.7083 H   0  0  0  0  0  0  0  0  0  0  0  0
  153.2066  137.5822  156.8362 H   0  0  0  0  0  0  0  0  0  0  0  0
  145.2472  134.4080  153.5124 H   0  0  0  0  0  0  0  0  0  0  0  0
  146.6248  135.3569  154.0263 H   0  0  0  0  0  0  0  0  0  0  0  0
  147.2986  135.5047  151.7305 H   0  0  0  0  0  0  0  0  0  0  0  0
  1  2  1  0  0  0  0
  1 20  1  0  0  0  0
  1 21  1  0  0  0  0
  1 22  1  0  0  0  0
  2 19  1  0  0  0  0
  2  3  1  0  0  0  0
  2 23  1  0  0  0  0
  3  4  1  0  0  0  0
  3 24  1  0  0  0  0
  3 25  1  0  0  0  0
  4  5  1  0  0  0  0
  4 26  1  0  0  0  0
  4 27  1  0  0  0  0
  5  6  1  0  0  0  0
  5 28  1  0  0  0  0
  5 29  1  0  0  0  0
  6  7  1  0  0  0  0
  6 19  1  0  0  0  0
  6 41  1  0  0  0  0
  7  8  1  0  0  0  0
  7 30  1  0  0  0  0
  7 31  1  0  0  0  0
  8  9  1  0  0  0  0
  8 32  1  0  0  0  0
  8 33  1  0  0  0  0
  9 10  1  0  0  0  0
  9 34  1  0  0  0  0
  9 35  1  0  0  0  0
 10 11  1  0  0  0  0
 10 36  1  0  0  0  0
 11 12  2  0  0  0  0
 11 13  1  0  0  0  0
 13 14  1  0  0  0  0
 13 37  1  0  0  0  0
 14 18  1  0  0  0  0
 14 15  2  0  0  0  0
 15 16  1  0  0  0  0
 16 17  2  0  0  0  0
 17 18  1  0  0  0  0
 17 38  1  0  0  0  0
 19 39  1  0  0  0  0
 19 40  1  0  0  0  0
M  CHG  1   6   1
M  END
> <s_m_source_file>
AV-unprocessed.smi

> <i_m_source_file_index>
1802

> <i_lp_mmshare_version>
43012

> <i_f3d_flags>
0

> <s_epik_input>
W0NIM11bQ0BASF0xW0NIMl1bQ0gyXVtDSDJdTihbQ0gyXTEpW0NIMl1bQ0gyXVtDSDJdW05IXUMoPU8pW05IXWMybm5bY0hdczI=

> <s_epik_cmdline>
J2VwaWtfcHl0aG9uJywgJy1waCcsICc3LjAnLCAnLXRuJywgJzgnLCAnLW1hJywgJzIwMCcsICctbWV0YWxfYmluZGluZycsICctaW1hZScsICc8aW5maWxlLm1hZT4nLCAnLW9tYWUnLCAnPG91dGZpbGUubWFlPic=

> <r_lp_tautomer_probability>
1

> <r_epik_Ionization_Penalty>
0.00272894

> <r_epik_Ionization_Penalty_Charging>
0.000288442

> <r_epik_Ionization_Penalty_Neutral>
0.0024405

> <r_epik_State_Penalty>
-0

> <r_epik_Charging_Adjusted_Penalty>
0.000288442

> <i_epik_Tot_Q>
1

> <i_epik_Tot_abs_Q>
1

> <r_epik_Metal_State_Penalty>
0.350525

> <b_epik_Metal_Only>
0

> <s_lp_Force_Field>
OPLS_2005

> <r_lp_Energy>
15.2014

> <b_lp_Chiralities_Consistent>
1

> <s_lp_Variant>
AV-unprocessed.smi:1802-4

> <Gold.Version>
5.8.1

> <Gold.Id.Protein>
6NUR|6NUR_protein|mol2

> <Gold.PLP.Fitness>
44.9801

> <Gold.PLP.PLP>
-29.3969

> <Gold.PLP.part.hbond>
-5.8012

> <Gold.PLP.part.metal>
0.0000

> <Gold.PLP.part.buried>
-2.6962

> <Gold.PLP.part.nonpolar>
-21.3502

> <Gold.PLP.part.repulsive>
0.3642

> <Gold.PLP.ligand.clash>
0.0000

> <Gold.PLP.ligand.torsion>
1.1680

> <Gold.PLP.Chemscore.Hbond>
5.9600

> <Gold.PLP.Chemscore.CHOScore>
0.0000

> <Gold.PLP.Chemscore.Metal>
0.0000

> <Gold.Chemscore.Hbonds>
donor molecule, donor type, donor heavy atom, donor atom, acceptor molecule, acceptor atom, score
      L1  H     6    41       P1  7948  2.00
      L1  H    10    36       P1  7957  1.00
      L1  H    13    37       P1  7957  1.00
      P1  H  7989  7998       L1    15  0.96
      P1  H  7997  8008       L1    16  1.00

> <Gold.PLP.Chemscore.Internal.Correction>
0.0390

> <Gold.Rescore>
     Score         DG    S(hbond)    S(metal)    S(lipo)     H(rot)  DE(clash)    DE(int)     intcor
     19.44     -21.66       4.44        0.00      55.01       1.98       0.07       2.14       ----

> <Gold.Chemscore.Fitness>
19.4446

> <Gold.Chemscore.DG>
-21.6635

> <Gold.Chemscore.ZeroCoef>
-5.4800

> <Gold.Chemscore.Hbond>
4.4355

> <Gold.Chemscore.Metal>
0.0000

> <Gold.Chemscore.Lipo>
55.0066

> <Gold.Chemscore.Internal_Hbond>
0.0000

> <Gold.Chemscore.DEClash>
0.0739

> <Gold.Chemscore.DEInternal>
2.1450

> <Gold.Chemscore.Rot>
1.9793

> <Gold.Chemscore.Internal.Correction>
   9.000000E+99

> <Gold.Chemscore.Hbonds>
donor molecule, donor type, donor heavy atom, donor atom, acceptor molecule, acceptor atom, score
      L1  H     6    41       P1  7948  0.99
      L1  H    10    36       P1  7957  0.97
      L1  H    13    37       P1  7957  0.81
      P1  H  7989  7998       L1    15  0.46
      P1  H  7997  8008       L1    16  0.98

> <Gold.Chemscore.Hbond.Weighted>
-14.8146

> <Gold.Chemscore.Metal.Weighted>
-0.0000

> <Gold.Chemscore.Lipo.Weighted>
-6.4358

> <Gold.Chemscore.Internal_Hbond.Weighted>
0.0000

> <Gold.Chemscore.DEClash.Weighted>
0.0739

> <Gold.Chemscore.DEInternal.Weighted>
2.1450

> <Gold.Chemscore.Rot.Weighted>
5.0670

> <Gold.Chemscore.Internal.Correction.Weighted>
   9.000000E+99

> <Gold.Protein.RotatedTorsions>
[ 6907 6896 6895 6894 ] final   33.76 input  -60.11 | X-H torsion
[ 7974 7965 7964 7962 ] final  123.42 input  175.53 | X-H torsion
[ 8008 7997 7996 7995 ] final  -36.68 input   59.86 | X-H torsion
[ 10167 10162 10161 10158 ] final  -35.13 input  -65.29 | X-H torsion
[ 10718 10713 10712 10709 ] final    6.42 input   66.30 | X-H torsion
[ 10763 10752 10751 10750 ] final -171.54 input  -60.55 | X-H torsion
[ 11005 11000 10999 10996 ] final   68.89 input  -57.11 | X-H torsion

> <Gold.Protein.ActiveResidues>
 VAL166  LYS551  ARG553  GLY616  TRP617  ASP618  TYR619  PRO620  LYS621  CYS622 
 ASP623  PHE694  ASN695  SER759  ASP760  ASP761  ALA762  ILE779  LEU786  VAL792 
 PHE793  MET794  SER795  GLU796  ALA797  LYS798  CYS799  TRP800  GLU811  SER814 

> <Gold.Protein.RotatedAtoms>
  152.0929  134.9395  160.0571 H   0  0  0  0  0  0  0  0  0  0  0  0  # atno 6907 bound_to 6896
  152.0639  133.4070  159.4438 H   0  0  0  0  0  0  0  0  0  0  0  0  # atno 6908 bound_to 6896
  150.6837  134.3089  159.4781 H   0  0  0  0  0  0  0  0  0  0  0  0  # atno 6909 bound_to 6896
  145.0962  139.3551  143.4835 H   0  0  0  0  0  0  0  0  0  0  0  0  # atno 7974 bound_to 7965
  154.4068  140.1624  156.2414 H   0  0  0  0  0  0  0  0  0  0  0  0  # atno 8008 bound_to 7997
  155.9198  140.3422  155.6141 H   0  0  0  0  0  0  0  0  0  0  0  0  # atno 8009 bound_to 7997
  155.7236  140.0771  157.2310 H   0  0  0  0  0  0  0  0  0  0  0  0  # atno 8010 bound_to 7997
  140.7171  143.3499  151.2178 H   0  0  0  0  0  0  0  0  0  0  0  0  # atno 10167 bound_to 10162
  156.9219  130.5794  149.5648 H   0  0  0  0  0  0  0  0  0  0  0  0  # atno 10718 bound_to 10713
  154.6294  135.2884  155.0234 H   0  0  0  0  0  0  0  0  0  0  0  0  # atno 10763 bound_to 10752
  154.1400  135.6520  153.4944 H   0  0  0  0  0  0  0  0  0  0  0  0  # atno 10764 bound_to 10752
  153.0272  135.5331  154.7115 H   0  0  0  0  0  0  0  0  0  0  0  0  # atno 10765 bound_to 10752
  139.9685  134.6940  156.0495 H   0  0  0  0  0  0  0  0  0  0  0  0  # atno 11005 bound_to 11000
  146.3530  140.0818  142.8617 LP  0  0  0  0  0  0  0  0  0  0  0  0  # atno 17320 bound_to 7965
  145.1009  140.9345  143.4713 LP  0  0  0  0  0  0  0  0  0  0  0  0  # atno 17321 bound_to 7965
  139.7027  143.9507  152.2912 LP  0  0  0  0  0  0  0  0  0  0  0  0  # atno 17342 bound_to 10162
  139.9205  144.6802  150.8466 LP  0  0  0  0  0  0  0  0  0  0  0  0  # atno 17343 bound_to 10162
  156.0487  130.5559  150.8940 LP  0  0  0  0  0  0  0  0  0  0  0  0  # atno 17370 bound_to 10713
  157.5902  131.0944  150.9131 LP  0  0  0  0  0  0  0  0  0  0  0  0  # atno 17371 bound_to 10713
  141.1365  133.6574  156.3608 LP  0  0  0  0  0  0  0  0  0  0  0  0  # atno 17394 bound_to 11000
  140.5344  134.6181  157.5360 LP  0  0  0  0  0  0  0  0  0  0  0  0  # atno 17395 bound_to 11000

$$$$
