AV-unprocessed.smi:38|AV-procd|sdf|347|dock1
  -GOLD-   2262016183D 1   1.00000     0.00000
 Structure written by MMmdl.
 27 28  0  0  0  0  0  0  0  0  2 V2000
  152.5380  140.7937  159.3904 O   0  0  0  0  0  0  0  0  0  0  0  0
  151.9462  140.8472  158.3132 C   0  0  0  0  0  0  0  0  0  0  0  0
  152.2834  140.0670  157.2459 N   0  5  0  0  0  0  0  0  0  0  0  0
  151.6239  140.1261  156.0518 C   0  0  0  0  0  0  0  0  0  0  0  0
  151.9217  139.4254  155.0840 O   0  0  0  0  0  0  0  0  0  0  0  0
  150.5384  141.0335  155.9076 N   0  0  0  0  0  0  0  0  0  0  0  0
  149.8107  141.0934  154.5785 C   0  0  1  0  0  0  0  0  0  0  0  0
  149.1704  139.7326  154.2468 C   0  0  0  0  0  0  0  0  0  0  0  0
  147.7281  140.0890  153.9340 C   0  0  2  0  0  0  0  0  0  0  0  0
  147.5526  140.2949  152.5446 O   0  0  0  0  0  0  0  0  0  0  0  0
  147.5216  141.3757  154.7413 C   0  0  2  0  0  0  0  0  0  0  0  0
  146.3753  142.3012  154.2972 C   0  0  0  0  0  0  0  0  0  0  0  0
  145.1249  141.7079  154.5777 O   0  0  0  0  0  0  0  0  0  0  0  0
  148.7782  142.0359  154.6414 O   0  0  0  0  0  0  0  0  0  0  0  0
  150.1783  141.8421  156.9741 C   0  0  0  0  0  0  0  0  0  0  0  0
  150.8330  141.7802  158.1517 C   0  0  0  0  0  0  0  0  0  0  0  0
  150.4594  142.5774  159.1675 F   0  0  0  0  0  0  0  0  0  0  0  0
  150.5522  141.4258  153.8501 H   0  0  0  0  0  0  0  0  0  0  0  0
  147.0420  139.3030  154.2509 H   0  0  0  0  0  0  0  0  0  0  0  0
  147.3759  141.1064  155.7888 H   0  0  0  0  0  0  0  0  0  0  0  0
  149.6945  139.2409  153.4262 H   0  0  0  0  0  0  0  0  0  0  0  0
  149.2116  139.0824  155.1220 H   0  0  0  0  0  0  0  0  0  0  0  0
  148.3133  139.9596  152.0953 H   0  0  0  0  0  0  0  0  0  0  0  0
  146.4346  143.2473  154.8357 H   0  0  0  0  0  0  0  0  0  0  0  0
  146.4398  142.5380  153.2351 H   0  0  0  0  0  0  0  0  0  0  0  0
  144.7835  141.3357  153.7791 H   0  0  0  0  0  0  0  0  0  0  0  0
  149.3627  142.5425  156.8811 H   0  0  0  0  0  0  0  0  0  0  0  0
  1  2  2  0  0  0  0
  2 16  1  0  0  0  0
  2  3  1  0  0  0  0
  3  4  1  0  0  0  0
  4  5  2  0  0  0  0
  4  6  1  0  0  0  0
  6  7  1  0  0  0  0
  6 15  1  0  0  0  0
  7 18  1  0  0  0  0
  7 14  1  0  0  0  0
  7  8  1  0  0  0  0
  8  9  1  0  0  0  0
  8 21  1  0  0  0  0
  8 22  1  0  0  0  0
  9 19  1  0  0  0  0
  9 10  1  0  0  0  0
  9 11  1  0  0  0  0
 10 23  1  0  0  0  0
 11 20  1  0  0  0  0
 11 12  1  0  0  0  0
 11 14  1  0  0  0  0
 12 13  1  0  0  0  0
 12 24  1  0  0  0  0
 12 25  1  0  0  0  0
 13 26  1  0  0  0  0
 15 16  2  0  0  0  0
 15 27  1  0  0  0  0
 16 17  1  0  0  0  0
M  CHG  1   3  -1
M  END
> <s_m_source_file>
AV-unprocessed.smi

> <i_m_source_file_index>
38

> <i_lp_mmshare_version>
43012

> <i_f3d_flags>
0

> <s_epik_input>
Tz1jMVtuSF1jKD1PKW4oW2NIXWMxRilbQ0BIXTJbQ0gyXVtDQEhdKFtPSF0pW0NASF0oTzIpW0NIMl1bT0hd

> <s_epik_cmdline>
J2VwaWtfcHl0aG9uJywgJy1waCcsICc3LjAnLCAnLXRuJywgJzgnLCAnLW1hJywgJzIwMCcsICctbWV0YWxfYmluZGluZycsICctaW1hZScsICc8aW5maWxlLm1hZT4nLCAnLW9tYWUnLCAnPG91dGZpbGUubWFlPic=

> <r_epik_Ionization_Penalty>
1.68146

> <r_epik_Ionization_Penalty_Charging>
3.4211e-08

> <r_epik_Ionization_Penalty_Neutral>
1.68146

> <r_epik_State_Penalty>
1.78593

> <r_epik_Charging_Adjusted_Penalty>
1.78593

> <i_epik_Tot_Q>
-1

> <i_epik_Tot_abs_Q>
1

> <r_epik_Metal_State_Penalty>
0.0113696

> <b_epik_Metal_Only>
0

> <s_epik_Chemistry_Notes>
This compound contains an acetal/aminal-like group ( X-CH(R)-Y where X, Y are N, S, or O) that may be acid/base labile, releasing an aldehyde.

> <s_lp_Force_Field>
OPLS_2005

> <r_lp_Energy>
41.2479

> <b_lp_Chiralities_Consistent>
1

> <s_lp_Variant>
AV-unprocessed.smi:38-13

> <Gold.Version>
5.8.1

> <Gold.Id.Protein>
6NUR|6NUR_protein|mol2

> <Gold.PLP.Fitness>
46.3094

> <Gold.PLP.PLP>
-29.1969

> <Gold.PLP.part.hbond>
-5.0000

> <Gold.PLP.part.metal>
0.0000

> <Gold.PLP.part.buried>
-0.8292

> <Gold.PLP.part.nonpolar>
-23.3118

> <Gold.PLP.part.repulsive>
1.6750

> <Gold.PLP.ligand.clash>
0.0000

> <Gold.PLP.ligand.torsion>
0.0434

> <Gold.PLP.Chemscore.Hbond>
4.7320

> <Gold.PLP.Chemscore.CHOScore>
1.0000

> <Gold.PLP.Chemscore.Metal>
0.0000

> <Gold.Chemscore.Hbonds>
donor molecule, donor type, donor heavy atom, donor atom, acceptor molecule, acceptor atom, score
      L1  H    10    23       P1  7957  1.00
      L1  H    13    26       P1 10175  1.00
      P1  H  7989  7998       L1     5  0.68
      P1  H  7997  8010       L1     3  1.27
      L1  C    15    27       P1  8028  0.98

> <Gold.PLP.Chemscore.Internal.Correction>
0.0034

> <Gold.Rescore>
     Score         DG    S(hbond)    S(metal)    S(lipo)     H(rot)  DE(clash)    DE(int)     intcor
     10.27     -12.90       3.30        0.00      32.30       2.88       1.16       1.48       ----

> <Gold.Chemscore.Fitness>
10.2702

> <Gold.Chemscore.DG>
-12.9039

> <Gold.Chemscore.ZeroCoef>
-5.4800

> <Gold.Chemscore.Hbond>
3.2997

> <Gold.Chemscore.Metal>
0.0000

> <Gold.Chemscore.Lipo>
32.3013

> <Gold.Chemscore.Internal_Hbond>
0.0000

> <Gold.Chemscore.DEClash>
1.1578

> <Gold.Chemscore.DEInternal>
1.4758

> <Gold.Chemscore.Rot>
2.8815

> <Gold.Chemscore.Internal.Correction>
   9.000000E+99

> <Gold.Chemscore.Hbonds>
donor molecule, donor type, donor heavy atom, donor atom, acceptor molecule, acceptor atom, score
      L1  H    10    23       P1  7957  0.96
      L1  H    13    26       P1 10175  0.35
      P1  H  7989  7998       L1     5  0.16
      P1  H  7997  8010       L1     3  0.21

> <Gold.Chemscore.Hbond.Weighted>
-11.0211

> <Gold.Chemscore.Metal.Weighted>
-0.0000

> <Gold.Chemscore.Lipo.Weighted>
-3.7793

> <Gold.Chemscore.Internal_Hbond.Weighted>
0.0000

> <Gold.Chemscore.DEClash.Weighted>
1.1578

> <Gold.Chemscore.DEInternal.Weighted>
1.4758

> <Gold.Chemscore.Rot.Weighted>
7.3765

> <Gold.Chemscore.Internal.Correction.Weighted>
   9.000000E+99

> <Gold.Protein.RotatedTorsions>
[ 6907 6896 6895 6894 ] final    8.31 input  -60.11 | X-H torsion
[ 7974 7965 7964 7962 ] final  -26.23 input  175.53 | X-H torsion
[ 8008 7997 7996 7995 ] final   60.61 input   59.86 | X-H torsion
[ 10167 10162 10161 10158 ] final  164.71 input  -65.29 | X-H torsion
[ 10718 10713 10712 10709 ] final  -44.43 input   66.30 | X-H torsion
[ 10763 10752 10751 10750 ] final   29.39 input  -60.55 | X-H torsion
[ 11005 11000 10999 10996 ] final  -67.84 input  -57.11 | X-H torsion

> <Gold.Protein.ActiveResidues>
 VAL166  LYS551  ARG553  GLY616  TRP617  ASP618  TYR619  PRO620  LYS621  CYS622 
 ASP623  PHE694  ASN695  SER759  ASP760  ASP761  ALA762  ILE779  LEU786  VAL792 
 PHE793  MET794  SER795  GLU796  ALA797  LYS798  CYS799  TRP800  GLU811  SER814 

> <Gold.Protein.RotatedAtoms>
  151.7039  135.0925  160.0255 H   0  0  0  0  0  0  0  0  0  0  0  0  # atno 6907 bound_to 6896
  152.3703  133.6406  159.6091 H   0  0  0  0  0  0  0  0  0  0  0  0  # atno 6908 bound_to 6896
  150.7669  133.9197  159.3435 H   0  0  0  0  0  0  0  0  0  0  0  0  # atno 6909 bound_to 6896
  146.1439  140.4992  142.8640 H   0  0  0  0  0  0  0  0  0  0  0  0  # atno 7974 bound_to 7965
  155.5850  140.3492  155.4550 H   0  0  0  0  0  0  0  0  0  0  0  0  # atno 8008 bound_to 7997
  156.0344  140.1282  157.0248 H   0  0  0  0  0  0  0  0  0  0  0  0  # atno 8009 bound_to 7997
  154.4365  140.1036  156.6132 H   0  0  0  0  0  0  0  0  0  0  0  0  # atno 8010 bound_to 7997
  139.4893  144.4207  151.9189 H   0  0  0  0  0  0  0  0  0  0  0  0  # atno 10167 bound_to 10162
  156.2387  130.4178  149.8787 H   0  0  0  0  0  0  0  0  0  0  0  0  # atno 10718 bound_to 10713
  153.0433  135.6490  154.0883 H   0  0  0  0  0  0  0  0  0  0  0  0  # atno 10763 bound_to 10752
  154.0585  135.2890  155.3330 H   0  0  0  0  0  0  0  0  0  0  0  0  # atno 10764 bound_to 10752
  154.6673  135.5369  153.8159 H   0  0  0  0  0  0  0  0  0  0  0  0  # atno 10765 bound_to 10752
  141.1518  133.6727  156.6354 H   0  0  0  0  0  0  0  0  0  0  0  0  # atno 11005 bound_to 11000
  144.7824  140.5867  143.6597 LP  0  0  0  0  0  0  0  0  0  0  0  0  # atno 17320 bound_to 7965
  145.4983  139.1484  143.3671 LP  0  0  0  0  0  0  0  0  0  0  0  0  # atno 17321 bound_to 7965
  140.3651  144.2924  150.5927 LP  0  0  0  0  0  0  0  0  0  0  0  0  # atno 17342 bound_to 10162
  140.5368  143.2231  151.8149 LP  0  0  0  0  0  0  0  0  0  0  0  0  # atno 17343 bound_to 10162
  156.6376  130.8691  151.3507 LP  0  0  0  0  0  0  0  0  0  0  0  0  # atno 17370 bound_to 10713
  157.7166  130.9504  150.1277 LP  0  0  0  0  0  0  0  0  0  0  0  0  # atno 17371 bound_to 10713
  140.3435  134.7829  157.4415 LP  0  0  0  0  0  0  0  0  0  0  0  0  # atno 17394 bound_to 11000
  140.0919  134.5590  155.8436 LP  0  0  0  0  0  0  0  0  0  0  0  0  # atno 17395 bound_to 11000

$$$$
