AV-unprocessed.smi:1991|AV-procd|sdf|8067|dock2
  -GOLD-   2272010273D 1   1.00000     0.00000
 Structure written by MMmdl.
 44 45  0  0  0  0  0  0  0  0  1 V2000
  146.9653  135.6438  157.0916 C   0  0  0  0  0  0  0  0  0  0  0  0
  147.8697  135.5635  158.3307 C   0  0  2  0  0  0  0  0  0  0  0  0
  147.0293  135.6160  159.4807 O   0  0  0  0  0  0  0  0  0  0  0  0
  147.6963  135.5234  160.7357 C   0  0  0  0  0  0  0  0  0  0  0  0
  146.6699  135.6600  161.8665 C   0  0  0  0  0  0  0  0  0  0  0  0
  145.6254  134.8739  161.6079 F   0  0  0  0  0  0  0  0  0  0  0  0
  147.2097  135.2875  163.0266 F   0  0  0  0  0  0  0  0  0  0  0  0
  146.2450  136.9201  161.9538 F   0  0  0  0  0  0  0  0  0  0  0  0
  148.8925  136.7110  158.3576 C   0  0  0  0  0  0  0  0  0  0  0  0
  150.0413  136.5111  158.7525 O   0  0  0  0  0  0  0  0  0  0  0  0
  148.4569  137.9051  157.9257 N   0  0  0  0  0  0  0  0  0  0  0  0
  149.2449  139.1322  157.8681 C   0  0  0  0  0  0  0  0  0  0  0  0
  150.4039  139.0399  156.8791 C   0  0  0  0  0  0  0  0  0  0  0  0
  150.4194  137.9979  155.9258 C   0  0  0  0  0  0  0  0  0  0  0  0
  151.4864  137.9114  155.0137 C   0  0  0  0  0  0  0  0  0  0  0  0
  152.5042  138.8791  155.0857 C   0  0  0  0  0  0  0  0  0  0  0  0
  152.5040  139.8840  155.9853 N   0  0  0  0  0  0  0  0  0  0  0  0
  151.4774  139.9700  156.8664 C   0  0  0  0  0  0  0  0  0  0  0  0
  151.5186  141.0269  157.7892 N   0  0  0  0  0  0  0  0  0  0  0  0
  151.3243  142.3428  157.1937 C   0  0  0  0  0  0  0  0  0  0  0  0
  151.2366  143.4092  158.2988 C   0  0  0  0  0  0  0  0  0  0  0  0
  152.4020  143.3471  159.1165 O   0  0  0  0  0  0  0  0  0  0  0  0
  152.5440  142.0800  159.7529 C   0  0  0  0  0  0  0  0  0  0  0  0
  152.6656  140.9778  158.6867 C   0  0  0  0  0  0  0  0  0  0  0  0
  147.5514  135.6377  156.1717 H   0  0  0  0  0  0  0  0  0  0  0  0
  146.3566  136.5490  157.0964 H   0  0  0  0  0  0  0  0  0  0  0  0
  146.2854  134.7925  157.0543 H   0  0  0  0  0  0  0  0  0  0  0  0
  148.3930  134.6057  158.3066 H   0  0  0  0  0  0  0  0  0  0  0  0
  148.2062  134.5624  160.8170 H   0  0  0  0  0  0  0  0  0  0  0  0
  148.4524  136.3031  160.8337 H   0  0  0  0  0  0  0  0  0  0  0  0
  147.4980  137.9710  157.6173 H   0  0  0  0  0  0  0  0  0  0  0  0
  148.6247  139.9856  157.5904 H   0  0  0  0  0  0  0  0  0  0  0  0
  149.5878  139.3415  158.8802 H   0  0  0  0  0  0  0  0  0  0  0  0
  149.6221  137.2704  155.8902 H   0  0  0  0  0  0  0  0  0  0  0  0
  151.5226  137.1230  154.2766 H   0  0  0  0  0  0  0  0  0  0  0  0
  153.3398  138.8465  154.4024 H   0  0  0  0  0  0  0  0  0  0  0  0
  152.1538  142.5721  156.5231 H   0  0  0  0  0  0  0  0  0  0  0  0
  150.4124  142.3466  156.5953 H   0  0  0  0  0  0  0  0  0  0  0  0
  151.1635  144.4035  157.8579 H   0  0  0  0  0  0  0  0  0  0  0  0
  150.3437  143.2643  158.9092 H   0  0  0  0  0  0  0  0  0  0  0  0
  153.4339  142.0952  160.3822 H   0  0  0  0  0  0  0  0  0  0  0  0
  151.6922  141.8937  160.4089 H   0  0  0  0  0  0  0  0  0  0  0  0
  152.7206  139.9986  159.1638 H   0  0  0  0  0  0  0  0  0  0  0  0
  153.5860  141.1127  158.1169 H   0  0  0  0  0  0  0  0  0  0  0  0
  1  2  1  0  0  0  0
  1 25  1  0  0  0  0
  1 26  1  0  0  0  0
  1 27  1  0  0  0  0
  2  3  1  0  0  0  0
  2  9  1  0  0  0  0
  2 28  1  0  0  0  0
  3  4  1  0  0  0  0
  4  5  1  0  0  0  0
  4 29  1  0  0  0  0
  4 30  1  0  0  0  0
  5  6  1  0  0  0  0
  5  7  1  0  0  0  0
  5  8  1  0  0  0  0
  9 10  2  0  0  0  0
  9 11  1  0  0  0  0
 11 12  1  0  0  0  0
 11 31  1  0  0  0  0
 12 13  1  0  0  0  0
 12 32  1  0  0  0  0
 12 33  1  0  0  0  0
 13 18  1  0  0  0  0
 13 14  2  0  0  0  0
 14 15  1  0  0  0  0
 14 34  1  0  0  0  0
 15 16  2  0  0  0  0
 15 35  1  0  0  0  0
 16 17  1  0  0  0  0
 16 36  1  0  0  0  0
 17 18  2  0  0  0  0
 18 19  1  0  0  0  0
 19 24  1  0  0  0  0
 19 20  1  0  0  0  0
 20 21  1  0  0  0  0
 20 37  1  0  0  0  0
 20 38  1  0  0  0  0
 21 22  1  0  0  0  0
 21 39  1  0  0  0  0
 21 40  1  0  0  0  0
 22 23  1  0  0  0  0
 23 24  1  0  0  0  0
 23 41  1  0  0  0  0
 23 42  1  0  0  0  0
 24 43  1  0  0  0  0
 24 44  1  0  0  0  0
M  END
> <s_m_source_file>
AV-unprocessed.smi

> <i_m_source_file_index>
1991

> <i_lp_mmshare_version>
43012

> <i_f3d_flags>
0

> <s_epik_input>
RkMoRikoRilbQ0gyXU9bQ0BASF0oW0NIM10pQyg9TylbTkhdW0NIMl1jMVtjSF1bY0hdW2NIXW5jMU4yW0NIMl1bQ0gyXU9bQ0gyXVtDSDJdMg==

> <s_epik_cmdline>
J2VwaWtfcHl0aG9uJywgJy1waCcsICc3LjAnLCAnLXRuJywgJzgnLCAnLW1hJywgJzIwMCcsICctbWV0YWxfYmluZGluZycsICctaW1hZScsICc8aW5maWxlLm1hZT4nLCAnLW9tYWUnLCAnPG91dGZpbGUubWFlPic=

> <r_lp_tautomer_probability>
1

> <r_epik_Ionization_Penalty>
0.00436412

> <r_epik_Ionization_Penalty_Charging>
0

> <r_epik_Ionization_Penalty_Neutral>
0.00436412

> <r_epik_State_Penalty>
0.00314317

> <r_epik_Charging_Adjusted_Penalty>
0.00314317

> <i_epik_Tot_Q>
0

> <i_epik_Tot_abs_Q>
0

> <r_epik_Metal_State_Penalty>
-0

> <b_epik_Metal_Only>
0

> <s_lp_Force_Field>
OPLS_2005

> <r_lp_Energy>
21.8151

> <b_lp_Chiralities_Consistent>
1

> <s_lp_Variant>
AV-unprocessed.smi:1991-1

> <Gold.Version>
5.8.1

> <Gold.Id.Protein>
6NUR|6NUR_protein|mol2

> <Gold.PLP.Fitness>
42.1610

> <Gold.PLP.PLP>
-37.8523

> <Gold.PLP.part.hbond>
-2.0000

> <Gold.PLP.part.metal>
0.0000

> <Gold.PLP.part.buried>
-6.6597

> <Gold.PLP.part.nonpolar>
-28.8760

> <Gold.PLP.part.repulsive>
0.0957

> <Gold.PLP.ligand.clash>
0.0000

> <Gold.PLP.ligand.torsion>
1.0293

> <Gold.PLP.Chemscore.Hbond>
2.0000

> <Gold.PLP.Chemscore.CHOScore>
0.0000

> <Gold.PLP.Chemscore.Metal>
0.0000

> <Gold.Chemscore.Hbonds>
donor molecule, donor type, donor heavy atom, donor atom, acceptor molecule, acceptor atom, score
      P1  H  6896  6909       L1    10  0.88
      P1  H  7997  8008       L1    17  1.00

> <Gold.PLP.Chemscore.Internal.Correction>
0.3672

> <Gold.Rescore>
     Score         DG    S(hbond)    S(metal)    S(lipo)     H(rot)  DE(clash)    DE(int)     intcor
     13.18     -14.50       1.91        0.00      76.92       2.49       0.28       1.04       ----

> <Gold.Chemscore.Fitness>
13.1795

> <Gold.Chemscore.DG>
-14.4974

> <Gold.Chemscore.ZeroCoef>
-5.4800

> <Gold.Chemscore.Hbond>
1.9136

> <Gold.Chemscore.Metal>
0.0000

> <Gold.Chemscore.Lipo>
76.9240

> <Gold.Chemscore.Internal_Hbond>
0.0000

> <Gold.Chemscore.DEClash>
0.2753

> <Gold.Chemscore.DEInternal>
1.0427

> <Gold.Chemscore.Rot>
2.4899

> <Gold.Chemscore.Internal.Correction>
   9.000000E+99

> <Gold.Chemscore.Hbonds>
donor molecule, donor type, donor heavy atom, donor atom, acceptor molecule, acceptor atom, score
      P1  H  6896  6909       L1    10  0.83
      P1  H  7997  8008       L1    17  0.49

> <Gold.Chemscore.Hbond.Weighted>
-6.3915

> <Gold.Chemscore.Metal.Weighted>
-0.0000

> <Gold.Chemscore.Lipo.Weighted>
-9.0001

> <Gold.Chemscore.Internal_Hbond.Weighted>
0.0000

> <Gold.Chemscore.DEClash.Weighted>
0.2753

> <Gold.Chemscore.DEInternal.Weighted>
1.0427

> <Gold.Chemscore.Rot.Weighted>
6.3741

> <Gold.Chemscore.Internal.Correction.Weighted>
   9.000000E+99

> <Gold.Protein.RotatedTorsions>
[ 6907 6896 6895 6894 ] final   62.62 input  -60.11 | X-H torsion
[ 7974 7965 7964 7962 ] final  -96.57 input  175.53 | X-H torsion
[ 8008 7997 7996 7995 ] final  -50.42 input   59.86 | X-H torsion
[ 10167 10162 10161 10158 ] final  -21.76 input  -65.29 | X-H torsion
[ 10718 10713 10712 10709 ] final -139.39 input   66.30 | X-H torsion
[ 10763 10752 10751 10750 ] final -119.41 input  -60.55 | X-H torsion
[ 11005 11000 10999 10996 ] final   43.84 input  -57.11 | X-H torsion

> <Gold.Protein.ActiveResidues>
 VAL166  LYS551  ARG553  GLY616  TRP617  ASP618  TYR619  PRO620  LYS621  CYS622 
 ASP623  PHE694  ASN695  SER759  ASP760  ASP761  ALA762  ILE779  LEU786  VAL792 
 PHE793  MET794  SER795  GLU796  ALA797  LYS798  CYS799  TRP800  GLU811  SER814 

> <Gold.Protein.RotatedAtoms>
  152.4187  134.5994  159.9995 H   0  0  0  0  0  0  0  0  0  0  0  0  # atno 6907 bound_to 6896
  151.6150  133.3338  159.3083 H   0  0  0  0  0  0  0  0  0  0  0  0  # atno 6908 bound_to 6896
  150.8075  134.7248  159.6724 H   0  0  0  0  0  0  0  0  0  0  0  0  # atno 6909 bound_to 6896
  145.3451  140.9467  143.2586 H   0  0  0  0  0  0  0  0  0  0  0  0  # atno 7974 bound_to 7965
  154.4062  140.1273  156.4662 H   0  0  0  0  0  0  0  0  0  0  0  0  # atno 8008 bound_to 7997
  155.7224  140.3492  155.5002 H   0  0  0  0  0  0  0  0  0  0  0  0  # atno 8009 bound_to 7997
  155.9202  140.1051  157.1202 H   0  0  0  0  0  0  0  0  0  0  0  0  # atno 8010 bound_to 7997
  140.7283  143.4598  151.0397 H   0  0  0  0  0  0  0  0  0  0  0  0  # atno 10167 bound_to 10162
  156.3102  130.7477  151.1551 H   0  0  0  0  0  0  0  0  0  0  0  0  # atno 10718 bound_to 10713
  154.8616  135.4239  154.2294 H   0  0  0  0  0  0  0  0  0  0  0  0  # atno 10763 bound_to 10752
  153.3282  135.6986  153.6976 H   0  0  0  0  0  0  0  0  0  0  0  0  # atno 10764 bound_to 10752
  153.6004  135.3538  155.2916 H   0  0  0  0  0  0  0  0  0  0  0  0  # atno 10765 bound_to 10752
  140.1607  134.4345  155.8319 H   0  0  0  0  0  0  0  0  0  0  0  0  # atno 11005 bound_to 11000
  144.8760  139.4971  143.6745 LP  0  0  0  0  0  0  0  0  0  0  0  0  # atno 17320 bound_to 7965
  146.2991  139.7370  142.9104 LP  0  0  0  0  0  0  0  0  0  0  0  0  # atno 17321 bound_to 7965
  139.8281  143.7728  152.3179 LP  0  0  0  0  0  0  0  0  0  0  0  0  # atno 17342 bound_to 10162
  139.7834  144.7436  151.0056 LP  0  0  0  0  0  0  0  0  0  0  0  0  # atno 17343 bound_to 10162
  157.7389  131.0535  150.5266 LP  0  0  0  0  0  0  0  0  0  0  0  0  # atno 17370 bound_to 10713
  156.5404  130.4206  149.6157 LP  0  0  0  0  0  0  0  0  0  0  0  0  # atno 17371 bound_to 10713
  141.2209  133.6912  156.7588 LP  0  0  0  0  0  0  0  0  0  0  0  0  # atno 17394 bound_to 11000
  140.2493  134.8553  157.3652 LP  0  0  0  0  0  0  0  0  0  0  0  0  # atno 17395 bound_to 11000

$$$$
