#       Name:                AV-unprocessed.smi:1176
#       Creating user name   scv26
#       Creation time:       Fri Mar 27 03:54:23 2020


#       File generated by GOLD software.
#

@<TRIPOS>MOLECULE
AV-unprocessed.smi:1176
    56    57     1
SMALL
NO_CHARGES


@<TRIPOS>ATOM
      1 ****        -3.9270   1.8683  -2.7997 C.3            1 S1                 0.0000
      2 ****        -2.3941   1.7927  -2.8663 C.3            1 S1                 0.0000
      3 ****        -1.8992   2.1637  -4.2743 C.3            1 S1                 0.0000
      4 ****        -1.9006   0.3952  -2.4329 C.3            1 S1                 0.0000
      5 ****        -0.4202   0.3045  -2.3404 N.4            1 S1                 1.0000
      6 ****         0.0726  -1.0853  -2.5242 C.3            1 S1                 0.0000
      7 ****         1.6124  -1.1356  -2.5628 C.3            1 S1                 0.0000
      8 ****         2.2410  -0.4987  -1.3116 C.3            1 S1                 0.0000
      9 ****         2.0041  -1.3469  -0.1447 N.am           1 S1                 0.0000
     10 ****         2.5934  -1.2142   1.0531 C.2            1 S1                 0.0000
     11 ****         3.4478  -0.3637   1.2989 O.2            1 S1                 0.0000
     12 ****         2.1464  -2.1969   2.1387 C.3            1 S1                 0.0000
     13 ****         1.1604  -1.5824   3.0351 N.am           1 S1                 0.0000
     14 ****        -0.1870  -1.7402   2.7650 C.2            1 S1                 0.0000
     15 ****        -1.1675  -1.1884   3.5119 C.2            1 S1                 0.0000
     16 ****        -0.8491  -0.3760   4.6788 C.2            1 S1                 0.0000
     17 ****        -1.7053   0.1663   5.3786 O.2            1 S1                 0.0000
     18 ****         0.5334  -0.2438   4.9443 N.am           1 S1                 0.0000
     19 ****         0.9056   0.5629   6.0884 C.3            1 S1                 0.0000
     20 ****         1.5570  -0.8112   4.1500 C.2            1 S1                 0.0000
     21 ****         2.7528  -0.6437   4.3989 O.2            1 S1                 0.0000
     22 ****         1.6678   0.9217  -1.1245 C.3            1 S1                 0.0000
     23 ****         0.1297   0.9212  -1.1042 C.3            1 S1                 0.0000
     24 ****        -4.3909   1.1512  -3.4779 H              1 S1                 0.0000
     25 ****        -4.2844   2.8618  -3.0722 H              1 S1                 0.0000
     26 ****        -4.2884   1.6560  -1.7930 H              1 S1                 0.0000
     27 ****        -2.0134   2.5399  -2.1707 H              1 S1                 0.0000
     28 ****        -2.2467   1.4467  -5.0190 H              1 S1                 0.0000
     29 ****        -0.8103   2.1925  -4.3213 H              1 S1                 0.0000
     30 ****        -2.2610   3.1491  -4.5696 H              1 S1                 0.0000
     31 ****        -2.3377   0.1115  -1.4740 H              1 S1                 0.0000
     32 ****        -2.2677  -0.3327  -3.1581 H              1 S1                 0.0000
     33 ****        -0.3102  -1.7169  -1.7212 H              1 S1                 0.0000
     34 ****        -0.3174  -1.4925  -3.4579 H              1 S1                 0.0000
     35 ****         1.9512  -2.1666  -2.6736 H              1 S1                 0.0000
     36 ****         1.9635  -0.6057  -3.4493 H              1 S1                 0.0000
     37 ****         3.3200  -0.4313  -1.4618 H              1 S1                 0.0000
     38 ****         1.3294  -2.0903  -0.2521 H              1 S1                 0.0000
     39 ****         1.7265  -3.0929   1.6781 H              1 S1                 0.0000
     40 ****         3.0200  -2.5396   2.6956 H              1 S1                 0.0000
     41 ****        -0.4733  -2.3311   1.9071 H              1 S1                 0.0000
     42 ****        -2.2010  -1.3474   3.2411 H              1 S1                 0.0000
     43 ****         1.9330   0.3577   6.3886 H              1 S1                 0.0000
     44 ****         0.2484   0.3024   6.9200 H              1 S1                 0.0000
     45 ****         0.7836   1.6064   5.7944 H              1 S1                 0.0000
     46 ****         2.0516   1.3816  -0.2136 H              1 S1                 0.0000
     47 ****         2.0113   1.5554  -1.9432 H              1 S1                 0.0000
     48 ****        -0.2183   1.9483  -1.0045 H              1 S1                 0.0000
     49 ****        -0.2365   0.3816  -0.2291 H              1 S1                 0.0000
     50 ****        -0.0562   0.8334  -3.1202 H              1 S1                 0.0000
     51 ****         3.7368   0.2754   0.5861 LP             1 S1                 0.0000
     52 ****         3.8533  -0.3114   2.2115 LP             1 S1                 0.0000
     53 ****        -2.6743   0.0592   5.1561 LP             1 S1                 0.0000
     54 ****        -1.4315   0.7138   6.1694 LP             1 S1                 0.0000
     55 ****         3.4485  -1.0549   3.8099 LP             1 S1                 0.0000
     56 ****         3.0271  -0.0966   5.1898 LP             1 S1                 0.0000
@<TRIPOS>BOND
    1    1    2 1     
    2    1   24 1     
    3    1   25 1     
    4    1   26 1     
    5    2    3 1     
    6    2    4 1     
    7    2   27 1     
    8    3   28 1     
    9    3   29 1     
   10    3   30 1     
   11    4    5 1     
   12    4   31 1     
   13    4   32 1     
   14    5   23 1     
   15    5    6 1     
   16    5   50 1     
   17    6    7 1     
   18    6   33 1     
   19    6   34 1     
   20    7    8 1     
   21    7   35 1     
   22    7   36 1     
   23    8    9 1     
   24    8   22 1     
   25    8   37 1     
   26    9   10 am    
   27    9   38 1     
   28   10   11 2     
   29   10   12 1     
   30   12   13 1     
   31   12   39 1     
   32   12   40 1     
   33   13   20 am    
   34   13   14 1     
   35   14   15 2     
   36   14   41 1     
   37   15   16 1     
   38   15   42 1     
   39   16   17 2     
   40   16   18 am    
   41   18   19 1     
   42   18   20 am    
   43   19   43 1     
   44   19   44 1     
   45   19   45 1     
   46   20   21 2     
   47   22   23 1     
   48   22   46 1     
   49   22   47 1     
   50   23   48 1     
   51   23   49 1     
   52   11   51 1     
   53   11   52 1     
   54   17   53 1     
   55   17   54 1     
   56   21   55 1     
   57   21   56 1     
@<TRIPOS>SUBSTRUCTURE
      1 S1             1
@<TRIPOS>SET
LONE_PAIRS      STATIC     ATOMS    <user>   **** ""
6 51 52 53 54 55 56
DONOR_HYDROGENS      STATIC     ATOMS    <user>   **** ""
2 50 38
ATOM$BLUE        STATIC     ATOMS    COLORGROUP SYSTEM
6 51 52 53 54 55 56
ATOM$RED        STATIC     ATOMS    COLORGROUP SYSTEM
2 50 38
