AV-unprocessed.smi:1927|AV-procd|sdf|7797|dock8
  -GOLD-   22720 9543D 1   1.00000     0.00000
 Structure written by MMmdl.
 34 35  0  0  0  0  0  0  0  0  1 V2000
  147.6670  133.0126  152.4344 C   0  0  0  0  0  0  0  0  0  0  0  0
  146.4020  133.1572  151.6036 C   0  0  0  0  0  0  0  0  0  0  0  0
  145.8038  132.0055  151.0495 C   0  0  0  0  0  0  0  0  0  0  0  0
  144.6350  132.1417  150.2814 C   0  0  0  0  0  0  0  0  0  0  0  0
  144.1104  133.4326  150.0985 C   0  0  0  0  0  0  0  0  0  0  0  0
  144.6752  134.5387  150.6245 N   0  0  0  0  0  0  0  0  0  0  0  0
  145.8036  134.4246  151.3692 C   0  0  0  0  0  0  0  0  0  0  0  0
  146.4516  135.5462  151.9599 N   0  0  0  0  0  0  0  0  0  0  0  0
  145.8983  136.6460  152.5008 C   0  0  0  0  0  0  0  0  0  0  0  0
  144.6918  136.8874  152.5512 O   0  0  0  0  0  0  0  0  0  0  0  0
  146.8396  137.4696  152.9847 N   0  0  0  0  0  0  0  0  0  0  0  0
  146.5928  138.7514  153.6377 C   0  0  0  0  0  0  0  0  0  0  0  0
  147.8049  139.6939  153.5230 C   0  0  1  0  0  0  0  0  0  0  0  0
  147.7013  140.9789  154.3221 C   0  0  0  0  0  0  0  0  0  0  0  0
  149.1602  141.4188  154.4116 C   0  0  0  0  0  0  0  0  0  0  0  0
  149.9364  140.2243  154.3637 O   0  0  0  0  0  0  0  0  0  0  0  0
  149.0963  139.1076  154.0910 C   0  0  0  0  0  0  0  0  0  0  0  0
  147.9792  131.9702  152.5052 H   0  0  0  0  0  0  0  0  0  0  0  0
  147.5037  133.3834  153.4468 H   0  0  0  0  0  0  0  0  0  0  0  0
  148.4847  133.5770  151.9854 H   0  0  0  0  0  0  0  0  0  0  0  0
  146.2332  131.0274  151.2093 H   0  0  0  0  0  0  0  0  0  0  0  0
  144.1531  131.2797  149.8442 H   0  0  0  0  0  0  0  0  0  0  0  0
  143.2135  133.5821  149.5160 H   0  0  0  0  0  0  0  0  0  0  0  0
  147.4591  135.4987  151.9814 H   0  0  0  0  0  0  0  0  0  0  0  0
  147.8049  137.1874  152.8967 H   0  0  0  0  0  0  0  0  0  0  0  0
  145.6944  139.2276  153.2409 H   0  0  0  0  0  0  0  0  0  0  0  0
  146.3889  138.5503  154.6896 H   0  0  0  0  0  0  0  0  0  0  0  0
  147.9724  139.9460  152.4742 H   0  0  0  0  0  0  0  0  0  0  0  0
  147.0621  141.7283  153.8541 H   0  0  0  0  0  0  0  0  0  0  0  0
  147.3112  140.7749  155.3205 H   0  0  0  0  0  0  0  0  0  0  0  0
  149.4250  142.0368  153.5529 H   0  0  0  0  0  0  0  0  0  0  0  0
  149.3657  141.9908  155.3167 H   0  0  0  0  0  0  0  0  0  0  0  0
  148.9038  138.5838  155.0286 H   0  0  0  0  0  0  0  0  0  0  0  0
  149.5750  138.4077  153.4056 H   0  0  0  0  0  0  0  0  0  0  0  0
  1  2  1  0  0  0  0
  1 18  1  0  0  0  0
  1 19  1  0  0  0  0
  1 20  1  0  0  0  0
  2  7  1  0  0  0  0
  2  3  2  0  0  0  0
  3  4  1  0  0  0  0
  3 21  1  0  0  0  0
  4  5  2  0  0  0  0
  4 22  1  0  0  0  0
  5  6  1  0  0  0  0
  5 23  1  0  0  0  0
  6  7  2  0  0  0  0
  7  8  1  0  0  0  0
  8  9  1  0  0  0  0
  8 24  1  0  0  0  0
  9 10  2  0  0  0  0
  9 11  1  0  0  0  0
 11 12  1  0  0  0  0
 11 25  1  0  0  0  0
 12 13  1  0  0  0  0
 12 26  1  0  0  0  0
 12 27  1  0  0  0  0
 13 17  1  0  0  0  0
 13 14  1  0  0  0  0
 13 28  1  0  0  0  0
 14 15  1  0  0  0  0
 14 29  1  0  0  0  0
 14 30  1  0  0  0  0
 15 16  1  0  0  0  0
 15 31  1  0  0  0  0
 15 32  1  0  0  0  0
 16 17  1  0  0  0  0
 17 33  1  0  0  0  0
 17 34  1  0  0  0  0
M  END
> <s_m_source_file>
AV-unprocessed.smi

> <i_m_source_file_index>
1927

> <i_lp_mmshare_version>
43012

> <i_f3d_flags>
0

> <s_epik_input>
W0NIM11jMVtjSF1bY0hdW2NIXW5jMVtOSF1DKD1PKVtOSF1bQ0gyXVtDQEBIXTJbQ0gyXVtDSDJdT1tDSDJdMg==

> <s_epik_cmdline>
J2VwaWtfcHl0aG9uJywgJy1waCcsICc3LjAnLCAnLXRuJywgJzgnLCAnLW1hJywgJzIwMCcsICctbWV0YWxfYmluZGluZycsICctaW1hZScsICc8aW5maWxlLm1hZT4nLCAnLW9tYWUnLCAnPG91dGZpbGUubWFlPic=

> <r_lp_tautomer_probability>
1

> <r_epik_Ionization_Penalty>
5.84082e-05

> <r_epik_Ionization_Penalty_Charging>
0

> <r_epik_Ionization_Penalty_Neutral>
5.84082e-05

> <r_epik_State_Penalty>
-0

> <r_epik_Charging_Adjusted_Penalty>
0

> <i_epik_Tot_Q>
0

> <i_epik_Tot_abs_Q>
0

> <r_epik_Metal_State_Penalty>
-0

> <b_epik_Metal_Only>
0

> <s_lp_Force_Field>
OPLS_2005

> <r_lp_Energy>
21.9437

> <b_lp_Chiralities_Consistent>
1

> <s_lp_Variant>
AV-unprocessed.smi:1927-2

> <Gold.Version>
5.8.1

> <Gold.Id.Protein>
6NUR|6NUR_protein|mol2

> <Gold.PLP.Fitness>
40.7715

> <Gold.PLP.PLP>
-30.2127

> <Gold.PLP.part.hbond>
-3.0000

> <Gold.PLP.part.metal>
0.0000

> <Gold.PLP.part.buried>
-1.7431

> <Gold.PLP.part.nonpolar>
-25.1252

> <Gold.PLP.part.repulsive>
0.5823

> <Gold.PLP.ligand.clash>
0.0000

> <Gold.PLP.ligand.torsion>
0.4591

> <Gold.PLP.Chemscore.Hbond>
2.8240

> <Gold.PLP.Chemscore.CHOScore>
1.0000

> <Gold.PLP.Chemscore.Metal>
0.0000

> <Gold.Chemscore.Hbonds>
donor molecule, donor type, donor heavy atom, donor atom, acceptor molecule, acceptor atom, score
      L1  H     8    24       P1  7948  1.00
      L1  H    11    25       P1  7948  0.86
      P1  H  7989  7998       L1    16  0.93
      L1  C     5    23       P1 10186  1.00

> <Gold.PLP.Chemscore.Internal.Correction>
0.0051

> <Gold.Rescore>
     Score         DG    S(hbond)    S(metal)    S(lipo)     H(rot)  DE(clash)    DE(int)     intcor
     17.09     -18.35       2.28        0.00      72.05       1.23       0.04       1.22       ----

> <Gold.Chemscore.Fitness>
17.0896

> <Gold.Chemscore.DG>
-18.3544

> <Gold.Chemscore.ZeroCoef>
-5.4800

> <Gold.Chemscore.Hbond>
2.2764

> <Gold.Chemscore.Metal>
0.0000

> <Gold.Chemscore.Lipo>
72.0460

> <Gold.Chemscore.Internal_Hbond>
0.0000

> <Gold.Chemscore.DEClash>
0.0420

> <Gold.Chemscore.DEInternal>
1.2227

> <Gold.Chemscore.Rot>
1.2337

> <Gold.Chemscore.Internal.Correction>
   9.000000E+99

> <Gold.Chemscore.Hbonds>
donor molecule, donor type, donor heavy atom, donor atom, acceptor molecule, acceptor atom, score
      L1  H     8    24       P1  7948  0.95
      L1  H    11    25       P1  7948  0.85
      P1  H  7989  7998       L1    16  0.26

> <Gold.Chemscore.Hbond.Weighted>
-7.6033

> <Gold.Chemscore.Metal.Weighted>
-0.0000

> <Gold.Chemscore.Lipo.Weighted>
-8.4294

> <Gold.Chemscore.Internal_Hbond.Weighted>
0.0000

> <Gold.Chemscore.DEClash.Weighted>
0.0420

> <Gold.Chemscore.DEInternal.Weighted>
1.2227

> <Gold.Chemscore.Rot.Weighted>
3.1582

> <Gold.Chemscore.Internal.Correction.Weighted>
   9.000000E+99

> <Gold.Protein.RotatedTorsions>
[ 6907 6896 6895 6894 ] final   -4.98 input  -60.11 | X-H torsion
[ 7974 7965 7964 7962 ] final -160.80 input  175.53 | X-H torsion
[ 8008 7997 7996 7995 ] final -161.64 input   59.86 | X-H torsion
[ 10167 10162 10161 10158 ] final  161.36 input  -65.29 | X-H torsion
[ 10718 10713 10712 10709 ] final   89.84 input   66.30 | X-H torsion
[ 10763 10752 10751 10750 ] final   63.20 input  -60.55 | X-H torsion
[ 11005 11000 10999 10996 ] final  -37.56 input  -57.11 | X-H torsion

> <Gold.Protein.ActiveResidues>
 VAL166  LYS551  ARG553  GLY616  TRP617  ASP618  TYR619  PRO620  LYS621  CYS622 
 ASP623  PHE694  ASN695  SER759  ASP760  ASP761  ALA762  ILE779  LEU786  VAL792 
 PHE793  MET794  SER795  GLU796  ALA797  LYS798  CYS799  TRP800  GLU811  SER814 

> <Gold.Protein.RotatedAtoms>
  151.4890  135.1056  159.9797 H   0  0  0  0  0  0  0  0  0  0  0  0  # atno 6907 bound_to 6896
  152.4749  133.8110  159.7014 H   0  0  0  0  0  0  0  0  0  0  0  0  # atno 6908 bound_to 6896
  150.8780  133.7349  159.2967 H   0  0  0  0  0  0  0  0  0  0  0  0  # atno 6909 bound_to 6896
  144.7414  140.3489  143.6120 H   0  0  0  0  0  0  0  0  0  0  0  0  # atno 7974 bound_to 7965
  155.7951  140.0884  157.1987 H   0  0  0  0  0  0  0  0  0  0  0  0  # atno 8008 bound_to 7997
  154.3984  140.1483  156.3267 H   0  0  0  0  0  0  0  0  0  0  0  0  # atno 8009 bound_to 7997
  155.8519  140.3434  155.5701 H   0  0  0  0  0  0  0  0  0  0  0  0  # atno 8010 bound_to 7997
  139.4848  144.4544  151.8788 H   0  0  0  0  0  0  0  0  0  0  0  0  # atno 10167 bound_to 10162
  157.6957  131.0348  150.3487 H   0  0  0  0  0  0  0  0  0  0  0  0  # atno 10718 bound_to 10713
  153.0009  135.5438  154.6314 H   0  0  0  0  0  0  0  0  0  0  0  0  # atno 10763 bound_to 10752
  154.5590  135.2832  155.0939 H   0  0  0  0  0  0  0  0  0  0  0  0  # atno 10764 bound_to 10752
  154.2149  135.6461  153.5179 H   0  0  0  0  0  0  0  0  0  0  0  0  # atno 10765 bound_to 10752
  140.9961  133.6979  156.1937 H   0  0  0  0  0  0  0  0  0  0  0  0  # atno 11005 bound_to 11000
  145.7297  139.1732  143.2437 LP  0  0  0  0  0  0  0  0  0  0  0  0  # atno 17320 bound_to 7965
  146.1216  140.7302  142.9455 LP  0  0  0  0  0  0  0  0  0  0  0  0  # atno 17321 bound_to 7965
  140.4002  144.2502  150.5893 LP  0  0  0  0  0  0  0  0  0  0  0  0  # atno 17342 bound_to 10162
  140.5064  143.2303  151.8602 LP  0  0  0  0  0  0  0  0  0  0  0  0  # atno 17343 bound_to 10162
  156.3938  130.3903  149.7010 LP  0  0  0  0  0  0  0  0  0  0  0  0  # atno 17370 bound_to 10713
  156.4350  130.7833  151.2854 LP  0  0  0  0  0  0  0  0  0  0  0  0  # atno 17371 bound_to 10713
  140.6963  134.4612  157.5587 LP  0  0  0  0  0  0  0  0  0  0  0  0  # atno 17394 bound_to 11000
  139.9015  134.8544  156.1875 LP  0  0  0  0  0  0  0  0  0  0  0  0  # atno 17395 bound_to 11000

$$$$
