AV-unprocessed.smi:3181|AV-procd|sdf|12139|dock2
  -GOLD-   2272017573D 1   1.00000     0.00000
 Structure written by MMmdl.
 42 43  0  0  0  0  0  0  0  0  2 V2000
  149.4201  139.9455  157.2667 C   0  0  0  0  0  0  0  0  0  0  0  0
  149.0272  141.2852  156.6196 C   0  0  2  0  0  0  0  0  0  0  0  0
  149.3996  141.3618  155.1255 C   0  0  0  0  0  0  0  0  0  0  0  0
  148.5618  140.5200  154.2915 N   0  0  0  0  0  0  0  0  0  0  0  0
  147.5618  140.8370  153.4673 C   0  0  0  0  0  0  0  0  0  0  0  0
  147.0157  139.7917  152.8623 N   0  0  0  0  0  0  0  0  0  0  0  0
  147.7842  138.7935  153.3918 C   0  0  0  0  0  0  0  0  0  0  0  0
  148.7266  139.1770  154.2535 N   0  0  0  0  0  0  0  0  0  0  0  0
  149.6733  142.4037  157.3434 N   0  3  0  0  0  0  0  0  0  0  0  0
  151.1265  142.5813  157.1105 C   0  0  2  0  0  0  0  0  0  0  0  0
  151.9262  141.4912  157.8431 C   0  0  0  0  0  0  0  0  0  0  0  0
  151.9088  141.6889  159.3670 C   0  0  0  0  0  0  0  0  0  0  0  0
  152.4142  143.0860  159.7804 C   0  0  2  0  0  0  0  0  0  0  0  0
  152.3804  143.2184  161.3133 C   0  0  0  0  0  0  0  0  0  0  0  0
  151.6053  144.1964  159.0594 C   0  0  1  0  0  0  0  0  0  0  0  0
  152.1056  145.6138  159.3905 C   0  0  0  0  0  0  0  0  0  0  0  0
  151.6249  143.9798  157.5301 C   0  0  0  0  0  0  0  0  0  0  0  0
  148.8995  139.1080  156.8020 H   0  0  0  0  0  0  0  0  0  0  0  0
  149.1694  139.9276  158.3274 H   0  0  0  0  0  0  0  0  0  0  0  0
  150.4913  139.7619  157.1769 H   0  0  0  0  0  0  0  0  0  0  0  0
  147.9433  141.3874  156.6932 H   0  0  0  0  0  0  0  0  0  0  0  0
  149.3046  142.3879  154.7674 H   0  0  0  0  0  0  0  0  0  0  0  0
  150.4428  141.0763  154.9782 H   0  0  0  0  0  0  0  0  0  0  0  0
  147.2246  141.8510  153.3087 H   0  0  0  0  0  0  0  0  0  0  0  0
  147.6443  137.7536  153.1353 H   0  0  0  0  0  0  0  0  0  0  0  0
  149.1962  143.2642  157.1149 H   0  0  0  0  0  0  0  0  0  0  0  0
  151.2998  142.4514  156.0411 H   0  0  0  0  0  0  0  0  0  0  0  0
  151.5409  140.5026  157.5889 H   0  0  0  0  0  0  0  0  0  0  0  0
  152.9600  141.5114  157.4957 H   0  0  0  0  0  0  0  0  0  0  0  0
  150.8969  141.5367  159.7453 H   0  0  0  0  0  0  0  0  0  0  0  0
  152.5251  140.9195  159.8338 H   0  0  0  0  0  0  0  0  0  0  0  0
  153.4564  143.1669  159.4671 H   0  0  0  0  0  0  0  0  0  0  0  0
  151.3570  143.2175  161.6896 H   0  0  0  0  0  0  0  0  0  0  0  0
  152.8622  144.1351  161.6521 H   0  0  0  0  0  0  0  0  0  0  0  0
  152.9080  142.3910  161.7887 H   0  0  0  0  0  0  0  0  0  0  0  0
  150.5694  144.1335  159.3953 H   0  0  0  0  0  0  0  0  0  0  0  0
  153.1639  145.7273  159.1532 H   0  0  0  0  0  0  0  0  0  0  0  0
  151.9696  145.8558  160.4443 H   0  0  0  0  0  0  0  0  0  0  0  0
  151.5565  146.3651  158.8223 H   0  0  0  0  0  0  0  0  0  0  0  0
  152.6474  144.1049  157.1704 H   0  0  0  0  0  0  0  0  0  0  0  0
  151.0449  144.7561  157.0309 H   0  0  0  0  0  0  0  0  0  0  0  0
  149.5492  142.2286  158.3304 H   0  0  0  0  0  0  0  0  0  0  0  0
  1  2  1  0  0  0  0
  1 18  1  0  0  0  0
  1 19  1  0  0  0  0
  1 20  1  0  0  0  0
  2  3  1  0  0  0  0
  2  9  1  0  0  0  0
  2 21  1  0  0  0  0
  3  4  1  0  0  0  0
  3 22  1  0  0  0  0
  3 23  1  0  0  0  0
  4  8  1  0  0  0  0
  4  5  1  0  0  0  0
  5  6  2  0  0  0  0
  5 24  1  0  0  0  0
  6  7  1  0  0  0  0
  7  8  2  0  0  0  0
  7 25  1  0  0  0  0
  9 10  1  0  0  0  0
  9 26  1  0  0  0  0
  9 42  1  0  0  0  0
 10 17  1  0  0  0  0
 10 11  1  0  0  0  0
 10 27  1  0  0  0  0
 11 12  1  0  0  0  0
 11 28  1  0  0  0  0
 11 29  1  0  0  0  0
 12 13  1  0  0  0  0
 12 30  1  0  0  0  0
 12 31  1  0  0  0  0
 13 14  1  0  0  0  0
 13 15  1  0  0  0  0
 13 32  1  0  0  0  0
 14 33  1  0  0  0  0
 14 34  1  0  0  0  0
 14 35  1  0  0  0  0
 15 16  1  0  0  0  0
 15 17  1  0  0  0  0
 15 36  1  0  0  0  0
 16 37  1  0  0  0  0
 16 38  1  0  0  0  0
 16 39  1  0  0  0  0
 17 40  1  0  0  0  0
 17 41  1  0  0  0  0
M  CHG  1   9   1
M  END
> <s_m_source_file>
AV-unprocessed.smi

> <i_m_source_file_index>
3181

> <i_lp_mmshare_version>
43012

> <i_f3d_flags>
0

> <s_epik_input>
bjFbY0hdbltjSF1uMVtDSDJdW0NAQEhdKFtDSDNdKVtOSF1bQ0BASF0yW0NIMl1bQ0gyXVtDQEBIXShbQ0gzXSlbQ0BASF0oW0NIM10pW0NIMl0y

> <s_epik_cmdline>
J2VwaWtfcHl0aG9uJywgJy1waCcsICc3LjAnLCAnLXRuJywgJzgnLCAnLW1hJywgJzIwMCcsICctbWV0YWxfYmluZGluZycsICctaW1hZScsICc8aW5maWxlLm1hZT4nLCAnLW9tYWUnLCAnPG91dGZpbGUubWFlPic=

> <r_lp_tautomer_probability>
1

> <r_epik_Ionization_Penalty>
0.000617007

> <r_epik_Ionization_Penalty_Charging>
0.000616215

> <r_epik_Ionization_Penalty_Neutral>
7.92544e-07

> <r_epik_State_Penalty>
0.000388807

> <r_epik_Charging_Adjusted_Penalty>
0.00100502

> <i_epik_Tot_Q>
1

> <i_epik_Tot_abs_Q>
1

> <r_epik_Metal_State_Penalty>
-0

> <b_epik_Metal_Only>
0

> <s_lp_Force_Field>
OPLS_2005

> <r_lp_Energy>
23.3583

> <b_lp_Chiralities_Consistent>
1

> <s_lp_Variant>
AV-unprocessed.smi:3181-5

> <Gold.Version>
5.8.1

> <Gold.Id.Protein>
6NUR|6NUR_protein|mol2

> <Gold.PLP.Fitness>
46.0213

> <Gold.PLP.PLP>
-38.5773

> <Gold.PLP.part.hbond>
-1.0000

> <Gold.PLP.part.metal>
0.0000

> <Gold.PLP.part.buried>
-4.5467

> <Gold.PLP.part.nonpolar>
-33.6462

> <Gold.PLP.part.repulsive>
0.4251

> <Gold.PLP.ligand.clash>
0.0000

> <Gold.PLP.ligand.torsion>
0.4784

> <Gold.PLP.Chemscore.Hbond>
1.7920

> <Gold.PLP.Chemscore.CHOScore>
0.9991

> <Gold.PLP.Chemscore.Metal>
0.0000

> <Gold.Chemscore.Hbonds>
donor molecule, donor type, donor heavy atom, donor atom, acceptor molecule, acceptor atom, score
      L1  H     9    26       P1  8028  1.66
      L1  C     7    25       P1  7948  1.00

> <Gold.PLP.Chemscore.Internal.Correction>
0.0276

> <Gold.Rescore>
     Score         DG    S(hbond)    S(metal)    S(lipo)     H(rot)  DE(clash)    DE(int)     intcor
     13.31     -15.05       0.96        0.00     100.64       2.11       0.27       1.47       ----

> <Gold.Chemscore.Fitness>
13.3059

> <Gold.Chemscore.DG>
-15.0456

> <Gold.Chemscore.ZeroCoef>
-5.4800

> <Gold.Chemscore.Hbond>
0.9553

> <Gold.Chemscore.Metal>
0.0000

> <Gold.Chemscore.Lipo>
100.6438

> <Gold.Chemscore.Internal_Hbond>
0.0000

> <Gold.Chemscore.DEClash>
0.2687

> <Gold.Chemscore.DEInternal>
1.4709

> <Gold.Chemscore.Rot>
2.1095

> <Gold.Chemscore.Internal.Correction>
   9.000000E+99

> <Gold.Chemscore.Hbonds>
donor molecule, donor type, donor heavy atom, donor atom, acceptor molecule, acceptor atom, score
      L1  H     9    26       P1  8028  0.67

> <Gold.Chemscore.Hbond.Weighted>
-3.1906

> <Gold.Chemscore.Metal.Weighted>
-0.0000

> <Gold.Chemscore.Lipo.Weighted>
-11.7753

> <Gold.Chemscore.Internal_Hbond.Weighted>
0.0000

> <Gold.Chemscore.DEClash.Weighted>
0.2687

> <Gold.Chemscore.DEInternal.Weighted>
1.4709

> <Gold.Chemscore.Rot.Weighted>
5.4003

> <Gold.Chemscore.Internal.Correction.Weighted>
   9.000000E+99

> <Gold.Protein.RotatedTorsions>
[ 6907 6896 6895 6894 ] final  -32.96 input  -60.11 | X-H torsion
[ 7974 7965 7964 7962 ] final   87.58 input  175.53 | X-H torsion
[ 8008 7997 7996 7995 ] final   58.46 input   59.86 | X-H torsion
[ 10167 10162 10161 10158 ] final   65.30 input  -65.29 | X-H torsion
[ 10718 10713 10712 10709 ] final  -90.78 input   66.30 | X-H torsion
[ 10763 10752 10751 10750 ] final  127.26 input  -60.55 | X-H torsion
[ 11005 11000 10999 10996 ] final -148.11 input  -57.11 | X-H torsion

> <Gold.Protein.ActiveResidues>
 VAL166  LYS551  ARG553  GLY616  TRP617  ASP618  TYR619  PRO620  LYS621  CYS622 
 ASP623  PHE694  ASN695  SER759  ASP760  ASP761  ALA762  ILE779  LEU786  VAL792 
 PHE793  MET794  SER795  GLU796  ALA797  LYS798  CYS799  TRP800  GLU811  SER814 

> <Gold.Protein.RotatedAtoms>
  151.0719  134.9804  159.8312 H   0  0  0  0  0  0  0  0  0  0  0  0  # atno 6907 bound_to 6896
  152.5409  134.2288  159.8827 H   0  0  0  0  0  0  0  0  0  0  0  0  # atno 6908 bound_to 6896
  151.2313  133.4405  159.2637 H   0  0  0  0  0  0  0  0  0  0  0  0  # atno 6909 bound_to 6896
  145.5571  139.2300  143.2480 H   0  0  0  0  0  0  0  0  0  0  0  0  # atno 7974 bound_to 7965
  155.5503  140.3486  155.4467 H   0  0  0  0  0  0  0  0  0  0  0  0  # atno 8008 bound_to 7997
  156.0588  140.1335  156.9992 H   0  0  0  0  0  0  0  0  0  0  0  0  # atno 8009 bound_to 7997
  154.4469  140.0989  156.6470 H   0  0  0  0  0  0  0  0  0  0  0  0  # atno 8010 bound_to 7997
  140.1128  144.4802  150.6967 H   0  0  0  0  0  0  0  0  0  0  0  0  # atno 10167 bound_to 10162
  155.9989  130.4923  150.5375 H   0  0  0  0  0  0  0  0  0  0  0  0  # atno 10718 bound_to 10713
  153.7066  135.3275  155.3237 H   0  0  0  0  0  0  0  0  0  0  0  0  # atno 10763 bound_to 10752
  154.8397  135.4467  154.1356 H   0  0  0  0  0  0  0  0  0  0  0  0  # atno 10764 bound_to 10752
  153.2439  135.6974  153.7832 H   0  0  0  0  0  0  0  0  0  0  0  0  # atno 10765 bound_to 10752
  140.7647  134.3258  157.5092 H   0  0  0  0  0  0  0  0  0  0  0  0  # atno 11005 bound_to 11000
  146.1877  140.6395  142.9160 LP  0  0  0  0  0  0  0  0  0  0  0  0  # atno 17320 bound_to 7965
  144.7501  140.5168  143.6808 LP  0  0  0  0  0  0  0  0  0  0  0  0  # atno 17321 bound_to 7965
  140.6916  143.2379  151.5116 LP  0  0  0  0  0  0  0  0  0  0  0  0  # atno 17342 bound_to 10162
  139.5610  144.2157  152.1691 LP  0  0  0  0  0  0  0  0  0  0  0  0  # atno 17343 bound_to 10162
  157.3316  131.0700  151.1856 LP  0  0  0  0  0  0  0  0  0  0  0  0  # atno 17370 bound_to 10713
  157.2735  130.6715  149.6031 LP  0  0  0  0  0  0  0  0  0  0  0  0  # atno 17371 bound_to 10713
  139.8765  134.9224  156.3298 LP  0  0  0  0  0  0  0  0  0  0  0  0  # atno 17394 bound_to 11000
  140.9630  133.7376  156.0428 LP  0  0  0  0  0  0  0  0  0  0  0  0  # atno 17395 bound_to 11000

$$$$
