#       Name:                AV-unprocessed.smi:3162
#       Creating user name   scv26
#       Creation time:       Fri Mar 27 17:49:35 2020


#       File generated by GOLD software.
#

@<TRIPOS>MOLECULE
AV-unprocessed.smi:3162
    40    40     1
SMALL
NO_CHARGES


@<TRIPOS>ATOM
      1 ****        -3.7698   2.5803  -1.1271 C.3            1 S1                 0.0000
      2 ****        -3.1673   1.1712  -1.0129 C.3            1 S1                 0.0000
      3 ****        -2.1449   0.9999   0.1320 C.3            1 S1                 0.0000
      4 ****        -1.4907  -0.3245   0.0040 N.4            1 S1                 1.0000
      5 ****        -0.0198  -0.3582   0.1845 C.3            1 S1                 0.0000
      6 ****         0.3814  -0.0630   1.6436 C.3            1 S1                 0.0000
      7 ****         0.5153  -1.7169  -0.3119 C.3            1 S1                 0.0000
      8 ****         1.9644  -1.8027  -0.2755 N.pl3          1 S1                 0.0000
      9 ****         2.8745  -1.2681  -1.1623 C.2            1 S1                 0.0000
     10 ****         4.1231  -1.6097  -0.7265 C.2            1 S1                 0.0000
     11 ****         5.4530  -1.2736  -1.3374 C.3            1 S1                 0.0000
     12 ****         3.8664  -2.3670   0.4519 C.2            1 S1                 0.0000
     13 ****         2.5753  -2.4823   0.7181 N.2            1 S1                 0.0000
     14 ****        -2.8170   1.1323   1.5082 C.2            1 S1                 0.0000
     15 ****        -2.7701   2.3279   2.1020 N.am           1 S1                 0.0000
     16 ****        -3.3762   0.1677   2.0268 O.2            1 S1                 0.0000
     17 ****        -4.4206   2.6510  -1.9990 H              1 S1                 0.0000
     18 ****        -2.9901   3.3346  -1.2349 H              1 S1                 0.0000
     19 ****        -4.3692   2.8370  -0.2535 H              1 S1                 0.0000
     20 ****        -3.9725   0.4418  -0.9095 H              1 S1                 0.0000
     21 ****        -2.6768   0.9398  -1.9597 H              1 S1                 0.0000
     22 ****        -1.3889   1.7802   0.0264 H              1 S1                 0.0000
     23 ****        -1.9271  -0.9664   0.6509 H              1 S1                 0.0000
     24 ****         0.4084   0.4158  -0.4544 H              1 S1                 0.0000
     25 ****         1.4636  -0.0743   1.7727 H              1 S1                 0.0000
     26 ****        -0.0410  -0.8005   2.3270 H              1 S1                 0.0000
     27 ****         0.0425   0.9219   1.9635 H              1 S1                 0.0000
     28 ****         0.0972  -2.5309   0.2833 H              1 S1                 0.0000
     29 ****         0.1984  -1.8920  -1.3410 H              1 S1                 0.0000
     30 ****         2.5615  -0.6942  -2.0222 H              1 S1                 0.0000
     31 ****         6.2754  -1.7621  -0.8142 H              1 S1                 0.0000
     32 ****         5.6477  -0.2013  -1.3116 H              1 S1                 0.0000
     33 ****         5.5066  -1.5857  -2.3805 H              1 S1                 0.0000
     34 ****         4.5770  -2.8350   1.1175 H              1 S1                 0.0000
     35 ****        -3.1905   2.4627   3.0102 H              1 S1                 0.0000
     36 ****        -2.3043   3.0967   1.6409 H              1 S1                 0.0000
     37 ****        -1.6750  -0.6499  -0.9339 H              1 S1                 0.0000
     38 ****         2.1483  -2.9644   1.4832 LP             1 S1                 0.0000
     39 ****        -3.3965  -0.7127   1.5530 LP             1 S1                 0.0000
     40 ****        -3.8106   0.2636   2.9224 LP             1 S1                 0.0000
@<TRIPOS>BOND
    1    1    2 1     
    2    1   17 1     
    3    1   18 1     
    4    1   19 1     
    5    2    3 1     
    6    2   20 1     
    7    2   21 1     
    8    3    4 1     
    9    3   14 1     
   10    3   22 1     
   11    4    5 1     
   12    4   23 1     
   13    4   37 1     
   14    5    6 1     
   15    5    7 1     
   16    5   24 1     
   17    6   25 1     
   18    6   26 1     
   19    6   27 1     
   20    7    8 1     
   21    7   28 1     
   22    7   29 1     
   23    8   13 1     
   24    8    9 1     
   25    9   10 2     
   26    9   30 1     
   27   10   11 1     
   28   10   12 1     
   29   11   31 1     
   30   11   32 1     
   31   11   33 1     
   32   12   13 2     
   33   12   34 1     
   34   14   15 am    
   35   14   16 2     
   36   15   35 1     
   37   15   36 1     
   38   13   38 1     
   39   16   39 1     
   40   16   40 1     
@<TRIPOS>SUBSTRUCTURE
      1 S1             1
@<TRIPOS>SET
LONE_PAIRS      STATIC     ATOMS    <user>   **** ""
3 38 39 40
DONOR_HYDROGENS      STATIC     ATOMS    <user>   **** ""
4 23 37 35 36
ATOM$BLUE        STATIC     ATOMS    COLORGROUP SYSTEM
3 38 39 40
ATOM$RED        STATIC     ATOMS    COLORGROUP SYSTEM
4 23 37 35 36
