AV-unprocessed.smi:148|AV-procd|sdf|1203|dock10
  -GOLD-   2262018373D 1   1.00000     0.00000
 Structure written by MMmdl.
 63 67  0  0  0  0  0  0  0  0  1 V2000
  145.9075  129.5273  153.1895 O   0  0  0  0  0  0  0  0  0  0  0  0
  146.7226  130.6570  153.4267 C   0  0  0  0  0  0  0  0  0  0  0  0
  145.9732  131.9737  153.1084 C   0  0  1  0  0  0  0  0  0  0  0  0
  146.7945  133.1736  153.6578 C   0  0  0  0  0  0  0  0  0  0  0  0
  146.7108  133.3823  155.0938 N   0  0  0  0  0  0  0  0  0  0  0  0
  145.5584  133.4677  155.8439 C   0  0  0  0  0  0  0  0  0  0  0  0
  145.7351  133.7053  157.1151 N   0  0  0  0  0  0  0  0  0  0  0  0
  147.1135  133.8060  157.2474 C   0  0  0  0  0  0  0  0  0  0  0  0
  147.9808  134.0701  158.3395 C   0  0  0  0  0  0  0  0  0  0  0  0
  147.5045  134.3548  159.5723 N   0  0  0  0  0  0  0  0  0  0  0  0
  147.6762  135.7912  159.8081 C   0  0  0  0  0  0  0  0  0  0  0  0
  146.9095  136.2586  161.0472 C   0  0  0  0  0  0  0  0  0  0  0  0
  147.3473  135.4384  162.2592 C   0  0  0  0  0  0  0  0  0  0  0  0
  147.1375  133.9466  161.9754 C   0  0  0  0  0  0  0  0  0  0  0  0
  147.8687  133.4581  160.6915 C   0  0  1  0  0  0  0  0  0  0  0  0
  147.5398  131.9471  160.4225 C   0  0  2  0  0  0  0  0  0  0  0  0
  146.0324  131.6383  160.3084 C   0  0  0  0  0  0  0  0  0  0  0  0
  145.8944  130.1539  160.6171 C   0  0  0  0  0  0  0  0  0  0  0  0
  146.8637  129.9576  161.7737 C   0  0  0  0  0  0  0  0  0  0  0  0
  148.0198  130.9331  161.4994 C   0  0  1  0  0  0  0  0  0  0  0  0
  149.1228  130.1908  161.0227 O   0  0  0  0  0  0  0  0  0  0  0  0
  149.3174  134.1171  158.0956 N   0  0  0  0  0  0  0  0  0  0  0  0
  149.7755  133.8980  156.8588 C   0  0  0  0  0  0  0  0  0  0  0  0
  149.0857  133.6421  155.7443 N   0  0  0  0  0  0  0  0  0  0  0  0
  147.7440  133.6055  155.9880 C   0  0  0  0  0  0  0  0  0  0  0  0
  145.6583  132.0980  151.5876 C   0  0  2  0  0  0  0  0  0  0  0  0
  145.1661  133.4708  151.1332 C   0  0  0  0  0  0  0  0  0  0  0  0
  144.1913  133.1922  149.9862 C   0  0  0  0  0  0  0  0  0  0  0  0
  144.1850  131.7826  149.8271 O   0  0  0  0  0  0  0  0  0  0  0  0
  144.5194  131.2096  151.0778 C   0  0  0  0  0  0  0  0  0  0  0  0
  145.1516  129.5778  153.7545 H   0  0  0  0  0  0  0  0  0  0  0  0
  147.0646  130.6455  154.4621 H   0  0  0  0  0  0  0  0  0  0  0  0
  147.6028  130.5355  152.7966 H   0  0  0  0  0  0  0  0  0  0  0  0
  145.0222  131.9307  153.6410 H   0  0  0  0  0  0  0  0  0  0  0  0
  147.8520  133.0498  153.4235 H   0  0  0  0  0  0  0  0  0  0  0  0
  146.4810  134.0916  153.1585 H   0  0  0  0  0  0  0  0  0  0  0  0
  144.5738  133.3488  155.4157 H   0  0  0  0  0  0  0  0  0  0  0  0
  148.7372  136.0149  159.9311 H   0  0  0  0  0  0  0  0  0  0  0  0
  147.3318  136.3583  158.9413 H   0  0  0  0  0  0  0  0  0  0  0  0
  147.0900  137.3193  161.2231 H   0  0  0  0  0  0  0  0  0  0  0  0
  145.8368  136.1438  160.8856 H   0  0  0  0  0  0  0  0  0  0  0  0
  148.3982  135.6302  162.4799 H   0  0  0  0  0  0  0  0  0  0  0  0
  146.7805  135.7378  163.1413 H   0  0  0  0  0  0  0  0  0  0  0  0
  147.4753  133.3988  162.8541 H   0  0  0  0  0  0  0  0  0  0  0  0
  146.0682  133.7508  161.8816 H   0  0  0  0  0  0  0  0  0  0  0  0
  148.9414  133.5554  160.8650 H   0  0  0  0  0  0  0  0  0  0  0  0
  147.9758  131.6742  159.4591 H   0  0  0  0  0  0  0  0  0  0  0  0
  145.4722  132.2004  161.0572 H   0  0  0  0  0  0  0  0  0  0  0  0
  145.6257  131.8879  159.3279 H   0  0  0  0  0  0  0  0  0  0  0  0
  144.8730  129.8681  160.8699 H   0  0  0  0  0  0  0  0  0  0  0  0
  146.2102  129.5620  159.7568 H   0  0  0  0  0  0  0  0  0  0  0  0
  146.3692  130.2412  162.7038 H   0  0  0  0  0  0  0  0  0  0  0  0
  147.1807  128.9191  161.8823 H   0  0  0  0  0  0  0  0  0  0  0  0
  148.2936  131.4263  162.4312 H   0  0  0  0  0  0  0  0  0  0  0  0
  148.8317  129.3130  160.8286 H   0  0  0  0  0  0  0  0  0  0  0  0
  150.8485  133.9414  156.7436 H   0  0  0  0  0  0  0  0  0  0  0  0
  146.5520  131.8432  151.0153 H   0  0  0  0  0  0  0  0  0  0  0  0
  144.6375  133.9805  151.9391 H   0  0  0  0  0  0  0  0  0  0  0  0
  145.9852  134.1124  150.8094 H   0  0  0  0  0  0  0  0  0  0  0  0
  143.1884  133.5366  150.2420 H   0  0  0  0  0  0  0  0  0  0  0  0
  144.4920  133.6792  149.0583 H   0  0  0  0  0  0  0  0  0  0  0  0
  144.8153  130.1675  150.9549 H   0  0  0  0  0  0  0  0  0  0  0  0
  143.6541  131.2503  151.7420 H   0  0  0  0  0  0  0  0  0  0  0  0
  1  2  1  0  0  0  0
  1 31  1  0  0  0  0
  2  3  1  0  0  0  0
  2 32  1  0  0  0  0
  2 33  1  0  0  0  0
  3  4  1  0  0  0  0
  3 26  1  0  0  0  0
  3 34  1  0  0  0  0
  4  5  1  0  0  0  0
  4 35  1  0  0  0  0
  4 36  1  0  0  0  0
  5 25  1  0  0  0  0
  5  6  1  0  0  0  0
  6  7  2  0  0  0  0
  6 37  1  0  0  0  0
  7  8  1  0  0  0  0
  8 25  2  0  0  0  0
  8  9  1  0  0  0  0
  9 10  1  0  0  0  0
  9 22  2  0  0  0  0
 10 15  1  0  0  0  0
 10 11  1  0  0  0  0
 11 12  1  0  0  0  0
 11 38  1  0  0  0  0
 11 39  1  0  0  0  0
 12 13  1  0  0  0  0
 12 40  1  0  0  0  0
 12 41  1  0  0  0  0
 13 14  1  0  0  0  0
 13 42  1  0  0  0  0
 13 43  1  0  0  0  0
 14 15  1  0  0  0  0
 14 44  1  0  0  0  0
 14 45  1  0  0  0  0
 15 16  1  0  0  0  0
 15 46  1  0  0  0  0
 16 20  1  0  0  0  0
 16 17  1  0  0  0  0
 16 47  1  0  0  0  0
 17 18  1  0  0  0  0
 17 48  1  0  0  0  0
 17 49  1  0  0  0  0
 18 19  1  0  0  0  0
 18 50  1  0  0  0  0
 18 51  1  0  0  0  0
 19 20  1  0  0  0  0
 19 52  1  0  0  0  0
 19 53  1  0  0  0  0
 20 21  1  0  0  0  0
 20 54  1  0  0  0  0
 21 55  1  0  0  0  0
 22 23  1  0  0  0  0
 23 24  2  0  0  0  0
 23 56  1  0  0  0  0
 24 25  1  0  0  0  0
 26 30  1  0  0  0  0
 26 27  1  0  0  0  0
 26 57  1  0  0  0  0
 27 28  1  0  0  0  0
 27 58  1  0  0  0  0
 27 59  1  0  0  0  0
 28 29  1  0  0  0  0
 28 60  1  0  0  0  0
 28 61  1  0  0  0  0
 29 30  1  0  0  0  0
 30 62  1  0  0  0  0
 30 63  1  0  0  0  0
M  END
> <s_m_source_file>
AV-unprocessed.smi

> <i_m_source_file_index>
148

> <i_lp_mmshare_version>
43012

> <i_f3d_flags>
0

> <s_epik_input>
W0NIMl0xT1tDSDJdW0NIMl1bQ0BIXTFbQ0BIXShbQ0gyXVtPSF0pW0NIMl1uKFtjSF1uMiljKGMyMyluW2NIXW5jM040W0NIMl1bQ0gyXVtDSDJdW0NIMl1bQ0BIXTRbQ0BASF01W0NIMl1bQ0gyXVtDSDJdW0NASF01W09IXQ==

> <s_epik_cmdline>
J2VwaWtfcHl0aG9uJywgJy1waCcsICc3LjAnLCAnLXRuJywgJzgnLCAnLW1hJywgJzIwMCcsICctbWV0YWxfYmluZGluZycsICctaW1hZScsICc8aW5maWxlLm1hZT4nLCAnLW9tYWUnLCAnPG91dGZpbGUubWFlPic=

> <r_lp_tautomer_probability>
1

> <r_epik_Ionization_Penalty>
0.00556303

> <r_epik_Ionization_Penalty_Charging>
0

> <r_epik_Ionization_Penalty_Neutral>
0.00556303

> <r_epik_State_Penalty>
0.00401767

> <r_epik_Charging_Adjusted_Penalty>
0.00401767

> <i_epik_Tot_Q>
0

> <i_epik_Tot_abs_Q>
0

> <r_epik_Metal_State_Penalty>
-0

> <b_epik_Metal_Only>
0

> <s_lp_Force_Field>
OPLS_2005

> <r_lp_Energy>
69.6021

> <b_lp_Chiralities_Consistent>
1

> <s_lp_Variant>
AV-unprocessed.smi:148-2

> <Gold.Version>
5.8.1

> <Gold.Id.Protein>
6NUR|6NUR_protein|mol2

> <Gold.PLP.Fitness>
46.5416

> <Gold.PLP.PLP>
-37.0245

> <Gold.PLP.part.hbond>
-3.0000

> <Gold.PLP.part.metal>
0.0000

> <Gold.PLP.part.buried>
-7.8412

> <Gold.PLP.part.nonpolar>
-27.7981

> <Gold.PLP.part.repulsive>
0.2120

> <Gold.PLP.ligand.clash>
0.0000

> <Gold.PLP.ligand.torsion>
0.7149

> <Gold.PLP.Chemscore.Hbond>
2.5265

> <Gold.PLP.Chemscore.CHOScore>
0.9973

> <Gold.PLP.Chemscore.Metal>
0.0000

> <Gold.Chemscore.Hbonds>
donor molecule, donor type, donor heavy atom, donor atom, acceptor molecule, acceptor atom, score
      L1  H     1    31       P1 10956  0.75
      P1  H  6896  6908       L1    22  1.00
      P1  H 10785 10796       L1    29  0.40
      L1  C     6    37       P1 10957  0.96

> <Gold.PLP.Chemscore.Internal.Correction>
0.3756

> <Gold.Rescore>
     Score         DG    S(hbond)    S(metal)    S(lipo)     H(rot)  DE(clash)    DE(int)     intcor
     15.74     -16.96       2.52        0.00      98.73       3.32       0.15       1.07       ----

> <Gold.Chemscore.Fitness>
15.7403

> <Gold.Chemscore.DG>
-16.9619

> <Gold.Chemscore.ZeroCoef>
-5.4800

> <Gold.Chemscore.Hbond>
2.5242

> <Gold.Chemscore.Metal>
0.0000

> <Gold.Chemscore.Lipo>
98.7268

> <Gold.Chemscore.Internal_Hbond>
0.0000

> <Gold.Chemscore.DEClash>
0.1489

> <Gold.Chemscore.DEInternal>
1.0727

> <Gold.Chemscore.Rot>
3.3203

> <Gold.Chemscore.Internal.Correction>
   9.000000E+99

> <Gold.Chemscore.Hbonds>
donor molecule, donor type, donor heavy atom, donor atom, acceptor molecule, acceptor atom, score
      L1  H     1    31       P1 10956  0.45
      P1  H  6896  6908       L1    22  0.70
      P1  H 10785 10796       L1    29  0.15

> <Gold.Chemscore.Hbond.Weighted>
-8.4309

> <Gold.Chemscore.Metal.Weighted>
-0.0000

> <Gold.Chemscore.Lipo.Weighted>
-11.5510

> <Gold.Chemscore.Internal_Hbond.Weighted>
0.0000

> <Gold.Chemscore.DEClash.Weighted>
0.1489

> <Gold.Chemscore.DEInternal.Weighted>
1.0727

> <Gold.Chemscore.Rot.Weighted>
8.5000

> <Gold.Chemscore.Internal.Correction.Weighted>
   9.000000E+99

> <Gold.Protein.RotatedTorsions>
[ 6907 6896 6895 6894 ] final  129.46 input  -60.11 | X-H torsion
[ 7974 7965 7964 7962 ] final    3.95 input  175.53 | X-H torsion
[ 8008 7997 7996 7995 ] final  101.69 input   59.86 | X-H torsion
[ 10167 10162 10161 10158 ] final   31.64 input  -65.29 | X-H torsion
[ 10718 10713 10712 10709 ] final -135.89 input   66.30 | X-H torsion
[ 10763 10752 10751 10750 ] final  165.00 input  -60.55 | X-H torsion
[ 11005 11000 10999 10996 ] final   94.60 input  -57.11 | X-H torsion

> <Gold.Protein.ActiveResidues>
 VAL166  LYS551  ARG553  GLY616  TRP617  ASP618  TYR619  PRO620  LYS621  CYS622 
 ASP623  PHE694  ASN695  SER759  ASP760  ASP761  ALA762  ILE779  LEU786  VAL792 
 PHE793  MET794  SER795  GLU796  ALA797  LYS798  CYS799  TRP800  GLU811  SER814 

> <Gold.Protein.RotatedAtoms>
  152.3621  133.6310  159.6022 H   0  0  0  0  0  0  0  0  0  0  0  0  # atno 6907 bound_to 6896
  150.7608  133.9406  159.3464 H   0  0  0  0  0  0  0  0  0  0  0  0  # atno 6908 bound_to 6896
  151.7243  135.0889  160.0340 H   0  0  0  0  0  0  0  0  0  0  0  0  # atno 6909 bound_to 6896
  146.2444  140.0607  142.8368 H   0  0  0  0  0  0  0  0  0  0  0  0  # atno 7974 bound_to 7965
  156.1322  140.3193  155.8367 H   0  0  0  0  0  0  0  0  0  0  0  0  # atno 8008 bound_to 7997
  155.4310  140.0519  157.3035 H   0  0  0  0  0  0  0  0  0  0  0  0  # atno 8009 bound_to 7997
  154.4909  140.2091  155.9564 H   0  0  0  0  0  0  0  0  0  0  0  0  # atno 8010 bound_to 7997
  140.4570  144.0963  150.6204 H   0  0  0  0  0  0  0  0  0  0  0  0  # atno 10167 bound_to 10162
  156.2711  130.7266  151.1233 H   0  0  0  0  0  0  0  0  0  0  0  0  # atno 10718 bound_to 10713
  154.3174  135.2756  155.2536 H   0  0  0  0  0  0  0  0  0  0  0  0  # atno 10763 bound_to 10752
  154.4905  135.5835  153.6459 H   0  0  0  0  0  0  0  0  0  0  0  0  # atno 10764 bound_to 10752
  152.9880  135.6133  154.3356 H   0  0  0  0  0  0  0  0  0  0  0  0  # atno 10765 bound_to 10752
  139.8797  134.8854  156.3888 H   0  0  0  0  0  0  0  0  0  0  0  0  # atno 11005 bound_to 11000
  145.0902  140.9279  143.4773 LP  0  0  0  0  0  0  0  0  0  0  0  0  # atno 17320 bound_to 7965
  145.0778  139.2982  143.5799 LP  0  0  0  0  0  0  0  0  0  0  0  0  # atno 17321 bound_to 7965
  140.4139  143.2643  151.9799 LP  0  0  0  0  0  0  0  0  0  0  0  0  # atno 17342 bound_to 10162
  139.4802  144.5891  151.7802 LP  0  0  0  0  0  0  0  0  0  0  0  0  # atno 17343 bound_to 10162
  157.7284  131.0632  150.5822 LP  0  0  0  0  0  0  0  0  0  0  0  0  # atno 17370 bound_to 10713
  156.5918  130.4331  149.5933 LP  0  0  0  0  0  0  0  0  0  0  0  0  # atno 17371 bound_to 10713
  140.9348  133.7555  156.0070 LP  0  0  0  0  0  0  0  0  0  0  0  0  # atno 17394 bound_to 11000
  140.8289  134.3202  157.5356 LP  0  0  0  0  0  0  0  0  0  0  0  0  # atno 17395 bound_to 11000

$$$$
