AV-unprocessed.smi:2226|AV-procd|sdf|9001|dock5
  -GOLD-   2272012213D 1   1.00000     0.00000
 Structure written by MMmdl.
 40 42  0  0  0  0  0  0  0  0  2 V2000
  149.4247  138.6931  154.3920 C   0  0  0  0  0  0  0  0  0  0  0  0
  148.2236  138.2477  153.6462 N   0  3  2  0  0  0  0  0  0  0  0  0
  147.5588  139.3056  152.8485 C   0  0  2  0  0  0  0  0  0  0  0  0
  146.8558  140.3441  153.7584 C   0  0  0  0  0  0  0  0  0  0  0  0
  145.9188  139.7273  154.8128 C   0  0  0  0  0  0  0  0  0  0  0  0
  146.5054  138.4592  155.4576 C   0  0  0  0  0  0  0  0  0  0  0  0
  147.2215  137.5170  154.4583 C   0  0  1  0  0  0  0  0  0  0  0  0
  146.2845  136.7271  153.5152 C   0  0  0  0  0  0  0  0  0  0  0  0
  145.7187  137.5187  152.3027 C   0  0  1  0  0  0  0  0  0  0  0  0
  144.3592  138.0101  152.5161 N   0  0  0  0  0  0  0  0  0  0  0  0
  143.3063  137.2668  152.8881 C   0  0  0  0  0  0  0  0  0  0  0  0
  143.3729  136.0573  153.1084 O   0  0  0  0  0  0  0  0  0  0  0  0
  142.1933  138.0127  152.9845 N   0  0  0  0  0  0  0  0  0  0  0  0
  140.8991  137.5837  153.3720 C   0  0  0  0  0  0  0  0  0  0  0  0
  139.7395  138.1445  153.0257 N   0  0  0  0  0  0  0  0  0  0  0  0
  138.7753  137.3644  153.6473 C   0  0  0  0  0  0  0  0  0  0  0  0
  139.4128  136.3672  154.3395 C   0  0  0  0  0  0  0  0  0  0  0  0
  140.7657  136.4936  154.1726 O   0  0  0  0  0  0  0  0  0  0  0  0
  146.6541  138.6410  151.7847 C   0  0  0  0  0  0  0  0  0  0  0  0
  149.1878  139.4331  155.1560 H   0  0  0  0  0  0  0  0  0  0  0  0
  150.1526  139.1335  153.7101 H   0  0  0  0  0  0  0  0  0  0  0  0
  149.9046  137.8450  154.8811 H   0  0  0  0  0  0  0  0  0  0  0  0
  148.3331  139.8406  152.2967 H   0  0  0  0  0  0  0  0  0  0  0  0
  147.6179  140.9260  154.2772 H   0  0  0  0  0  0  0  0  0  0  0  0
  146.3063  141.0648  153.1519 H   0  0  0  0  0  0  0  0  0  0  0  0
  145.7094  140.4650  155.5882 H   0  0  0  0  0  0  0  0  0  0  0  0
  144.9489  139.5124  154.3781 H   0  0  0  0  0  0  0  0  0  0  0  0
  147.2175  138.7618  156.2258 H   0  0  0  0  0  0  0  0  0  0  0  0
  145.7213  137.9180  155.9880 H   0  0  0  0  0  0  0  0  0  0  0  0
  147.7546  136.7722  155.0511 H   0  0  0  0  0  0  0  0  0  0  0  0
  146.8699  135.9012  153.1085 H   0  0  0  0  0  0  0  0  0  0  0  0
  145.4888  136.2480  154.0867 H   0  0  0  0  0  0  0  0  0  0  0  0
  145.6248  136.8069  151.4798 H   0  0  0  0  0  0  0  0  0  0  0  0
  144.2054  138.9952  152.3574 H   0  0  0  0  0  0  0  0  0  0  0  0
  142.2787  138.9930  152.7606 H   0  0  0  0  0  0  0  0  0  0  0  0
  137.7210  137.5775  153.5494 H   0  0  0  0  0  0  0  0  0  0  0  0
  139.0739  135.5477  154.9557 H   0  0  0  0  0  0  0  0  0  0  0  0
  146.0909  139.3961  151.2343 H   0  0  0  0  0  0  0  0  0  0  0  0
  147.3165  138.1893  151.0444 H   0  0  0  0  0  0  0  0  0  0  0  0
  148.5732  137.5777  152.9761 H   0  0  0  0  0  0  0  0  0  0  0  0
  1  2  1  0  0  0  0
  1 20  1  0  0  0  0
  1 21  1  0  0  0  0
  1 22  1  0  0  0  0
  2  7  1  0  0  0  0
  2  3  1  0  0  0  0
  2 40  1  0  0  0  0
  3 19  1  0  0  0  0
  3  4  1  0  0  0  0
  3 23  1  0  0  0  0
  4  5  1  0  0  0  0
  4 24  1  0  0  0  0
  4 25  1  0  0  0  0
  5  6  1  0  0  0  0
  5 26  1  0  0  0  0
  5 27  1  0  0  0  0
  6  7  1  0  0  0  0
  6 28  1  0  0  0  0
  6 29  1  0  0  0  0
  7  8  1  0  0  0  0
  7 30  1  0  0  0  0
  8  9  1  0  0  0  0
  8 31  1  0  0  0  0
  8 32  1  0  0  0  0
  9 10  1  0  0  0  0
  9 19  1  0  0  0  0
  9 33  1  0  0  0  0
 10 11  1  0  0  0  0
 10 34  1  0  0  0  0
 11 12  2  0  0  0  0
 11 13  1  0  0  0  0
 13 14  1  0  0  0  0
 13 35  1  0  0  0  0
 14 18  1  0  0  0  0
 14 15  2  0  0  0  0
 15 16  1  0  0  0  0
 16 17  2  0  0  0  0
 16 36  1  0  0  0  0
 17 18  1  0  0  0  0
 17 37  1  0  0  0  0
 19 38  1  0  0  0  0
 19 39  1  0  0  0  0
M  CHG  1   2   1
M  END
> <s_m_source_file>
AV-unprocessed.smi

> <i_m_source_file_index>
2226

> <i_lp_mmshare_version>
43012

> <i_f3d_flags>
0

> <s_epik_input>
W0NIMl0xW0NIMl1bQ0gyXVtDQEhdKE4oW0NIM10pW0NIXTEyKVtDSDJdW0NASF0oW0NIMl0yKVtOSF1DKD1PKVtOSF1jM25bY0hdW2NIXW8z

> <s_epik_cmdline>
J2VwaWtfcHl0aG9uJywgJy1waCcsICc3LjAnLCAnLXRuJywgJzgnLCAnLW1hJywgJzIwMCcsICctbWV0YWxfYmluZGluZycsICctaW1hZScsICc8aW5maWxlLm1hZT4nLCAnLW9tYWUnLCAnPG91dGZpbGUubWFlPic=

> <r_lp_tautomer_probability>
0.785861

> <r_epik_Ionization_Penalty>
0.000929358

> <r_epik_Ionization_Penalty_Charging>
0.000890041

> <r_epik_Ionization_Penalty_Neutral>
3.93161e-05

> <r_epik_State_Penalty>
0.0312137

> <r_epik_Charging_Adjusted_Penalty>
0.0321037

> <i_epik_Tot_Q>
1

> <i_epik_Tot_abs_Q>
1

> <r_epik_Metal_State_Penalty>
0.0605703

> <b_epik_Metal_Only>
0

> <s_lp_Force_Field>
OPLS_2005

> <r_lp_Energy>
36.0435

> <b_lp_Chiralities_Consistent>
1

> <s_lp_Variant>
AV-unprocessed.smi:2226-1

> <Gold.Version>
5.8.1

> <Gold.Id.Protein>
6NUR|6NUR_protein|mol2

> <Gold.PLP.Fitness>
41.6978

> <Gold.PLP.PLP>
-27.3456

> <Gold.PLP.part.hbond>
-3.9435

> <Gold.PLP.part.metal>
0.0000

> <Gold.PLP.part.buried>
-1.5669

> <Gold.PLP.part.nonpolar>
-24.0038

> <Gold.PLP.part.repulsive>
0.4250

> <Gold.PLP.ligand.clash>
0.0000

> <Gold.PLP.ligand.torsion>
0.1716

> <Gold.PLP.Chemscore.Hbond>
3.8800

> <Gold.PLP.Chemscore.CHOScore>
1.0000

> <Gold.PLP.Chemscore.Metal>
0.0000

> <Gold.Chemscore.Hbonds>
donor molecule, donor type, donor heavy atom, donor atom, acceptor molecule, acceptor atom, score
      L1  H     2    40       P1  7948  2.00
      L1  H    10    34       P1 10175  1.00
      L1  H    13    35       P1 10175  0.88
      L1  C    17    37       P1 11000  1.00

> <Gold.PLP.Chemscore.Internal.Correction>
0.0553

> <Gold.Rescore>
     Score         DG    S(hbond)    S(metal)    S(lipo)     H(rot)  DE(clash)    DE(int)     intcor
     15.53     -19.65       2.85        0.00      61.80       1.00       1.55       2.58       ----

> <Gold.Chemscore.Fitness>
15.5299

> <Gold.Chemscore.DG>
-19.6535

> <Gold.Chemscore.ZeroCoef>
-5.4800

> <Gold.Chemscore.Hbond>
2.8451

> <Gold.Chemscore.Metal>
0.0000

> <Gold.Chemscore.Lipo>
61.8020

> <Gold.Chemscore.Internal_Hbond>
0.0000

> <Gold.Chemscore.DEClash>
1.5485

> <Gold.Chemscore.DEInternal>
2.5751

> <Gold.Chemscore.Rot>
1.0000

> <Gold.Chemscore.Internal.Correction>
   9.000000E+99

> <Gold.Chemscore.Hbonds>
donor molecule, donor type, donor heavy atom, donor atom, acceptor molecule, acceptor atom, score
      L1  H     2    40       P1  7948  1.00
      L1  H    10    34       P1 10175  0.94
      L1  H    13    35       P1 10175  0.83

> <Gold.Chemscore.Hbond.Weighted>
-9.5027

> <Gold.Chemscore.Metal.Weighted>
-0.0000

> <Gold.Chemscore.Lipo.Weighted>
-7.2308

> <Gold.Chemscore.Internal_Hbond.Weighted>
0.0000

> <Gold.Chemscore.DEClash.Weighted>
1.5485

> <Gold.Chemscore.DEInternal.Weighted>
2.5751

> <Gold.Chemscore.Rot.Weighted>
2.5600

> <Gold.Chemscore.Internal.Correction.Weighted>
   9.000000E+99

> <Gold.Protein.RotatedTorsions>
[ 6907 6896 6895 6894 ] final   28.29 input  -60.11 | X-H torsion
[ 7974 7965 7964 7962 ] final  -28.90 input  175.53 | X-H torsion
[ 8008 7997 7996 7995 ] final   31.72 input   59.86 | X-H torsion
[ 10167 10162 10161 10158 ] final  161.28 input  -65.29 | X-H torsion
[ 10718 10713 10712 10709 ] final -172.97 input   66.30 | X-H torsion
[ 10763 10752 10751 10750 ] final  146.73 input  -60.55 | X-H torsion
[ 11005 11000 10999 10996 ] final  -51.94 input  -57.11 | X-H torsion

> <Gold.Protein.ActiveResidues>
 VAL166  LYS551  ARG553  GLY616  TRP617  ASP618  TYR619  PRO620  LYS621  CYS622 
 ASP623  PHE694  ASN695  SER759  ASP760  ASP761  ALA762  ILE779  LEU786  VAL792 
 PHE793  MET794  SER795  GLU796  ALA797  LYS798  CYS799  TRP800  GLU811  SER814 

> <Gold.Protein.RotatedAtoms>
  152.0148  134.9856  160.0568 H   0  0  0  0  0  0  0  0  0  0  0  0  # atno 6907 bound_to 6896
  152.1394  133.4450  159.4767 H   0  0  0  0  0  0  0  0  0  0  0  0  # atno 6908 bound_to 6896
  150.6863  134.2242  159.4452 H   0  0  0  0  0  0  0  0  0  0  0  0  # atno 6909 bound_to 6896
  146.1255  140.5342  142.8716 H   0  0  0  0  0  0  0  0  0  0  0  0  # atno 7974 bound_to 7965
  155.1110  140.3239  155.4521 H   0  0  0  0  0  0  0  0  0  0  0  0  # atno 8008 bound_to 7997
  156.2690  140.2044  156.6182 H   0  0  0  0  0  0  0  0  0  0  0  0  # atno 8009 bound_to 7997
  154.6756  140.0532  157.0199 H   0  0  0  0  0  0  0  0  0  0  0  0  # atno 8010 bound_to 7997
  139.4848  144.4552  151.8778 H   0  0  0  0  0  0  0  0  0  0  0  0  # atno 10167 bound_to 10162
  156.7635  130.9422  151.3118 H   0  0  0  0  0  0  0  0  0  0  0  0  # atno 10718 bound_to 10713
  154.0267  135.2901  155.3374 H   0  0  0  0  0  0  0  0  0  0  0  0  # atno 10763 bound_to 10752
  154.7013  135.5187  153.8534 H   0  0  0  0  0  0  0  0  0  0  0  0  # atno 10764 bound_to 10752
  153.0658  135.6630  154.0483 H   0  0  0  0  0  0  0  0  0  0  0  0  # atno 10765 bound_to 10752
  141.0898  133.6635  156.3950 H   0  0  0  0  0  0  0  0  0  0  0  0  # atno 11005 bound_to 11000
  144.7638  140.5484  143.6717 LP  0  0  0  0  0  0  0  0  0  0  0  0  # atno 17320 bound_to 7965
  145.5374  139.1475  143.3466 LP  0  0  0  0  0  0  0  0  0  0  0  0  # atno 17321 bound_to 7965
  140.4011  144.2492  150.5893 LP  0  0  0  0  0  0  0  0  0  0  0  0  # atno 17342 bound_to 10162
  140.5056  143.2305  151.8613 LP  0  0  0  0  0  0  0  0  0  0  0  0  # atno 17343 bound_to 10162
  157.6724  130.9063  150.0071 LP  0  0  0  0  0  0  0  0  0  0  0  0  # atno 17370 bound_to 10713
  156.1324  130.3643  149.9711 LP  0  0  0  0  0  0  0  0  0  0  0  0  # atno 17371 bound_to 10713
  140.5279  134.6241  157.5340 LP  0  0  0  0  0  0  0  0  0  0  0  0  # atno 17394 bound_to 11000
  139.9721  134.7275  156.0020 LP  0  0  0  0  0  0  0  0  0  0  0  0  # atno 17395 bound_to 11000

$$$$
