AV-unprocessed.smi:1990|AV-procd|sdf|8065|dock10
  -GOLD-   2272010273D 1   1.00000     0.00000
 Structure written by MMmdl.
 46 47  0  0  0  0  0  0  0  0  1 V2000
  151.0613  144.9770  158.7010 C   0  0  0  0  0  0  0  0  0  0  0  0
  151.5223  143.6439  159.2993 C   0  0  1  0  0  0  0  0  0  0  0  0
  151.5520  142.5219  158.2452 C   0  0  0  0  0  0  0  0  0  0  0  0
  152.1250  141.3062  158.8125 N   0  0  0  0  0  0  0  0  0  0  0  0
  151.9164  140.1288  158.0637 C   0  0  0  0  0  0  0  0  0  0  0  0
  151.8043  140.1952  156.6555 C   0  0  0  0  0  0  0  0  0  0  0  0
  151.5917  139.0112  155.9233 C   0  0  0  0  0  0  0  0  0  0  0  0
  151.5031  137.7819  156.6184 C   0  0  0  0  0  0  0  0  0  0  0  0
  151.2764  136.5153  156.0132 N   0  0  0  0  0  0  0  0  0  0  0  0
  150.8372  135.3673  156.5632 C   0  0  0  0  0  0  0  0  0  0  0  0
  150.4905  135.2403  157.7368 O   0  0  0  0  0  0  0  0  0  0  0  0
  150.7576  134.1665  155.6094 C   0  0  2  0  0  0  0  0  0  0  0  0
  149.6726  134.3538  154.5360 C   0  0  0  0  0  0  0  0  0  0  0  0
  150.4331  132.6133  156.5692 S   0  0  0  0  0  0  0  0  0  0  0  0
  150.4627  131.3033  155.2735 C   0  0  0  0  0  0  0  0  0  0  0  0
  151.5586  132.3730  157.4856 O   0  0  0  0  0  0  0  0  0  0  0  0
  149.0678  132.6916  157.1107 O   0  0  0  0  0  0  0  0  0  0  0  0
  151.6181  137.8197  158.0223 C   0  0  0  0  0  0  0  0  0  0  0  0
  151.8178  138.9518  158.7279 N   0  0  0  0  0  0  0  0  0  0  0  0
  153.4415  141.5144  159.4106 C   0  0  0  0  0  0  0  0  0  0  0  0
  153.4076  142.6676  160.4322 C   0  0  2  0  0  0  0  0  0  0  0  0
  152.7251  142.2911  161.7597 C   0  0  0  0  0  0  0  0  0  0  0  0
  152.8302  143.8328  159.8390 O   0  0  0  0  0  0  0  0  0  0  0  0
  150.0562  144.8944  158.2870 H   0  0  0  0  0  0  0  0  0  0  0  0
  151.7274  145.3023  157.9014 H   0  0  0  0  0  0  0  0  0  0  0  0
  151.0450  145.7595  159.4600 H   0  0  0  0  0  0  0  0  0  0  0  0
  150.8305  143.3770  160.0983 H   0  0  0  0  0  0  0  0  0  0  0  0
  150.5425  142.3532  157.8719 H   0  0  0  0  0  0  0  0  0  0  0  0
  152.1575  142.8259  157.3903 H   0  0  0  0  0  0  0  0  0  0  0  0
  151.8598  141.1392  156.1338 H   0  0  0  0  0  0  0  0  0  0  0  0
  151.4894  139.0817  154.8526 H   0  0  0  0  0  0  0  0  0  0  0  0
  151.4631  136.4802  155.0216 H   0  0  0  0  0  0  0  0  0  0  0  0
  151.7186  134.0397  155.1093 H   0  0  0  0  0  0  0  0  0  0  0  0
  149.8198  135.2796  153.9788 H   0  0  0  0  0  0  0  0  0  0  0  0
  148.6745  134.3811  154.9750 H   0  0  0  0  0  0  0  0  0  0  0  0
  149.6919  133.5332  153.8185 H   0  0  0  0  0  0  0  0  0  0  0  0
  150.1719  130.3521  155.7184 H   0  0  0  0  0  0  0  0  0  0  0  0
  151.4673  131.2087  154.8625 H   0  0  0  0  0  0  0  0  0  0  0  0
  149.7626  131.5575  154.4782 H   0  0  0  0  0  0  0  0  0  0  0  0
  151.5465  136.9110  158.6025 H   0  0  0  0  0  0  0  0  0  0  0  0
  153.7898  140.6026  159.8979 H   0  0  0  0  0  0  0  0  0  0  0  0
  154.1533  141.7482  158.6176 H   0  0  0  0  0  0  0  0  0  0  0  0
  154.4390  142.9276  160.6717 H   0  0  0  0  0  0  0  0  0  0  0  0
  153.2665  141.4858  162.2562 H   0  0  0  0  0  0  0  0  0  0  0  0
  151.7003  141.9493  161.6170 H   0  0  0  0  0  0  0  0  0  0  0  0
  152.7033  143.1420  162.4407 H   0  0  0  0  0  0  0  0  0  0  0  0
  1  2  1  0  0  0  0
  1 24  1  0  0  0  0
  1 25  1  0  0  0  0
  1 26  1  0  0  0  0
  2 23  1  0  0  0  0
  2  3  1  0  0  0  0
  2 27  1  0  0  0  0
  3  4  1  0  0  0  0
  3 28  1  0  0  0  0
  3 29  1  0  0  0  0
  4  5  1  0  0  0  0
  4 20  1  0  0  0  0
  5 19  1  0  0  0  0
  5  6  2  0  0  0  0
  6  7  1  0  0  0  0
  6 30  1  0  0  0  0
  7  8  2  0  0  0  0
  7 31  1  0  0  0  0
  8  9  1  0  0  0  0
  8 18  1  0  0  0  0
  9 10  1  0  0  0  0
  9 32  1  0  0  0  0
 10 11  2  0  0  0  0
 10 12  1  0  0  0  0
 12 13  1  0  0  0  0
 12 14  1  0  0  0  0
 12 33  1  0  0  0  0
 13 34  1  0  0  0  0
 13 35  1  0  0  0  0
 13 36  1  0  0  0  0
 14 15  1  0  0  0  0
 14 16  2  0  0  0  0
 14 17  2  0  0  0  0
 15 37  1  0  0  0  0
 15 38  1  0  0  0  0
 15 39  1  0  0  0  0
 18 19  2  0  0  0  0
 18 40  1  0  0  0  0
 20 21  1  0  0  0  0
 20 41  1  0  0  0  0
 20 42  1  0  0  0  0
 21 22  1  0  0  0  0
 21 23  1  0  0  0  0
 21 43  1  0  0  0  0
 22 44  1  0  0  0  0
 22 45  1  0  0  0  0
 22 46  1  0  0  0  0
M  END
> <s_m_source_file>
AV-unprocessed.smi

> <i_m_source_file_index>
1990

> <i_lp_mmshare_version>
43012

> <i_f3d_flags>
0

> <s_epik_input>
W0NIM11bQ0BASF0xW0NIMl1OKFtDSDJdW0NASF0oTzEpW0NIM10pYzJbY0hdW2NIXWMoW2NIXW4yKVtOSF1DKD1PKVtDQEhdKFtDSDNdKVMoPU8pKD1PKVtDSDNd

> <s_epik_cmdline>
J2VwaWtfcHl0aG9uJywgJy1waCcsICc3LjAnLCAnLXRuJywgJzgnLCAnLW1hJywgJzIwMCcsICctbWV0YWxfYmluZGluZycsICctaW1hZScsICc8aW5maWxlLm1hZT4nLCAnLW9tYWUnLCAnPG91dGZpbGUubWFlPic=

> <r_lp_tautomer_probability>
1

> <r_epik_Ionization_Penalty>
0.000334888

> <r_epik_Ionization_Penalty_Charging>
0

> <r_epik_Ionization_Penalty_Neutral>
0.000334888

> <r_epik_State_Penalty>
0.000200905

> <r_epik_Charging_Adjusted_Penalty>
0.000200905

> <i_epik_Tot_Q>
0

> <i_epik_Tot_abs_Q>
0

> <r_epik_Metal_State_Penalty>
-0

> <b_epik_Metal_Only>
0

> <s_lp_Force_Field>
OPLS_2005

> <r_lp_Energy>
21.5774

> <b_lp_Chiralities_Consistent>
1

> <s_lp_Variant>
AV-unprocessed.smi:1990-5

> <Gold.Version>
5.8.1

> <Gold.Id.Protein>
6NUR|6NUR_protein|mol2

> <Gold.PLP.Fitness>
42.2990

> <Gold.PLP.PLP>
-38.7489

> <Gold.PLP.part.hbond>
-2.0000

> <Gold.PLP.part.metal>
0.0000

> <Gold.PLP.part.buried>
-5.8374

> <Gold.PLP.part.nonpolar>
-31.0785

> <Gold.PLP.part.repulsive>
0.1095

> <Gold.PLP.ligand.clash>
0.0000

> <Gold.PLP.ligand.torsion>
0.8272

> <Gold.PLP.Chemscore.Hbond>
1.5760

> <Gold.PLP.Chemscore.CHOScore>
0.0000

> <Gold.PLP.Chemscore.Metal>
0.0000

> <Gold.Chemscore.Hbonds>
donor molecule, donor type, donor heavy atom, donor atom, acceptor molecule, acceptor atom, score
      P1  H  6896  6908       L1    16  1.00
      P1  H  6896  6909       L1    11  0.48

> <Gold.PLP.Chemscore.Internal.Correction>
0.4765

> <Gold.Rescore>
     Score         DG    S(hbond)    S(metal)    S(lipo)     H(rot)  DE(clash)    DE(int)     intcor
     15.43     -18.87       1.58        0.00     102.67       1.52       0.00       3.44       ----

> <Gold.Chemscore.Fitness>
15.4319

> <Gold.Chemscore.DG>
-18.8743

> <Gold.Chemscore.ZeroCoef>
-5.4800

> <Gold.Chemscore.Hbond>
1.5768

> <Gold.Chemscore.Metal>
0.0000

> <Gold.Chemscore.Lipo>
102.6749

> <Gold.Chemscore.Internal_Hbond>
0.0000

> <Gold.Chemscore.DEClash>
0.0000

> <Gold.Chemscore.DEInternal>
3.4424

> <Gold.Chemscore.Rot>
1.5177

> <Gold.Chemscore.Internal.Correction>
   9.000000E+99

> <Gold.Chemscore.Hbonds>
donor molecule, donor type, donor heavy atom, donor atom, acceptor molecule, acceptor atom, score
      P1  H  6896  6908       L1    16  0.93
      P1  H  6896  6909       L1    11  0.47

> <Gold.Chemscore.Hbond.Weighted>
-5.2666

> <Gold.Chemscore.Metal.Weighted>
-0.0000

> <Gold.Chemscore.Lipo.Weighted>
-12.0130

> <Gold.Chemscore.Internal_Hbond.Weighted>
0.0000

> <Gold.Chemscore.DEClash.Weighted>
0.0000

> <Gold.Chemscore.DEInternal.Weighted>
3.4424

> <Gold.Chemscore.Rot.Weighted>
3.8853

> <Gold.Chemscore.Internal.Correction.Weighted>
   9.000000E+99

> <Gold.Protein.RotatedTorsions>
[ 6907 6896 6895 6894 ] final   60.20 input  -60.11 | X-H torsion
[ 7974 7965 7964 7962 ] final  -21.63 input  175.53 | X-H torsion
[ 8008 7997 7996 7995 ] final  -13.75 input   59.86 | X-H torsion
[ 10167 10162 10161 10158 ] final   54.31 input  -65.29 | X-H torsion
[ 10718 10713 10712 10709 ] final -179.87 input   66.30 | X-H torsion
[ 10763 10752 10751 10750 ] final   44.72 input  -60.55 | X-H torsion
[ 11005 11000 10999 10996 ] final  100.89 input  -57.11 | X-H torsion

> <Gold.Protein.ActiveResidues>
 VAL166  LYS551  ARG553  GLY616  TRP617  ASP618  TYR619  PRO620  LYS621  CYS622 
 ASP623  PHE694  ASN695  SER759  ASP760  ASP761  ALA762  ILE779  LEU786  VAL792 
 PHE793  MET794  SER795  GLU796  ALA797  LYS798  CYS799  TRP800  GLU811  SER814 

> <Gold.Protein.RotatedAtoms>
  152.3982  134.6331  160.0080 H   0  0  0  0  0  0  0  0  0  0  0  0  # atno 6907 bound_to 6896
  151.6544  133.3314  159.3167 H   0  0  0  0  0  0  0  0  0  0  0  0  # atno 6908 bound_to 6896
  150.7886  134.6934  159.6554 H   0  0  0  0  0  0  0  0  0  0  0  0  # atno 6909 bound_to 6896
  146.1722  140.4367  142.8528 H   0  0  0  0  0  0  0  0  0  0  0  0  # atno 7974 bound_to 7965
  154.5266  140.2241  155.8879 H   0  0  0  0  0  0  0  0  0  0  0  0  # atno 8008 bound_to 7997
  156.1720  140.3120  155.8954 H   0  0  0  0  0  0  0  0  0  0  0  0  # atno 8009 bound_to 7997
  155.3539  140.0457  157.3037 H   0  0  0  0  0  0  0  0  0  0  0  0  # atno 8010 bound_to 7997
  140.2315  144.3681  150.6412 H   0  0  0  0  0  0  0  0  0  0  0  0  # atno 10167 bound_to 10162
  156.8656  130.9766  151.3079 H   0  0  0  0  0  0  0  0  0  0  0  0  # atno 10718 bound_to 10713
  152.9836  135.6062  154.3319 H   0  0  0  0  0  0  0  0  0  0  0  0  # atno 10763 bound_to 10752
  154.3022  135.2772  155.2607 H   0  0  0  0  0  0  0  0  0  0  0  0  # atno 10764 bound_to 10752
  154.4855  135.5906  153.6476 H   0  0  0  0  0  0  0  0  0  0  0  0  # atno 10765 bound_to 10752
  139.8772  134.9160  156.4824 H   0  0  0  0  0  0  0  0  0  0  0  0  # atno 11005 bound_to 11000
  144.8180  140.6502  143.6371 LP  0  0  0  0  0  0  0  0  0  0  0  0  # atno 17320 bound_to 7965
  145.4309  139.1549  143.4022 LP  0  0  0  0  0  0  0  0  0  0  0  0  # atno 17321 bound_to 7965
  140.6181  143.2174  151.6750 LP  0  0  0  0  0  0  0  0  0  0  0  0  # atno 17342 bound_to 10162
  139.5108  144.3530  152.0634 LP  0  0  0  0  0  0  0  0  0  0  0  0  # atno 17343 bound_to 10162
  157.6225  130.8666  149.9133 LP  0  0  0  0  0  0  0  0  0  0  0  0  # atno 17370 bound_to 10713
  156.0754  130.3679  150.0690 LP  0  0  0  0  0  0  0  0  0  0  0  0  # atno 17371 bound_to 10713
  140.8718  133.7983  155.9372 LP  0  0  0  0  0  0  0  0  0  0  0  0  # atno 17394 bound_to 11000
  140.8945  134.2454  157.5076 LP  0  0  0  0  0  0  0  0  0  0  0  0  # atno 17395 bound_to 11000

$$$$
