#       Name:                AV-unprocessed.smi:1386
#       Creating user name   scv26
#       Creation time:       Fri Mar 27 05:25:33 2020


#       File generated by GOLD software.
#

@<TRIPOS>MOLECULE
AV-unprocessed.smi:1386
    38    39     1
SMALL
NO_CHARGES


@<TRIPOS>ATOM
      1 ****         0.1051  -1.3445   3.0057 C.3            1 S1                 0.0000
      2 ****         0.2214  -1.4078   1.4771 C.3            1 S1                 0.0000
      3 ****         1.5734  -2.0150   1.0437 C.3            1 S1                 0.0000
      4 ****         1.6613  -2.2521  -0.4010 N.pl3          1 S1                 0.0000
      5 ****         2.3821  -1.5336  -1.3202 C.2            1 S1                 0.0000
      6 ****         2.1494  -2.1151  -2.5398 C.2            1 S1                 0.0000
      7 ****         1.3024  -3.1665  -2.3128 N.pl3          1 S1                 1.0000
      8 ****         1.0107  -3.2513  -1.0109 C.2            1 S1                 0.0000
      9 ****         0.0521  -0.0598   0.9362 N.am           1 S1                 0.0000
     10 ****        -0.5935   0.2636  -0.1984 C.2            1 S1                 0.0000
     11 ****        -1.0972  -0.5889  -0.9315 O.2            1 S1                 0.0000
     12 ****        -0.6080   1.5901  -0.4841 N.am           1 S1                 0.0000
     13 ****        -0.2240   2.6753   0.4340 C.3            1 S1                 0.0000
     14 ****        -1.4888   3.2371   1.1041 C.3            1 S1                 0.0000
     15 ****        -2.6090   3.9665  -0.1309 S.3            1 S1                 0.0000
     16 ****        -2.6762   2.5986  -1.3300 C.3            1 S1                 0.0000
     17 ****        -1.2630   2.1093  -1.6908 C.3            1 S1                 0.0000
     18 ****         0.1915  -2.3377   3.4472 H              1 S1                 0.0000
     19 ****        -0.8582  -0.9336   3.3100 H              1 S1                 0.0000
     20 ****         0.8863  -0.7190   3.4392 H              1 S1                 0.0000
     21 ****        -0.5860  -2.0505   1.1217 H              1 S1                 0.0000
     22 ****         2.4012  -1.3658   1.3330 H              1 S1                 0.0000
     23 ****         1.7366  -2.9731   1.5394 H              1 S1                 0.0000
     24 ****         2.9849  -0.6798  -1.0468 H              1 S1                 0.0000
     25 ****         2.5130  -1.8658  -3.5260 H              1 S1                 0.0000
     26 ****         0.3672  -3.9767  -0.5460 H              1 S1                 0.0000
     27 ****         0.4481   0.6955   1.4770 H              1 S1                 0.0000
     28 ****         0.4915   2.3623   1.1943 H              1 S1                 0.0000
     29 ****         0.2852   3.4659  -0.1193 H              1 S1                 0.0000
     30 ****        -2.0166   2.4500   1.6439 H              1 S1                 0.0000
     31 ****        -1.2261   4.0039   1.8328 H              1 S1                 0.0000
     32 ****        -3.2653   1.7837  -0.9076 H              1 S1                 0.0000
     33 ****        -3.1998   2.9413  -2.2226 H              1 S1                 0.0000
     34 ****        -0.6781   2.9267  -2.1148 H              1 S1                 0.0000
     35 ****        -1.3199   1.3568  -2.4788 H              1 S1                 0.0000
     36 ****         0.9450  -3.7901  -3.0257 H              1 S1                 0.0000
     37 ****        -1.0330  -1.5572  -0.6899 LP             1 S1                 0.0000
     38 ****        -1.5701  -0.3126  -1.7682 LP             1 S1                 0.0000
@<TRIPOS>BOND
    1    1    2 1     
    2    1   18 1     
    3    1   19 1     
    4    1   20 1     
    5    2    3 1     
    6    2    9 1     
    7    2   21 1     
    8    3    4 1     
    9    3   22 1     
   10    3   23 1     
   11    4    8 1     
   12    4    5 1     
   13    5    6 2     
   14    5   24 1     
   15    6    7 1     
   16    6   25 1     
   17    7    8 2     
   18    7   36 1     
   19    8   26 1     
   20    9   10 am    
   21    9   27 1     
   22   10   11 2     
   23   10   12 am    
   24   12   17 1     
   25   12   13 1     
   26   13   14 1     
   27   13   28 1     
   28   13   29 1     
   29   14   15 1     
   30   14   30 1     
   31   14   31 1     
   32   15   16 1     
   33   16   17 1     
   34   16   32 1     
   35   16   33 1     
   36   17   34 1     
   37   17   35 1     
   38   11   37 1     
   39   11   38 1     
@<TRIPOS>SUBSTRUCTURE
      1 S1             1
@<TRIPOS>SET
LONE_PAIRS      STATIC     ATOMS    <user>   **** ""
2 37 38
DONOR_HYDROGENS      STATIC     ATOMS    <user>   **** ""
2 36 27
ATOM$BLUE        STATIC     ATOMS    COLORGROUP SYSTEM
2 37 38
ATOM$RED        STATIC     ATOMS    COLORGROUP SYSTEM
2 36 27
