#       Name:                AV-unprocessed.smi:1586
#       Creating user name   scv26
#       Creation time:       Fri Mar 27 07:01:17 2020


#       File generated by GOLD software.
#

@<TRIPOS>MOLECULE
AV-unprocessed.smi:1586
    53    54     1
SMALL
NO_CHARGES


@<TRIPOS>ATOM
      1 ****        -3.2322  -4.7391  -2.1727 C.3            1 S1                 0.0000
      2 ****        -3.4779  -3.2303  -2.3153 C.3            1 S1                 0.0000
      3 ****        -2.9465  -2.4541  -1.1676 N.4            1 S1                 1.0000
      4 ****        -3.5491  -1.1018  -1.0739 C.3            1 S1                 0.0000
      5 ****        -3.0091  -0.3516   0.1617 C.3            1 S1                 0.0000
      6 ****        -1.5475  -0.2118   0.1208 N.3            1 S1                 0.0000
      7 ****        -1.0286   0.7016  -0.9212 C.3            1 S1                 0.0000
      8 ****        -1.6443   2.1111  -0.7863 C.3            1 S1                 0.0000
      9 ****         0.5161   0.8038  -0.8949 C.3            1 S1                 0.0000
     10 ****         1.0117   1.2300   0.4095 N.am           1 S1                 0.0000
     11 ****         2.2997   1.4173   0.7238 C.2            1 S1                 0.0000
     12 ****         3.1718   1.2279  -0.1271 O.2            1 S1                 0.0000
     13 ****         2.4955   1.8130   2.0025 N.pl3          1 S1                -1.0000
     14 ****         3.7362   2.0535   2.4538 C.2            1 S1                 0.0000
     15 ****         4.4549   3.2717   2.3117 C.2            1 S1                 0.0000
     16 ****         5.6369   3.0132   2.9457 C.2            1 S1                 0.0000
     17 ****         6.8593   3.8331   3.1813 C.3            1 S1                 0.0000
     18 ****         5.6386   1.7470   3.4425 O.3            1 S1                 0.0000
     19 ****         4.4162   1.1413   3.1279 N.2            1 S1                 0.0000
     20 ****        -0.9933  -1.5724   0.0954 C.3            1 S1                 0.0000
     21 ****        -1.4646  -2.3621  -1.1437 C.3            1 S1                 0.0000
     22 ****        -3.7171  -5.2831  -2.9836 H              1 S1                 0.0000
     23 ****        -3.6369  -5.1189  -1.2340 H              1 S1                 0.0000
     24 ****        -2.1716  -4.9867  -2.2083 H              1 S1                 0.0000
     25 ****        -3.0528  -2.8578  -3.2484 H              1 S1                 0.0000
     26 ****        -4.5553  -3.0726  -2.3814 H              1 S1                 0.0000
     27 ****        -3.3634  -0.5401  -1.9901 H              1 S1                 0.0000
     28 ****        -4.6317  -1.1981  -0.9839 H              1 S1                 0.0000
     29 ****        -3.4958   0.6164   0.2673 H              1 S1                 0.0000
     30 ****        -3.2783  -0.9039   1.0632 H              1 S1                 0.0000
     31 ****        -1.3041   0.3218  -1.9041 H              1 S1                 0.0000
     32 ****        -1.1548   2.8153  -1.4593 H              1 S1                 0.0000
     33 ****        -1.5396   2.5011   0.2269 H              1 S1                 0.0000
     34 ****        -2.7016   2.1252  -1.0487 H              1 S1                 0.0000
     35 ****         0.9818  -0.1399  -1.1788 H              1 S1                 0.0000
     36 ****         0.8454   1.5242  -1.6454 H              1 S1                 0.0000
     37 ****         0.3248   1.3902   1.1318 H              1 S1                 0.0000
     38 ****         4.1522   4.1844   1.8213 H              1 S1                 0.0000
     39 ****         6.6355   4.6788   3.8316 H              1 S1                 0.0000
     40 ****         7.2490   4.2225   2.2408 H              1 S1                 0.0000
     41 ****         7.6448   3.2425   3.6534 H              1 S1                 0.0000
     42 ****         0.0937  -1.5582   0.1525 H              1 S1                 0.0000
     43 ****        -1.3154  -2.0941   0.9977 H              1 S1                 0.0000
     44 ****        -1.0334  -3.3615  -1.1008 H              1 S1                 0.0000
     45 ****        -1.0977  -1.9064  -2.0643 H              1 S1                 0.0000
     46 ****        -3.2232  -2.9432  -0.3283 H              1 S1                 0.0000
     47 ****        -1.2316   0.2656   0.9407 LP             1 S1                 0.0000
     48 ****         2.9162   0.9354  -1.0486 LP             1 S1                 0.0000
     49 ****         4.1347   1.3669   0.1043 LP             1 S1                 0.0000
     50 ****         1.7125   1.9268   2.6140 LP             1 S1                 0.0000
     51 ****         5.7550   1.7750   4.4353 LP             1 S1                 0.0000
     52 ****         6.3878   1.2259   3.0336 LP             1 S1                 0.0000
     53 ****         4.1202   0.2155   3.3630 LP             1 S1                 0.0000
@<TRIPOS>BOND
    1    1    2 1     
    2    1   22 1     
    3    1   23 1     
    4    1   24 1     
    5    2    3 1     
    6    2   25 1     
    7    2   26 1     
    8    3   21 1     
    9    3    4 1     
   10    3   46 1     
   11    4    5 1     
   12    4   27 1     
   13    4   28 1     
   14    5    6 1     
   15    5   29 1     
   16    5   30 1     
   17    6    7 1     
   18    6   20 1     
   19    7    8 1     
   20    7    9 1     
   21    7   31 1     
   22    8   32 1     
   23    8   33 1     
   24    8   34 1     
   25    9   10 1     
   26    9   35 1     
   27    9   36 1     
   28   10   11 am    
   29   10   37 1     
   30   11   12 2     
   31   11   13 1     
   32   13   14 1     
   33   14   19 2     
   34   14   15 1     
   35   15   16 2     
   36   15   38 1     
   37   16   17 1     
   38   16   18 1     
   39   17   39 1     
   40   17   40 1     
   41   17   41 1     
   42   18   19 1     
   43   20   21 1     
   44   20   42 1     
   45   20   43 1     
   46   21   44 1     
   47   21   45 1     
   48    6   47 1     
   49   12   48 1     
   50   12   49 1     
   51   13   50 1     
   52   18   51 1     
   53   18   52 1     
   54   19   53 1     
@<TRIPOS>SUBSTRUCTURE
      1 S1             1
@<TRIPOS>SET
LONE_PAIRS      STATIC     ATOMS    <user>   **** ""
7 47 48 49 50 51 52 53
DONOR_HYDROGENS      STATIC     ATOMS    <user>   **** ""
2 46 37
ATOM$BLUE        STATIC     ATOMS    COLORGROUP SYSTEM
7 47 48 49 50 51 52 53
ATOM$RED        STATIC     ATOMS    COLORGROUP SYSTEM
2 46 37
