#       Name:                AV-unprocessed.smi:2087
#       Creating user name   scv26
#       Creation time:       Fri Mar 27 11:24:13 2020


#       File generated by GOLD software.
#

@<TRIPOS>MOLECULE
AV-unprocessed.smi:2087
    59    60     1
SMALL
NO_CHARGES


@<TRIPOS>ATOM
      1 ****        -5.4648  -2.8322   1.8493 C.3            1 S1                 0.0000
      2 ****        -4.8969  -2.2990   0.5259 C.3            1 S1                 0.0000
      3 ****        -5.3485  -3.1836  -0.6477 C.3            1 S1                 0.0000
      4 ****        -3.3587  -2.1912   0.6048 C.3            1 S1                 0.0000
      5 ****        -2.6993  -1.6054  -0.5635 N.3            1 S1                 0.0000
      6 ****        -3.0039  -0.1867  -0.7357 C.3            1 S1                 0.0000
      7 ****        -2.2869   0.4081  -1.9599 C.3            1 S1                 0.0000
      8 ****        -0.8836   0.1967  -1.8484 O.3            1 S1                 0.0000
      9 ****        -0.5337  -1.1790  -1.7148 C.3            1 S1                 0.0000
     10 ****         1.0005  -1.3129  -1.6593 C.3            1 S1                 0.0000
     11 ****         1.5759  -0.7172  -0.4564 N.am           1 S1                 0.0000
     12 ****         1.9983   0.5513  -0.3463 C.2            1 S1                 0.0000
     13 ****         1.9463   1.3638  -1.2709 O.2            1 S1                 0.0000
     14 ****         2.5397   0.9624   1.0298 C.3            1 S1                 0.0000
     15 ****         3.4408   2.1206   0.9708 N.am           1 S1                 0.0000
     16 ****         2.9509   3.3849   1.2430 C.2            1 S1                 0.0000
     17 ****         3.7087   4.5026   1.1993 C.2            1 S1                 0.0000
     18 ****         5.1239   4.4364   0.8539 C.2            1 S1                 0.0000
     19 ****         5.8479   5.4314   0.8053 O.2            1 S1                 0.0000
     20 ****         5.5982   3.1306   0.5787 N.am           1 S1                 0.0000
     21 ****         6.9892   2.9425   0.2221 C.3            1 S1                 0.0000
     22 ****         4.8002   1.9666   0.6246 C.2            1 S1                 0.0000
     23 ****         5.2643   0.8516   0.3724 O.2            1 S1                 0.0000
     24 ****        -1.2523  -1.7695  -0.4826 C.3            1 S1                 0.0000
     25 ****        -5.0964  -3.8361   2.0634 H              1 S1                 0.0000
     26 ****        -6.5539  -2.8770   1.8204 H              1 S1                 0.0000
     27 ****        -5.1857  -2.1896   2.6849 H              1 S1                 0.0000
     28 ****        -5.3209  -1.3055   0.3835 H              1 S1                 0.0000
     29 ****        -4.9507  -4.1947  -0.5576 H              1 S1                 0.0000
     30 ****        -5.0130  -2.7779  -1.6025 H              1 S1                 0.0000
     31 ****        -6.4356  -3.2555  -0.6901 H              1 S1                 0.0000
     32 ****        -3.0828  -1.6221   1.4940 H              1 S1                 0.0000
     33 ****        -2.9652  -3.1961   0.7650 H              1 S1                 0.0000
     34 ****        -4.0757  -0.0387  -0.8599 H              1 S1                 0.0000
     35 ****        -2.7121   0.3664   0.1584 H              1 S1                 0.0000
     36 ****        -2.6567  -0.0456  -2.8806 H              1 S1                 0.0000
     37 ****        -2.4807   1.4786  -2.0299 H              1 S1                 0.0000
     38 ****        -0.8800  -1.7025  -2.6078 H              1 S1                 0.0000
     39 ****         1.2705  -2.3690  -1.6637 H              1 S1                 0.0000
     40 ****         1.4498  -0.8835  -2.5564 H              1 S1                 0.0000
     41 ****         1.6527  -1.3136   0.3548 H              1 S1                 0.0000
     42 ****         1.6894   1.1871   1.6753 H              1 S1                 0.0000
     43 ****         3.0468   0.1155   1.4957 H              1 S1                 0.0000
     44 ****         1.9067   3.4878   1.5005 H              1 S1                 0.0000
     45 ****         3.2608   5.4599   1.4222 H              1 S1                 0.0000
     46 ****         7.4268   2.2779   0.9694 H              1 S1                 0.0000
     47 ****         7.5290   3.8886   0.2094 H              1 S1                 0.0000
     48 ****         7.0095   2.4925  -0.7721 H              1 S1                 0.0000
     49 ****        -0.8831  -1.2914   0.4260 H              1 S1                 0.0000
     50 ****        -1.0065  -2.8288  -0.3983 H              1 S1                 0.0000
     51 ****        -3.0581  -2.0989  -1.3558 LP             1 S1                 0.0000
     52 ****        -0.5505   0.6893  -1.0444 LP             1 S1                 0.0000
     53 ****        -0.4410   0.5594  -2.6685 LP             1 S1                 0.0000
     54 ****         1.5750   1.0889  -2.1578 LP             1 S1                 0.0000
     55 ****         2.2754   2.2982  -1.1345 LP             1 S1                 0.0000
     56 ****         5.4702   6.3349   1.0078 LP             1 S1                 0.0000
     57 ****         6.8135   5.3358   0.5634 LP             1 S1                 0.0000
     58 ****         4.6755   0.0443   0.4121 LP             1 S1                 0.0000
     59 ****         6.2293   0.7552   0.1283 LP             1 S1                 0.0000
@<TRIPOS>BOND
    1    1    2 1     
    2    1   25 1     
    3    1   26 1     
    4    1   27 1     
    5    2    3 1     
    6    2    4 1     
    7    2   28 1     
    8    3   29 1     
    9    3   30 1     
   10    3   31 1     
   11    4    5 1     
   12    4   32 1     
   13    4   33 1     
   14    5   24 1     
   15    5    6 1     
   16    6    7 1     
   17    6   34 1     
   18    6   35 1     
   19    7    8 1     
   20    7   36 1     
   21    7   37 1     
   22    8    9 1     
   23    9   10 1     
   24    9   24 1     
   25    9   38 1     
   26   10   11 1     
   27   10   39 1     
   28   10   40 1     
   29   11   12 am    
   30   11   41 1     
   31   12   13 2     
   32   12   14 1     
   33   14   15 1     
   34   14   42 1     
   35   14   43 1     
   36   15   22 am    
   37   15   16 1     
   38   16   17 2     
   39   16   44 1     
   40   17   18 1     
   41   17   45 1     
   42   18   19 2     
   43   18   20 am    
   44   20   21 1     
   45   20   22 am    
   46   21   46 1     
   47   21   47 1     
   48   21   48 1     
   49   22   23 2     
   50   24   49 1     
   51   24   50 1     
   52    5   51 1     
   53    8   52 1     
   54    8   53 1     
   55   13   54 1     
   56   13   55 1     
   57   19   56 1     
   58   19   57 1     
   59   23   58 1     
   60   23   59 1     
@<TRIPOS>SUBSTRUCTURE
      1 S1             1
@<TRIPOS>SET
LONE_PAIRS      STATIC     ATOMS    <user>   **** ""
9 51 52 53 54 55 56 57 58 59
DONOR_HYDROGENS      STATIC     ATOMS    <user>   **** ""
1 41
ATOM$BLUE        STATIC     ATOMS    COLORGROUP SYSTEM
9 51 52 53 54 55 56 57 58 59
ATOM$RED        STATIC     ATOMS    COLORGROUP SYSTEM
1 41
