#       Name:                AV-unprocessed.smi:492
#       Creating user name   scv26
#       Creation time:       Thu Mar 26 23:15:17 2020


#       File generated by GOLD software.
#

@<TRIPOS>MOLECULE
AV-unprocessed.smi:492
    53    55     1
SMALL
NO_CHARGES


@<TRIPOS>ATOM
      1 ****        -6.6643   3.4407   0.9007 C.3            1 S1                 0.0000
      2 ****        -5.8533   2.4662   0.2605 O.3            1 S1                 0.0000
      3 ****        -4.4845   2.6134   0.3316 C.ar           1 S1                 0.0000
      4 ****        -3.8315   3.6734   1.0094 C.ar           1 S1                 0.0000
      5 ****        -2.4250   3.7468   1.0326 C.ar           1 S1                 0.0000
      6 ****        -1.6485   2.7639   0.3868 C.ar           1 S1                 0.0000
      7 ****        -0.1342   2.8624   0.4040 C.3            1 S1                 0.0000
      8 ****         0.4837   1.5871   0.3546 O.3            1 S1                 0.0000
      9 ****         1.9005   1.6519   0.3841 C.3            1 S1                 0.0000
     10 ****         2.4871   0.2343   0.2946 C.3            1 S1                 0.0000
     11 ****         2.3093  -0.4133   1.5386 O.3            1 S1                 0.0000
     12 ****         1.9162  -0.5958  -0.8747 C.3            1 S1                 0.0000
     13 ****         2.4624  -1.9446  -0.9297 N.pl3          1 S1                 0.0000
     14 ****         3.6159  -2.3583  -1.5100 C.2            1 S1                 0.0000
     15 ****         4.5296  -1.4095  -2.2188 C.3            1 S1                 0.0000
     16 ****         3.8817  -3.6611  -1.4115 N.2            1 S1                 0.0000
     17 ****         2.7964  -4.1389  -0.7024 C.ar           1 S1                 0.0000
     18 ****         2.4837  -5.4488  -0.2739 C.ar           1 S1                 0.0000
     19 ****         1.2979  -5.6999   0.4475 C.ar           1 S1                 0.0000
     20 ****         0.4099  -4.6474   0.7508 C.ar           1 S1                 0.0000
     21 ****         0.7027  -3.3348   0.3337 C.ar           1 S1                 0.0000
     22 ****         1.8874  -3.0895  -0.3865 C.ar           1 S1                 0.0000
     23 ****        -2.2935   1.7128  -0.2973 C.ar           1 S1                 0.0000
     24 ****        -3.6994   1.6394  -0.3189 C.ar           1 S1                 0.0000
     25 ****        -7.7141   3.1850   0.7583 H              1 S1                 0.0000
     26 ****        -6.5058   4.4325   0.4752 H              1 S1                 0.0000
     27 ****        -6.4764   3.4738   1.9747 H              1 S1                 0.0000
     28 ****        -4.3874   4.4449   1.5200 H              1 S1                 0.0000
     29 ****        -1.9438   4.5629   1.5515 H              1 S1                 0.0000
     30 ****         0.1821   3.4629  -0.4500 H              1 S1                 0.0000
     31 ****         0.1817   3.3862   1.3076 H              1 S1                 0.0000
     32 ****         2.2478   2.2386  -0.4679 H              1 S1                 0.0000
     33 ****         2.2471   2.1575   1.2870 H              1 S1                 0.0000
     34 ****         3.5644   0.3305   0.1602 H              1 S1                 0.0000
     35 ****         1.3820  -0.4859   1.7063 H              1 S1                 0.0000
     36 ****         0.8317  -0.6739  -0.7932 H              1 S1                 0.0000
     37 ****         2.1089  -0.0960  -1.8240 H              1 S1                 0.0000
     38 ****         5.3833  -1.9430  -2.6381 H              1 S1                 0.0000
     39 ****         4.9050  -0.6554  -1.5278 H              1 S1                 0.0000
     40 ****         4.0036  -0.9138  -3.0348 H              1 S1                 0.0000
     41 ****         3.1582  -6.2611  -0.5007 H              1 S1                 0.0000
     42 ****         1.0692  -6.7050   0.7702 H              1 S1                 0.0000
     43 ****        -0.4958  -4.8475   1.3045 H              1 S1                 0.0000
     44 ****         0.0259  -2.5264   0.5664 H              1 S1                 0.0000
     45 ****        -1.7147   0.9572  -0.8080 H              1 S1                 0.0000
     46 ****        -4.1811   0.8267  -0.8426 H              1 S1                 0.0000
     47 ****        -6.1019   2.4627  -0.7081 LP             1 S1                 0.0000
     48 ****        -6.0783   1.5799   0.6655 LP             1 S1                 0.0000
     49 ****         0.2038   1.1306  -0.4900 LP             1 S1                 0.0000
     50 ****         0.1734   1.0527   1.1408 LP             1 S1                 0.0000
     51 ****         2.7429   0.1221   2.2634 LP             1 S1                 0.0000
     52 ****         2.7193  -1.3248   1.5067 LP             1 S1                 0.0000
     53 ****         4.6698  -4.1663  -1.7631 LP             1 S1                 0.0000
@<TRIPOS>BOND
    1    1    2 1     
    2    1   25 1     
    3    1   26 1     
    4    1   27 1     
    5    2    3 1     
    6    3   24 ar    
    7    3    4 ar    
    8    4    5 ar    
    9    4   28 1     
   10    5    6 ar    
   11    5   29 1     
   12    6    7 1     
   13    6   23 ar    
   14    7    8 1     
   15    7   30 1     
   16    7   31 1     
   17    8    9 1     
   18    9   10 1     
   19    9   32 1     
   20    9   33 1     
   21   10   11 1     
   22   10   12 1     
   23   10   34 1     
   24   11   35 1     
   25   12   13 1     
   26   12   36 1     
   27   12   37 1     
   28   13   22 1     
   29   13   14 1     
   30   14   15 1     
   31   14   16 2     
   32   15   38 1     
   33   15   39 1     
   34   15   40 1     
   35   16   17 1     
   36   17   22 ar    
   37   17   18 ar    
   38   18   19 ar    
   39   18   41 1     
   40   19   20 ar    
   41   19   42 1     
   42   20   21 ar    
   43   20   43 1     
   44   21   22 ar    
   45   21   44 1     
   46   23   24 ar    
   47   23   45 1     
   48   24   46 1     
   49    2   47 1     
   50    2   48 1     
   51    8   49 1     
   52    8   50 1     
   53   11   51 1     
   54   11   52 1     
   55   16   53 1     
@<TRIPOS>SUBSTRUCTURE
      1 S1             1
@<TRIPOS>SET
LONE_PAIRS      STATIC     ATOMS    <user>   **** ""
7 47 48 49 50 51 52 53
DONOR_HYDROGENS      STATIC     ATOMS    <user>   **** ""
1 35
ATOM$BLUE        STATIC     ATOMS    COLORGROUP SYSTEM
7 47 48 49 50 51 52 53
ATOM$RED        STATIC     ATOMS    COLORGROUP SYSTEM
1 35
