AV-unprocessed.smi:364|AV-procd|sdf|2426|dock4
  -GOLD-   2262022363D 1   1.00000     0.00000
 Structure written by MMmdl.
 37 38  0  0  0  0  0  0  0  0  1 V2000
  152.6213  142.7381  162.4560 C   0  0  0  0  0  0  0  0  0  0  0  0
  152.6539  143.6113  161.1937 C   0  0  2  0  0  0  0  0  0  0  0  0
  151.3322  144.3837  161.0142 C   0  0  0  0  0  0  0  0  0  0  0  0
  151.3382  145.2375  159.7324 C   0  0  0  0  0  0  0  0  0  0  0  0
  151.6530  144.3987  158.4795 C   0  0  2  0  0  0  0  0  0  0  0  0
  150.5636  143.4615  158.2291 N   0  0  0  0  0  0  0  0  0  0  0  0
  150.6171  142.3140  157.5347 C   0  0  0  0  0  0  0  0  0  0  0  0
  151.6404  141.9039  156.9893 O   0  0  0  0  0  0  0  0  0  0  0  0
  149.3258  141.4815  157.4418 C   0  0  0  0  0  0  0  0  0  0  0  0
  148.7054  141.4674  156.1033 N   0  0  0  0  0  0  0  0  0  0  0  0
  147.3881  141.9451  156.0008 C   0  0  0  0  0  0  0  0  0  0  0  0
  146.7667  142.0035  154.8145 C   0  0  0  0  0  0  0  0  0  0  0  0
  147.5371  141.5447  153.6515 C   0  0  0  0  0  0  0  0  0  0  0  0
  148.7381  141.1088  153.7410 N   0  0  0  0  0  0  0  0  0  0  0  0
  149.3890  141.0499  154.9878 C   0  0  0  0  0  0  0  0  0  0  0  0
  150.5482  140.6459  155.0792 O   0  0  0  0  0  0  0  0  0  0  0  0
  152.9773  143.6328  158.6627 C   0  0  0  0  0  0  0  0  0  0  0  0
  152.9739  142.7726  159.9405 C   0  0  0  0  0  0  0  0  0  0  0  0
  151.8389  141.9809  162.3931 H   0  0  0  0  0  0  0  0  0  0  0  0
  152.4314  143.3396  163.3453 H   0  0  0  0  0  0  0  0  0  0  0  0
  153.5714  142.2236  162.6029 H   0  0  0  0  0  0  0  0  0  0  0  0
  153.4538  144.3427  161.3191 H   0  0  0  0  0  0  0  0  0  0  0  0
  150.4954  143.6841  160.9865 H   0  0  0  0  0  0  0  0  0  0  0  0
  151.1596  145.0284  161.8766 H   0  0  0  0  0  0  0  0  0  0  0  0
  150.3774  145.7405  159.6164 H   0  0  0  0  0  0  0  0  0  0  0  0
  152.0836  146.0274  159.8318 H   0  0  0  0  0  0  0  0  0  0  0  0
  151.7546  145.0775  157.6313 H   0  0  0  0  0  0  0  0  0  0  0  0
  149.6723  143.7042  158.6368 H   0  0  0  0  0  0  0  0  0  0  0  0
  149.5444  140.4650  157.7735 H   0  0  0  0  0  0  0  0  0  0  0  0
  148.6170  141.8713  158.1738 H   0  0  0  0  0  0  0  0  0  0  0  0
  146.9337  142.2614  156.9287 H   0  0  0  0  0  0  0  0  0  0  0  0
  145.7595  142.3636  154.6657 H   0  0  0  0  0  0  0  0  0  0  0  0
  147.0142  141.6003  152.6934 H   0  0  0  0  0  0  0  0  0  0  0  0
  153.1731  143.0058  157.7917 H   0  0  0  0  0  0  0  0  0  0  0  0
  153.8004  144.3467  158.7143 H   0  0  0  0  0  0  0  0  0  0  0  0
  153.9450  142.2901  160.0550 H   0  0  0  0  0  0  0  0  0  0  0  0
  152.2448  141.9673  159.8392 H   0  0  0  0  0  0  0  0  0  0  0  0
  1  2  1  0  0  0  0
  1 19  1  0  0  0  0
  1 20  1  0  0  0  0
  1 21  1  0  0  0  0
  2 18  1  0  0  0  0
  2  3  1  0  0  0  0
  2 22  1  0  0  0  0
  3  4  1  0  0  0  0
  3 23  1  0  0  0  0
  3 24  1  0  0  0  0
  4  5  1  0  0  0  0
  4 25  1  0  0  0  0
  4 26  1  0  0  0  0
  5  6  1  0  0  0  0
  5 17  1  0  0  0  0
  5 27  1  0  0  0  0
  6  7  1  0  0  0  0
  6 28  1  0  0  0  0
  7  8  2  0  0  0  0
  7  9  1  0  0  0  0
  9 10  1  0  0  0  0
  9 29  1  0  0  0  0
  9 30  1  0  0  0  0
 10 15  1  0  0  0  0
 10 11  1  0  0  0  0
 11 12  2  0  0  0  0
 11 31  1  0  0  0  0
 12 13  1  0  0  0  0
 12 32  1  0  0  0  0
 13 14  2  0  0  0  0
 13 33  1  0  0  0  0
 14 15  1  0  0  0  0
 15 16  2  0  0  0  0
 17 18  1  0  0  0  0
 17 34  1  0  0  0  0
 17 35  1  0  0  0  0
 18 36  1  0  0  0  0
 18 37  1  0  0  0  0
M  END
> <s_m_source_file>
AV-unprocessed.smi

> <i_m_source_file_index>
364

> <i_lp_mmshare_version>
43012

> <i_f3d_flags>
0

> <s_epik_input>
W0NIM11bQ0BASF0xW0NIMl1bQ0gyXVtDQEhdKFtDSDJdW0NIMl0xKVtOSF1DKD1PKVtDSDJdbjJbY0hdW2NIXVtjSF1uYzI9Tw==

> <s_epik_cmdline>
J2VwaWtfcHl0aG9uJywgJy1waCcsICc3LjAnLCAnLXRuJywgJzgnLCAnLW1hJywgJzIwMCcsICctbWV0YWxfYmluZGluZycsICctaW1hZScsICc8aW5maWxlLm1hZT4nLCAnLW9tYWUnLCAnPG91dGZpbGUubWFlPic=

> <r_lp_tautomer_probability>
1

> <r_epik_Ionization_Penalty>
7.65306e-06

> <r_epik_Ionization_Penalty_Charging>
1.81354e-08

> <r_epik_Ionization_Penalty_Neutral>
7.63492e-06

> <r_epik_State_Penalty>
-0

> <r_epik_Charging_Adjusted_Penalty>
1.81354e-08

> <i_epik_Tot_Q>
0

> <i_epik_Tot_abs_Q>
0

> <r_epik_Metal_State_Penalty>
-0

> <b_epik_Metal_Only>
0

> <s_lp_Force_Field>
OPLS_2005

> <r_lp_Energy>
9.99244

> <b_lp_Chiralities_Consistent>
1

> <s_lp_Variant>
AV-unprocessed.smi:364-2

> <Gold.Version>
5.8.1

> <Gold.Id.Protein>
6NUR|6NUR_protein|mol2

> <Gold.PLP.Fitness>
43.8340

> <Gold.PLP.PLP>
-40.3860

> <Gold.PLP.part.hbond>
-2.1142

> <Gold.PLP.part.metal>
0.0000

> <Gold.PLP.part.buried>
-2.6814

> <Gold.PLP.part.nonpolar>
-35.2924

> <Gold.PLP.part.repulsive>
1.1921

> <Gold.PLP.ligand.clash>
0.0000

> <Gold.PLP.ligand.torsion>
0.4470

> <Gold.PLP.Chemscore.Hbond>
1.4454

> <Gold.PLP.Chemscore.CHOScore>
0.0000

> <Gold.PLP.Chemscore.Metal>
0.0000

> <Gold.Chemscore.Hbonds>
donor molecule, donor type, donor heavy atom, donor atom, acceptor molecule, acceptor atom, score
      P1  H  7989  7998       L1    16  0.93
      P1  H  8011  8017       L1    14  0.54

> <Gold.PLP.Chemscore.Internal.Correction>
0.0059

> <Gold.Rescore>
     Score         DG    S(hbond)    S(metal)    S(lipo)     H(rot)  DE(clash)    DE(int)     intcor
     11.73     -17.74       1.20        0.00     103.26       1.50       1.44       4.56       ----

> <Gold.Chemscore.Fitness>
11.7289

> <Gold.Chemscore.DG>
-17.7361

> <Gold.Chemscore.ZeroCoef>
-5.4800

> <Gold.Chemscore.Hbond>
1.2001

> <Gold.Chemscore.Metal>
0.0000

> <Gold.Chemscore.Lipo>
103.2628

> <Gold.Chemscore.Internal_Hbond>
0.0000

> <Gold.Chemscore.DEClash>
1.4428

> <Gold.Chemscore.DEInternal>
4.5644

> <Gold.Chemscore.Rot>
1.4977

> <Gold.Chemscore.Internal.Correction>
   9.000000E+99

> <Gold.Chemscore.Hbonds>
donor molecule, donor type, donor heavy atom, donor atom, acceptor molecule, acceptor atom, score
      P1  H  7989  7998       L1    16  0.81
      P1  H  8011  8017       L1    14  0.13

> <Gold.Chemscore.Hbond.Weighted>
-4.0084

> <Gold.Chemscore.Metal.Weighted>
-0.0000

> <Gold.Chemscore.Lipo.Weighted>
-12.0818

> <Gold.Chemscore.Internal_Hbond.Weighted>
0.0000

> <Gold.Chemscore.DEClash.Weighted>
1.4428

> <Gold.Chemscore.DEInternal.Weighted>
4.5644

> <Gold.Chemscore.Rot.Weighted>
3.8341

> <Gold.Chemscore.Internal.Correction.Weighted>
   9.000000E+99

> <Gold.Protein.RotatedTorsions>
[ 6907 6896 6895 6894 ] final   -3.77 input  -60.11 | X-H torsion
[ 7974 7965 7964 7962 ] final   24.95 input  175.53 | X-H torsion
[ 8008 7997 7996 7995 ] final  -59.69 input   59.86 | X-H torsion
[ 10167 10162 10161 10158 ] final  -79.44 input  -65.29 | X-H torsion
[ 10718 10713 10712 10709 ] final  153.36 input   66.30 | X-H torsion
[ 10763 10752 10751 10750 ] final   70.86 input  -60.55 | X-H torsion
[ 11005 11000 10999 10996 ] final   51.87 input  -57.11 | X-H torsion

> <Gold.Protein.ActiveResidues>
 VAL166  LYS551  ARG553  GLY616  TRP617  ASP618  TYR619  PRO620  LYS621  CYS622 
 ASP623  PHE694  ASN695  SER759  ASP760  ASP761  ALA762  ILE779  LEU786  VAL792 
 PHE793  MET794  SER795  GLU796  ALA797  LYS798  CYS799  TRP800  GLU811  SER814 

> <Gold.Protein.RotatedAtoms>
  151.5085  135.1064  159.9847 H   0  0  0  0  0  0  0  0  0  0  0  0  # atno 6907 bound_to 6896
  152.4672  133.7944  159.6930 H   0  0  0  0  0  0  0  0  0  0  0  0  # atno 6908 bound_to 6896
  150.8661  133.7509  159.3002 H   0  0  0  0  0  0  0  0  0  0  0  0  # atno 6909 bound_to 6896
  146.1913  139.7533  142.8830 H   0  0  0  0  0  0  0  0  0  0  0  0  # atno 7974 bound_to 7965
  154.4364  140.1056  156.6155 H   0  0  0  0  0  0  0  0  0  0  0  0  # atno 8008 bound_to 7997
  155.5763  140.3490  155.4510 H   0  0  0  0  0  0  0  0  0  0  0  0  # atno 8009 bound_to 7997
  156.0352  140.1269  157.0205 H   0  0  0  0  0  0  0  0  0  0  0  0  # atno 8010 bound_to 7997
  140.4593  143.2458  151.8372 H   0  0  0  0  0  0  0  0  0  0  0  0  # atno 10167 bound_to 10162
  157.2457  131.0768  151.1763 H   0  0  0  0  0  0  0  0  0  0  0  0  # atno 10718 bound_to 10713
  153.0366  135.5158  154.7506 H   0  0  0  0  0  0  0  0  0  0  0  0  # atno 10763 bound_to 10752
  154.6477  135.2921  155.0027 H   0  0  0  0  0  0  0  0  0  0  0  0  # atno 10764 bound_to 10752
  154.0922  135.6648  153.4907 H   0  0  0  0  0  0  0  0  0  0  0  0  # atno 10765 bound_to 10752
  140.0896  134.5227  155.8865 H   0  0  0  0  0  0  0  0  0  0  0  0  # atno 11005 bound_to 11000
  145.3785  141.0354  143.3191 LP  0  0  0  0  0  0  0  0  0  0  0  0  # atno 17320 bound_to 7965
  144.8491  139.5349  143.6864 LP  0  0  0  0  0  0  0  0  0  0  0  0  # atno 17321 bound_to 7965
  139.4804  144.5027  151.9039 LP  0  0  0  0  0  0  0  0  0  0  0  0  # atno 17342 bound_to 10162
  140.4112  144.2366  150.5889 LP  0  0  0  0  0  0  0  0  0  0  0  0  # atno 17343 bound_to 10162
  157.3331  130.6995  149.6336 LP  0  0  0  0  0  0  0  0  0  0  0  0  # atno 17370 bound_to 10713
  155.9668  130.4301  150.4864 LP  0  0  0  0  0  0  0  0  0  0  0  0  # atno 17371 bound_to 10713
  141.2073  133.6663  156.6301 LP  0  0  0  0  0  0  0  0  0  0  0  0  # atno 17394 bound_to 11000
  140.3371  134.7880  157.4370 LP  0  0  0  0  0  0  0  0  0  0  0  0  # atno 17395 bound_to 11000

$$$$
