AV-unprocessed.smi:2467|AV-procd|sdf|9726|dock5
  -GOLD-   2272013363D 1   1.00000     0.00000
 Structure written by MMmdl.
 46 47  0  0  0  0  0  0  0  0  1 V2000
  148.4397  136.6436  157.0847 C   0  0  0  0  0  0  0  0  0  0  0  0
  147.1566  137.4118  156.7326 C   0  0  0  0  0  0  0  0  0  0  0  0
  147.0057  137.7478  155.2273 C   0  0  0  0  0  0  0  0  0  0  0  0
  146.8392  136.4592  154.3830 C   0  0  0  0  0  0  0  0  0  0  0  0
  145.6899  135.5426  154.8298 C   0  0  0  0  0  0  0  0  0  0  0  0
  148.1736  138.6233  154.7005 C   0  0  1  0  0  0  0  0  0  0  0  0
  148.3727  139.9514  155.4647 C   0  0  0  0  0  0  0  0  0  0  0  0
  149.5400  140.7470  154.8625 C   0  0  1  0  0  0  0  0  0  0  0  0
  149.7952  141.9400  155.6638 N   0  0  0  0  0  0  0  0  0  0  0  0
  150.4490  141.9687  156.8369 C   0  0  0  0  0  0  0  0  0  0  0  0
  150.9219  140.9600  157.3586 O   0  0  0  0  0  0  0  0  0  0  0  0
  150.5666  143.1768  157.4292 N   0  0  0  0  0  0  0  0  0  0  0  0
  151.1820  143.5774  158.6519 C   0  0  0  0  0  0  0  0  0  0  0  0
  152.1227  142.6537  159.1619 C   0  0  0  0  0  0  0  0  0  0  0  0
  152.7923  142.9347  160.3685 C   0  0  0  0  0  0  0  0  0  0  0  0
  152.5037  144.1362  161.0390 C   0  0  0  0  0  0  0  0  0  0  0  0
  151.5544  145.0023  160.4668 C   0  0  0  0  0  0  0  0  0  0  0  0
  150.9121  144.7338  159.3102 N   0  0  0  0  0  0  0  0  0  0  0  0
  150.7880  139.8504  154.8072 C   0  0  0  0  0  0  0  0  0  0  0  0
  150.4743  138.5267  154.0918 C   0  0  0  0  0  0  0  0  0  0  0  0
  149.3835  137.8686  154.7281 O   0  0  0  0  0  0  0  0  0  0  0  0
  148.4426  136.3684  158.1396 H   0  0  0  0  0  0  0  0  0  0  0  0
  149.3367  137.2345  156.9052 H   0  0  0  0  0  0  0  0  0  0  0  0
  148.5196  135.7234  156.5051 H   0  0  0  0  0  0  0  0  0  0  0  0
  146.3229  136.7989  157.0685 H   0  0  0  0  0  0  0  0  0  0  0  0
  147.1049  138.3269  157.3235 H   0  0  0  0  0  0  0  0  0  0  0  0
  146.0910  138.3317  155.1150 H   0  0  0  0  0  0  0  0  0  0  0  0
  146.7126  136.7175  153.3309 H   0  0  0  0  0  0  0  0  0  0  0  0
  147.7511  135.8665  154.4313 H   0  0  0  0  0  0  0  0  0  0  0  0
  145.7065  134.6087  154.2677 H   0  0  0  0  0  0  0  0  0  0  0  0
  144.7132  135.9962  154.6661 H   0  0  0  0  0  0  0  0  0  0  0  0
  145.7739  135.2910  155.8874 H   0  0  0  0  0  0  0  0  0  0  0  0
  147.9628  138.8884  153.6649 H   0  0  0  0  0  0  0  0  0  0  0  0
  147.4585  140.5450  155.4272 H   0  0  0  0  0  0  0  0  0  0  0  0
  148.5799  139.7646  156.5178 H   0  0  0  0  0  0  0  0  0  0  0  0
  149.2666  141.0432  153.8479 H   0  0  0  0  0  0  0  0  0  0  0  0
  149.4379  142.8149  155.3060 H   0  0  0  0  0  0  0  0  0  0  0  0
  150.1681  143.9374  156.8986 H   0  0  0  0  0  0  0  0  0  0  0  0
  152.3337  141.7338  158.6356 H   0  0  0  0  0  0  0  0  0  0  0  0
  153.5137  142.2395  160.7718 H   0  0  0  0  0  0  0  0  0  0  0  0
  152.9964  144.3869  161.9668 H   0  0  0  0  0  0  0  0  0  0  0  0
  151.3035  145.9353  160.9494 H   0  0  0  0  0  0  0  0  0  0  0  0
  151.6043  140.3635  154.2974 H   0  0  0  0  0  0  0  0  0  0  0  0
  151.1360  139.6371  155.8190 H   0  0  0  0  0  0  0  0  0  0  0  0
  150.2439  138.6997  153.0394 H   0  0  0  0  0  0  0  0  0  0  0  0
  151.3448  137.8712  154.1213 H   0  0  0  0  0  0  0  0  0  0  0  0
  1  2  1  0  0  0  0
  1 22  1  0  0  0  0
  1 23  1  0  0  0  0
  1 24  1  0  0  0  0
  2  3  1  0  0  0  0
  2 25  1  0  0  0  0
  2 26  1  0  0  0  0
  3  4  1  0  0  0  0
  3  6  1  0  0  0  0
  3 27  1  0  0  0  0
  4  5  1  0  0  0  0
  4 28  1  0  0  0  0
  4 29  1  0  0  0  0
  5 30  1  0  0  0  0
  5 31  1  0  0  0  0
  5 32  1  0  0  0  0
  6 21  1  0  0  0  0
  6  7  1  0  0  0  0
  6 33  1  0  0  0  0
  7  8  1  0  0  0  0
  7 34  1  0  0  0  0
  7 35  1  0  0  0  0
  8  9  1  0  0  0  0
  8 19  1  0  0  0  0
  8 36  1  0  0  0  0
  9 10  1  0  0  0  0
  9 37  1  0  0  0  0
 10 11  2  0  0  0  0
 10 12  1  0  0  0  0
 12 13  1  0  0  0  0
 12 38  1  0  0  0  0
 13 18  1  0  0  0  0
 13 14  2  0  0  0  0
 14 15  1  0  0  0  0
 14 39  1  0  0  0  0
 15 16  2  0  0  0  0
 15 40  1  0  0  0  0
 16 17  1  0  0  0  0
 16 41  1  0  0  0  0
 17 18  2  0  0  0  0
 17 42  1  0  0  0  0
 19 20  1  0  0  0  0
 19 43  1  0  0  0  0
 19 44  1  0  0  0  0
 20 21  1  0  0  0  0
 20 45  1  0  0  0  0
 20 46  1  0  0  0  0
M  END
> <s_m_source_file>
AV-unprocessed.smi

> <i_m_source_file_index>
2467

> <i_lp_mmshare_version>
43012

> <i_f3d_flags>
0

> <s_epik_input>
W0NIM11bQ0gyXVtDSF0oW0NIMl1bQ0gzXSlbQ0BASF0xW0NIMl1bQ0BIXShbQ0gyXVtDSDJdTzEpW05IXUMoPU8pW05IXWMyW2NIXVtjSF1bY0hdW2NIXW4y

> <s_epik_cmdline>
J2VwaWtfcHl0aG9uJywgJy1waCcsICc3LjAnLCAnLXRuJywgJzgnLCAnLW1hJywgJzIwMCcsICctbWV0YWxfYmluZGluZycsICctaW1hZScsICc8aW5maWxlLm1hZT4nLCAnLW9tYWUnLCAnPG91dGZpbGUubWFlPic=

> <r_lp_tautomer_probability>
1

> <r_epik_Ionization_Penalty>
4.80427e-05

> <r_epik_Ionization_Penalty_Charging>
0

> <r_epik_Ionization_Penalty_Neutral>
4.80427e-05

> <r_epik_State_Penalty>
-0

> <r_epik_Charging_Adjusted_Penalty>
0

> <i_epik_Tot_Q>
0

> <i_epik_Tot_abs_Q>
0

> <r_epik_Metal_State_Penalty>
-0

> <b_epik_Metal_Only>
0

> <s_lp_Force_Field>
OPLS_2005

> <r_lp_Energy>
20.6132

> <b_lp_Chiralities_Consistent>
1

> <s_lp_Variant>
AV-unprocessed.smi:2467-2

> <Gold.Version>
5.8.1

> <Gold.Id.Protein>
6NUR|6NUR_protein|mol2

> <Gold.PLP.Fitness>
36.1668

> <Gold.PLP.PLP>
-30.7895

> <Gold.PLP.part.hbond>
-2.0000

> <Gold.PLP.part.metal>
0.0000

> <Gold.PLP.part.buried>
-4.1724

> <Gold.PLP.part.nonpolar>
-24.9976

> <Gold.PLP.part.repulsive>
0.4841

> <Gold.PLP.ligand.clash>
0.0000

> <Gold.PLP.ligand.torsion>
0.3502

> <Gold.PLP.Chemscore.Hbond>
1.9920

> <Gold.PLP.Chemscore.CHOScore>
0.0000

> <Gold.PLP.Chemscore.Metal>
0.0000

> <Gold.Chemscore.Hbonds>
donor molecule, donor type, donor heavy atom, donor atom, acceptor molecule, acceptor atom, score
      L1  H     9    37       P1  8028  0.99
      L1  H    12    38       P1  8028  1.00

> <Gold.PLP.Chemscore.Internal.Correction>
0.1016

> <Gold.Rescore>
     Score         DG    S(hbond)    S(metal)    S(lipo)     H(rot)  DE(clash)    DE(int)     intcor
     12.15     -17.40       1.87        0.00      80.94       1.49       1.19       4.05       ----

> <Gold.Chemscore.Fitness>
12.1548

> <Gold.Chemscore.DG>
-17.3951

> <Gold.Chemscore.ZeroCoef>
-5.4800

> <Gold.Chemscore.Hbond>
1.8709

> <Gold.Chemscore.Metal>
0.0000

> <Gold.Chemscore.Lipo>
80.9356

> <Gold.Chemscore.Internal_Hbond>
0.0000

> <Gold.Chemscore.DEClash>
1.1935

> <Gold.Chemscore.DEInternal>
4.0468

> <Gold.Chemscore.Rot>
1.4856

> <Gold.Chemscore.Internal.Correction>
   9.000000E+99

> <Gold.Chemscore.Hbonds>
donor molecule, donor type, donor heavy atom, donor atom, acceptor molecule, acceptor atom, score
      L1  H     9    37       P1  8028  0.89
      L1  H    12    38       P1  8028  0.96

> <Gold.Chemscore.Hbond.Weighted>
-6.2487

> <Gold.Chemscore.Metal.Weighted>
-0.0000

> <Gold.Chemscore.Lipo.Weighted>
-9.4695

> <Gold.Chemscore.Internal_Hbond.Weighted>
0.0000

> <Gold.Chemscore.DEClash.Weighted>
1.1935

> <Gold.Chemscore.DEInternal.Weighted>
4.0468

> <Gold.Chemscore.Rot.Weighted>
3.8031

> <Gold.Chemscore.Internal.Correction.Weighted>
   9.000000E+99

> <Gold.Protein.RotatedTorsions>
[ 6907 6896 6895 6894 ] final -102.76 input  -60.11 | X-H torsion
[ 7974 7965 7964 7962 ] final -157.72 input  175.53 | X-H torsion
[ 8008 7997 7996 7995 ] final  100.04 input   59.86 | X-H torsion
[ 10167 10162 10161 10158 ] final   91.65 input  -65.29 | X-H torsion
[ 10718 10713 10712 10709 ] final   30.81 input   66.30 | X-H torsion
[ 10763 10752 10751 10750 ] final  176.66 input  -60.55 | X-H torsion
[ 11005 11000 10999 10996 ] final  -45.04 input  -57.11 | X-H torsion

> <Gold.Protein.ActiveResidues>
 VAL166  LYS551  ARG553  GLY616  TRP617  ASP618  TYR619  PRO620  LYS621  CYS622 
 ASP623  PHE694  ASN695  SER759  ASP760  ASP761  ALA762  ILE779  LEU786  VAL792 
 PHE793  MET794  SER795  GLU796  ALA797  LYS798  CYS799  TRP800  GLU811  SER814 

> <Gold.Protein.RotatedAtoms>
  150.7210  134.0533  159.3805 H   0  0  0  0  0  0  0  0  0  0  0  0  # atno 6907 bound_to 6896
  151.8510  135.0555  160.0468 H   0  0  0  0  0  0  0  0  0  0  0  0  # atno 6908 bound_to 6896
  152.2790  133.5417  159.5522 H   0  0  0  0  0  0  0  0  0  0  0  0  # atno 6909 bound_to 6896
  144.7536  140.3928  143.6029 H   0  0  0  0  0  0  0  0  0  0  0  0  # atno 7974 bound_to 7965
  156.1164  140.3219  155.8146 H   0  0  0  0  0  0  0  0  0  0  0  0  # atno 8008 bound_to 7997
  155.4582  140.0537  157.3011 H   0  0  0  0  0  0  0  0  0  0  0  0  # atno 8009 bound_to 7997
  154.4796  140.2047  155.9809 H   0  0  0  0  0  0  0  0  0  0  0  0  # atno 8010 bound_to 7997
  139.8354  144.6667  150.9348 H   0  0  0  0  0  0  0  0  0  0  0  0  # atno 10167 bound_to 10162
  157.2644  130.7177  149.6471 H   0  0  0  0  0  0  0  0  0  0  0  0  # atno 10718 bound_to 10713
  154.4841  135.2776  155.1548 H   0  0  0  0  0  0  0  0  0  0  0  0  # atno 10763 bound_to 10752
  154.3246  135.6202  153.5527 H   0  0  0  0  0  0  0  0  0  0  0  0  # atno 10764 bound_to 10752
  152.9879  135.5751  154.5248 H   0  0  0  0  0  0  0  0  0  0  0  0  # atno 10765 bound_to 10752
  141.0489  133.6750  156.2957 H   0  0  0  0  0  0  0  0  0  0  0  0  # atno 11005 bound_to 11000
  145.6858  139.1628  143.2675 LP  0  0  0  0  0  0  0  0  0  0  0  0  # atno 17320 bound_to 7965
  146.1518  140.6914  142.9318 LP  0  0  0  0  0  0  0  0  0  0  0  0  # atno 17321 bound_to 7965
  140.7803  143.3962  151.1226 LP  0  0  0  0  0  0  0  0  0  0  0  0  # atno 17342 bound_to 10162
  139.7612  143.8632  152.3100 LP  0  0  0  0  0  0  0  0  0  0  0  0  # atno 17343 bound_to 10162
  155.9663  130.4387  150.5229 LP  0  0  0  0  0  0  0  0  0  0  0  0  # atno 17370 bound_to 10713
  157.3140  131.0669  151.1980 LP  0  0  0  0  0  0  0  0  0  0  0  0  # atno 17371 bound_to 10713
  140.6092  134.5475  157.5531 LP  0  0  0  0  0  0  0  0  0  0  0  0  # atno 17394 bound_to 11000
  139.9334  134.7920  156.0867 LP  0  0  0  0  0  0  0  0  0  0  0  0  # atno 17395 bound_to 11000

$$$$
