AV-unprocessed.smi:290|AV-procd|sdf|2229|dock2
  -GOLD-   2262022 83D 1   1.00000     0.00000
 Structure written by MMmdl.
 59 62  0  0  0  0  0  0  0  0  2 V2000
  151.6711  140.3185  158.8455 C   0  0  0  0  0  0  0  0  0  0  0  0
  151.8991  139.1733  157.8433 C   0  0  2  0  0  0  0  0  0  0  0  0
  152.8010  139.5878  156.8181 O   0  0  0  0  0  0  0  0  0  0  0  0
  152.1737  139.4901  155.5489 C   0  0  0  0  0  0  0  0  0  0  0  0
  151.1614  138.3660  155.7224 C   0  0  0  0  0  0  0  0  0  0  0  0
  150.6446  138.6020  157.1339 C   0  0  2  0  0  0  0  0  0  0  0  0
  149.6108  139.5719  157.0660 O   0  0  0  0  0  0  0  0  0  0  0  0
  150.0687  137.3173  157.7767 C   0  0  0  0  0  0  0  0  0  0  0  0
  149.3744  136.4587  156.8297 N   0  0  0  0  0  0  0  0  0  0  0  0
  148.3365  136.8160  155.9993 C   0  0  0  0  0  0  0  0  0  0  0  0
  147.8721  135.8576  155.2454 N   0  0  0  0  0  0  0  0  0  0  0  0
  148.6507  134.7545  155.5767 C   0  0  0  0  0  0  0  0  0  0  0  0
  148.6854  133.3975  155.1438 C   0  0  0  0  0  0  0  0  0  0  0  0
  147.8239  132.8938  154.2204 N   0  0  0  0  0  0  0  0  0  0  0  0
  148.1926  133.0560  152.8156 C   0  0  0  0  0  0  0  0  0  0  0  0
  146.8893  133.2954  152.0464 C   0  0  0  0  0  0  0  0  0  0  0  0
  145.8283  132.6976  152.9765 C   0  0  2  0  0  0  0  0  0  0  0  0
  144.4267  133.1477  152.7396 N   0  3  2  0  0  0  0  0  0  0  0  0
  143.9390  132.7574  151.3955 C   0  0  0  0  0  0  0  0  0  0  0  0
  144.1445  134.5737  153.0597 C   0  0  0  0  0  0  0  0  0  0  0  0
  142.6415  134.8276  153.2552 C   0  0  0  0  0  0  0  0  0  0  0  0
  142.1978  134.2085  154.4445 O   0  0  0  0  0  0  0  0  0  0  0  0
  146.3747  133.0175  154.3749 C   0  0  1  0  0  0  0  0  0  0  0  0
  145.8133  132.0866  155.4647 C   0  0  0  0  0  0  0  0  0  0  0  0
  149.6280  132.5915  155.7010 N   0  0  0  0  0  0  0  0  0  0  0  0
  150.4738  133.0702  156.6178 C   0  0  0  0  0  0  0  0  0  0  0  0
  150.5505  134.3043  157.1171 N   0  0  0  0  0  0  0  0  0  0  0  0
  149.6106  135.1214  156.5624 C   0  0  0  0  0  0  0  0  0  0  0  0
  145.8608  131.6123  152.8593 H   0  0  0  0  0  0  0  0  0  0  0  0
  146.1489  134.0496  154.6397 H   0  0  0  0  0  0  0  0  0  0  0  0
  150.9822  140.0237  159.6367 H   0  0  0  0  0  0  0  0  0  0  0  0
  151.2647  141.2043  158.3570 H   0  0  0  0  0  0  0  0  0  0  0  0
  152.6095  140.6087  159.3178 H   0  0  0  0  0  0  0  0  0  0  0  0
  152.4117  138.3628  158.3615 H   0  0  0  0  0  0  0  0  0  0  0  0
  151.6718  140.4320  155.3235 H   0  0  0  0  0  0  0  0  0  0  0  0
  152.8970  139.2896  154.7583 H   0  0  0  0  0  0  0  0  0  0  0  0
  150.3808  138.3700  154.9604 H   0  0  0  0  0  0  0  0  0  0  0  0
  151.6797  137.4078  155.6633 H   0  0  0  0  0  0  0  0  0  0  0  0
  148.8620  139.2459  157.5411 H   0  0  0  0  0  0  0  0  0  0  0  0
  150.8644  136.7377  158.2466 H   0  0  0  0  0  0  0  0  0  0  0  0
  149.3715  137.5764  158.5744 H   0  0  0  0  0  0  0  0  0  0  0  0
  147.9263  137.8152  155.9755 H   0  0  0  0  0  0  0  0  0  0  0  0
  148.8942  133.8770  152.6600 H   0  0  0  0  0  0  0  0  0  0  0  0
  148.6699  132.1365  152.4753 H   0  0  0  0  0  0  0  0  0  0  0  0
  146.7528  134.3684  151.9140 H   0  0  0  0  0  0  0  0  0  0  0  0
  146.8967  132.8357  151.0577 H   0  0  0  0  0  0  0  0  0  0  0  0
  144.5037  133.2645  150.6122 H   0  0  0  0  0  0  0  0  0  0  0  0
  142.8859  133.0047  151.2673 H   0  0  0  0  0  0  0  0  0  0  0  0
  144.0384  131.6821  151.2445 H   0  0  0  0  0  0  0  0  0  0  0  0
  144.6622  134.8940  153.9629 H   0  0  0  0  0  0  0  0  0  0  0  0
  144.5292  135.2068  152.2586 H   0  0  0  0  0  0  0  0  0  0  0  0
  142.4507  135.8979  153.3348 H   0  0  0  0  0  0  0  0  0  0  0  0
  142.0550  134.4630  152.4123 H   0  0  0  0  0  0  0  0  0  0  0  0
  142.7371  133.4504  154.6126 H   0  0  0  0  0  0  0  0  0  0  0  0
  144.7290  132.1767  155.5316 H   0  0  0  0  0  0  0  0  0  0  0  0
  146.2189  132.3230  156.4482 H   0  0  0  0  0  0  0  0  0  0  0  0
  146.0478  131.0426  155.2542 H   0  0  0  0  0  0  0  0  0  0  0  0
  151.1903  132.3625  157.0084 H   0  0  0  0  0  0  0  0  0  0  0  0
  143.8732  132.6139  153.3949 H   0  0  0  0  0  0  0  0  0  0  0  0
  1  2  1  0  0  0  0
  1 31  1  0  0  0  0
  1 32  1  0  0  0  0
  1 33  1  0  0  0  0
  2  6  1  0  0  0  0
  2  3  1  0  0  0  0
  2 34  1  0  0  0  0
  3  4  1  0  0  0  0
  4  5  1  0  0  0  0
  4 35  1  0  0  0  0
  4 36  1  0  0  0  0
  5  6  1  0  0  0  0
  5 37  1  0  0  0  0
  5 38  1  0  0  0  0
  6  7  1  0  0  0  0
  6  8  1  0  0  0  0
  7 39  1  0  0  0  0
  8  9  1  0  0  0  0
  8 40  1  0  0  0  0
  8 41  1  0  0  0  0
  9 28  1  0  0  0  0
  9 10  1  0  0  0  0
 10 11  2  0  0  0  0
 10 42  1  0  0  0  0
 11 12  1  0  0  0  0
 12 28  2  0  0  0  0
 12 13  1  0  0  0  0
 13 14  1  0  0  0  0
 13 25  2  0  0  0  0
 14 23  1  0  0  0  0
 14 15  1  0  0  0  0
 15 16  1  0  0  0  0
 15 43  1  0  0  0  0
 15 44  1  0  0  0  0
 16 17  1  0  0  0  0
 16 45  1  0  0  0  0
 16 46  1  0  0  0  0
 17 29  1  0  0  0  0
 17 18  1  0  0  0  0
 17 23  1  0  0  0  0
 18 19  1  0  0  0  0
 18 20  1  0  0  0  0
 18 59  1  0  0  0  0
 19 47  1  0  0  0  0
 19 48  1  0  0  0  0
 19 49  1  0  0  0  0
 20 21  1  0  0  0  0
 20 50  1  0  0  0  0
 20 51  1  0  0  0  0
 21 22  1  0  0  0  0
 21 52  1  0  0  0  0
 21 53  1  0  0  0  0
 22 54  1  0  0  0  0
 23 30  1  0  0  0  0
 23 24  1  0  0  0  0
 24 55  1  0  0  0  0
 24 56  1  0  0  0  0
 24 57  1  0  0  0  0
 25 26  1  0  0  0  0
 26 27  2  0  0  0  0
 26 58  1  0  0  0  0
 27 28  1  0  0  0  0
M  CHG  1  18   1
M  END
> <s_m_source_file>
AV-unprocessed.smi

> <i_m_source_file_index>
290

> <i_lp_mmshare_version>
43012

> <i_f3d_flags>
0

> <s_epik_input>
W0NIMl0xW0NIMl1PW0NAQEhdKFtDSDNdKVtDQEBdMShbT0hdKVtDSDJdbihbY0hdbjIpYyhjMjMpbltjSF1uYzNONFtDSDJdW0NIMl1bQ0BIXShbQ0BIXTRbQ0gzXSlOKFtDSDNdKVtDSDJdW0NIMl1bT0hd

> <s_epik_cmdline>
J2VwaWtfcHl0aG9uJywgJy1waCcsICc3LjAnLCAnLXRuJywgJzgnLCAnLW1hJywgJzIwMCcsICctbWV0YWxfYmluZGluZycsICctaW1hZScsICc8aW5maWxlLm1hZT4nLCAnLW9tYWUnLCAnPG91dGZpbGUubWFlPic=

> <r_lp_tautomer_probability>
1

> <r_epik_Ionization_Penalty>
0.0036983

> <r_epik_Ionization_Penalty_Charging>
0.0032725

> <r_epik_Ionization_Penalty_Neutral>
0.000425798

> <r_epik_State_Penalty>
-0

> <r_epik_Charging_Adjusted_Penalty>
0.0032725

> <i_epik_Tot_Q>
1

> <i_epik_Tot_abs_Q>
1

> <r_epik_Metal_State_Penalty>
-0

> <b_epik_Metal_Only>
0

> <s_lp_Force_Field>
OPLS_2005

> <r_lp_Energy>
60.087

> <b_lp_Chiralities_Consistent>
1

> <s_lp_Variant>
AV-unprocessed.smi:290-15

> <Gold.Version>
5.8.1

> <Gold.Id.Protein>
6NUR|6NUR_protein|mol2

> <Gold.PLP.Fitness>
45.4794

> <Gold.PLP.PLP>
-31.2795

> <Gold.PLP.part.hbond>
-5.0000

> <Gold.PLP.part.metal>
0.0000

> <Gold.PLP.part.buried>
-6.4167

> <Gold.PLP.part.nonpolar>
-22.7377

> <Gold.PLP.part.repulsive>
0.1353

> <Gold.PLP.ligand.clash>
0.0000

> <Gold.PLP.ligand.torsion>
1.0107

> <Gold.PLP.Chemscore.Hbond>
5.1792

> <Gold.PLP.Chemscore.CHOScore>
0.0000

> <Gold.PLP.Chemscore.Metal>
0.0000

> <Gold.Chemscore.Hbonds>
donor molecule, donor type, donor heavy atom, donor atom, acceptor molecule, acceptor atom, score
      L1  H    18    59       P1 10957  2.00
      L1  H    22    54       P1 10957  0.83
      P1  H  6896  6908       L1    27  0.37
      P1  H  7997  8009       L1     3  1.00
      P1  H 11000 11005       L1    22  0.98

> <Gold.PLP.Chemscore.Internal.Correction>
0.6838

> <Gold.Rescore>
     Score         DG    S(hbond)    S(metal)    S(lipo)     H(rot)  DE(clash)    DE(int)     intcor
     13.61     -14.89       3.27        0.00      67.32       3.67       0.26       1.02       ----

> <Gold.Chemscore.Fitness>
13.6099

> <Gold.Chemscore.DG>
-14.8867

> <Gold.Chemscore.ZeroCoef>
-5.4800

> <Gold.Chemscore.Hbond>
3.2680

> <Gold.Chemscore.Metal>
0.0000

> <Gold.Chemscore.Lipo>
67.3157

> <Gold.Chemscore.Internal_Hbond>
0.0000

> <Gold.Chemscore.DEClash>
0.2602

> <Gold.Chemscore.DEInternal>
1.0166

> <Gold.Chemscore.Rot>
3.6658

> <Gold.Chemscore.Internal.Correction>
   9.000000E+99

> <Gold.Chemscore.Hbonds>
donor molecule, donor type, donor heavy atom, donor atom, acceptor molecule, acceptor atom, score
      L1  H    18    59       P1 10957  0.33
      L1  H    22    54       P1 10957  0.81
      P1  H  6896  6908       L1    27  0.11
      P1  H  7997  8009       L1     3  0.25
      P1  H 11000 11005       L1    22  0.26

> <Gold.Chemscore.Hbond.Weighted>
-10.9152

> <Gold.Chemscore.Metal.Weighted>
-0.0000

> <Gold.Chemscore.Lipo.Weighted>
-7.8759

> <Gold.Chemscore.Internal_Hbond.Weighted>
0.0000

> <Gold.Chemscore.DEClash.Weighted>
0.2602

> <Gold.Chemscore.DEInternal.Weighted>
1.0166

> <Gold.Chemscore.Rot.Weighted>
9.3844

> <Gold.Chemscore.Internal.Correction.Weighted>
   9.000000E+99

> <Gold.Protein.RotatedTorsions>
[ 6907 6896 6895 6894 ] final  122.78 input  -60.11 | X-H torsion
[ 7974 7965 7964 7962 ] final  -30.33 input  175.53 | X-H torsion
[ 8008 7997 7996 7995 ] final -162.01 input   59.86 | X-H torsion
[ 10167 10162 10161 10158 ] final  148.26 input  -65.29 | X-H torsion
[ 10718 10713 10712 10709 ] final  161.85 input   66.30 | X-H torsion
[ 10763 10752 10751 10750 ] final -106.14 input  -60.55 | X-H torsion
[ 11005 11000 10999 10996 ] final   -2.23 input  -57.11 | X-H torsion

> <Gold.Protein.ActiveResidues>
 VAL166  LYS551  ARG553  GLY616  TRP617  ASP618  TYR619  PRO620  LYS621  CYS622 
 ASP623  PHE694  ASN695  SER759  ASP760  ASP761  ALA762  ILE779  LEU786  VAL792 
 PHE793  MET794  SER795  GLU796  ALA797  LYS798  CYS799  TRP800  GLU811  SER814 

> <Gold.Protein.RotatedAtoms>
  152.4215  133.7125  159.6486 H   0  0  0  0  0  0  0  0  0  0  0  0  # atno 6907 bound_to 6896
  150.8091  133.8443  159.3196 H   0  0  0  0  0  0  0  0  0  0  0  0  # atno 6908 bound_to 6896
  151.6158  135.1038  160.0142 H   0  0  0  0  0  0  0  0  0  0  0  0  # atno 6909 bound_to 6896
  146.1151  140.5527  142.8760 H   0  0  0  0  0  0  0  0  0  0  0  0  # atno 7974 bound_to 7965
  155.8006  140.0891  157.1959 H   0  0  0  0  0  0  0  0  0  0  0  0  # atno 8008 bound_to 7997
  154.3982  140.1473  156.3329 H   0  0  0  0  0  0  0  0  0  0  0  0  # atno 8009 bound_to 7997
  155.8466  140.3436  155.5669 H   0  0  0  0  0  0  0  0  0  0  0  0  # atno 8010 bound_to 7997
  139.4877  144.5693  151.7086 H   0  0  0  0  0  0  0  0  0  0  0  0  # atno 10167 bound_to 10162
  157.1307  131.0516  151.2373 H   0  0  0  0  0  0  0  0  0  0  0  0  # atno 10718 bound_to 10713
  154.7993  135.4723  154.0236 H   0  0  0  0  0  0  0  0  0  0  0  0  # atno 10763 bound_to 10752
  153.1754  135.6832  153.8557 H   0  0  0  0  0  0  0  0  0  0  0  0  # atno 10764 bound_to 10752
  153.8125  135.3215  155.3380 H   0  0  0  0  0  0  0  0  0  0  0  0  # atno 10765 bound_to 10752
  140.6561  133.9362  155.8408 H   0  0  0  0  0  0  0  0  0  0  0  0  # atno 11005 bound_to 11000
  144.7545  140.5274  143.6778 LP  0  0  0  0  0  0  0  0  0  0  0  0  # atno 17320 bound_to 7965
  145.5584  139.1478  143.3355 LP  0  0  0  0  0  0  0  0  0  0  0  0  # atno 17321 bound_to 7965
  140.5277  144.0780  150.6043 LP  0  0  0  0  0  0  0  0  0  0  0  0  # atno 17342 bound_to 10162
  140.3759  143.2829  152.0225 LP  0  0  0  0  0  0  0  0  0  0  0  0  # atno 17343 bound_to 10162
  157.4395  130.7536  149.7057 LP  0  0  0  0  0  0  0  0  0  0  0  0  # atno 17370 bound_to 10713
  155.9808  130.4025  150.3505 LP  0  0  0  0  0  0  0  0  0  0  0  0  # atno 17371 bound_to 10713
  141.0501  134.0498  157.3795 LP  0  0  0  0  0  0  0  0  0  0  0  0  # atno 17394 bound_to 11000
  139.9029  135.0170  156.7353 LP  0  0  0  0  0  0  0  0  0  0  0  0  # atno 17395 bound_to 11000

$$$$
