AV-unprocessed.smi:113|AV-procd|sdf|1092|dock4
  -GOLD-   2262018193D 1   1.00000     0.00000
 Structure written by MMmdl.
 52 55  0  0  0  0  0  0  0  0  1 V2000
  150.0230  137.9210  158.3866 C   0  0  0  0  0  0  0  0  0  0  0  0
  149.0823  136.8915  158.9775 C   0  0  0  0  0  0  0  0  0  0  0  0
  148.3470  136.0285  158.1459 C   0  0  0  0  0  0  0  0  0  0  0  0
  147.4757  135.0841  158.7358 C   0  0  0  0  0  0  0  0  0  0  0  0
  146.6495  134.1220  157.8748 C   0  0  0  0  0  0  0  0  0  0  0  0
  146.9538  134.0888  156.4512 N   0  0  0  0  0  0  0  0  0  0  0  0
  148.1959  133.5380  156.0556 C   0  0  0  0  0  0  0  0  0  0  0  0
  149.0028  133.1061  156.8819 O   0  0  0  0  0  0  0  0  0  0  0  0
  148.4308  133.5097  154.6106 C   0  0  0  0  0  0  0  0  0  0  0  0
  149.7592  132.9592  154.1147 C   0  0  0  0  0  0  0  0  0  0  0  0
  147.4779  133.9669  153.7621 C   0  0  0  0  0  0  0  0  0  0  0  0
  146.2528  134.4732  154.1742 N   0  0  0  0  0  0  0  0  0  0  0  0
  145.1700  134.9305  153.2139 C   0  0  1  0  0  0  0  0  0  0  0  0
  145.6367  135.7717  152.0286 C   0  0  0  0  0  0  0  0  0  0  0  0
  144.4354  135.6234  151.1177 C   0  0  1  0  0  0  0  0  0  0  0  0
  144.7805  135.8931  149.7731 O   0  0  0  0  0  0  0  0  0  0  0  0
  143.9575  134.1806  151.4046 C   0  0  1  0  0  0  0  0  0  0  0  0
  144.3152  133.1137  150.3520 C   0  0  0  0  0  0  0  0  0  0  0  0
  143.8476  133.4940  149.0743 O   0  0  0  0  0  0  0  0  0  0  0  0
  144.6078  133.8041  152.6196 O   0  0  0  0  0  0  0  0  0  0  0  0
  145.9658  134.5516  155.5539 C   0  0  0  0  0  0  0  0  0  0  0  0
  144.8853  134.9961  155.9505 O   0  0  0  0  0  0  0  0  0  0  0  0
  147.3890  135.0546  160.1539 C   0  0  0  0  0  0  0  0  0  0  0  0
  146.5443  134.1369  160.8242 C   0  0  0  0  0  0  0  0  0  0  0  0
  146.4708  134.1257  162.2285 C   0  0  0  0  0  0  0  0  0  0  0  0
  147.2395  135.0315  162.9776 C   0  0  0  0  0  0  0  0  0  0  0  0
  148.0822  135.9453  162.3197 C   0  0  0  0  0  0  0  0  0  0  0  0
  148.1734  135.9741  160.9115 C   0  0  0  0  0  0  0  0  0  0  0  0
  148.9976  136.8679  160.3217 N   0  0  0  0  0  0  0  0  0  0  0  0
  150.2834  137.6696  157.3578 H   0  0  0  0  0  0  0  0  0  0  0  0
  150.9466  137.9784  158.9635 H   0  0  0  0  0  0  0  0  0  0  0  0
  149.5530  138.9048  158.3900 H   0  0  0  0  0  0  0  0  0  0  0  0
  148.4597  136.1029  157.0749 H   0  0  0  0  0  0  0  0  0  0  0  0
  146.7440  133.1036  158.2546 H   0  0  0  0  0  0  0  0  0  0  0  0
  145.5862  134.3473  157.9715 H   0  0  0  0  0  0  0  0  0  0  0  0
  149.8316  132.9831  153.0271 H   0  0  0  0  0  0  0  0  0  0  0  0
  149.8831  131.9232  154.4323 H   0  0  0  0  0  0  0  0  0  0  0  0
  150.5885  133.5423  154.5166 H   0  0  0  0  0  0  0  0  0  0  0  0
  147.7197  133.9354  152.7124 H   0  0  0  0  0  0  0  0  0  0  0  0
  144.4355  135.4562  153.8282 H   0  0  0  0  0  0  0  0  0  0  0  0
  145.8610  136.7989  152.3183 H   0  0  0  0  0  0  0  0  0  0  0  0
  146.5033  135.3112  151.5530 H   0  0  0  0  0  0  0  0  0  0  0  0
  143.6608  136.3265  151.4273 H   0  0  0  0  0  0  0  0  0  0  0  0
  144.6648  136.8175  149.6123 H   0  0  0  0  0  0  0  0  0  0  0  0
  142.8814  134.1769  151.5833 H   0  0  0  0  0  0  0  0  0  0  0  0
  145.3895  132.9281  150.3228 H   0  0  0  0  0  0  0  0  0  0  0  0
  143.8370  132.1673  150.6066 H   0  0  0  0  0  0  0  0  0  0  0  0
  144.5548  133.9126  148.6073 H   0  0  0  0  0  0  0  0  0  0  0  0
  145.9403  133.4278  160.2792 H   0  0  0  0  0  0  0  0  0  0  0  0
  145.8235  133.4215  162.7304 H   0  0  0  0  0  0  0  0  0  0  0  0
  147.1843  135.0260  164.0562 H   0  0  0  0  0  0  0  0  0  0  0  0
  148.6692  136.6364  162.9071 H   0  0  0  0  0  0  0  0  0  0  0  0
  1  2  1  0  0  0  0
  1 30  1  0  0  0  0
  1 31  1  0  0  0  0
  1 32  1  0  0  0  0
  2 29  1  0  0  0  0
  2  3  2  0  0  0  0
  3  4  1  0  0  0  0
  3 33  1  0  0  0  0
  4  5  1  0  0  0  0
  4 23  2  0  0  0  0
  5  6  1  0  0  0  0
  5 34  1  0  0  0  0
  5 35  1  0  0  0  0
  6 21  1  0  0  0  0
  6  7  1  0  0  0  0
  7  8  2  0  0  0  0
  7  9  1  0  0  0  0
  9 10  1  0  0  0  0
  9 11  2  0  0  0  0
 10 36  1  0  0  0  0
 10 37  1  0  0  0  0
 10 38  1  0  0  0  0
 11 12  1  0  0  0  0
 11 39  1  0  0  0  0
 12 13  1  0  0  0  0
 12 21  1  0  0  0  0
 13 20  1  0  0  0  0
 13 14  1  0  0  0  0
 13 40  1  0  0  0  0
 14 15  1  0  0  0  0
 14 41  1  0  0  0  0
 14 42  1  0  0  0  0
 15 16  1  0  0  0  0
 15 17  1  0  0  0  0
 15 43  1  0  0  0  0
 16 44  1  0  0  0  0
 17 18  1  0  0  0  0
 17 20  1  0  0  0  0
 17 45  1  0  0  0  0
 18 19  1  0  0  0  0
 18 46  1  0  0  0  0
 18 47  1  0  0  0  0
 19 48  1  0  0  0  0
 21 22  2  0  0  0  0
 23 28  1  0  0  0  0
 23 24  1  0  0  0  0
 24 25  2  0  0  0  0
 24 49  1  0  0  0  0
 25 26  1  0  0  0  0
 25 50  1  0  0  0  0
 26 27  2  0  0  0  0
 26 51  1  0  0  0  0
 27 28  1  0  0  0  0
 27 52  1  0  0  0  0
 28 29  2  0  0  0  0
M  END
> <s_m_source_file>
AV-unprocessed.smi

> <i_m_source_file_index>
113

> <i_lp_mmshare_version>
43012

> <i_f3d_flags>
0

> <s_epik_input>
W2NIXTFbY0hdW2NIXVtjSF1jKGMxMiluYyhbQ0gzXSlbY0hdYzJbQ0gyXW4zYyg9TyljKFtDSDNdKVtjSF1uKGMzPU8pW0NAQEhdNFtDSDJdW0NAQEhdKFtPSF0pW0NASF0oTzQpW0NIMl1bT0hd

> <s_epik_cmdline>
J2VwaWtfcHl0aG9uJywgJy1waCcsICc3LjAnLCAnLXRuJywgJzgnLCAnLW1hJywgJzIwMCcsICctbWV0YWxfYmluZGluZycsICctaW1hZScsICc8aW5maWxlLm1hZT4nLCAnLW9tYWUnLCAnPG91dGZpbGUubWFlPic=

> <r_lp_tautomer_probability>
1

> <r_epik_Ionization_Penalty>
0.214728

> <r_epik_Ionization_Penalty_Charging>
3.04883e-08

> <r_epik_Ionization_Penalty_Neutral>
0.214728

> <r_epik_State_Penalty>
0.204913

> <r_epik_Charging_Adjusted_Penalty>
0.204913

> <i_epik_Tot_Q>
0

> <i_epik_Tot_abs_Q>
0

> <r_epik_Metal_State_Penalty>
0.000244761

> <b_epik_Metal_Only>
0

> <s_epik_Chemistry_Notes>
This compound contains an acetal/aminal-like group ( X-CH(R)-Y where X, Y are N, S, or O) that may be acid/base labile, releasing an aldehyde.

> <s_lp_Force_Field>
OPLS_2005

> <r_lp_Energy>
43.3088

> <b_lp_Chiralities_Consistent>
1

> <s_lp_Variant>
AV-unprocessed.smi:113-2

> <Gold.Version>
5.8.1

> <Gold.Id.Protein>
6NUR|6NUR_protein|mol2

> <Gold.PLP.Fitness>
51.6090

> <Gold.PLP.PLP>
-42.3149

> <Gold.PLP.part.hbond>
-5.0381

> <Gold.PLP.part.metal>
0.0000

> <Gold.PLP.part.buried>
-6.8726

> <Gold.PLP.part.nonpolar>
-30.0880

> <Gold.PLP.part.repulsive>
0.1318

> <Gold.PLP.ligand.clash>
0.0000

> <Gold.PLP.ligand.torsion>
0.5289

> <Gold.PLP.Chemscore.Hbond>
2.7040

> <Gold.PLP.Chemscore.CHOScore>
0.7362

> <Gold.PLP.Chemscore.Metal>
0.0000

> <Gold.Chemscore.Hbonds>
donor molecule, donor type, donor heavy atom, donor atom, acceptor molecule, acceptor atom, score
      L1  H    16    44       P1 10171  1.00
      L1  H    19    48       P1  7921  0.94
      P1  H  6931  6943       L1    29  0.53
      L1  C    11    39       P1  7948  0.39

> <Gold.PLP.Chemscore.Internal.Correction>
0.0314

> <Gold.Rescore>
     Score         DG    S(hbond)    S(metal)    S(lipo)     H(rot)  DE(clash)    DE(int)     intcor
     17.92     -18.64       2.87        0.00      95.08       2.95       0.11       0.60       ----

> <Gold.Chemscore.Fitness>
17.9218

> <Gold.Chemscore.DG>
-18.6350

> <Gold.Chemscore.ZeroCoef>
-5.4800

> <Gold.Chemscore.Hbond>
2.8668

> <Gold.Chemscore.Metal>
0.0000

> <Gold.Chemscore.Lipo>
95.0755

> <Gold.Chemscore.Internal_Hbond>
0.0000

> <Gold.Chemscore.DEClash>
0.1117

> <Gold.Chemscore.DEInternal>
0.6015

> <Gold.Chemscore.Rot>
2.9469

> <Gold.Chemscore.Internal.Correction>
   9.000000E+99

> <Gold.Chemscore.Hbonds>
donor molecule, donor type, donor heavy atom, donor atom, acceptor molecule, acceptor atom, score
      L1  H    16    44       P1 10171  0.99
      L1  H    19    48       P1  7921  0.90
      P1  H  6931  6943       L1    29  0.10

> <Gold.Chemscore.Hbond.Weighted>
-9.5751

> <Gold.Chemscore.Metal.Weighted>
-0.0000

> <Gold.Chemscore.Lipo.Weighted>
-11.1238

> <Gold.Chemscore.Internal_Hbond.Weighted>
0.0000

> <Gold.Chemscore.DEClash.Weighted>
0.1117

> <Gold.Chemscore.DEInternal.Weighted>
0.6015

> <Gold.Chemscore.Rot.Weighted>
7.5439

> <Gold.Chemscore.Internal.Correction.Weighted>
   9.000000E+99

> <Gold.Protein.RotatedTorsions>
[ 6907 6896 6895 6894 ] final   -9.22 input  -60.11 | X-H torsion
[ 7974 7965 7964 7962 ] final   66.66 input  175.53 | X-H torsion
[ 8008 7997 7996 7995 ] final  -56.11 input   59.86 | X-H torsion
[ 10167 10162 10161 10158 ] final   27.27 input  -65.29 | X-H torsion
[ 10718 10713 10712 10709 ] final  -32.91 input   66.30 | X-H torsion
[ 10763 10752 10751 10750 ] final -168.12 input  -60.55 | X-H torsion
[ 11005 11000 10999 10996 ] final   85.06 input  -57.11 | X-H torsion

> <Gold.Protein.ActiveResidues>
 VAL166  LYS551  ARG553  GLY616  TRP617  ASP618  TYR619  PRO620  LYS621  CYS622 
 ASP623  PHE694  ASN695  SER759  ASP760  ASP761  ALA762  ILE779  LEU786  VAL792 
 PHE793  MET794  SER795  GLU796  ALA797  LYS798  CYS799  TRP800  GLU811  SER814 

> <Gold.Protein.RotatedAtoms>
  151.4213  135.0998  159.9614 H   0  0  0  0  0  0  0  0  0  0  0  0  # atno 6907 bound_to 6896
  152.4987  133.8705  159.7306 H   0  0  0  0  0  0  0  0  0  0  0  0  # atno 6908 bound_to 6896
  150.9221  133.6810  159.2857 H   0  0  0  0  0  0  0  0  0  0  0  0  # atno 6909 bound_to 6896
  145.8239  139.3100  143.1027 H   0  0  0  0  0  0  0  0  0  0  0  0  # atno 7974 bound_to 7965
  154.4218  140.1137  156.5585 H   0  0  0  0  0  0  0  0  0  0  0  0  # atno 8008 bound_to 7997
  155.6336  140.3496  155.4672 H   0  0  0  0  0  0  0  0  0  0  0  0  # atno 8009 bound_to 7997
  155.9928  140.1183  157.0612 H   0  0  0  0  0  0  0  0  0  0  0  0  # atno 8010 bound_to 7997
  140.4952  144.0403  150.6312 H   0  0  0  0  0  0  0  0  0  0  0  0  # atno 10167 bound_to 10162
  156.3691  130.4336  149.7560 H   0  0  0  0  0  0  0  0  0  0  0  0  # atno 10718 bound_to 10713
  154.6662  135.2932  154.9802 H   0  0  0  0  0  0  0  0  0  0  0  0  # atno 10763 bound_to 10752
  154.0845  135.6599  153.4847 H   0  0  0  0  0  0  0  0  0  0  0  0  # atno 10764 bound_to 10752
  153.0459  135.5205  154.7636 H   0  0  0  0  0  0  0  0  0  0  0  0  # atno 10765 bound_to 10752
  139.8982  134.8260  156.2530 H   0  0  0  0  0  0  0  0  0  0  0  0  # atno 11005 bound_to 11000
  145.9644  140.8810  143.0194 LP  0  0  0  0  0  0  0  0  0  0  0  0  # atno 17320 bound_to 7965
  144.6745  140.1858  143.7401 LP  0  0  0  0  0  0  0  0  0  0  0  0  # atno 17321 bound_to 7965
  140.3683  143.2869  152.0306 LP  0  0  0  0  0  0  0  0  0  0  0  0  # atno 17342 bound_to 10162
  139.4860  144.6249  151.7183 LP  0  0  0  0  0  0  0  0  0  0  0  0  # atno 17343 bound_to 10162
  156.4694  130.7989  151.3008 LP  0  0  0  0  0  0  0  0  0  0  0  0  # atno 17370 bound_to 10713
  157.7482  131.0040  150.3061 LP  0  0  0  0  0  0  0  0  0  0  0  0  # atno 17371 bound_to 10713
  141.0211  133.7041  156.1270 LP  0  0  0  0  0  0  0  0  0  0  0  0  # atno 17394 bound_to 11000
  140.7232  134.4336  157.5573 LP  0  0  0  0  0  0  0  0  0  0  0  0  # atno 17395 bound_to 11000

$$$$
