#       Name:                AV-unprocessed.smi:3256
#       Creating user name   scv26
#       Creation time:       Fri Mar 27 18:36:19 2020


#       File generated by GOLD software.
#

@<TRIPOS>MOLECULE
AV-unprocessed.smi:3256
    42    43     1
SMALL
NO_CHARGES


@<TRIPOS>ATOM
      1 ****         0.3081   1.1713   1.0134 O.2            1 S1                 0.0000
      2 ****        -0.2348   0.1924   1.5238 C.2            1 S1                 0.0000
      3 ****         0.4037  -0.9586   1.7789 N.am           1 S1                 0.0000
      4 ****         1.8074  -1.2315   1.4875 C.3            1 S1                 0.0000
      5 ****         1.9751  -1.9736   0.1472 C.3            1 S1                 0.0000
      6 ****         1.6315  -1.2055  -1.0496 N.3            1 S1                 0.0000
      7 ****         1.5822  -2.0633  -2.2282 C.3            1 S1                 0.0000
      8 ****         1.2151  -1.2748  -3.4972 C.3            1 S1                 0.0000
      9 ****         2.1461  -0.2143  -3.6848 O.3            1 S1                 0.0000
     10 ****         2.1967   0.6744  -2.5735 C.3            1 S1                 0.0000
     11 ****         2.5641  -0.1088  -1.3013 C.3            1 S1                 0.0000
     12 ****        -1.5259   0.1153   1.8906 N.am           1 S1                 0.0000
     13 ****        -2.5497   1.0998   1.8134 C.ar           1 S1                 0.0000
     14 ****        -2.3429   2.4629   1.4870 C.ar           1 S1                 0.0000
     15 ****        -3.4516   3.3310   1.4581 C.ar           1 S1                 0.0000
     16 ****        -4.7240   2.8094   1.7606 C.ar           1 S1                 0.0000
     17 ****        -4.9357   1.5155   2.0789 N.ar           1 S1                 0.0000
     18 ****        -3.8685   0.6892   2.1035 C.ar           1 S1                 0.0000
     19 ****        -0.1249  -1.7104   2.1963 H              1 S1                 0.0000
     20 ****         2.4100  -0.3240   1.5313 H              1 S1                 0.0000
     21 ****         2.1813  -1.8690   2.2889 H              1 S1                 0.0000
     22 ****         3.0032  -2.3288   0.0641 H              1 S1                 0.0000
     23 ****         1.3564  -2.8713   0.1856 H              1 S1                 0.0000
     24 ****         2.5480  -2.5500  -2.3727 H              1 S1                 0.0000
     25 ****         0.8516  -2.8587  -2.0764 H              1 S1                 0.0000
     26 ****         1.2376  -1.9281  -4.3695 H              1 S1                 0.0000
     27 ****         0.2038  -0.8718  -3.4229 H              1 S1                 0.0000
     28 ****         2.9386   1.4485  -2.7698 H              1 S1                 0.0000
     29 ****         1.2344   1.1745  -2.4540 H              1 S1                 0.0000
     30 ****         2.5760   0.5829  -0.4599 H              1 S1                 0.0000
     31 ****         3.5780  -0.4999  -1.3988 H              1 S1                 0.0000
     32 ****        -1.8225  -0.7776   2.2563 H              1 S1                 0.0000
     33 ****        -1.3684   2.8677   1.2673 H              1 S1                 0.0000
     34 ****        -3.3281   4.3754   1.2125 H              1 S1                 0.0000
     35 ****        -5.5941   3.4488   1.7499 H              1 S1                 0.0000
     36 ****        -4.0767  -0.3384   2.3642 H              1 S1                 0.0000
     37 ****         1.2762   1.1336   0.7658 LP             1 S1                 0.0000
     38 ****        -0.2188   2.0046   0.8461 LP             1 S1                 0.0000
     39 ****         0.7277  -0.8149  -0.8749 LP             1 S1                 0.0000
     40 ****         1.8809   0.3044  -4.4976 LP             1 S1                 0.0000
     41 ****         3.0554  -0.6072  -3.8221 LP             1 S1                 0.0000
     42 ****        -5.8536   1.1794   2.2898 LP             1 S1                 0.0000
@<TRIPOS>BOND
    1    1    2 2     
    2    2    3 am    
    3    2   12 am    
    4    3    4 1     
    5    3   19 1     
    6    4    5 1     
    7    4   20 1     
    8    4   21 1     
    9    5    6 1     
   10    5   22 1     
   11    5   23 1     
   12    6   11 1     
   13    6    7 1     
   14    7    8 1     
   15    7   24 1     
   16    7   25 1     
   17    8    9 1     
   18    8   26 1     
   19    8   27 1     
   20    9   10 1     
   21   10   11 1     
   22   10   28 1     
   23   10   29 1     
   24   11   30 1     
   25   11   31 1     
   26   12   13 1     
   27   12   32 1     
   28   13   18 ar    
   29   13   14 ar    
   30   14   15 ar    
   31   14   33 1     
   32   15   16 ar    
   33   15   34 1     
   34   16   17 ar    
   35   16   35 1     
   36   17   18 ar    
   37   18   36 1     
   38    1   37 1     
   39    1   38 1     
   40    6   39 1     
   41    9   40 1     
   42    9   41 1     
   43   17   42 1     
@<TRIPOS>SUBSTRUCTURE
      1 S1             1
@<TRIPOS>SET
LONE_PAIRS      STATIC     ATOMS    <user>   **** ""
6 37 38 39 40 41 42
DONOR_HYDROGENS      STATIC     ATOMS    <user>   **** ""
2 19 32
ATOM$BLUE        STATIC     ATOMS    COLORGROUP SYSTEM
6 37 38 39 40 41 42
ATOM$RED        STATIC     ATOMS    COLORGROUP SYSTEM
2 19 32
