#       Name:                AV-unprocessed.smi:2336
#       Creating user name   scv26
#       Creation time:       Fri Mar 27 12:54:40 2020


#       File generated by GOLD software.
#

@<TRIPOS>MOLECULE
AV-unprocessed.smi:2336
    54    55     1
SMALL
NO_CHARGES


@<TRIPOS>ATOM
      1 ****        -3.0685   2.0651   0.0138 C.3            1 S1                 0.0000
      2 ****        -1.8773   1.5288   0.8280 C.3            1 S1                 0.0000
      3 ****        -0.7105   2.5327   0.8262 C.3            1 S1                 0.0000
      4 ****        -1.4465   0.0711   0.4402 C.3            1 S1                 0.0000
      5 ****        -1.3643  -0.1592  -1.1035 C.3            1 S1                 0.0000
      6 ****        -0.4065   0.7154  -1.7693 N.am           1 S1                 0.0000
      7 ****         0.9252   0.5639  -1.7217 C.2            1 S1                 0.0000
      8 ****         1.4780  -0.3469  -1.1044 O.2            1 S1                 0.0000
      9 ****         1.5481   1.5373  -2.4078 N.am           1 S1                 0.0000
     10 ****         2.9416   1.7674  -2.5758 C.ar           1 S1                 0.0000
     11 ****         3.9485   0.8014  -2.3326 C.ar           1 S1                 0.0000
     12 ****         5.2941   1.1600  -2.5497 C.ar           1 S1                 0.0000
     13 ****         5.6793   2.3773  -2.9873 N.ar           1 S1                 0.0000
     14 ****         4.7166   3.2911  -3.2310 C.ar           1 S1                 0.0000
     15 ****         3.3431   3.0363  -3.0450 C.ar           1 S1                 0.0000
     16 ****         2.4274   3.9987  -3.3127 F              1 S1                 0.0000
     17 ****        -2.3316  -0.9027   1.1252 N.3            1 S1                 0.0000
     18 ****        -2.3837  -2.2714   0.5896 C.3            1 S1                 0.0000
     19 ****        -1.0579  -3.0280   0.8191 C.3            1 S1                 0.0000
     20 ****        -0.7786  -3.1309   2.2685 N.4            1 S1                 1.0000
     21 ****         0.4500  -3.8991   2.5617 C.3            1 S1                 0.0000
     22 ****        -0.7776  -1.7887   2.8931 C.3            1 S1                 0.0000
     23 ****        -2.0902  -1.0371   2.5739 C.3            1 S1                 0.0000
     24 ****        -2.8031   2.2440  -1.0281 H              1 S1                 0.0000
     25 ****        -3.4231   3.0115   0.4231 H              1 S1                 0.0000
     26 ****        -3.9058   1.3671   0.0338 H              1 S1                 0.0000
     27 ****        -2.2189   1.5378   1.8593 H              1 S1                 0.0000
     28 ****        -0.3821   2.7894  -0.1793 H              1 S1                 0.0000
     29 ****         0.1485   2.1430   1.3730 H              1 S1                 0.0000
     30 ****        -1.0056   3.4652   1.3082 H              1 S1                 0.0000
     31 ****        -0.4413  -0.0923   0.8242 H              1 S1                 0.0000
     32 ****        -1.0577  -1.1748  -1.3498 H              1 S1                 0.0000
     33 ****        -2.3404  -0.0263  -1.5700 H              1 S1                 0.0000
     34 ****        -0.7836   1.4914  -2.2941 H              1 S1                 0.0000
     35 ****         0.9500   2.2438  -2.8110 H              1 S1                 0.0000
     36 ****         3.7244  -0.1992  -1.9987 H              1 S1                 0.0000
     37 ****         6.0834   0.4444  -2.3725 H              1 S1                 0.0000
     38 ****         5.0502   4.2548  -3.5866 H              1 S1                 0.0000
     39 ****        -3.1916  -2.8072   1.0901 H              1 S1                 0.0000
     40 ****        -2.6639  -2.2742  -0.4629 H              1 S1                 0.0000
     41 ****        -1.1347  -4.0304   0.3969 H              1 S1                 0.0000
     42 ****        -0.2249  -2.5361   0.3152 H              1 S1                 0.0000
     43 ****         1.3295  -3.4044   2.1472 H              1 S1                 0.0000
     44 ****         0.3879  -4.9010   2.1355 H              1 S1                 0.0000
     45 ****         0.5906  -4.0028   3.6380 H              1 S1                 0.0000
     46 ****        -0.6833  -1.9018   3.9736 H              1 S1                 0.0000
     47 ****         0.0957  -1.2229   2.5676 H              1 S1                 0.0000
     48 ****        -2.0840  -0.0764   3.0828 H              1 S1                 0.0000
     49 ****        -2.9277  -1.5835   3.0102 H              1 S1                 0.0000
     50 ****        -1.5495  -3.6407   2.6760 H              1 S1                 0.0000
     51 ****         0.9293  -1.0186  -0.6067 LP             1 S1                 0.0000
     52 ****         2.4757  -0.4149  -1.1008 LP             1 S1                 0.0000
     53 ****         6.6455   2.5947  -3.1262 LP             1 S1                 0.0000
     54 ****        -3.2084  -0.4607   0.9360 LP             1 S1                 0.0000
@<TRIPOS>BOND
    1    1    2 1     
    2    1   24 1     
    3    1   25 1     
    4    1   26 1     
    5    2    3 1     
    6    2    4 1     
    7    2   27 1     
    8    3   28 1     
    9    3   29 1     
   10    3   30 1     
   11    4    5 1     
   12    4   17 1     
   13    4   31 1     
   14    5    6 1     
   15    5   32 1     
   16    5   33 1     
   17    6    7 am    
   18    6   34 1     
   19    7    8 2     
   20    7    9 am    
   21    9   10 1     
   22    9   35 1     
   23   10   15 ar    
   24   10   11 ar    
   25   11   12 ar    
   26   11   36 1     
   27   12   13 ar    
   28   12   37 1     
   29   13   14 ar    
   30   14   15 ar    
   31   14   38 1     
   32   15   16 1     
   33   17   23 1     
   34   17   18 1     
   35   18   19 1     
   36   18   39 1     
   37   18   40 1     
   38   19   20 1     
   39   19   41 1     
   40   19   42 1     
   41   20   21 1     
   42   20   22 1     
   43   20   50 1     
   44   21   43 1     
   45   21   44 1     
   46   21   45 1     
   47   22   23 1     
   48   22   46 1     
   49   22   47 1     
   50   23   48 1     
   51   23   49 1     
   52    8   51 1     
   53    8   52 1     
   54   13   53 1     
   55   17   54 1     
@<TRIPOS>SUBSTRUCTURE
      1 S1             1
@<TRIPOS>SET
LONE_PAIRS      STATIC     ATOMS    <user>   **** ""
4 51 52 53 54
DONOR_HYDROGENS      STATIC     ATOMS    <user>   **** ""
3 34 35 50
ATOM$BLUE        STATIC     ATOMS    COLORGROUP SYSTEM
4 51 52 53 54
ATOM$RED        STATIC     ATOMS    COLORGROUP SYSTEM
3 34 35 50
