#       Name:                AV-unprocessed.smi:837
#       Creating user name   scv26
#       Creation time:       Fri Mar 27 01:35:42 2020


#       File generated by GOLD software.
#

@<TRIPOS>MOLECULE
AV-unprocessed.smi:837
    56    58     1
SMALL
NO_CHARGES


@<TRIPOS>ATOM
      1 ****         0.5799   2.8017  -1.1138 C.3            1 S1                 0.0000
      2 ****        -0.9000   3.2050  -0.9400 C.3            1 S1                 0.0000
      3 ****        -1.0158   4.5351  -0.1639 C.3            1 S1                 0.0000
      4 ****        -2.4743   5.0064  -0.0581 C.3            1 S1                 0.0000
      5 ****        -3.3670   3.9350   0.5834 C.3            1 S1                 0.0000
      6 ****        -3.2684   2.6005  -0.1767 C.3            1 S1                 0.0000
      7 ****        -1.8120   2.0937  -0.3291 C.3            1 S1                 0.0000
      8 ****        -1.7961   0.8946  -1.1491 N.am           1 S1                 0.0000
      9 ****        -1.3524  -0.1860  -0.4963 C.2            1 S1                 0.0000
     10 ****        -1.2362  -1.3104  -0.9822 O.2            1 S1                 0.0000
     11 ****        -1.0495   0.1756   0.7626 N.am           1 S1                 0.0000
     12 ****        -0.4810  -0.7347   1.7646 C.3            1 S1                 0.0000
     13 ****         1.0403  -0.8852   1.6298 C.2            1 S1                 0.0000
     14 ****         1.7306   0.0419   1.2047 O.2            1 S1                 0.0000
     15 ****         1.5504  -2.0694   1.9990 N.am           1 S1                 0.0000
     16 ****         2.9615  -2.4377   1.9237 C.3            1 S1                 0.0000
     17 ****         3.4611  -2.6328   0.4769 C.3            1 S1                 0.0000
     18 ****         2.5740  -3.5419  -0.3568 C.ar           1 S1                 0.0000
     19 ****         1.6712  -3.0005  -1.2994 C.ar           1 S1                 0.0000
     20 ****         0.8513  -3.8684  -2.0497 C.ar           1 S1                 0.0000
     21 ****         0.9549  -5.2591  -1.8439 C.ar           1 S1                 0.0000
     22 ****         1.8320  -5.7409  -0.9359 N.pl3          1 S1                 1.0000
     23 ****         2.6333  -4.9429  -0.1961 C.ar           1 S1                 0.0000
     24 ****        -1.2763   1.4807   0.9667 C.2            1 S1                 0.0000
     25 ****        -1.0801   2.1066   2.0085 O.2            1 S1                 0.0000
     26 ****         1.0687   2.6283  -0.1547 H              1 S1                 0.0000
     27 ****         1.1377   3.5874  -1.6238 H              1 S1                 0.0000
     28 ****         0.6847   1.8954  -1.7103 H              1 S1                 0.0000
     29 ****        -1.2769   3.3985  -1.9457 H              1 S1                 0.0000
     30 ****        -0.5897   4.4318   0.8342 H              1 S1                 0.0000
     31 ****        -0.4274   5.3060  -0.6628 H              1 S1                 0.0000
     32 ****        -2.5254   5.9273   0.5234 H              1 S1                 0.0000
     33 ****        -2.8523   5.2484  -1.0523 H              1 S1                 0.0000
     34 ****        -3.0848   3.7978   1.6273 H              1 S1                 0.0000
     35 ****        -4.4025   4.2762   0.5936 H              1 S1                 0.0000
     36 ****        -3.8825   1.8534   0.3288 H              1 S1                 0.0000
     37 ****        -3.7095   2.7266  -1.1666 H              1 S1                 0.0000
     38 ****        -2.0874   0.8936  -2.1158 H              1 S1                 0.0000
     39 ****        -0.7062  -0.3847   2.7734 H              1 S1                 0.0000
     40 ****        -0.9560  -1.7138   1.6769 H              1 S1                 0.0000
     41 ****         0.9131  -2.7710   2.3475 H              1 S1                 0.0000
     42 ****         3.5717  -1.6954   2.4402 H              1 S1                 0.0000
     43 ****         3.0806  -3.3705   2.4752 H              1 S1                 0.0000
     44 ****         3.5408  -1.6650  -0.0196 H              1 S1                 0.0000
     45 ****         4.4717  -3.0424   0.4914 H              1 S1                 0.0000
     46 ****         1.5994  -1.9316  -1.4410 H              1 S1                 0.0000
     47 ****         0.1507  -3.4713  -2.7700 H              1 S1                 0.0000
     48 ****         0.3669  -5.9947  -2.3732 H              1 S1                 0.0000
     49 ****         3.2896  -5.4457   0.4992 H              1 S1                 0.0000
     50 ****         1.8912  -6.7508  -0.8024 H              1 S1                 0.0000
     51 ****        -1.4827  -1.4699  -1.9382 LP             1 S1                 0.0000
     52 ****        -0.8952  -2.0647  -0.4212 LP             1 S1                 0.0000
     53 ****         1.3008   0.9059   0.9424 LP             1 S1                 0.0000
     54 ****         2.7210  -0.0693   1.1217 LP             1 S1                 0.0000
     55 ****        -1.2735   3.0869   2.0468 LP             1 S1                 0.0000
     56 ****        -0.7272   1.6346   2.8164 LP             1 S1                 0.0000
@<TRIPOS>BOND
    1    1    2 1     
    2    1   26 1     
    3    1   27 1     
    4    1   28 1     
    5    2    7 1     
    6    2    3 1     
    7    2   29 1     
    8    3    4 1     
    9    3   30 1     
   10    3   31 1     
   11    4    5 1     
   12    4   32 1     
   13    4   33 1     
   14    5    6 1     
   15    5   34 1     
   16    5   35 1     
   17    6    7 1     
   18    6   36 1     
   19    6   37 1     
   20    7   24 1     
   21    7    8 1     
   22    8    9 am    
   23    8   38 1     
   24    9   10 2     
   25    9   11 am    
   26   11   12 1     
   27   11   24 am    
   28   12   13 1     
   29   12   39 1     
   30   12   40 1     
   31   13   14 2     
   32   13   15 am    
   33   15   16 1     
   34   15   41 1     
   35   16   17 1     
   36   16   42 1     
   37   16   43 1     
   38   17   18 1     
   39   17   44 1     
   40   17   45 1     
   41   18   23 ar    
   42   18   19 ar    
   43   19   20 ar    
   44   19   46 1     
   45   20   21 ar    
   46   20   47 1     
   47   21   22 ar    
   48   21   48 1     
   49   22   23 ar    
   50   22   50 1     
   51   23   49 1     
   52   24   25 2     
   53   10   51 1     
   54   10   52 1     
   55   14   53 1     
   56   14   54 1     
   57   25   55 1     
   58   25   56 1     
@<TRIPOS>SUBSTRUCTURE
      1 S1             1
@<TRIPOS>SET
LONE_PAIRS      STATIC     ATOMS    <user>   **** ""
6 51 52 53 54 55 56
DONOR_HYDROGENS      STATIC     ATOMS    <user>   **** ""
3 38 41 50
ATOM$BLUE        STATIC     ATOMS    COLORGROUP SYSTEM
6 51 52 53 54 55 56
ATOM$RED        STATIC     ATOMS    COLORGROUP SYSTEM
3 38 41 50
