AV-unprocessed.smi:31|AV-procd|sdf|196|dock7
  -GOLD-   2262015463D 1   1.00000     0.00000
 Structure written by MMmdl.
 49 52  0  0  0  0  0  0  0  0  1 V2000
  151.8979  137.0096  155.7789 O   0  0  0  0  0  0  0  0  0  0  0  0
  151.1285  137.0862  154.8203 C   0  0  0  0  0  0  0  0  0  0  0  0
  151.0342  138.3832  154.0011 C   0  0  0  0  0  0  0  0  0  0  0  0
  150.4559  139.5184  154.7535 N   0  0  0  0  0  0  0  0  0  0  0  0
  149.0952  139.8552  154.5455 C   0  0  0  0  0  0  0  0  0  0  0  0
  148.3962  139.2273  153.7489 O   0  0  0  0  0  0  0  0  0  0  0  0
  148.5956  140.9748  155.3358 C   0  0  0  0  0  0  0  0  0  0  0  0
  147.3164  141.3644  155.2027 F   0  0  0  0  0  0  0  0  0  0  0  0
  149.3978  141.6279  156.2016 C   0  0  0  0  0  0  0  0  0  0  0  0
  150.7247  141.2874  156.3954 N   0  0  0  0  0  0  0  0  0  0  0  0
  151.6101  142.0258  157.3769 C   0  0  1  0  0  0  0  0  0  0  0  0
  151.7710  143.4993  156.9579 C   0  0  0  0  0  0  0  0  0  0  0  0
  151.4389  144.2465  158.2339 C   0  0  0  0  0  0  0  0  0  0  0  0
  150.4517  143.3009  158.9009 C   0  0  0  0  0  0  0  0  0  0  0  0
  151.0200  142.0229  158.6460 O   0  0  0  0  0  0  0  0  0  0  0  0
  151.2799  140.2083  155.6741 C   0  0  0  0  0  0  0  0  0  0  0  0
  152.4554  139.8772  155.8457 O   0  0  0  0  0  0  0  0  0  0  0  0
  150.2984  136.1036  154.4251 N   0  0  0  0  0  0  0  0  0  0  0  0
  150.1407  134.7933  154.9545 C   0  0  0  0  0  0  0  0  0  0  0  0
  149.2592  133.9312  154.2754 C   0  0  0  0  0  0  0  0  0  0  0  0
  149.0539  132.6179  154.7336 C   0  0  0  0  0  0  0  0  0  0  0  0
  149.7276  132.1360  155.8729 C   0  0  0  0  0  0  0  0  0  0  0  0
  150.6724  132.9789  156.5287 C   0  0  0  0  0  0  0  0  0  0  0  0
  150.8507  134.3028  156.0759 C   0  0  0  0  0  0  0  0  0  0  0  0
  151.4632  132.5810  157.5846 O   0  0  0  0  0  0  0  0  0  0  0  0
  151.8942  131.2281  157.5673 C   0  0  0  0  0  0  0  0  0  0  0  0
  150.8370  130.3029  158.1730 C   0  0  0  0  0  0  0  0  0  0  0  0
  149.4246  130.6314  157.6853 C   0  0  0  0  0  0  0  0  0  0  0  0
  149.4050  130.8612  156.2840 O   0  0  0  0  0  0  0  0  0  0  0  0
  152.0273  138.6400  153.6283 H   0  0  0  0  0  0  0  0  0  0  0  0
  150.4612  138.1728  153.0969 H   0  0  0  0  0  0  0  0  0  0  0  0
  148.9649  142.4454  156.7576 H   0  0  0  0  0  0  0  0  0  0  0  0
  152.5460  141.4653  157.4125 H   0  0  0  0  0  0  0  0  0  0  0  0
  152.7790  143.6953  156.5915 H   0  0  0  0  0  0  0  0  0  0  0  0
  151.0536  143.7495  156.1744 H   0  0  0  0  0  0  0  0  0  0  0  0
  152.3316  144.3521  158.8519 H   0  0  0  0  0  0  0  0  0  0  0  0
  151.0260  145.2393  158.0539 H   0  0  0  0  0  0  0  0  0  0  0  0
  150.3430  143.4861  159.9696 H   0  0  0  0  0  0  0  0  0  0  0  0
  149.4681  143.3761  158.4349 H   0  0  0  0  0  0  0  0  0  0  0  0
  149.6640  136.3432  153.6772 H   0  0  0  0  0  0  0  0  0  0  0  0
  148.7219  134.2791  153.4049 H   0  0  0  0  0  0  0  0  0  0  0  0
  148.3520  131.9794  154.2174 H   0  0  0  0  0  0  0  0  0  0  0  0
  151.5752  134.9161  156.5884 H   0  0  0  0  0  0  0  0  0  0  0  0
  152.1419  130.9196  156.5496 H   0  0  0  0  0  0  0  0  0  0  0  0
  152.8196  131.1495  158.1379 H   0  0  0  0  0  0  0  0  0  0  0  0
  151.0865  129.2712  157.9242 H   0  0  0  0  0  0  0  0  0  0  0  0
  150.8600  130.3717  159.2608 H   0  0  0  0  0  0  0  0  0  0  0  0
  148.7573  129.7996  157.9110 H   0  0  0  0  0  0  0  0  0  0  0  0
  149.0206  131.4939  158.2185 H   0  0  0  0  0  0  0  0  0  0  0  0
  1  2  2  0  0  0  0
  2  3  1  0  0  0  0
  2 18  1  0  0  0  0
  3  4  1  0  0  0  0
  3 30  1  0  0  0  0
  3 31  1  0  0  0  0
  4 16  1  0  0  0  0
  4  5  1  0  0  0  0
  5  6  2  0  0  0  0
  5  7  1  0  0  0  0
  7  8  1  0  0  0  0
  7  9  2  0  0  0  0
  9 10  1  0  0  0  0
  9 32  1  0  0  0  0
 10 11  1  0  0  0  0
 10 16  1  0  0  0  0
 11 15  1  0  0  0  0
 11 12  1  0  0  0  0
 11 33  1  0  0  0  0
 12 13  1  0  0  0  0
 12 34  1  0  0  0  0
 12 35  1  0  0  0  0
 13 14  1  0  0  0  0
 13 36  1  0  0  0  0
 13 37  1  0  0  0  0
 14 15  1  0  0  0  0
 14 38  1  0  0  0  0
 14 39  1  0  0  0  0
 16 17  2  0  0  0  0
 18 19  1  0  0  0  0
 18 40  1  0  0  0  0
 19 24  1  0  0  0  0
 19 20  2  0  0  0  0
 20 21  1  0  0  0  0
 20 41  1  0  0  0  0
 21 22  2  0  0  0  0
 21 42  1  0  0  0  0
 22 29  1  0  0  0  0
 22 23  1  0  0  0  0
 23 24  2  0  0  0  0
 23 25  1  0  0  0  0
 24 43  1  0  0  0  0
 25 26  1  0  0  0  0
 26 27  1  0  0  0  0
 26 44  1  0  0  0  0
 26 45  1  0  0  0  0
 27 28  1  0  0  0  0
 27 46  1  0  0  0  0
 27 47  1  0  0  0  0
 28 29  1  0  0  0  0
 28 48  1  0  0  0  0
 28 49  1  0  0  0  0
M  END
> <s_m_source_file>
AV-unprocessed.smi

> <i_m_source_file_index>
31

> <i_lp_mmshare_version>
43012

> <i_f3d_flags>
0

> <s_epik_input>
TzFbQ0gyXVtDSDJdW0NIMl1PYyhjMTIpW2NIXWMoW2NIXVtjSF0yKVtOSF1DKD1PKVtDSDJdbjNjKD1PKWMoRilbY0hdbihjMz1PKVtDQEBIXTRbQ0gyXVtDSDJdW0NIMl1PNA==

> <s_epik_cmdline>
J2VwaWtfcHl0aG9uJywgJy1waCcsICc3LjAnLCAnLXRuJywgJzgnLCAnLW1hJywgJzIwMCcsICctbWV0YWxfYmluZGluZycsICctaW1hZScsICc8aW5maWxlLm1hZT4nLCAnLW9tYWUnLCAnPG91dGZpbGUubWFlPic=

> <r_lp_tautomer_probability>
1

> <r_epik_Ionization_Penalty>
1.0483e-05

> <r_epik_Ionization_Penalty_Charging>
3.88729e-08

> <r_epik_Ionization_Penalty_Neutral>
1.04441e-05

> <r_epik_State_Penalty>
-0

> <r_epik_Charging_Adjusted_Penalty>
3.88729e-08

> <i_epik_Tot_Q>
0

> <i_epik_Tot_abs_Q>
0

> <r_epik_Metal_State_Penalty>
-0

> <b_epik_Metal_Only>
0

> <s_epik_Chemistry_Notes>
This compound contains an acetal/aminal-like group ( X-CH(R)-Y where X, Y are N, S, or O) that may be acid/base labile, releasing an aldehyde.

> <s_lp_Force_Field>
OPLS_2005

> <r_lp_Energy>
46.1803

> <b_lp_Chiralities_Consistent>
1

> <s_lp_Variant>
AV-unprocessed.smi:31-2

> <Gold.Version>
5.8.1

> <Gold.Id.Protein>
6NUR|6NUR_protein|mol2

> <Gold.PLP.Fitness>
57.3707

> <Gold.PLP.PLP>
-44.4854

> <Gold.PLP.part.hbond>
-5.0000

> <Gold.PLP.part.metal>
0.0000

> <Gold.PLP.part.buried>
-4.5855

> <Gold.PLP.part.nonpolar>
-36.1098

> <Gold.PLP.part.repulsive>
2.2766

> <Gold.PLP.ligand.clash>
0.0000

> <Gold.PLP.ligand.torsion>
0.3572

> <Gold.PLP.Chemscore.Hbond>
3.7076

> <Gold.PLP.Chemscore.CHOScore>
0.8216

> <Gold.PLP.Chemscore.Metal>
0.0000

> <Gold.Chemscore.Hbonds>
donor molecule, donor type, donor heavy atom, donor atom, acceptor molecule, acceptor atom, score
      L1  H    18    40       P1  7948  1.00
      P1  H  6896  6907       L1    25  1.00
      P1  H  7997  8009       L1    17  1.00
      P1  H 10752 10763       L1     1  0.65
      L1  C     9    32       P1  8028  0.77

> <Gold.PLP.Chemscore.Internal.Correction>
0.0120

> <Gold.Rescore>
     Score         DG    S(hbond)    S(metal)    S(lipo)     H(rot)  DE(clash)    DE(int)     intcor
     17.80     -21.37       3.02        0.00      85.53       1.64       0.74       2.83       ----

> <Gold.Chemscore.Fitness>
17.8040

> <Gold.Chemscore.DG>
-21.3688

> <Gold.Chemscore.ZeroCoef>
-5.4800

> <Gold.Chemscore.Hbond>
3.0202

> <Gold.Chemscore.Metal>
0.0000

> <Gold.Chemscore.Lipo>
85.5276

> <Gold.Chemscore.Internal_Hbond>
0.0000

> <Gold.Chemscore.DEClash>
0.7365

> <Gold.Chemscore.DEInternal>
2.8283

> <Gold.Chemscore.Rot>
1.6427

> <Gold.Chemscore.Internal.Correction>
   9.000000E+99

> <Gold.Chemscore.Hbonds>
donor molecule, donor type, donor heavy atom, donor atom, acceptor molecule, acceptor atom, score
      L1  H    18    40       P1  7948  0.48
      P1  H  6896  6907       L1    25  0.74
      P1  H  7997  8009       L1    17  0.99
      P1  H 10752 10763       L1     1  0.19

> <Gold.Chemscore.Hbond.Weighted>
-10.0874

> <Gold.Chemscore.Metal.Weighted>
-0.0000

> <Gold.Chemscore.Lipo.Weighted>
-10.0067

> <Gold.Chemscore.Internal_Hbond.Weighted>
0.0000

> <Gold.Chemscore.DEClash.Weighted>
0.7365

> <Gold.Chemscore.DEInternal.Weighted>
2.8283

> <Gold.Chemscore.Rot.Weighted>
4.2053

> <Gold.Chemscore.Internal.Correction.Weighted>
   9.000000E+99

> <Gold.Protein.RotatedTorsions>
[ 6907 6896 6895 6894 ] final  179.45 input  -60.11 | X-H torsion
[ 7974 7965 7964 7962 ] final   91.90 input  175.53 | X-H torsion
[ 8008 7997 7996 7995 ] final -157.14 input   59.86 | X-H torsion
[ 10167 10162 10161 10158 ] final   60.91 input  -65.29 | X-H torsion
[ 10718 10713 10712 10709 ] final -119.37 input   66.30 | X-H torsion
[ 10763 10752 10751 10750 ] final   96.22 input  -60.55 | X-H torsion
[ 11005 11000 10999 10996 ] final  -28.83 input  -57.11 | X-H torsion

> <Gold.Protein.ActiveResidues>
 VAL166  LYS551  ARG553  GLY616  TRP617  ASP618  TYR619  PRO620  LYS621  CYS622 
 ASP623  PHE694  ASN695  SER759  ASP760  ASP761  ALA762  ILE779  LEU786  VAL792 
 PHE793  MET794  SER795  GLU796  ALA797  LYS798  CYS799  TRP800  GLU811  SER814 

> <Gold.Protein.RotatedAtoms>
  151.6715  133.3314  159.3197 H   0  0  0  0  0  0  0  0  0  0  0  0  # atno 6907 bound_to 6896
  150.7865  134.6858  159.6479 H   0  0  0  0  0  0  0  0  0  0  0  0  # atno 6908 bound_to 6896
  152.3936  134.6405  160.0150 H   0  0  0  0  0  0  0  0  0  0  0  0  # atno 6909 bound_to 6896
  145.4995  139.2276  143.2785 H   0  0  0  0  0  0  0  0  0  0  0  0  # atno 7974 bound_to 7965
  155.7280  140.0798  157.2301 H   0  0  0  0  0  0  0  0  0  0  0  0  # atno 8008 bound_to 7997
  154.4036  140.1600  156.2531 H   0  0  0  0  0  0  0  0  0  0  0  0  # atno 8009 bound_to 7997
  155.9135  140.3402  155.6120 H   0  0  0  0  0  0  0  0  0  0  0  0  # atno 8010 bound_to 7997
  140.1605  144.4375  150.6712 H   0  0  0  0  0  0  0  0  0  0  0  0  # atno 10167 bound_to 10162
  156.1176  130.6298  150.9408 H   0  0  0  0  0  0  0  0  0  0  0  0  # atno 10718 bound_to 10713
  153.2624  135.4226  155.0907 H   0  0  0  0  0  0  0  0  0  0  0  0  # atno 10763 bound_to 10752
  154.8425  135.3452  154.6359 H   0  0  0  0  0  0  0  0  0  0  0  0  # atno 10764 bound_to 10752
  153.6779  135.7040  153.5184 H   0  0  0  0  0  0  0  0  0  0  0  0  # atno 10765 bound_to 10752
  140.9242  133.7379  156.0845 H   0  0  0  0  0  0  0  0  0  0  0  0  # atno 11005 bound_to 11000
  146.2234  140.5795  142.9007 LP  0  0  0  0  0  0  0  0  0  0  0  0  # atno 17320 bound_to 7965
  144.7788  140.5796  143.6620 LP  0  0  0  0  0  0  0  0  0  0  0  0  # atno 17321 bound_to 7965
  140.6646  143.2263  151.5774 LP  0  0  0  0  0  0  0  0  0  0  0  0  # atno 17342 bound_to 10162
  139.5383  144.2718  152.1298 LP  0  0  0  0  0  0  0  0  0  0  0  0  # atno 17343 bound_to 10162
  157.6359  131.0916  150.8349 LP  0  0  0  0  0  0  0  0  0  0  0  0  # atno 17370 bound_to 10713
  156.8450  130.5061  149.5317 LP  0  0  0  0  0  0  0  0  0  0  0  0  # atno 17371 bound_to 10713
  140.7947  134.3577  157.5455 LP  0  0  0  0  0  0  0  0  0  0  0  0  # atno 17394 bound_to 11000
  139.8782  134.9162  156.3148 LP  0  0  0  0  0  0  0  0  0  0  0  0  # atno 17395 bound_to 11000

$$$$
