AV-unprocessed.smi:3021|AV-procd|sdf|11499|dock2
  -GOLD-   2272016433D 1   1.00000     0.00000
 Structure written by MMmdl.
 35 37  0  0  0  0  0  0  0  0  1 V2000
  149.6375  140.8447  153.4654 O   0  0  0  0  0  0  0  0  0  0  0  0
  148.7944  141.5000  154.3925 C   0  0  1  0  0  0  0  0  0  0  0  0
  147.3722  141.5357  153.8128 C   0  0  0  0  0  0  0  0  0  0  0  0
  146.9945  140.2204  153.4426 O   0  0  0  0  0  0  0  0  0  0  0  0
  147.0538  140.0051  152.0413 C   0  0  0  0  0  0  0  0  0  0  0  0
  146.4583  138.6630  151.7532 C   0  0  0  0  0  0  0  0  0  0  0  0
  145.8292  137.7385  152.5411 C   0  0  0  0  0  0  0  0  0  0  0  0
  145.4772  136.6543  151.6903 C   0  0  0  0  0  0  0  0  0  0  0  0
  145.9172  136.9964  150.4435 C   0  0  0  0  0  0  0  0  0  0  0  0
  146.5156  138.2182  150.4636 O   0  0  0  0  0  0  0  0  0  0  0  0
  148.8488  140.7530  155.7395 C   0  0  0  0  0  0  0  0  0  0  0  0
  150.1631  140.8123  156.3555 N   0  0  0  0  0  0  0  0  0  0  0  0
  151.1676  140.0227  155.8799 N   0  0  0  0  0  0  0  0  0  0  0  0
  152.2395  140.2461  156.5802 N   0  0  0  0  0  0  0  0  0  0  0  0
  151.9357  141.2015  157.5356 C   0  0  0  0  0  0  0  0  0  0  0  0
  152.7170  141.8068  158.5452 C   0  0  0  0  0  0  0  0  0  0  0  0
  152.1496  142.7738  159.4038 C   0  0  0  0  0  0  0  0  0  0  0  0
  153.1374  143.4920  160.6262 Cl  0  0  0  0  0  0  0  0  0  0  0  0
  150.7910  143.1465  159.2616 C   0  0  0  0  0  0  0  0  0  0  0  0
  150.0811  144.3282  160.3029 Cl  0  0  0  0  0  0  0  0  0  0  0  0
  149.9998  142.5506  158.2593 C   0  0  0  0  0  0  0  0  0  0  0  0
  150.5842  141.5910  157.4155 C   0  0  0  0  0  0  0  0  0  0  0  0
  149.2034  140.0577  153.1726 H   0  0  0  0  0  0  0  0  0  0  0  0
  149.1538  142.5197  154.5381 H   0  0  0  0  0  0  0  0  0  0  0  0
  146.6663  141.9703  154.5230 H   0  0  0  0  0  0  0  0  0  0  0  0
  147.3557  142.1594  152.9175 H   0  0  0  0  0  0  0  0  0  0  0  0
  146.4983  140.7815  151.5134 H   0  0  0  0  0  0  0  0  0  0  0  0
  148.0872  140.0365  151.6934 H   0  0  0  0  0  0  0  0  0  0  0  0
  145.6447  137.8316  153.6011 H   0  0  0  0  0  0  0  0  0  0  0  0
  144.9670  135.7406  151.9566 H   0  0  0  0  0  0  0  0  0  0  0  0
  145.8878  136.5129  149.4783 H   0  0  0  0  0  0  0  0  0  0  0  0
  148.1339  141.1889  156.4384 H   0  0  0  0  0  0  0  0  0  0  0  0
  148.5589  139.7088  155.6102 H   0  0  0  0  0  0  0  0  0  0  0  0
  153.7541  141.5270  158.6587 H   0  0  0  0  0  0  0  0  0  0  0  0
  148.9625  142.8263  158.1391 H   0  0  0  0  0  0  0  0  0  0  0  0
  1  2  1  0  0  0  0
  1 23  1  0  0  0  0
  2  3  1  0  0  0  0
  2 11  1  0  0  0  0
  2 24  1  0  0  0  0
  3  4  1  0  0  0  0
  3 25  1  0  0  0  0
  3 26  1  0  0  0  0
  4  5  1  0  0  0  0
  5  6  1  0  0  0  0
  5 27  1  0  0  0  0
  5 28  1  0  0  0  0
  6 10  1  0  0  0  0
  6  7  2  0  0  0  0
  7  8  1  0  0  0  0
  7 29  1  0  0  0  0
  8  9  2  0  0  0  0
  8 30  1  0  0  0  0
  9 10  1  0  0  0  0
  9 31  1  0  0  0  0
 11 12  1  0  0  0  0
 11 32  1  0  0  0  0
 11 33  1  0  0  0  0
 12 22  1  0  0  0  0
 12 13  1  0  0  0  0
 13 14  2  0  0  0  0
 14 15  1  0  0  0  0
 15 22  2  0  0  0  0
 15 16  1  0  0  0  0
 16 17  2  0  0  0  0
 16 34  1  0  0  0  0
 17 18  1  0  0  0  0
 17 19  1  0  0  0  0
 19 20  1  0  0  0  0
 19 21  2  0  0  0  0
 21 22  1  0  0  0  0
 21 35  1  0  0  0  0
M  END
> <s_m_source_file>
AV-unprocessed.smi

> <i_m_source_file_index>
3021

> <i_lp_mmshare_version>
43012

> <i_f3d_flags>
0

> <s_epik_input>
W2NIXTFjKENsKWMoQ2wpW2NIXWMoYzEyKW4obm4yKVtDSDJdW0NASF0oW09IXSlbQ0gyXU9bQ0gyXWMzW2NIXVtjSF1bY0hdbzM=

> <s_epik_cmdline>
J2VwaWtfcHl0aG9uJywgJy1waCcsICc3LjAnLCAnLXRuJywgJzgnLCAnLW1hJywgJzIwMCcsICctbWV0YWxfYmluZGluZycsICctaW1hZScsICc8aW5maWxlLm1hZT4nLCAnLW9tYWUnLCAnPG91dGZpbGUubWFlPic=

> <r_lp_tautomer_probability>
1

> <r_epik_Ionization_Penalty>
6.1367e-06

> <r_epik_Ionization_Penalty_Charging>
0

> <r_epik_Ionization_Penalty_Neutral>
6.1367e-06

> <r_epik_State_Penalty>
-0

> <r_epik_Charging_Adjusted_Penalty>
0

> <i_epik_Tot_Q>
0

> <i_epik_Tot_abs_Q>
0

> <r_epik_Metal_State_Penalty>
-0

> <b_epik_Metal_Only>
0

> <s_lp_Force_Field>
OPLS_2005

> <r_lp_Energy>
8.01921

> <b_lp_Chiralities_Consistent>
1

> <s_lp_Variant>
AV-unprocessed.smi:3021-2

> <Gold.Version>
5.8.1

> <Gold.Id.Protein>
6NUR|6NUR_protein|mol2

> <Gold.PLP.Fitness>
46.2559

> <Gold.PLP.PLP>
-37.5374

> <Gold.PLP.part.hbond>
-4.3575

> <Gold.PLP.part.metal>
0.0000

> <Gold.PLP.part.buried>
-1.1376

> <Gold.PLP.part.nonpolar>
-34.6366

> <Gold.PLP.part.repulsive>
2.0345

> <Gold.PLP.ligand.clash>
0.0000

> <Gold.PLP.ligand.torsion>
0.6115

> <Gold.PLP.Chemscore.Hbond>
2.2464

> <Gold.PLP.Chemscore.CHOScore>
1.0000

> <Gold.PLP.Chemscore.Metal>
0.0000

> <Gold.Chemscore.Hbonds>
donor molecule, donor type, donor heavy atom, donor atom, acceptor molecule, acceptor atom, score
      L1  H     1    23       P1  7957  0.05
      P1  H  7954  7966       L1    10  0.86
      P1  H  7989  7998       L1     1  0.32
      P1  H  7997  8009       L1    14  0.81
      P1  H  8011  8017       L1     1  0.70
      L1  C     9    31       P1  7921  1.00

> <Gold.PLP.Chemscore.Internal.Correction>
0.2021

> <Gold.Rescore>
     Score         DG    S(hbond)    S(metal)    S(lipo)     H(rot)  DE(clash)    DE(int)     intcor
     14.87     -19.43       1.93        0.00     118.04       2.46       2.72       1.84       ----

> <Gold.Chemscore.Fitness>
14.8692

> <Gold.Chemscore.DG>
-19.4305

> <Gold.Chemscore.ZeroCoef>
-5.4800

> <Gold.Chemscore.Hbond>
1.9310

> <Gold.Chemscore.Metal>
0.0000

> <Gold.Chemscore.Lipo>
118.0405

> <Gold.Chemscore.Internal_Hbond>
0.0000

> <Gold.Chemscore.DEClash>
2.7171

> <Gold.Chemscore.DEInternal>
1.8442

> <Gold.Chemscore.Rot>
2.4647

> <Gold.Chemscore.Internal.Correction>
   9.000000E+99

> <Gold.Chemscore.Hbonds>
donor molecule, donor type, donor heavy atom, donor atom, acceptor molecule, acceptor atom, score
      L1  H     1    23       P1  7957  0.08
      P1  H  7954  7966       L1    10  0.31
      P1  H  7989  7998       L1     1  0.31
      P1  H  7997  8009       L1    14  0.47
      P1  H  8011  8017       L1     1  0.07

> <Gold.Chemscore.Hbond.Weighted>
-6.4494

> <Gold.Chemscore.Metal.Weighted>
-0.0000

> <Gold.Chemscore.Lipo.Weighted>
-13.8107

> <Gold.Chemscore.Internal_Hbond.Weighted>
0.0000

> <Gold.Chemscore.DEClash.Weighted>
2.7171

> <Gold.Chemscore.DEInternal.Weighted>
1.8442

> <Gold.Chemscore.Rot.Weighted>
6.3097

> <Gold.Chemscore.Internal.Correction.Weighted>
   9.000000E+99

> <Gold.Protein.RotatedTorsions>
[ 6907 6896 6895 6894 ] final -121.42 input  -60.11 | X-H torsion
[ 7974 7965 7964 7962 ] final -147.60 input  175.53 | X-H torsion
[ 8008 7997 7996 7995 ] final -171.21 input   59.86 | X-H torsion
[ 10167 10162 10161 10158 ] final  -18.60 input  -65.29 | X-H torsion
[ 10718 10713 10712 10709 ] final  171.67 input   66.30 | X-H torsion
[ 10763 10752 10751 10750 ] final -146.00 input  -60.55 | X-H torsion
[ 11005 11000 10999 10996 ] final -137.98 input  -57.11 | X-H torsion

> <Gold.Protein.ActiveResidues>
 VAL166  LYS551  ARG553  GLY616  TRP617  ASP618  TYR619  PRO620  LYS621  CYS622 
 ASP623  PHE694  ASN695  SER759  ASP760  ASP761  ALA762  ILE779  LEU786  VAL792 
 PHE793  MET794  SER795  GLU796  ALA797  LYS798  CYS799  TRP800  GLU811  SER814 

> <Gold.Protein.RotatedAtoms>
  150.8481  133.7829  159.3035 H   0  0  0  0  0  0  0  0  0  0  0  0  # atno 6907 bound_to 6896
  151.5509  135.1066  159.9959 H   0  0  0  0  0  0  0  0  0  0  0  0  # atno 6908 bound_to 6896
  152.4530  133.7625  159.6810 H   0  0  0  0  0  0  0  0  0  0  0  0  # atno 6909 bound_to 6896
  144.8083  140.5306  143.5660 H   0  0  0  0  0  0  0  0  0  0  0  0  # atno 7974 bound_to 7965
  155.9286  140.1087  157.1150 H   0  0  0  0  0  0  0  0  0  0  0  0  # atno 8008 bound_to 7997
  154.4066  140.1242  156.4838 H   0  0  0  0  0  0  0  0  0  0  0  0  # atno 8009 bound_to 7997
  155.7108  140.3471  155.4975 H   0  0  0  0  0  0  0  0  0  0  0  0  # atno 8010 bound_to 7997
  140.7260  143.4900  151.0004 H   0  0  0  0  0  0  0  0  0  0  0  0  # atno 10167 bound_to 10162
  156.9902  131.0145  151.2859 H   0  0  0  0  0  0  0  0  0  0  0  0  # atno 10718 bound_to 10713
  154.8357  135.3398  154.6592 H   0  0  0  0  0  0  0  0  0  0  0  0  # atno 10763 bound_to 10752
  153.7207  135.6958  153.5018 H   0  0  0  0  0  0  0  0  0  0  0  0  # atno 10764 bound_to 10752
  153.2383  135.4393  155.0624 H   0  0  0  0  0  0  0  0  0  0  0  0  # atno 10765 bound_to 10752
  140.8660  134.2110  157.4680 H   0  0  0  0  0  0  0  0  0  0  0  0  # atno 11005 bound_to 11000
  145.5385  139.1475  143.3460 LP  0  0  0  0  0  0  0  0  0  0  0  0  # atno 17320 bound_to 7965
  146.2378  140.5525  142.8947 LP  0  0  0  0  0  0  0  0  0  0  0  0  # atno 17321 bound_to 7965
  139.8604  143.7322  152.3173 LP  0  0  0  0  0  0  0  0  0  0  0  0  # atno 17342 bound_to 10162
  139.7535  144.7527  151.0470 LP  0  0  0  0  0  0  0  0  0  0  0  0  # atno 17343 bound_to 10162
  157.5464  130.8154  149.8091 LP  0  0  0  0  0  0  0  0  0  0  0  0  # atno 17370 bound_to 10713
  156.0210  130.3795  150.1962 LP  0  0  0  0  0  0  0  0  0  0  0  0  # atno 17371 bound_to 10713
  139.8709  134.9752  156.4874 LP  0  0  0  0  0  0  0  0  0  0  0  0  # atno 17394 bound_to 11000
  140.8628  133.8046  155.9283 LP  0  0  0  0  0  0  0  0  0  0  0  0  # atno 17395 bound_to 11000

$$$$
