AV-unprocessed.smi:438|AV-procd|sdf|2566|dock8
  -GOLD-   2262022543D 1   1.00000     0.00000
 Structure written by MMmdl.
 48 49  0  0  0  0  0  0  0  0  1 V2000
  144.7772  137.4878  155.7456 C   0  0  0  0  0  0  0  0  0  0  0  0
  145.6648  138.0627  154.6557 C   0  0  0  0  0  0  0  0  0  0  0  0
  146.7385  138.8405  155.1039 N   0  0  0  0  0  0  0  0  0  0  0  0
  147.5736  139.3521  154.2573 C   0  0  0  0  0  0  0  0  0  0  0  0
  149.0581  140.3612  154.5607 S   0  0  0  0  0  0  0  0  0  0  0  0
  149.8765  139.4575  155.9115 C   0  0  0  0  0  0  0  0  0  0  0  0
  151.0603  140.2178  156.5099 C   0  0  0  0  0  0  0  0  0  0  0  0
  152.1931  139.7424  156.4412 O   0  0  0  0  0  0  0  0  0  0  0  0
  150.7680  141.3788  157.1211 N   0  0  0  0  0  0  0  0  0  0  0  0
  151.6691  142.2320  157.8983 C   0  0  1  0  0  0  0  0  0  0  0  0
  151.1556  143.6872  157.9547 C   0  0  0  0  0  0  0  0  0  0  0  0
  152.1572  144.6000  158.6758 C   0  0  0  0  0  0  0  0  0  0  0  0
  152.4752  144.0664  160.0807 C   0  0  0  0  0  0  0  0  0  0  0  0
  152.9893  142.6184  160.0261 C   0  0  0  0  0  0  0  0  0  0  0  0
  151.9941  141.6805  159.3125 C   0  0  2  0  0  0  0  0  0  0  0  0
  152.5358  140.2404  159.2797 C   0  0  0  0  0  0  0  0  0  0  0  0
  147.4002  139.1503  152.8879 N   0  0  0  0  0  0  0  0  0  0  0  0
  146.3926  138.4256  152.3525 C   0  0  0  0  0  0  0  0  0  0  0  0
  146.3049  138.2867  151.1334 O   0  0  0  0  0  0  0  0  0  0  0  0
  145.4547  137.8429  153.3272 C   0  0  0  0  0  0  0  0  0  0  0  0
  144.3081  136.9890  152.7860 C   0  0  0  0  0  0  0  0  0  0  0  0
  144.7834  135.8173  151.9091 C   0  0  0  0  0  0  0  0  0  0  0  0
  144.8251  136.1917  150.5482 O   0  0  0  0  0  0  0  0  0  0  0  0
  143.7344  137.7572  155.5782 H   0  0  0  0  0  0  0  0  0  0  0  0
  145.0646  137.8614  156.7292 H   0  0  0  0  0  0  0  0  0  0  0  0
  144.8577  136.4007  155.7662 H   0  0  0  0  0  0  0  0  0  0  0  0
  150.1867  138.4756  155.5507 H   0  0  0  0  0  0  0  0  0  0  0  0
  149.1449  139.2840  156.7008 H   0  0  0  0  0  0  0  0  0  0  0  0
  149.8004  141.6678  157.1065 H   0  0  0  0  0  0  0  0  0  0  0  0
  152.6004  142.2418  157.3303 H   0  0  0  0  0  0  0  0  0  0  0  0
  150.9816  144.0628  156.9454 H   0  0  0  0  0  0  0  0  0  0  0  0
  150.1960  143.7336  158.4704 H   0  0  0  0  0  0  0  0  0  0  0  0
  153.0761  144.6690  158.0922 H   0  0  0  0  0  0  0  0  0  0  0  0
  151.7557  145.6117  158.7433 H   0  0  0  0  0  0  0  0  0  0  0  0
  153.2174  144.7053  160.5601 H   0  0  0  0  0  0  0  0  0  0  0  0
  151.5798  144.1130  160.7017 H   0  0  0  0  0  0  0  0  0  0  0  0
  153.9511  142.5952  159.5119 H   0  0  0  0  0  0  0  0  0  0  0  0
  153.1750  142.2626  161.0402 H   0  0  0  0  0  0  0  0  0  0  0  0
  151.0788  141.6720  159.9052 H   0  0  0  0  0  0  0  0  0  0  0  0
  153.4435  140.1724  158.6794 H   0  0  0  0  0  0  0  0  0  0  0  0
  151.8064  139.5455  158.8630 H   0  0  0  0  0  0  0  0  0  0  0  0
  152.7746  139.8903  160.2841 H   0  0  0  0  0  0  0  0  0  0  0  0
  148.0670  139.5642  152.2528 H   0  0  0  0  0  0  0  0  0  0  0  0
  143.6001  137.5975  152.2245 H   0  0  0  0  0  0  0  0  0  0  0  0
  143.7371  136.5999  153.6300 H   0  0  0  0  0  0  0  0  0  0  0  0
  145.7702  135.4700  152.2160 H   0  0  0  0  0  0  0  0  0  0  0  0
  144.1023  134.9725  152.0145 H   0  0  0  0  0  0  0  0  0  0  0  0
  144.4414  137.0512  150.4613 H   0  0  0  0  0  0  0  0  0  0  0  0
  1 24  1  0  0  0  0
  1 25  1  0  0  0  0
  1 26  1  0  0  0  0
  1  2  1  0  0  0  0
  2 20  2  0  0  0  0
  2  3  1  0  0  0  0
  3  4  2  0  0  0  0
  4  5  1  0  0  0  0
  4 17  1  0  0  0  0
  5  6  1  0  0  0  0
  6  7  1  0  0  0  0
  6 27  1  0  0  0  0
  6 28  1  0  0  0  0
  7  8  2  0  0  0  0
  7  9  1  0  0  0  0
  9 10  1  0  0  0  0
  9 29  1  0  0  0  0
 10 15  1  0  0  0  0
 10 11  1  0  0  0  0
 10 30  1  0  0  0  0
 11 12  1  0  0  0  0
 11 31  1  0  0  0  0
 11 32  1  0  0  0  0
 12 13  1  0  0  0  0
 12 33  1  0  0  0  0
 12 34  1  0  0  0  0
 13 14  1  0  0  0  0
 13 35  1  0  0  0  0
 13 36  1  0  0  0  0
 14 15  1  0  0  0  0
 14 37  1  0  0  0  0
 14 38  1  0  0  0  0
 15 16  1  0  0  0  0
 15 39  1  0  0  0  0
 16 40  1  0  0  0  0
 16 41  1  0  0  0  0
 16 42  1  0  0  0  0
 17 43  1  0  0  0  0
 17 18  1  0  0  0  0
 18 19  2  0  0  0  0
 18 20  1  0  0  0  0
 20 21  1  0  0  0  0
 21 22  1  0  0  0  0
 21 44  1  0  0  0  0
 21 45  1  0  0  0  0
 22 23  1  0  0  0  0
 22 46  1  0  0  0  0
 22 47  1  0  0  0  0
 23 48  1  0  0  0  0
M  END
> <s_m_source_file>
AV-unprocessed.smi

> <i_m_source_file_index>
438

> <i_lp_mmshare_version>
43012

> <i_f3d_flags>
0

> <s_epik_input>
W09IXVtDSDJdW0NIMl1jMWMoW09IXSluYyhuYzFbQ0gzXSlTW0NIMl1DKD1PKVtOSF1bQ0BASF0yW0NIMl1bQ0gyXVtDSDJdW0NIMl1bQ0BIXTJbQ0gzXQ==

> <s_epik_cmdline>
J2VwaWtfcHl0aG9uJywgJy1waCcsICc3LjAnLCAnLXRuJywgJzgnLCAnLW1hJywgJzIwMCcsICctbWV0YWxfYmluZGluZycsICctaW1hZScsICc8aW5maWxlLm1hZT4nLCAnLW9tYWUnLCAnPG91dGZpbGUubWFlPic=

> <r_lp_tautomer_probability>
0.660323

> <r_epik_Ionization_Penalty>
0.00860626

> <r_epik_Ionization_Penalty_Charging>
0.00860522

> <r_epik_Ionization_Penalty_Neutral>
1.04215e-06

> <r_epik_State_Penalty>
0.156825

> <r_epik_Charging_Adjusted_Penalty>
0.16543

> <i_epik_Tot_Q>
0

> <i_epik_Tot_abs_Q>
0

> <r_epik_Metal_State_Penalty>
0.752038

> <b_epik_Metal_Only>
0

> <s_lp_Force_Field>
OPLS_2005

> <r_lp_Energy>
14.076

> <b_lp_Chiralities_Consistent>
1

> <s_lp_Variant>
AV-unprocessed.smi:438-4

> <Gold.Version>
5.8.1

> <Gold.Id.Protein>
6NUR|6NUR_protein|mol2

> <Gold.PLP.Fitness>
54.7006

> <Gold.PLP.PLP>
-44.0005

> <Gold.PLP.part.hbond>
-5.0696

> <Gold.PLP.part.metal>
0.0000

> <Gold.PLP.part.buried>
-6.2011

> <Gold.PLP.part.nonpolar>
-34.9573

> <Gold.PLP.part.repulsive>
1.3881

> <Gold.PLP.ligand.clash>
0.0000

> <Gold.PLP.ligand.torsion>
0.6820

> <Gold.PLP.Chemscore.Hbond>
3.9833

> <Gold.PLP.Chemscore.CHOScore>
0.0000

> <Gold.PLP.Chemscore.Metal>
0.0000

> <Gold.Chemscore.Hbonds>
donor molecule, donor type, donor heavy atom, donor atom, acceptor molecule, acceptor atom, score
      L1  H    17    43       P1  7957  1.00
      L1  H    23    48       P1 10171  1.00
      P1  H  7954  7966       L1    19  0.41
      P1  H  7997  8009       L1     8  0.60

> <Gold.PLP.Chemscore.Internal.Correction>
0.1143

> <Gold.Rescore>
     Score         DG    S(hbond)    S(metal)    S(lipo)     H(rot)  DE(clash)    DE(int)     intcor
     18.97     -22.94       3.95        0.00      99.15       2.86       0.96       3.01       ----

> <Gold.Chemscore.Fitness>
18.9673

> <Gold.Chemscore.DG>
-22.9352

> <Gold.Chemscore.ZeroCoef>
-5.4800

> <Gold.Chemscore.Hbond>
3.9485

> <Gold.Chemscore.Metal>
0.0000

> <Gold.Chemscore.Lipo>
99.1486

> <Gold.Chemscore.Internal_Hbond>
0.0000

> <Gold.Chemscore.DEClash>
0.9588

> <Gold.Chemscore.DEInternal>
3.0091

> <Gold.Chemscore.Rot>
2.8645

> <Gold.Chemscore.Internal.Correction>
   9.000000E+99

> <Gold.Chemscore.Hbonds>
donor molecule, donor type, donor heavy atom, donor atom, acceptor molecule, acceptor atom, score
      L1  H    17    43       P1  7957  0.99
      L1  H    23    48       P1 10171  1.00
      P1  H  7954  7966       L1    19  0.38
      P1  H  7997  8009       L1     8  0.58

> <Gold.Chemscore.Hbond.Weighted>
-13.1879

> <Gold.Chemscore.Metal.Weighted>
-0.0000

> <Gold.Chemscore.Lipo.Weighted>
-11.6004

> <Gold.Chemscore.Internal_Hbond.Weighted>
0.0000

> <Gold.Chemscore.DEClash.Weighted>
0.9588

> <Gold.Chemscore.DEInternal.Weighted>
3.0091

> <Gold.Chemscore.Rot.Weighted>
7.3331

> <Gold.Chemscore.Internal.Correction.Weighted>
   9.000000E+99

> <Gold.Protein.RotatedTorsions>
[ 6907 6896 6895 6894 ] final  -74.67 input  -60.11 | X-H torsion
[ 7974 7965 7964 7962 ] final  -61.70 input  175.53 | X-H torsion
[ 8008 7997 7996 7995 ] final -176.28 input   59.86 | X-H torsion
[ 10167 10162 10161 10158 ] final   49.05 input  -65.29 | X-H torsion
[ 10718 10713 10712 10709 ] final  116.64 input   66.30 | X-H torsion
[ 10763 10752 10751 10750 ] final  117.19 input  -60.55 | X-H torsion
[ 11005 11000 10999 10996 ] final  173.27 input  -57.11 | X-H torsion

> <Gold.Protein.ActiveResidues>
 VAL166  LYS551  ARG553  GLY616  TRP617  ASP618  TYR619  PRO620  LYS621  CYS622 
 ASP623  PHE694  ASN695  SER759  ASP760  ASP761  ALA762  ILE779  LEU786  VAL792 
 PHE793  MET794  SER795  GLU796  ALA797  LYS798  CYS799  TRP800  GLU811  SER814 

> <Gold.Protein.RotatedAtoms>
  150.7085  134.4834  159.5481 H   0  0  0  0  0  0  0  0  0  0  0  0  # atno 6907 bound_to 6896
  152.2467  134.8171  160.0461 H   0  0  0  0  0  0  0  0  0  0  0  0  # atno 6908 bound_to 6896
  151.8934  133.3486  159.3843 H   0  0  0  0  0  0  0  0  0  0  0  0  # atno 6909 bound_to 6896
  145.8003  140.8659  143.0234 H   0  0  0  0  0  0  0  0  0  0  0  0  # atno 7974 bound_to 7965
  155.9929  140.1205  157.0621 H   0  0  0  0  0  0  0  0  0  0  0  0  # atno 8008 bound_to 7997
  154.4217  140.1122  156.5659 H   0  0  0  0  0  0  0  0  0  0  0  0  # atno 8009 bound_to 7997
  155.6318  140.3473  155.4687 H   0  0  0  0  0  0  0  0  0  0  0  0  # atno 8010 bound_to 7997
  140.2869  144.3092  150.6250 H   0  0  0  0  0  0  0  0  0  0  0  0  # atno 10167 bound_to 10162
  157.6147  131.1028  150.7502 H   0  0  0  0  0  0  0  0  0  0  0  0  # atno 10718 bound_to 10713
  153.5487  135.3544  155.2750 H   0  0  0  0  0  0  0  0  0  0  0  0  # atno 10763 bound_to 10752
  154.8709  135.4108  154.2962 H   0  0  0  0  0  0  0  0  0  0  0  0  # atno 10764 bound_to 10752
  153.3683  135.7063  153.6726 H   0  0  0  0  0  0  0  0  0  0  0  0  # atno 10765 bound_to 10752
  140.3387  134.7295  157.4186 H   0  0  0  0  0  0  0  0  0  0  0  0  # atno 11005 bound_to 11000
  144.6769  140.0250  143.7483 LP  0  0  0  0  0  0  0  0  0  0  0  0  # atno 17320 bound_to 7965
  145.9884  139.2996  143.0999 LP  0  0  0  0  0  0  0  0  0  0  0  0  # atno 17321 bound_to 7965
  140.5765  143.2176  151.7505 LP  0  0  0  0  0  0  0  0  0  0  0  0  # atno 17342 bound_to 10162
  139.4948  144.4142  152.0048 LP  0  0  0  0  0  0  0  0  0  0  0  0  # atno 17343 bound_to 10162
  156.7872  130.4878  149.5391 LP  0  0  0  0  0  0  0  0  0  0  0  0  # atno 17370 bound_to 10713
  156.1265  130.6147  151.0270 LP  0  0  0  0  0  0  0  0  0  0  0  0  # atno 17371 bound_to 10713
  140.0799  134.5745  155.8551 LP  0  0  0  0  0  0  0  0  0  0  0  0  # atno 17394 bound_to 11000
  141.2044  133.6639  156.6121 LP  0  0  0  0  0  0  0  0  0  0  0  0  # atno 17395 bound_to 11000

$$$$
