#       Name:                AV-unprocessed.smi:2746
#       Creating user name   scv26
#       Creation time:       Fri Mar 27 15:02:58 2020


#       File generated by GOLD software.
#

@<TRIPOS>MOLECULE
AV-unprocessed.smi:2746
    44    45     1
SMALL
NO_CHARGES


@<TRIPOS>ATOM
      1 ****        -5.4375   0.0771   1.9967 C.2            1 S1                 0.0000
      2 ****        -4.5590   1.0929   2.0288 C.2            1 S1                 0.0000
      3 ****        -3.9240   1.7443   0.8123 C.3            1 S1                 0.0000
      4 ****        -4.2819   3.2362   0.7634 C.3            1 S1                 0.0000
      5 ****        -2.4679   1.6156   0.7615 N.pl3          1 S1                -1.0000
      6 ****        -1.8067   0.5383   0.2438 C.2            1 S1                 0.0000
      7 ****        -2.2686  -0.5009  -0.2409 O.2            1 S1                 0.0000
      8 ****        -0.3044   0.6901   0.2908 C.ar           1 S1                 0.0000
      9 ****         0.5522  -0.2889  -0.2669 C.ar           1 S1                 0.0000
     10 ****         1.9556  -0.1167  -0.2088 C.ar           1 S1                 0.0000
     11 ****         2.8409  -1.0581  -0.7516 N.3            1 S1                 0.0000
     12 ****         2.7780  -2.3613  -0.1016 C.3            1 S1                 0.0000
     13 ****         3.8632  -3.2878  -0.6768 C.3            1 S1                 0.0000
     14 ****         3.7117  -3.3796  -2.0906 O.3            1 S1                 0.0000
     15 ****         3.8470  -2.1120  -2.7273 C.3            1 S1                 0.0000
     16 ****         2.7633  -1.1531  -2.2040 C.3            1 S1                 0.0000
     17 ****         2.4760   1.0387   0.4110 C.ar           1 S1                 0.0000
     18 ****         1.5874   1.9867   0.9530 C.ar           1 S1                 0.0000
     19 ****         0.2564   1.7797   0.8725 N.pl3          1 S1                 1.0000
     20 ****        -5.7706  -0.3712   1.0705 H              1 S1                 0.0000
     21 ****        -5.8400  -0.3254   2.9143 H              1 S1                 0.0000
     22 ****        -4.2641   1.4942   2.9873 H              1 S1                 0.0000
     23 ****        -4.3810   1.2857  -0.0665 H              1 S1                 0.0000
     24 ****        -5.3628   3.3785   0.7574 H              1 S1                 0.0000
     25 ****        -3.8870   3.7083  -0.1371 H              1 S1                 0.0000
     26 ****        -3.8822   3.7730   1.6249 H              1 S1                 0.0000
     27 ****         0.1381  -1.1673  -0.7403 H              1 S1                 0.0000
     28 ****         2.9156  -2.2459   0.9741 H              1 S1                 0.0000
     29 ****         1.7948  -2.8078  -0.2558 H              1 S1                 0.0000
     30 ****         4.8604  -2.9197  -0.4300 H              1 S1                 0.0000
     31 ****         3.7753  -4.2845  -0.2445 H              1 S1                 0.0000
     32 ****         4.8445  -1.7075  -2.5478 H              1 S1                 0.0000
     33 ****         3.7452  -2.2428  -3.8046 H              1 S1                 0.0000
     34 ****         1.7776  -1.5144  -2.5003 H              1 S1                 0.0000
     35 ****         2.8923  -0.1651  -2.6479 H              1 S1                 0.0000
     36 ****         3.5429   1.1980   0.4700 H              1 S1                 0.0000
     37 ****         1.8959   2.8978   1.4439 H              1 S1                 0.0000
     38 ****        -0.3776   2.4760   1.2673 H              1 S1                 0.0000
     39 ****        -1.9199   2.3663   1.1304 LP             1 S1                 0.0000
     40 ****        -3.2586  -0.6328  -0.2900 LP             1 S1                 0.0000
     41 ****        -1.6521  -1.2097  -0.5839 LP             1 S1                 0.0000
     42 ****         3.7514  -0.6985  -0.5474 LP             1 S1                 0.0000
     43 ****         2.8046  -3.7478  -2.2945 LP             1 S1                 0.0000
     44 ****         4.4109  -3.9975  -2.4504 LP             1 S1                 0.0000
@<TRIPOS>BOND
    1    1    2 2     
    2    1   20 1     
    3    1   21 1     
    4    2    3 1     
    5    2   22 1     
    6    3    4 1     
    7    3    5 1     
    8    3   23 1     
    9    4   24 1     
   10    4   25 1     
   11    4   26 1     
   12    5    6 1     
   13    6    7 2     
   14    6    8 1     
   15    8   19 ar    
   16    8    9 ar    
   17    9   10 ar    
   18    9   27 1     
   19   10   11 1     
   20   10   17 ar    
   21   11   16 1     
   22   11   12 1     
   23   12   13 1     
   24   12   28 1     
   25   12   29 1     
   26   13   14 1     
   27   13   30 1     
   28   13   31 1     
   29   14   15 1     
   30   15   16 1     
   31   15   32 1     
   32   15   33 1     
   33   16   34 1     
   34   16   35 1     
   35   17   18 ar    
   36   17   36 1     
   37   18   19 ar    
   38   18   37 1     
   39   19   38 1     
   40    5   39 1     
   41    7   40 1     
   42    7   41 1     
   43   11   42 1     
   44   14   43 1     
   45   14   44 1     
@<TRIPOS>SUBSTRUCTURE
      1 S1             1
@<TRIPOS>SET
LONE_PAIRS      STATIC     ATOMS    <user>   **** ""
6 39 40 41 42 43 44
DONOR_HYDROGENS      STATIC     ATOMS    <user>   **** ""
1 38
ATOM$BLUE        STATIC     ATOMS    COLORGROUP SYSTEM
6 39 40 41 42 43 44
ATOM$RED        STATIC     ATOMS    COLORGROUP SYSTEM
1 38
