AV-unprocessed.smi:2291|AV-procd|sdf|9212|dock1
  -GOLD-   2272012433D 1   1.00000     0.00000
 Structure written by MMmdl.
 44 46  0  0  0  0  0  0  0  0  1 V2000
  150.0586  137.0584  156.3312 O   0  0  0  0  0  0  0  0  0  0  0  0
  149.7577  136.9288  155.1439 C   0  0  0  0  0  0  0  0  0  0  0  0
  149.7643  135.7688  154.4641 N   0  0  0  0  0  0  0  0  0  0  0  0
  150.1331  134.4795  154.9321 C   0  0  0  0  0  0  0  0  0  0  0  0
  149.6253  133.4003  154.1738 C   0  0  0  0  0  0  0  0  0  0  0  0
  149.9370  132.0799  154.5518 C   0  0  0  0  0  0  0  0  0  0  0  0
  150.7487  131.8741  155.6817 C   0  0  0  0  0  0  0  0  0  0  0  0
  151.1659  130.2800  156.1928 Cl  0  0  0  0  0  0  0  0  0  0  0  0
  151.2116  133.0024  156.3835 C   0  0  0  0  0  0  0  0  0  0  0  0
  150.9137  134.2684  156.0217 N   0  0  0  0  0  0  0  0  0  0  0  0
  149.3821  137.9503  154.3542 N   0  0  0  0  0  0  0  0  0  0  0  0
  149.2962  139.3721  154.7160 C   0  0  0  0  0  0  0  0  0  0  0  0
  150.6713  139.8483  155.2597 C   0  0  0  0  0  0  0  0  0  0  0  0
  151.6880  139.6377  154.5964 O   0  0  0  0  0  0  0  0  0  0  0  0
  150.7146  140.4478  156.4606 N   0  0  0  0  0  0  0  0  0  0  0  0
  151.9238  140.9238  157.1183 C   0  0  0  0  0  0  0  0  0  0  0  0
  151.6887  141.8421  158.3024 C   0  0  0  0  0  0  0  0  0  0  0  0
  151.9693  143.3245  158.2110 C   0  0  0  0  0  0  0  0  0  0  0  0
  152.8592  142.4388  159.0485 C   0  0  0  0  0  0  0  0  0  0  0  0
  148.9287  140.1840  153.4375 C   0  0  0  0  0  0  0  0  0  0  0  0
  147.5904  140.8840  153.6986 C   0  0  0  0  0  0  0  0  0  0  0  0
  147.4708  140.9481  155.2146 C   0  0  0  0  0  0  0  0  0  0  0  0
  148.0899  139.6305  155.6687 C   0  0  0  0  0  0  0  0  0  0  0  0
  149.4934  135.8168  153.4932 H   0  0  0  0  0  0  0  0  0  0  0  0
  149.0043  133.5774  153.3075 H   0  0  0  0  0  0  0  0  0  0  0  0
  149.5598  131.2426  153.9834 H   0  0  0  0  0  0  0  0  0  0  0  0
  151.8368  132.8881  157.2567 H   0  0  0  0  0  0  0  0  0  0  0  0
  149.1588  137.7312  153.3947 H   0  0  0  0  0  0  0  0  0  0  0  0
  149.8450  140.5694  156.9596 H   0  0  0  0  0  0  0  0  0  0  0  0
  152.4703  140.0488  157.4709 H   0  0  0  0  0  0  0  0  0  0  0  0
  152.5731  141.4163  156.3924 H   0  0  0  0  0  0  0  0  0  0  0  0
  150.8435  141.5484  158.9223 H   0  0  0  0  0  0  0  0  0  0  0  0
  152.3773  143.7078  157.2776 H   0  0  0  0  0  0  0  0  0  0  0  0
  151.2887  143.9949  158.7314 H   0  0  0  0  0  0  0  0  0  0  0  0
  152.7762  142.5216  160.1302 H   0  0  0  0  0  0  0  0  0  0  0  0
  153.8595  142.2333  158.6717 H   0  0  0  0  0  0  0  0  0  0  0  0
  149.6735  140.9476  153.2066 H   0  0  0  0  0  0  0  0  0  0  0  0
  148.8589  139.5575  152.5468 H   0  0  0  0  0  0  0  0  0  0  0  0
  147.5332  141.8680  153.2322 H   0  0  0  0  0  0  0  0  0  0  0  0
  146.7770  140.2794  153.2950 H   0  0  0  0  0  0  0  0  0  0  0  0
  148.0511  141.7868  155.6021 H   0  0  0  0  0  0  0  0  0  0  0  0
  146.4401  141.0666  155.5500 H   0  0  0  0  0  0  0  0  0  0  0  0
  147.3412  138.8465  155.5408 H   0  0  0  0  0  0  0  0  0  0  0  0
  148.3266  139.6373  156.7324 H   0  0  0  0  0  0  0  0  0  0  0  0
  1  2  2  0  0  0  0
  2  3  1  0  0  0  0
  2 11  1  0  0  0  0
  3  4  1  0  0  0  0
  3 24  1  0  0  0  0
  4 10  1  0  0  0  0
  4  5  2  0  0  0  0
  5  6  1  0  0  0  0
  5 25  1  0  0  0  0
  6  7  2  0  0  0  0
  6 26  1  0  0  0  0
  7  8  1  0  0  0  0
  7  9  1  0  0  0  0
  9 10  2  0  0  0  0
  9 27  1  0  0  0  0
 11 12  1  0  0  0  0
 11 28  1  0  0  0  0
 12 23  1  0  0  0  0
 12 13  1  0  0  0  0
 12 20  1  0  0  0  0
 13 14  2  0  0  0  0
 13 15  1  0  0  0  0
 15 16  1  0  0  0  0
 15 29  1  0  0  0  0
 16 17  1  0  0  0  0
 16 30  1  0  0  0  0
 16 31  1  0  0  0  0
 17 19  1  0  0  0  0
 17 18  1  0  0  0  0
 17 32  1  0  0  0  0
 18 19  1  0  0  0  0
 18 33  1  0  0  0  0
 18 34  1  0  0  0  0
 19 35  1  0  0  0  0
 19 36  1  0  0  0  0
 20 21  1  0  0  0  0
 20 37  1  0  0  0  0
 20 38  1  0  0  0  0
 21 22  1  0  0  0  0
 21 39  1  0  0  0  0
 21 40  1  0  0  0  0
 22 23  1  0  0  0  0
 22 41  1  0  0  0  0
 22 42  1  0  0  0  0
 23 43  1  0  0  0  0
 23 44  1  0  0  0  0
M  END
> <s_m_source_file>
AV-unprocessed.smi

> <i_m_source_file_index>
2291

> <i_lp_mmshare_version>
43012

> <i_f3d_flags>
0

> <s_epik_input>
bjFbY0hdYyhDbClbY0hdW2NIXWMxW05IXUMoPU8pW05IXUMyKFtDSDJdW0NIMl1bQ0gyXVtDSDJdMilDKD1PKVtOSF1bQ0gyXVtDSF0zW0NIMl1bQ0gyXTM=

> <s_epik_cmdline>
J2VwaWtfcHl0aG9uJywgJy1waCcsICc3LjAnLCAnLXRuJywgJzgnLCAnLW1hJywgJzIwMCcsICctbWV0YWxfYmluZGluZycsICctaW1hZScsICc8aW5maWxlLm1hZT4nLCAnLW9tYWUnLCAnPG91dGZpbGUubWFlPic=

> <r_lp_tautomer_probability>
1

> <r_epik_Ionization_Penalty>
3.27384e-05

> <r_epik_Ionization_Penalty_Charging>
0

> <r_epik_Ionization_Penalty_Neutral>
3.27384e-05

> <r_epik_State_Penalty>
-0

> <r_epik_Charging_Adjusted_Penalty>
0

> <i_epik_Tot_Q>
0

> <i_epik_Tot_abs_Q>
0

> <r_epik_Metal_State_Penalty>
-0

> <b_epik_Metal_Only>
0

> <s_lp_Force_Field>
OPLS_2005

> <r_lp_Energy>
31.8647

> <b_lp_Chiralities_Consistent>
1

> <s_lp_Variant>
AV-unprocessed.smi:2291-1

> <Gold.Version>
5.8.1

> <Gold.Id.Protein>
6NUR|6NUR_protein|mol2

> <Gold.PLP.Fitness>
42.3327

> <Gold.PLP.PLP>
-34.9707

> <Gold.PLP.part.hbond>
-3.1757

> <Gold.PLP.part.metal>
0.0000

> <Gold.PLP.part.buried>
-0.5671

> <Gold.PLP.part.nonpolar>
-31.4028

> <Gold.PLP.part.repulsive>
0.2176

> <Gold.PLP.ligand.clash>
0.0000

> <Gold.PLP.ligand.torsion>
0.6829

> <Gold.PLP.Chemscore.Hbond>
2.6937

> <Gold.PLP.Chemscore.CHOScore>
0.0000

> <Gold.PLP.Chemscore.Metal>
0.0000

> <Gold.Chemscore.Hbonds>
donor molecule, donor type, donor heavy atom, donor atom, acceptor molecule, acceptor atom, score
      L1  H     3    24       P1  7948  1.00
      L1  H    11    28       P1  7948  0.72
      P1  H  7989  7998       L1    14  1.00

> <Gold.PLP.Chemscore.Internal.Correction>
0.6467

> <Gold.Rescore>
     Score         DG    S(hbond)    S(metal)    S(lipo)     H(rot)  DE(clash)    DE(int)     intcor
     15.69     -17.47       1.95        0.00      84.07       1.71       0.01       1.77       ----

> <Gold.Chemscore.Fitness>
15.6896

> <Gold.Chemscore.DG>
-17.4661

> <Gold.Chemscore.ZeroCoef>
-5.4800

> <Gold.Chemscore.Hbond>
1.9511

> <Gold.Chemscore.Metal>
0.0000

> <Gold.Chemscore.Lipo>
84.0732

> <Gold.Chemscore.Internal_Hbond>
0.0000

> <Gold.Chemscore.DEClash>
0.0060

> <Gold.Chemscore.DEInternal>
1.7704

> <Gold.Chemscore.Rot>
1.7059

> <Gold.Chemscore.Internal.Correction>
   9.000000E+99

> <Gold.Chemscore.Hbonds>
donor molecule, donor type, donor heavy atom, donor atom, acceptor molecule, acceptor atom, score
      L1  H     3    24       P1  7948  0.30
      L1  H    11    28       P1  7948  0.69
      P1  H  7989  7998       L1    14  0.39

> <Gold.Chemscore.Hbond.Weighted>
-6.5166

> <Gold.Chemscore.Metal.Weighted>
-0.0000

> <Gold.Chemscore.Lipo.Weighted>
-9.8366

> <Gold.Chemscore.Internal_Hbond.Weighted>
0.0000

> <Gold.Chemscore.DEClash.Weighted>
0.0060

> <Gold.Chemscore.DEInternal.Weighted>
1.7704

> <Gold.Chemscore.Rot.Weighted>
4.3671

> <Gold.Chemscore.Internal.Correction.Weighted>
   9.000000E+99

> <Gold.Protein.RotatedTorsions>
[ 6907 6896 6895 6894 ] final -142.30 input  -60.11 | X-H torsion
[ 7974 7965 7964 7962 ] final  177.22 input  175.53 | X-H torsion
[ 8008 7997 7996 7995 ] final   85.64 input   59.86 | X-H torsion
[ 10167 10162 10161 10158 ] final -111.13 input  -65.29 | X-H torsion
[ 10718 10713 10712 10709 ] final   35.84 input   66.30 | X-H torsion
[ 10763 10752 10751 10750 ] final   97.83 input  -60.55 | X-H torsion
[ 11005 11000 10999 10996 ] final   12.05 input  -57.11 | X-H torsion

> <Gold.Protein.ActiveResidues>
 VAL166  LYS551  ARG553  GLY616  TRP617  ASP618  TYR619  PRO620  LYS621  CYS622 
 ASP623  PHE694  ASN695  SER759  ASP760  ASP761  ALA762  ILE779  LEU786  VAL792 
 PHE793  MET794  SER795  GLU796  ALA797  LYS798  CYS799  TRP800  GLU811  SER814 

> <Gold.Protein.RotatedAtoms>
  151.0853  133.5358  159.2617 H   0  0  0  0  0  0  0  0  0  0  0  0  # atno 6907 bound_to 6896
  151.2246  135.0531  159.8973 H   0  0  0  0  0  0  0  0  0  0  0  0  # atno 6908 bound_to 6896
  152.5428  134.0650  159.8222 H   0  0  0  0  0  0  0  0  0  0  0  0  # atno 6909 bound_to 6896
  144.7172  140.0214  143.6440 H   0  0  0  0  0  0  0  0  0  0  0  0  # atno 7974 bound_to 7965
  155.9527  140.3399  155.6421 H   0  0  0  0  0  0  0  0  0  0  0  0  # atno 8008 bound_to 7997
  155.6900  140.0748  157.2470 H   0  0  0  0  0  0  0  0  0  0  0  0  # atno 8009 bound_to 7997
  154.4125  140.1659  156.2063 H   0  0  0  0  0  0  0  0  0  0  0  0  # atno 8010 bound_to 7997
  140.1369  143.4312  152.1589 H   0  0  0  0  0  0  0  0  0  0  0  0  # atno 10167 bound_to 10162
  157.3277  130.7481  149.6826 H   0  0  0  0  0  0  0  0  0  0  0  0  # atno 10718 bound_to 10713
  153.2816  135.4169  155.1084 H   0  0  0  0  0  0  0  0  0  0  0  0  # atno 10763 bound_to 10752
  154.8491  135.3496  154.6104 H   0  0  0  0  0  0  0  0  0  0  0  0  # atno 10764 bound_to 10752
  153.6525  135.7052  153.5262 H   0  0  0  0  0  0  0  0  0  0  0  0  # atno 10765 bound_to 10752
  140.4963  134.0790  155.7783 H   0  0  0  0  0  0  0  0  0  0  0  0  # atno 11005 bound_to 11000
  146.0177  139.3224  143.0832 LP  0  0  0  0  0  0  0  0  0  0  0  0  # atno 17320 bound_to 7965
  145.8605  140.9478  143.0702 LP  0  0  0  0  0  0  0  0  0  0  0  0  # atno 17321 bound_to 7965
  139.5491  144.7323  151.4489 LP  0  0  0  0  0  0  0  0  0  0  0  0  # atno 17342 bound_to 10162
  140.6784  143.8138  150.7088 LP  0  0  0  0  0  0  0  0  0  0  0  0  # atno 17343 bound_to 10162
  155.9692  130.4204  150.4423 LP  0  0  0  0  0  0  0  0  0  0  0  0  # atno 17370 bound_to 10713
  157.2449  131.0533  151.2414 LP  0  0  0  0  0  0  0  0  0  0  0  0  # atno 17371 bound_to 10713
  141.1458  133.9057  157.2218 LP  0  0  0  0  0  0  0  0  0  0  0  0  # atno 17394 bound_to 11000
  139.9739  135.0120  156.9582 LP  0  0  0  0  0  0  0  0  0  0  0  0  # atno 17395 bound_to 11000

$$$$
