AV-unprocessed.smi:811|AV-procd|sdf|3813|dock3
  -GOLD-   22720 1253D 1   1.00000     0.00000
 Structure written by MMmdl.
 46 48  0  0  0  0  0  0  0  0  2 V2000
  143.4845  132.7433  148.6926 C   0  0  0  0  0  0  0  0  0  0  0  0
  144.7440  133.2253  149.3002 N   0  3  1  0  0  0  0  0  0  0  0  0
  144.5472  134.0158  150.5420 C   0  0  0  0  0  0  0  0  0  0  0  0
  145.5386  133.4664  151.5750 C   0  0  0  0  0  0  0  0  0  0  0  0
  145.7113  132.0204  151.1287 C   0  0  2  0  0  0  0  0  0  0  0  0
  146.9306  131.3915  151.6289 N   0  0  0  0  0  0  0  0  0  0  0  0
  147.4607  131.5777  152.8465 C   0  0  0  0  0  0  0  0  0  0  0  0
  146.9576  132.3032  153.7036 O   0  0  0  0  0  0  0  0  0  0  0  0
  148.6064  130.8885  152.9854 N   0  0  0  0  0  0  0  0  0  0  0  0
  149.4770  130.8324  154.1076 C   0  0  0  0  0  0  0  0  0  0  0  0
  149.4426  131.7400  155.1931 C   0  0  0  0  0  0  0  0  0  0  0  0
  150.3515  131.5668  156.2543 C   0  0  0  0  0  0  0  0  0  0  0  0
  151.2606  130.4907  156.2038 C   0  0  0  0  0  0  0  0  0  0  0  0
  152.1683  130.3168  157.2579 N   0  0  0  0  0  0  0  0  0  0  0  0
  151.5285  129.9880  158.5257 C   0  0  0  0  0  0  0  0  0  0  0  0
  152.5972  129.6910  159.5917 C   0  0  0  0  0  0  0  0  0  0  0  0
  153.4836  130.8014  159.7031 O   0  0  0  0  0  0  0  0  0  0  0  0
  154.1589  131.0723  158.4781 C   0  0  0  0  0  0  0  0  0  0  0  0
  153.1301  131.4049  157.3839 C   0  0  0  0  0  0  0  0  0  0  0  0
  151.2911  129.6107  155.1751 N   0  0  0  0  0  0  0  0  0  0  0  0
  150.4166  129.7819  154.1617 C   0  0  0  0  0  0  0  0  0  0  0  0
  145.7131  132.1491  149.6058 C   0  0  0  0  0  0  0  0  0  0  0  0
  142.9626  132.0583  149.3623 H   0  0  0  0  0  0  0  0  0  0  0  0
  143.6863  132.2208  147.7571 H   0  0  0  0  0  0  0  0  0  0  0  0
  142.8213  133.5805  148.4726 H   0  0  0  0  0  0  0  0  0  0  0  0
  144.6963  135.0800  150.3584 H   0  0  0  0  0  0  0  0  0  0  0  0
  143.5298  133.8870  150.9152 H   0  0  0  0  0  0  0  0  0  0  0  0
  146.4866  134.0024  151.5037 H   0  0  0  0  0  0  0  0  0  0  0  0
  145.1756  133.5547  152.5995 H   0  0  0  0  0  0  0  0  0  0  0  0
  144.8236  131.4591  151.4279 H   0  0  0  0  0  0  0  0  0  0  0  0
  147.4190  130.7784  150.9925 H   0  0  0  0  0  0  0  0  0  0  0  0
  148.9295  130.3956  152.1660 H   0  0  0  0  0  0  0  0  0  0  0  0
  148.7348  132.5524  155.2426 H   0  0  0  0  0  0  0  0  0  0  0  0
  150.3456  132.2471  157.0935 H   0  0  0  0  0  0  0  0  0  0  0  0
  150.9033  130.8204  158.8515 H   0  0  0  0  0  0  0  0  0  0  0  0
  150.8759  129.1235  158.3976 H   0  0  0  0  0  0  0  0  0  0  0  0
  152.1249  129.5139  160.5579 H   0  0  0  0  0  0  0  0  0  0  0  0
  153.1576  128.7891  159.3401 H   0  0  0  0  0  0  0  0  0  0  0  0
  154.8373  131.9129  158.6237 H   0  0  0  0  0  0  0  0  0  0  0  0
  154.7697  130.2152  158.1902 H   0  0  0  0  0  0  0  0  0  0  0  0
  153.6348  131.5646  156.4301 H   0  0  0  0  0  0  0  0  0  0  0  0
  152.6112  132.3313  157.6348 H   0  0  0  0  0  0  0  0  0  0  0  0
  150.4744  129.0557  153.3638 H   0  0  0  0  0  0  0  0  0  0  0  0
  145.4783  131.2072  149.1078 H   0  0  0  0  0  0  0  0  0  0  0  0
  146.6941  132.4709  149.2523 H   0  0  0  0  0  0  0  0  0  0  0  0
  145.1839  133.8291  148.6203 H   0  0  0  0  0  0  0  0  0  0  0  0
  1  2  1  0  0  0  0
  1 23  1  0  0  0  0
  1 24  1  0  0  0  0
  1 25  1  0  0  0  0
  2 22  1  0  0  0  0
  2  3  1  0  0  0  0
  2 46  1  0  0  0  0
  3  4  1  0  0  0  0
  3 26  1  0  0  0  0
  3 27  1  0  0  0  0
  4  5  1  0  0  0  0
  4 28  1  0  0  0  0
  4 29  1  0  0  0  0
  5  6  1  0  0  0  0
  5 22  1  0  0  0  0
  5 30  1  0  0  0  0
  6  7  1  0  0  0  0
  6 31  1  0  0  0  0
  7  8  2  0  0  0  0
  7  9  1  0  0  0  0
  9 10  1  0  0  0  0
  9 32  1  0  0  0  0
 10 21  1  0  0  0  0
 10 11  2  0  0  0  0
 11 12  1  0  0  0  0
 11 33  1  0  0  0  0
 12 13  2  0  0  0  0
 12 34  1  0  0  0  0
 13 14  1  0  0  0  0
 13 20  1  0  0  0  0
 14 19  1  0  0  0  0
 14 15  1  0  0  0  0
 15 16  1  0  0  0  0
 15 35  1  0  0  0  0
 15 36  1  0  0  0  0
 16 17  1  0  0  0  0
 16 37  1  0  0  0  0
 16 38  1  0  0  0  0
 17 18  1  0  0  0  0
 18 19  1  0  0  0  0
 18 39  1  0  0  0  0
 18 40  1  0  0  0  0
 19 41  1  0  0  0  0
 19 42  1  0  0  0  0
 20 21  2  0  0  0  0
 21 43  1  0  0  0  0
 22 44  1  0  0  0  0
 22 45  1  0  0  0  0
M  CHG  1   2   1
M  END
> <s_m_source_file>
AV-unprocessed.smi

> <i_m_source_file_index>
811

> <i_lp_mmshare_version>
43012

> <i_f3d_flags>
0

> <s_epik_input>
W0NIM11OMVtDSDJdW0NIMl1bQ0BIXShbQ0gyXTEpW05IXUMoPU8pW05IXWMyW2NIXVtjSF1jKG5bY0hdMilOM1tDSDJdW0NIMl1PW0NIMl1bQ0gyXTM=

> <s_epik_cmdline>
J2VwaWtfcHl0aG9uJywgJy1waCcsICc3LjAnLCAnLXRuJywgJzgnLCAnLW1hJywgJzIwMCcsICctbWV0YWxfYmluZGluZycsICctaW1hZScsICc8aW5maWxlLm1hZT4nLCAnLW9tYWUnLCAnPG91dGZpbGUubWFlPic=

> <r_lp_tautomer_probability>
1

> <r_epik_Ionization_Penalty>
0.00503422

> <r_epik_Ionization_Penalty_Charging>
0.00366104

> <r_epik_Ionization_Penalty_Neutral>
0.00137318

> <r_epik_State_Penalty>
-0

> <r_epik_Charging_Adjusted_Penalty>
0.00366104

> <i_epik_Tot_Q>
1

> <i_epik_Tot_abs_Q>
1

> <r_epik_Metal_State_Penalty>
-0

> <b_epik_Metal_Only>
0

> <s_lp_Force_Field>
OPLS_2005

> <r_lp_Energy>
46.7377

> <b_lp_Chiralities_Consistent>
1

> <s_lp_Variant>
AV-unprocessed.smi:811-3

> <Gold.Version>
5.8.1

> <Gold.Id.Protein>
6NUR|6NUR_protein|mol2

> <Gold.PLP.Fitness>
39.6370

> <Gold.PLP.PLP>
-31.2879

> <Gold.PLP.part.hbond>
-2.9310

> <Gold.PLP.part.metal>
0.0000

> <Gold.PLP.part.buried>
-2.7351

> <Gold.PLP.part.nonpolar>
-25.4947

> <Gold.PLP.part.repulsive>
0.3477

> <Gold.PLP.ligand.clash>
0.0000

> <Gold.PLP.ligand.torsion>
0.4451

> <Gold.PLP.Chemscore.Hbond>
2.3120

> <Gold.PLP.Chemscore.CHOScore>
0.7297

> <Gold.PLP.Chemscore.Metal>
0.0000

> <Gold.Chemscore.Hbonds>
donor molecule, donor type, donor heavy atom, donor atom, acceptor molecule, acceptor atom, score
      L1  H     2    46       P1  7921  1.00
      L1  H     6    31       P1 10747  0.67
      L1  H     9    32       P1 10747  0.69
      L1  C    21    43       P1 10737  0.76

> <Gold.PLP.Chemscore.Internal.Correction>
0.1141

> <Gold.Rescore>
     Score         DG    S(hbond)    S(metal)    S(lipo)     H(rot)  DE(clash)    DE(int)     intcor
     14.47     -17.54       1.98        0.00      73.59       1.23       0.05       3.02       ----

> <Gold.Chemscore.Fitness>
14.4667

> <Gold.Chemscore.DG>
-17.5445

> <Gold.Chemscore.ZeroCoef>
-5.4800

> <Gold.Chemscore.Hbond>
1.9766

> <Gold.Chemscore.Metal>
0.0000

> <Gold.Chemscore.Lipo>
73.5914

> <Gold.Chemscore.Internal_Hbond>
0.0000

> <Gold.Chemscore.DEClash>
0.0534

> <Gold.Chemscore.DEInternal>
3.0243

> <Gold.Chemscore.Rot>
1.2295

> <Gold.Chemscore.Internal.Correction>
   9.000000E+99

> <Gold.Chemscore.Hbonds>
donor molecule, donor type, donor heavy atom, donor atom, acceptor molecule, acceptor atom, score
      L1  H     2    46       P1  7921  0.88
      L1  H     6    31       P1 10747  0.66
      L1  H     9    32       P1 10747  0.17

> <Gold.Chemscore.Hbond.Weighted>
-6.6017

> <Gold.Chemscore.Metal.Weighted>
-0.0000

> <Gold.Chemscore.Lipo.Weighted>
-8.6102

> <Gold.Chemscore.Internal_Hbond.Weighted>
0.0000

> <Gold.Chemscore.DEClash.Weighted>
0.0534

> <Gold.Chemscore.DEInternal.Weighted>
3.0243

> <Gold.Chemscore.Rot.Weighted>
3.1474

> <Gold.Chemscore.Internal.Correction.Weighted>
   9.000000E+99

> <Gold.Protein.RotatedTorsions>
[ 6907 6896 6895 6894 ] final  -23.93 input  -60.11 | X-H torsion
[ 7974 7965 7964 7962 ] final   67.18 input  175.53 | X-H torsion
[ 8008 7997 7996 7995 ] final   68.08 input   59.86 | X-H torsion
[ 10167 10162 10161 10158 ] final   -1.74 input  -65.29 | X-H torsion
[ 10718 10713 10712 10709 ] final  -79.89 input   66.30 | X-H torsion
[ 10763 10752 10751 10750 ] final  133.62 input  -60.55 | X-H torsion
[ 11005 11000 10999 10996 ] final  -25.04 input  -57.11 | X-H torsion

> <Gold.Protein.ActiveResidues>
 VAL166  LYS551  ARG553  GLY616  TRP617  ASP618  TYR619  PRO620  LYS621  CYS622 
 ASP623  PHE694  ASN695  SER759  ASP760  ASP761  ALA762  ILE779  LEU786  VAL792 
 PHE793  MET794  SER795  GLU796  ALA797  LYS798  CYS799  TRP800  GLU811  SER814 

> <Gold.Protein.RotatedAtoms>
  151.1968  135.0426  159.8855 H   0  0  0  0  0  0  0  0  0  0  0  0  # atno 6907 bound_to 6896
  152.5435  134.0894  159.8280 H   0  0  0  0  0  0  0  0  0  0  0  0  # atno 6908 bound_to 6896
  151.1030  133.5182  159.2641 H   0  0  0  0  0  0  0  0  0  0  0  0  # atno 6909 bound_to 6896
  145.8178  139.3067  143.1061 H   0  0  0  0  0  0  0  0  0  0  0  0  # atno 7974 bound_to 7965
  155.7028  140.3495  155.4940 H   0  0  0  0  0  0  0  0  0  0  0  0  # atno 8008 bound_to 7997
  155.9425  140.1104  157.1066 H   0  0  0  0  0  0  0  0  0  0  0  0  # atno 8009 bound_to 7997
  154.4105  140.1210  156.4932 H   0  0  0  0  0  0  0  0  0  0  0  0  # atno 8010 bound_to 7997
  140.6823  143.6739  150.8162 H   0  0  0  0  0  0  0  0  0  0  0  0  # atno 10167 bound_to 10162
  156.0082  130.4558  150.3716 H   0  0  0  0  0  0  0  0  0  0  0  0  # atno 10718 bound_to 10713
  153.8100  135.3130  155.3399 H   0  0  0  0  0  0  0  0  0  0  0  0  # atno 10763 bound_to 10752
  154.8055  135.4700  154.0384 H   0  0  0  0  0  0  0  0  0  0  0  0  # atno 10764 bound_to 10752
  153.1759  135.6885  153.8632 H   0  0  0  0  0  0  0  0  0  0  0  0  # atno 10765 bound_to 10752
  140.8901  133.7594  156.0411 H   0  0  0  0  0  0  0  0  0  0  0  0  # atno 11005 bound_to 11000
  145.9708  140.8761  143.0163 LP  0  0  0  0  0  0  0  0  0  0  0  0  # atno 17320 bound_to 7965
  144.6751  140.1943  143.7393 LP  0  0  0  0  0  0  0  0  0  0  0  0  # atno 17321 bound_to 7965
  140.0441  143.5316  152.2704 LP  0  0  0  0  0  0  0  0  0  0  0  0  # atno 17342 bound_to 10162
  139.6154  144.7618  151.2858 LP  0  0  0  0  0  0  0  0  0  0  0  0  # atno 17343 bound_to 10162
  157.1801  131.0390  151.2753 LP  0  0  0  0  0  0  0  0  0  0  0  0  # atno 17370 bound_to 10713
  157.4153  130.7408  149.6871 LP  0  0  0  0  0  0  0  0  0  0  0  0  # atno 17371 bound_to 10713
  140.8357  134.3126  157.5332 LP  0  0  0  0  0  0  0  0  0  0  0  0  # atno 17394 bound_to 11000
  139.8729  134.9388  156.3724 LP  0  0  0  0  0  0  0  0  0  0  0  0  # atno 17395 bound_to 11000

$$$$
