AV-unprocessed.smi:438|AV-procd|sdf|2567|dock8
  -GOLD-   2262022543D 1   1.00000     0.00000
 Structure written by MMmdl.
 48 49  0  0  0  0  0  0  0  0  1 V2000
  148.4581  133.3095  153.0826 C   0  0  0  0  0  0  0  0  0  0  0  0
  149.2478  133.6983  154.3197 C   0  0  0  0  0  0  0  0  0  0  0  0
  149.6136  135.0311  154.3723 N   0  0  0  0  0  0  0  0  0  0  0  0
  150.3276  135.4888  155.4693 C   0  0  0  0  0  0  0  0  0  0  0  0
  150.6460  137.2695  155.3045 S   0  0  0  0  0  0  0  0  0  0  0  0
  151.5941  137.6138  156.8150 C   0  0  0  0  0  0  0  0  0  0  0  0
  152.1030  139.0514  156.8619 C   0  0  0  0  0  0  0  0  0  0  0  0
  152.6918  139.5240  155.8903 O   0  0  0  0  0  0  0  0  0  0  0  0
  151.8733  139.7264  158.0017 N   0  0  0  0  0  0  0  0  0  0  0  0
  152.2934  141.0915  158.3304 C   0  0  2  0  0  0  0  0  0  0  0  0
  153.2947  141.1195  159.5064 C   0  0  0  0  0  0  0  0  0  0  0  0
  153.7961  142.5463  159.7726 C   0  0  0  0  0  0  0  0  0  0  0  0
  152.6214  143.5025  160.0248 C   0  0  0  0  0  0  0  0  0  0  0  0
  151.6277  143.4842  158.8520 C   0  0  0  0  0  0  0  0  0  0  0  0
  151.1038  142.0624  158.5631 C   0  0  1  0  0  0  0  0  0  0  0  0
  150.1127  142.0814  157.3852 C   0  0  0  0  0  0  0  0  0  0  0  0
  150.6965  134.7273  156.4567 N   0  0  0  0  0  0  0  0  0  0  0  0
  150.3678  133.3632  156.4535 C   0  0  0  0  0  0  0  0  0  0  0  0
  150.7210  132.6341  157.3794 O   0  0  0  0  0  0  0  0  0  0  0  0
  149.5927  132.8391  155.3089 C   0  0  0  0  0  0  0  0  0  0  0  0
  149.2016  131.3639  155.3074 C   0  0  0  0  0  0  0  0  0  0  0  0
  149.7250  130.6255  154.0671 C   0  0  0  0  0  0  0  0  0  0  0  0
  148.6489  130.3064  153.2122 O   0  0  0  0  0  0  0  0  0  0  0  0
  148.9487  132.4872  152.5610 H   0  0  0  0  0  0  0  0  0  0  0  0
  148.3682  134.1428  152.3842 H   0  0  0  0  0  0  0  0  0  0  0  0
  147.4518  132.9936  153.3581 H   0  0  0  0  0  0  0  0  0  0  0  0
  152.4386  136.9263  156.8778 H   0  0  0  0  0  0  0  0  0  0  0  0
  150.9621  137.4285  157.6846 H   0  0  0  0  0  0  0  0  0  0  0  0
  151.3776  139.2332  158.7302 H   0  0  0  0  0  0  0  0  0  0  0  0
  152.8286  141.4396  157.4459 H   0  0  0  0  0  0  0  0  0  0  0  0
  152.8305  140.7334  160.4141 H   0  0  0  0  0  0  0  0  0  0  0  0
  154.1427  140.4683  159.2919 H   0  0  0  0  0  0  0  0  0  0  0  0
  154.4705  142.5500  160.6293 H   0  0  0  0  0  0  0  0  0  0  0  0
  154.3774  142.8969  158.9188 H   0  0  0  0  0  0  0  0  0  0  0  0
  152.1078  143.2182  160.9440 H   0  0  0  0  0  0  0  0  0  0  0  0
  152.9940  144.5156  160.1794 H   0  0  0  0  0  0  0  0  0  0  0  0
  150.7933  144.1501  159.0742 H   0  0  0  0  0  0  0  0  0  0  0  0
  152.1129  143.8867  157.9617 H   0  0  0  0  0  0  0  0  0  0  0  0
  150.5544  141.7363  159.4471 H   0  0  0  0  0  0  0  0  0  0  0  0
  150.6058  142.3738  156.4578 H   0  0  0  0  0  0  0  0  0  0  0  0
  149.3029  142.7880  157.5679 H   0  0  0  0  0  0  0  0  0  0  0  0
  149.6558  141.1047  157.2268 H   0  0  0  0  0  0  0  0  0  0  0  0
  149.3321  135.6323  153.6112 H   0  0  0  0  0  0  0  0  0  0  0  0
  148.1174  131.2657  155.3582 H   0  0  0  0  0  0  0  0  0  0  0  0
  149.5743  130.8865  156.2151 H   0  0  0  0  0  0  0  0  0  0  0  0
  150.4394  131.2443  153.5231 H   0  0  0  0  0  0  0  0  0  0  0  0
  150.2375  129.7054  154.3489 H   0  0  0  0  0  0  0  0  0  0  0  0
  148.7739  130.7564  152.3908 H   0  0  0  0  0  0  0  0  0  0  0  0
  1 24  1  0  0  0  0
  1 25  1  0  0  0  0
  1 26  1  0  0  0  0
  1  2  1  0  0  0  0
  2 20  2  0  0  0  0
  2  3  1  0  0  0  0
  3  4  1  0  0  0  0
  3 43  1  0  0  0  0
  4  5  1  0  0  0  0
  4 17  2  0  0  0  0
  5  6  1  0  0  0  0
  6  7  1  0  0  0  0
  6 27  1  0  0  0  0
  6 28  1  0  0  0  0
  7  8  2  0  0  0  0
  7  9  1  0  0  0  0
  9 10  1  0  0  0  0
  9 29  1  0  0  0  0
 10 15  1  0  0  0  0
 10 11  1  0  0  0  0
 10 30  1  0  0  0  0
 11 12  1  0  0  0  0
 11 31  1  0  0  0  0
 11 32  1  0  0  0  0
 12 13  1  0  0  0  0
 12 33  1  0  0  0  0
 12 34  1  0  0  0  0
 13 14  1  0  0  0  0
 13 35  1  0  0  0  0
 13 36  1  0  0  0  0
 14 15  1  0  0  0  0
 14 37  1  0  0  0  0
 14 38  1  0  0  0  0
 15 16  1  0  0  0  0
 15 39  1  0  0  0  0
 16 40  1  0  0  0  0
 16 41  1  0  0  0  0
 16 42  1  0  0  0  0
 17 18  1  0  0  0  0
 18 19  2  0  0  0  0
 18 20  1  0  0  0  0
 20 21  1  0  0  0  0
 21 22  1  0  0  0  0
 21 44  1  0  0  0  0
 21 45  1  0  0  0  0
 22 23  1  0  0  0  0
 22 46  1  0  0  0  0
 22 47  1  0  0  0  0
 23 48  1  0  0  0  0
M  END
> <s_m_source_file>
AV-unprocessed.smi

> <i_m_source_file_index>
438

> <i_lp_mmshare_version>
43012

> <i_f3d_flags>
0

> <s_epik_input>
W09IXVtDSDJdW0NIMl1jMWMoW09IXSluYyhuYzFbQ0gzXSlTW0NIMl1DKD1PKVtOSF1bQ0BASF0yW0NIMl1bQ0gyXVtDSDJdW0NIMl1bQ0BIXTJbQ0gzXQ==

> <s_epik_cmdline>
J2VwaWtfcHl0aG9uJywgJy1waCcsICc3LjAnLCAnLXRuJywgJzgnLCAnLW1hJywgJzIwMCcsICctbWV0YWxfYmluZGluZycsICctaW1hZScsICc8aW5maWxlLm1hZT4nLCAnLW9tYWUnLCAnPG91dGZpbGUubWFlPic=

> <r_lp_tautomer_probability>
0.273662

> <r_epik_Ionization_Penalty>
0.0875285

> <r_epik_Ionization_Penalty_Charging>
0.0875254

> <r_epik_Ionization_Penalty_Neutral>
3.01536e-06

> <r_epik_State_Penalty>
0.985796

> <r_epik_Charging_Adjusted_Penalty>
1.07332

> <i_epik_Tot_Q>
0

> <i_epik_Tot_abs_Q>
0

> <r_epik_Metal_State_Penalty>
1.58101

> <b_epik_Metal_Only>
0

> <s_lp_Force_Field>
OPLS_2005

> <r_lp_Energy>
18.1285

> <b_lp_Chiralities_Consistent>
1

> <s_lp_Variant>
AV-unprocessed.smi:438-5

> <Gold.Version>
5.8.1

> <Gold.Id.Protein>
6NUR|6NUR_protein|mol2

> <Gold.PLP.Fitness>
51.6187

> <Gold.PLP.PLP>
-40.8252

> <Gold.PLP.part.hbond>
-4.0355

> <Gold.PLP.part.metal>
0.0000

> <Gold.PLP.part.buried>
-4.1574

> <Gold.PLP.part.nonpolar>
-31.3493

> <Gold.PLP.part.repulsive>
0.1212

> <Gold.PLP.ligand.clash>
0.0000

> <Gold.PLP.ligand.torsion>
0.4789

> <Gold.PLP.Chemscore.Hbond>
3.8938

> <Gold.PLP.Chemscore.CHOScore>
0.0000

> <Gold.PLP.Chemscore.Metal>
0.0000

> <Gold.Chemscore.Hbonds>
donor molecule, donor type, donor heavy atom, donor atom, acceptor molecule, acceptor atom, score
      L1  H     3    43       P1  7948  1.00
      L1  H    23    48       P1 10747  0.83
      P1  H  6896  6907       L1    19  0.96
      P1  H  7997  8009       L1     8  1.00

> <Gold.PLP.Chemscore.Internal.Correction>
0.0701

> <Gold.Rescore>
     Score         DG    S(hbond)    S(metal)    S(lipo)     H(rot)  DE(clash)    DE(int)     intcor
     18.66     -20.24       3.16        0.00      98.60       2.86       0.19       1.39       ----

> <Gold.Chemscore.Fitness>
18.6644

> <Gold.Chemscore.DG>
-20.2433

> <Gold.Chemscore.ZeroCoef>
-5.4800

> <Gold.Chemscore.Hbond>
3.1616

> <Gold.Chemscore.Metal>
0.0000

> <Gold.Chemscore.Lipo>
98.6048

> <Gold.Chemscore.Internal_Hbond>
0.0000

> <Gold.Chemscore.DEClash>
0.1898

> <Gold.Chemscore.DEInternal>
1.3891

> <Gold.Chemscore.Rot>
2.8645

> <Gold.Chemscore.Internal.Correction>
   9.000000E+99

> <Gold.Chemscore.Hbonds>
donor molecule, donor type, donor heavy atom, donor atom, acceptor molecule, acceptor atom, score
      L1  H     3    43       P1  7948  0.44
      L1  H    23    48       P1 10747  0.48
      P1  H  6896  6907       L1    19  0.87
      P1  H  7997  8009       L1     8  0.94

> <Gold.Chemscore.Hbond.Weighted>
-10.5596

> <Gold.Chemscore.Metal.Weighted>
-0.0000

> <Gold.Chemscore.Lipo.Weighted>
-11.5368

> <Gold.Chemscore.Internal_Hbond.Weighted>
0.0000

> <Gold.Chemscore.DEClash.Weighted>
0.1898

> <Gold.Chemscore.DEInternal.Weighted>
1.3891

> <Gold.Chemscore.Rot.Weighted>
7.3331

> <Gold.Chemscore.Internal.Correction.Weighted>
   9.000000E+99

> <Gold.Protein.RotatedTorsions>
[ 6907 6896 6895 6894 ] final -144.50 input  -60.11 | X-H torsion
[ 7974 7965 7964 7962 ] final  155.97 input  175.53 | X-H torsion
[ 8008 7997 7996 7995 ] final -152.86 input   59.86 | X-H torsion
[ 10167 10162 10161 10158 ] final  -10.81 input  -65.29 | X-H torsion
[ 10718 10713 10712 10709 ] final  109.60 input   66.30 | X-H torsion
[ 10763 10752 10751 10750 ] final   71.08 input  -60.55 | X-H torsion
[ 11005 11000 10999 10996 ] final  -20.36 input  -57.11 | X-H torsion

> <Gold.Protein.ActiveResidues>
 VAL166  LYS551  ARG553  GLY616  TRP617  ASP618  TYR619  PRO620  LYS621  CYS622 
 ASP623  PHE694  ASN695  SER759  ASP760  ASP761  ALA762  ILE779  LEU786  VAL792 
 PHE793  MET794  SER795  GLU796  ALA797  LYS798  CYS799  TRP800  GLU811  SER814 

> <Gold.Protein.RotatedAtoms>
  151.1149  133.5146  159.2603 H   0  0  0  0  0  0  0  0  0  0  0  0  # atno 6907 bound_to 6896
  151.1926  135.0408  159.8849 H   0  0  0  0  0  0  0  0  0  0  0  0  # atno 6908 bound_to 6896
  152.5452  134.0988  159.8362 H   0  0  0  0  0  0  0  0  0  0  0  0  # atno 6909 bound_to 6896
  144.7991  139.7141  143.6189 H   0  0  0  0  0  0  0  0  0  0  0  0  # atno 7974 bound_to 7965
  155.6617  140.0723  157.2551 H   0  0  0  0  0  0  0  0  0  0  0  0  # atno 8008 bound_to 7997
  154.4141  140.1715  156.1835 H   0  0  0  0  0  0  0  0  0  0  0  0  # atno 8009 bound_to 7997
  155.9691  140.3363  155.6562 H   0  0  0  0  0  0  0  0  0  0  0  0  # atno 8010 bound_to 7997
  140.7123  143.5707  150.9095 H   0  0  0  0  0  0  0  0  0  0  0  0  # atno 10167 bound_to 10162
  157.6534  131.0917  150.6478 H   0  0  0  0  0  0  0  0  0  0  0  0  # atno 10718 bound_to 10713
  153.0378  135.5150  154.7539 H   0  0  0  0  0  0  0  0  0  0  0  0  # atno 10763 bound_to 10752
  154.6501  135.2924  154.9999 H   0  0  0  0  0  0  0  0  0  0  0  0  # atno 10764 bound_to 10752
  154.0886  135.6653  153.4901 H   0  0  0  0  0  0  0  0  0  0  0  0  # atno 10765 bound_to 10752
  140.8456  133.7894  155.9909 H   0  0  0  0  0  0  0  0  0  0  0  0  # atno 11005 bound_to 11000
  146.2268  139.5738  142.9582 LP  0  0  0  0  0  0  0  0  0  0  0  0  # atno 17320 bound_to 7965
  145.5597  141.0405  143.2233 LP  0  0  0  0  0  0  0  0  0  0  0  0  # atno 17321 bound_to 7965
  139.9433  143.6356  152.3048 LP  0  0  0  0  0  0  0  0  0  0  0  0  # atno 17342 bound_to 10162
  139.6849  144.7652  151.1542 LP  0  0  0  0  0  0  0  0  0  0  0  0  # atno 17343 bound_to 10162
  156.6787  130.4561  149.5634 LP  0  0  0  0  0  0  0  0  0  0  0  0  # atno 17370 bound_to 10713
  156.1945  130.6581  151.1098 LP  0  0  0  0  0  0  0  0  0  0  0  0  # atno 17371 bound_to 10713
  140.8846  134.2569  157.5126 LP  0  0  0  0  0  0  0  0  0  0  0  0  # atno 17394 bound_to 11000
  139.8703  134.9632  156.4454 LP  0  0  0  0  0  0  0  0  0  0  0  0  # atno 17395 bound_to 11000

$$$$
