#       Name:                AV-unprocessed.smi:3067
#       Creating user name   scv26
#       Creation time:       Fri Mar 27 17:09:57 2020


#       File generated by GOLD software.
#

@<TRIPOS>MOLECULE
AV-unprocessed.smi:3067
    38    39     1
SMALL
NO_CHARGES


@<TRIPOS>ATOM
      1 ****        -0.1658  -1.2689   3.6016 C.3            1 S1                 0.0000
      2 ****        -0.3292  -0.4373   2.4635 O.3            1 S1                 0.0000
      3 ****        -0.8007  -1.1155   1.3042 C.3            1 S1                 0.0000
      4 ****        -2.3354  -1.2650   1.3861 C.3            1 S1                 0.0000
      5 ****        -2.9204  -1.8513   0.0931 C.3            1 S1                 0.0000
      6 ****        -2.5173  -1.0086  -1.1243 C.3            1 S1                 0.0000
      7 ****        -0.9909  -0.8735  -1.2167 C.3            1 S1                 0.0000
      8 ****        -0.3927  -0.2737   0.0745 C.3            1 S1                 0.0000
      9 ****         1.0606  -0.1952  -0.0225 N.pl3          1 S1                 0.0000
     10 ****         1.7165   0.8546  -0.6837 C.ar           1 S1                 0.0000
     11 ****         1.0462   1.8898  -1.3767 C.ar           1 S1                 0.0000
     12 ****         1.8052   2.8976  -2.0020 C.ar           1 S1                 0.0000
     13 ****         3.2117   2.8399  -1.9139 C.ar           1 S1                 0.0000
     14 ****         4.0128   3.8714  -2.5504 C.1            1 S1                 0.0000
     15 ****         4.6504   4.6933  -3.0575 N.1            1 S1                 0.0000
     16 ****         3.8614   1.8562  -1.2551 N.ar           1 S1                 0.0000
     17 ****         3.1266   0.8935  -0.6588 C.ar           1 S1                 0.0000
     18 ****         0.2248  -0.6765   4.4287 H              1 S1                 0.0000
     19 ****         0.5437  -2.0731   3.4038 H              1 S1                 0.0000
     20 ****        -1.1098  -1.7064   3.9253 H              1 S1                 0.0000
     21 ****        -0.3378  -2.1015   1.2248 H              1 S1                 0.0000
     22 ****        -2.6158  -1.9021   2.2244 H              1 S1                 0.0000
     23 ****        -2.7860  -0.2900   1.5761 H              1 S1                 0.0000
     24 ****        -2.5695  -2.8759  -0.0368 H              1 S1                 0.0000
     25 ****        -4.0071  -1.9024   0.1664 H              1 S1                 0.0000
     26 ****        -2.9066  -1.4626  -2.0359 H              1 S1                 0.0000
     27 ****        -2.9694  -0.0186  -1.0525 H              1 S1                 0.0000
     28 ****        -0.5532  -1.8553  -1.4034 H              1 S1                 0.0000
     29 ****        -0.7366  -0.2588  -2.0802 H              1 S1                 0.0000
     30 ****        -0.7930   0.7301   0.2197 H              1 S1                 0.0000
     31 ****         1.6075  -0.8667   0.4974 H              1 S1                 0.0000
     32 ****        -0.0305   1.9293  -1.4416 H              1 S1                 0.0000
     33 ****         1.3121   3.6969  -2.5365 H              1 S1                 0.0000
     34 ****         3.6869   0.1277  -0.1421 H              1 S1                 0.0000
     35 ****         0.5561  -0.0256   2.2470 LP             1 S1                 0.0000
     36 ****        -0.9843   0.2824   2.6932 LP             1 S1                 0.0000
     37 ****         5.2014   5.4035  -3.4957 LP             1 S1                 0.0000
     38 ****         4.8603   1.8413  -1.2102 LP             1 S1                 0.0000
@<TRIPOS>BOND
    1    1    2 1     
    2    1   18 1     
    3    1   19 1     
    4    1   20 1     
    5    2    3 1     
    6    3    8 1     
    7    3    4 1     
    8    3   21 1     
    9    4    5 1     
   10    4   22 1     
   11    4   23 1     
   12    5    6 1     
   13    5   24 1     
   14    5   25 1     
   15    6    7 1     
   16    6   26 1     
   17    6   27 1     
   18    7    8 1     
   19    7   28 1     
   20    7   29 1     
   21    8    9 1     
   22    8   30 1     
   23    9   10 1     
   24    9   31 1     
   25   10   17 ar    
   26   10   11 ar    
   27   11   12 ar    
   28   11   32 1     
   29   12   13 ar    
   30   12   33 1     
   31   13   14 1     
   32   13   16 ar    
   33   14   15 3     
   34   16   17 ar    
   35   17   34 1     
   36    2   35 1     
   37    2   36 1     
   38   15   37 1     
   39   16   38 1     
@<TRIPOS>SUBSTRUCTURE
      1 S1             1
@<TRIPOS>SET
LONE_PAIRS      STATIC     ATOMS    <user>   **** ""
4 35 36 37 38
DONOR_HYDROGENS      STATIC     ATOMS    <user>   **** ""
1 31
ATOM$BLUE        STATIC     ATOMS    COLORGROUP SYSTEM
4 35 36 37 38
ATOM$RED        STATIC     ATOMS    COLORGROUP SYSTEM
1 31
