AV-unprocessed.smi:2482|AV-procd|sdf|9782|dock7
  -GOLD-   2272013423D 1   1.00000     0.00000
 Structure written by MMmdl.
 34 35  0  0  0  0  0  0  0  0  3 V2000
  152.4048  142.5387  161.1968 C   0  0  0  0  0  0  0  0  0  0  0  0
  151.9942  142.1773  159.7814 C   0  0  0  0  0  0  0  0  0  0  0  0
  151.0089  142.9327  159.2501 N   0  0  0  0  0  0  0  0  0  0  0  0
  150.6117  142.6528  157.9931 C   0  0  0  0  0  0  0  0  0  0  0  0
  151.1696  141.6183  157.2187 C   0  0  0  0  0  0  0  0  0  0  0  0
  152.1955  140.8146  157.7640 C   0  0  0  0  0  0  0  0  0  0  0  0
  152.7414  139.8279  157.0341 N   0  5  0  0  0  0  0  0  0  0  0  0
  152.0341  139.2605  156.0271 C   0  0  0  0  0  0  0  0  0  0  0  0
  151.3693  139.8159  155.1499 O   0  0  0  0  0  0  0  0  0  0  0  0
  152.1316  137.7187  156.0664 C   0  0  1  0  0  0  0  0  0  0  0  0
  151.3785  137.0595  157.2464 C   0  0  0  0  0  0  0  0  0  0  0  0
  149.9107  137.1641  157.0682 N   0  3  2  0  0  0  0  0  0  0  0  0
  149.1552  136.6062  158.2095 C   0  0  0  0  0  0  0  0  0  0  0  0
  149.4956  136.5893  155.7688 C   0  0  0  0  0  0  0  0  0  0  0  0
  150.2625  137.2616  154.6185 C   0  0  0  0  0  0  0  0  0  0  0  0
  151.6664  137.1375  154.8418 O   0  0  0  0  0  0  0  0  0  0  0  0
  152.6188  141.1148  159.0849 C   0  0  0  0  0  0  0  0  0  0  0  0
  153.8812  140.1995  159.8432 Cl  0  0  0  0  0  0  0  0  0  0  0  0
  152.2430  141.6932  161.8658 H   0  0  0  0  0  0  0  0  0  0  0  0
  151.8312  143.3845  161.5777 H   0  0  0  0  0  0  0  0  0  0  0  0
  153.4610  142.8069  161.2281 H   0  0  0  0  0  0  0  0  0  0  0  0
  149.8246  143.2731  157.5903 H   0  0  0  0  0  0  0  0  0  0  0  0
  150.8095  141.4436  156.2153 H   0  0  0  0  0  0  0  0  0  0  0  0
  153.1895  137.4696  156.1626 H   0  0  0  0  0  0  0  0  0  0  0  0
  151.6589  136.0075  157.3169 H   0  0  0  0  0  0  0  0  0  0  0  0
  151.6714  137.5219  158.1905 H   0  0  0  0  0  0  0  0  0  0  0  0
  149.3405  135.5368  158.3173 H   0  0  0  0  0  0  0  0  0  0  0  0
  148.0843  136.7570  158.0714 H   0  0  0  0  0  0  0  0  0  0  0  0
  149.4440  137.0995  159.1383 H   0  0  0  0  0  0  0  0  0  0  0  0
  149.6854  135.5148  155.7663 H   0  0  0  0  0  0  0  0  0  0  0  0
  148.4228  136.7268  155.6287 H   0  0  0  0  0  0  0  0  0  0  0  0
  150.0169  136.7765  153.6739 H   0  0  0  0  0  0  0  0  0  0  0  0
  149.9702  138.3072  154.5135 H   0  0  0  0  0  0  0  0  0  0  0  0
  149.6976  138.1514  157.0312 H   0  0  0  0  0  0  0  0  0  0  0  0
  1  2  1  0  0  0  0
  1 19  1  0  0  0  0
  1 20  1  0  0  0  0
  1 21  1  0  0  0  0
  2 17  1  0  0  0  0
  2  3  2  0  0  0  0
  3  4  1  0  0  0  0
  4  5  2  0  0  0  0
  4 22  1  0  0  0  0
  5  6  1  0  0  0  0
  5 23  1  0  0  0  0
  6  7  1  0  0  0  0
  6 17  2  0  0  0  0
  7  8  1  0  0  0  0
  8  9  2  0  0  0  0
  8 10  1  0  0  0  0
 10 16  1  0  0  0  0
 10 11  1  0  0  0  0
 10 24  1  0  0  0  0
 11 12  1  0  0  0  0
 11 25  1  0  0  0  0
 11 26  1  0  0  0  0
 12 13  1  0  0  0  0
 12 14  1  0  0  0  0
 12 34  1  0  0  0  0
 13 27  1  0  0  0  0
 13 28  1  0  0  0  0
 13 29  1  0  0  0  0
 14 15  1  0  0  0  0
 14 30  1  0  0  0  0
 14 31  1  0  0  0  0
 15 16  1  0  0  0  0
 15 32  1  0  0  0  0
 15 33  1  0  0  0  0
 17 18  1  0  0  0  0
M  CHG  1   7  -1
M  CHG  1  12   1
M  END
> <s_m_source_file>
AV-unprocessed.smi

> <i_m_source_file_index>
2482

> <i_lp_mmshare_version>
43012

> <i_f3d_flags>
0

> <s_epik_input>
W0NIM11jMW5bY0hdW2NIXWMoYzFDbClbTkhdQyg9TylbQ0BASF0yW0NIMl1OKFtDSDNdKVtDSDJdW0NIMl1PMg==

> <s_epik_cmdline>
J2VwaWtfcHl0aG9uJywgJy1waCcsICc3LjAnLCAnLXRuJywgJzgnLCAnLW1hJywgJzIwMCcsICctbWV0YWxfYmluZGluZycsICctaW1hZScsICc8aW5maWxlLm1hZT4nLCAnLW9tYWUnLCAnPG91dGZpbGUubWFlPic=

> <r_epik_Ionization_Penalty>
6.9249

> <r_epik_Ionization_Penalty_Charging>
6.74596

> <r_epik_Ionization_Penalty_Neutral>
0.178941

> <r_epik_State_Penalty>
6.78185

> <r_epik_Charging_Adjusted_Penalty>
13.5278

> <i_epik_Tot_Q>
0

> <i_epik_Tot_abs_Q>
2

> <r_epik_Metal_State_Penalty>
2.70608

> <b_epik_Metal_Only>
1

> <s_lp_Force_Field>
OPLS_2005

> <r_lp_Energy>
12.3896

> <b_lp_Chiralities_Consistent>
1

> <s_lp_Variant>
AV-unprocessed.smi:2482-8

> <Gold.Version>
5.8.1

> <Gold.Id.Protein>
6NUR|6NUR_protein|mol2

> <Gold.PLP.Fitness>
41.4069

> <Gold.PLP.PLP>
-27.5049

> <Gold.PLP.part.hbond>
-3.0000

> <Gold.PLP.part.metal>
0.0000

> <Gold.PLP.part.buried>
-3.3713

> <Gold.PLP.part.nonpolar>
-20.5454

> <Gold.PLP.part.repulsive>
0.2221

> <Gold.PLP.ligand.clash>
0.0000

> <Gold.PLP.ligand.torsion>
0.7801

> <Gold.PLP.Chemscore.Hbond>
4.0000

> <Gold.PLP.Chemscore.CHOScore>
0.9933

> <Gold.PLP.Chemscore.Metal>
0.0000

> <Gold.Chemscore.Hbonds>
donor molecule, donor type, donor heavy atom, donor atom, acceptor molecule, acceptor atom, score
      P1  H  7989  7998       L1     9  1.00
      P1  H  7997  8009       L1     7  2.00
      P1  H 10752 10764       L1    16  1.00
      L1  C     4    22       P1  8028  0.89

> <Gold.PLP.Chemscore.Internal.Correction>
0.4823

> <Gold.Rescore>
     Score         DG    S(hbond)    S(metal)    S(lipo)     H(rot)  DE(clash)    DE(int)     intcor
     17.76     -21.66       2.73        0.00      82.28       1.00       0.19       3.71       ----

> <Gold.Chemscore.Fitness>
17.7603

> <Gold.Chemscore.DG>
-21.6589

> <Gold.Chemscore.ZeroCoef>
-5.4800

> <Gold.Chemscore.Hbond>
2.7282

> <Gold.Chemscore.Metal>
0.0000

> <Gold.Chemscore.Lipo>
82.2797

> <Gold.Chemscore.Internal_Hbond>
0.0000

> <Gold.Chemscore.DEClash>
0.1919

> <Gold.Chemscore.DEInternal>
3.7067

> <Gold.Chemscore.Rot>
1.0000

> <Gold.Chemscore.Internal.Correction>
   9.000000E+99

> <Gold.Chemscore.Hbonds>
donor molecule, donor type, donor heavy atom, donor atom, acceptor molecule, acceptor atom, score
      P1  H  7989  7998       L1     9  0.97
      P1  H  7997  8009       L1     7  0.75
      P1  H 10752 10764       L1    16  0.47

> <Gold.Chemscore.Hbond.Weighted>
-9.1121

> <Gold.Chemscore.Metal.Weighted>
-0.0000

> <Gold.Chemscore.Lipo.Weighted>
-9.6267

> <Gold.Chemscore.Internal_Hbond.Weighted>
0.0000

> <Gold.Chemscore.DEClash.Weighted>
0.1919

> <Gold.Chemscore.DEInternal.Weighted>
3.7067

> <Gold.Chemscore.Rot.Weighted>
2.5600

> <Gold.Chemscore.Internal.Correction.Weighted>
   9.000000E+99

> <Gold.Protein.RotatedTorsions>
[ 6907 6896 6895 6894 ] final -151.37 input  -60.11 | X-H torsion
[ 7974 7965 7964 7962 ] final  -51.46 input  175.53 | X-H torsion
[ 8008 7997 7996 7995 ] final  180.00 input   59.86 | X-H torsion
[ 10167 10162 10161 10158 ] final   -3.76 input  -65.29 | X-H torsion
[ 10718 10713 10712 10709 ] final  127.56 input   66.30 | X-H torsion
[ 10763 10752 10751 10750 ] final  -66.60 input  -60.55 | X-H torsion
[ 11005 11000 10999 10996 ] final -117.73 input  -57.11 | X-H torsion

> <Gold.Protein.ActiveResidues>
 VAL166  LYS551  ARG553  GLY616  TRP617  ASP618  TYR619  PRO620  LYS621  CYS622 
 ASP623  PHE694  ASN695  SER759  ASP760  ASP761  ALA762  ILE779  LEU786  VAL792 
 PHE793  MET794  SER795  GLU796  ALA797  LYS798  CYS799  TRP800  GLU811  SER814 

> <Gold.Protein.RotatedAtoms>
  151.2122  133.4549  159.2598 H   0  0  0  0  0  0  0  0  0  0  0  0  # atno 6907 bound_to 6896
  151.0965  134.9947  159.8438 H   0  0  0  0  0  0  0  0  0  0  0  0  # atno 6908 bound_to 6896
  152.5439  134.2052  159.8781 H   0  0  0  0  0  0  0  0  0  0  0  0  # atno 6909 bound_to 6896
  145.9187  140.7852  142.9658 H   0  0  0  0  0  0  0  0  0  0  0  0  # atno 7974 bound_to 7965
  156.0370  140.1295  157.0197 H   0  0  0  0  0  0  0  0  0  0  0  0  # atno 8008 bound_to 7997
  154.4374  140.1038  156.6252 H   0  0  0  0  0  0  0  0  0  0  0  0  # atno 8009 bound_to 7997
  155.5723  140.3466  155.4521 H   0  0  0  0  0  0  0  0  0  0  0  0  # atno 8010 bound_to 7997
  140.6902  143.6502  150.8357 H   0  0  0  0  0  0  0  0  0  0  0  0  # atno 10167 bound_to 10162
  157.5322  131.1098  150.8991 H   0  0  0  0  0  0  0  0  0  0  0  0  # atno 10718 bound_to 10713
  154.3622  135.6113  153.5696 H   0  0  0  0  0  0  0  0  0  0  0  0  # atno 10763 bound_to 10752
  152.9793  135.5818  154.4620 H   0  0  0  0  0  0  0  0  0  0  0  0  # atno 10764 bound_to 10752
  154.4359  135.2849  155.1858 H   0  0  0  0  0  0  0  0  0  0  0  0  # atno 10765 bound_to 10752
  141.0334  133.9946  157.3108 H   0  0  0  0  0  0  0  0  0  0  0  0  # atno 11005 bound_to 11000
  144.6750  140.1941  143.7394 LP  0  0  0  0  0  0  0  0  0  0  0  0  # atno 17320 bound_to 7965
  145.8578  139.2207  143.1734 LP  0  0  0  0  0  0  0  0  0  0  0  0  # atno 17321 bound_to 7965
  140.0214  143.5539  152.2799 LP  0  0  0  0  0  0  0  0  0  0  0  0  # atno 17342 bound_to 10162
  139.6298  144.7642  151.2560 LP  0  0  0  0  0  0  0  0  0  0  0  0  # atno 17343 bound_to 10162
  156.9569  130.5440  149.5284 LP  0  0  0  0  0  0  0  0  0  0  0  0  # atno 17370 bound_to 10713
  156.0431  130.5511  150.8818 LP  0  0  0  0  0  0  0  0  0  0  0  0  # atno 17371 bound_to 10713
  139.9224  135.0201  156.8111 LP  0  0  0  0  0  0  0  0  0  0  0  0  # atno 17394 bound_to 11000
  140.6365  133.9857  155.7687 LP  0  0  0  0  0  0  0  0  0  0  0  0  # atno 17395 bound_to 11000

$$$$
