#       Name:                AV-unprocessed.smi:558
#       Creating user name   scv26
#       Creation time:       Thu Mar 26 23:41:29 2020


#       File generated by GOLD software.
#

@<TRIPOS>MOLECULE
AV-unprocessed.smi:558
    41    42     1
SMALL
NO_CHARGES


@<TRIPOS>ATOM
      1 ****        -3.6542   0.7270  -2.2275 C.3            1 S1                 0.0000
      2 ****        -2.4167  -0.1066  -2.0719 C.2            1 S1                 0.0000
      3 ****        -2.2839  -1.3812  -1.4539 C.2            1 S1                 0.0000
      4 ****        -0.9573  -1.6823  -1.5815 C.2            1 S1                 0.0000
      5 ****        -0.1982  -2.8858  -1.1272 C.3            1 S1                 0.0000
      6 ****        -0.3661  -0.6201  -2.2440 N.pl3          1 S1                 0.0000
      7 ****         1.0291  -0.4248  -2.6154 C.3            1 S1                 0.0000
      8 ****         1.7656   0.4602  -1.6052 C.2            1 S1                 0.0000
      9 ****         2.3556   1.4701  -1.9874 O.2            1 S1                 0.0000
     10 ****         1.7222   0.0709  -0.3223 N.am           1 S1                 0.0000
     11 ****         2.2681   0.8132   0.8055 C.3            1 S1                 0.0000
     12 ****         1.4518   0.5281   2.0768 C.3            1 S1                 0.0000
     13 ****        -0.0039   0.9485   2.0015 C.3            1 S1                 0.0000
     14 ****        -0.3927   1.0013   3.4758 C.3            1 S1                 0.0000
     15 ****         0.7957   1.3487   4.1826 O.3            1 S1                 0.0000
     16 ****         1.9182   1.3055   3.3064 C.3            1 S1                 0.0000
     17 ****        -1.2659   0.3423  -2.5440 N.2            1 S1                 0.0000
     18 ****        -4.5444   0.1677  -1.9393 H              1 S1                 0.0000
     19 ****        -3.7855   1.0497  -3.2608 H              1 S1                 0.0000
     20 ****        -3.6060   1.6188  -1.6021 H              1 S1                 0.0000
     21 ****        -3.0484  -1.9834  -0.9857 H              1 S1                 0.0000
     22 ****        -0.8501  -3.5788  -0.5952 H              1 S1                 0.0000
     23 ****         0.6112  -2.6058  -0.4533 H              1 S1                 0.0000
     24 ****         0.2328  -3.4170  -1.9761 H              1 S1                 0.0000
     25 ****         1.5275  -1.3915  -2.6870 H              1 S1                 0.0000
     26 ****         1.0704   0.0272  -3.6078 H              1 S1                 0.0000
     27 ****         1.2213  -0.7783  -0.1055 H              1 S1                 0.0000
     28 ****         3.3080   0.5187   0.9512 H              1 S1                 0.0000
     29 ****         2.2660   1.8846   0.5968 H              1 S1                 0.0000
     30 ****         1.4945  -0.5386   2.3045 H              1 S1                 0.0000
     31 ****        -0.0912   1.9405   1.5557 H              1 S1                 0.0000
     32 ****        -0.6232   0.2607   1.4242 H              1 S1                 0.0000
     33 ****        -1.1945   1.7144   3.6688 H              1 S1                 0.0000
     34 ****        -0.7235   0.0197   3.8170 H              1 S1                 0.0000
     35 ****         2.7821   0.8471   3.7882 H              1 S1                 0.0000
     36 ****         2.1843   2.3292   3.0398 H              1 S1                 0.0000
     37 ****         2.3543   1.7130  -2.9575 LP             1 S1                 0.0000
     38 ****         2.8365   2.0480  -1.3280 LP             1 S1                 0.0000
     39 ****         0.9360   0.7012   4.9316 LP             1 S1                 0.0000
     40 ****         0.7015   2.2725   4.5537 LP             1 S1                 0.0000
     41 ****        -1.0981   1.2059  -3.0195 LP             1 S1                 0.0000
@<TRIPOS>BOND
    1    1    2 1     
    2    1   18 1     
    3    1   19 1     
    4    1   20 1     
    5    2   17 2     
    6    2    3 1     
    7    3    4 2     
    8    3   21 1     
    9    4    5 1     
   10    4    6 1     
   11    5   22 1     
   12    5   23 1     
   13    5   24 1     
   14    6    7 1     
   15    6   17 1     
   16    7    8 1     
   17    7   25 1     
   18    7   26 1     
   19    8    9 2     
   20    8   10 am    
   21   10   11 1     
   22   10   27 1     
   23   11   12 1     
   24   11   28 1     
   25   11   29 1     
   26   12   16 1     
   27   12   13 1     
   28   12   30 1     
   29   13   14 1     
   30   13   31 1     
   31   13   32 1     
   32   14   15 1     
   33   14   33 1     
   34   14   34 1     
   35   15   16 1     
   36   16   35 1     
   37   16   36 1     
   38    9   37 1     
   39    9   38 1     
   40   15   39 1     
   41   15   40 1     
   42   17   41 1     
@<TRIPOS>SUBSTRUCTURE
      1 S1             1
@<TRIPOS>SET
LONE_PAIRS      STATIC     ATOMS    <user>   **** ""
5 37 38 39 40 41
DONOR_HYDROGENS      STATIC     ATOMS    <user>   **** ""
1 27
ATOM$BLUE        STATIC     ATOMS    COLORGROUP SYSTEM
5 37 38 39 40 41
ATOM$RED        STATIC     ATOMS    COLORGROUP SYSTEM
1 27
