#       Name:                AV-unprocessed.smi:1093
#       Creating user name   scv26
#       Creation time:       Fri Mar 27 03:27:41 2020


#       File generated by GOLD software.
#

@<TRIPOS>MOLECULE
AV-unprocessed.smi:1093
    50    51     1
SMALL
NO_CHARGES


@<TRIPOS>ATOM
      1 ****        -5.8040   0.1888   2.5747 C.3            1 S1                 0.0000
      2 ****        -5.9543   0.2969   1.0504 C.3            1 S1                 0.0000
      3 ****        -4.7752   0.9269   0.4039 N.4            1 S1                 1.0000
      4 ****        -5.1023   1.4851  -0.9340 C.3            1 S1                 0.0000
      5 ****        -3.9089   2.2555  -1.5220 C.3            1 S1                 0.0000
      6 ****        -2.6597   1.3682  -1.5936 C.3            1 S1                 0.0000
      7 ****        -2.3560   0.7726  -0.2075 C.3            1 S1                 0.0000
      8 ****        -1.2171  -0.1397  -0.2758 N.am           1 S1                 0.0000
      9 ****         0.0701   0.2255  -0.1851 C.2            1 S1                 0.0000
     10 ****         0.4341   1.3917  -0.0372 O.2            1 S1                 0.0000
     11 ****         0.8883  -0.8356  -0.2963 N.am           1 S1                 0.0000
     12 ****         2.3077  -0.8702  -0.2197 C.ar           1 S1                 0.0000
     13 ****         2.9682  -2.0063  -0.7320 C.ar           1 S1                 0.0000
     14 ****         4.3738  -2.0932  -0.6626 C.ar           1 S1                 0.0000
     15 ****         5.1169  -1.0426  -0.0703 C.ar           1 S1                 0.0000
     16 ****         6.5244  -1.0564   0.0384 N.pl3          1 S1                 0.0000
     17 ****         7.2848  -2.1502  -0.5523 C.3            1 S1                 0.0000
     18 ****         7.2159   0.0880   0.6217 C.3            1 S1                 0.0000
     19 ****         4.4366   0.0227   0.4194 N.pl3          1 S1                 1.0000
     20 ****         3.0928   0.1478   0.3721 C.ar           1 S1                 0.0000
     21 ****        -3.5886   0.0310   0.3444 C.3            1 S1                 0.0000
     22 ****        -6.7239  -0.1867   3.0237 H              1 S1                 0.0000
     23 ****        -5.5942   1.1617   3.0199 H              1 S1                 0.0000
     24 ****        -5.0049  -0.4936   2.8618 H              1 S1                 0.0000
     25 ****        -6.1447  -0.6831   0.6107 H              1 S1                 0.0000
     26 ****        -6.8393   0.9021   0.8493 H              1 S1                 0.0000
     27 ****        -5.3972   0.6768  -1.6052 H              1 S1                 0.0000
     28 ****        -5.9562   2.1592  -0.8550 H              1 S1                 0.0000
     29 ****        -4.1587   2.6276  -2.5161 H              1 S1                 0.0000
     30 ****        -3.7003   3.1322  -0.9072 H              1 S1                 0.0000
     31 ****        -2.8204   0.5681  -2.3179 H              1 S1                 0.0000
     32 ****        -1.8113   1.9509  -1.9545 H              1 S1                 0.0000
     33 ****        -2.1196   1.5862   0.4813 H              1 S1                 0.0000
     34 ****        -1.4253  -1.1193  -0.4046 H              1 S1                 0.0000
     35 ****         0.4443  -1.7199  -0.4965 H              1 S1                 0.0000
     36 ****         2.4040  -2.8106  -1.1815 H              1 S1                 0.0000
     37 ****         4.8591  -2.9697  -1.0650 H              1 S1                 0.0000
     38 ****         7.0097  -3.1012  -0.0946 H              1 S1                 0.0000
     39 ****         8.3565  -2.0112  -0.4088 H              1 S1                 0.0000
     40 ****         7.0972  -2.2114  -1.6248 H              1 S1                 0.0000
     41 ****         6.8809   0.2582   1.6454 H              1 S1                 0.0000
     42 ****         7.0235   0.9891   0.0387 H              1 S1                 0.0000
     43 ****         8.2943  -0.0698   0.6472 H              1 S1                 0.0000
     44 ****         2.7078   1.0506   0.8215 H              1 S1                 0.0000
     45 ****        -3.3557  -0.3473   1.3395 H              1 S1                 0.0000
     46 ****        -3.8207  -0.8361  -0.2766 H              1 S1                 0.0000
     47 ****        -4.5210   1.7154   0.9818 H              1 S1                 0.0000
     48 ****         4.9709   0.7759   0.8529 H              1 S1                 0.0000
     49 ****        -0.2447   2.1237   0.0213 LP             1 S1                 0.0000
     50 ****         1.4086   1.6073   0.0244 LP             1 S1                 0.0000
@<TRIPOS>BOND
    1    1    2 1     
    2    1   22 1     
    3    1   23 1     
    4    1   24 1     
    5    2    3 1     
    6    2   25 1     
    7    2   26 1     
    8    3   21 1     
    9    3    4 1     
   10    3   47 1     
   11    4    5 1     
   12    4   27 1     
   13    4   28 1     
   14    5    6 1     
   15    5   29 1     
   16    5   30 1     
   17    6    7 1     
   18    6   31 1     
   19    6   32 1     
   20    7    8 1     
   21    7   21 1     
   22    7   33 1     
   23    8    9 am    
   24    8   34 1     
   25    9   10 2     
   26    9   11 am    
   27   11   12 1     
   28   11   35 1     
   29   12   20 ar    
   30   12   13 ar    
   31   13   14 ar    
   32   13   36 1     
   33   14   15 ar    
   34   14   37 1     
   35   15   16 1     
   36   15   19 ar    
   37   16   17 1     
   38   16   18 1     
   39   17   38 1     
   40   17   39 1     
   41   17   40 1     
   42   18   41 1     
   43   18   42 1     
   44   18   43 1     
   45   19   20 ar    
   46   19   48 1     
   47   20   44 1     
   48   21   45 1     
   49   21   46 1     
   50   10   49 1     
   51   10   50 1     
@<TRIPOS>SUBSTRUCTURE
      1 S1             1
@<TRIPOS>SET
LONE_PAIRS      STATIC     ATOMS    <user>   **** ""
2 49 50
DONOR_HYDROGENS      STATIC     ATOMS    <user>   **** ""
4 47 34 35 48
ATOM$BLUE        STATIC     ATOMS    COLORGROUP SYSTEM
2 49 50
ATOM$RED        STATIC     ATOMS    COLORGROUP SYSTEM
4 47 34 35 48
