AV-unprocessed.smi:1255|AV-procd|sdf|5282|dock9
  -GOLD-   22720 4403D 1   1.00000     0.00000
 Structure written by MMmdl.
 40 41  0  0  0  0  0  0  0  0  1 V2000
  147.5056  140.8020  152.4575 C   0  0  0  0  0  0  0  0  0  0  0  0
  147.2374  141.7094  153.6699 C   0  0  1  0  0  0  0  0  0  0  0  0
  145.7921  141.7600  153.8870 N   0  0  0  0  0  0  0  0  0  0  0  0
  145.1885  142.4022  154.8980 C   0  0  0  0  0  0  0  0  0  0  0  0
  143.8635  142.2581  154.8719 N   0  0  0  0  0  0  0  0  0  0  0  0
  145.7759  143.0521  155.7606 O   0  0  0  0  0  0  0  0  0  0  0  0
  147.9475  141.0985  154.8897 C   0  0  0  0  0  0  0  0  0  0  0  0
  147.6282  139.9781  155.2901 O   0  0  0  0  0  0  0  0  0  0  0  0
  148.9010  141.8663  155.4485 N   0  0  0  0  0  0  0  0  0  0  0  0
  149.7263  141.5828  156.5704 C   0  0  0  0  0  0  0  0  0  0  0  0
  149.6282  140.4132  157.3589 C   0  0  0  0  0  0  0  0  0  0  0  0
  150.5192  140.2391  158.4354 C   0  0  0  0  0  0  0  0  0  0  0  0
  151.4923  141.2321  158.6990 C   0  0  0  0  0  0  0  0  0  0  0  0
  152.3943  141.0781  159.7750 N   0  0  0  0  0  0  0  0  0  0  0  0
  153.4780  140.1076  159.6294 C   0  0  0  0  0  0  0  0  0  0  0  0
  154.1639  139.8621  160.9838 C   0  0  0  0  0  0  0  0  0  0  0  0
  154.6087  141.1008  161.5259 O   0  0  0  0  0  0  0  0  0  0  0  0
  153.5250  141.9927  161.7647 C   0  0  0  0  0  0  0  0  0  0  0  0
  152.8070  142.3114  160.4415 C   0  0  0  0  0  0  0  0  0  0  0  0
  151.5958  142.3418  157.9272 N   0  0  0  0  0  0  0  0  0  0  0  0
  150.7397  142.5054  156.8970 C   0  0  0  0  0  0  0  0  0  0  0  0
  148.5733  140.7295  152.2455 H   0  0  0  0  0  0  0  0  0  0  0  0
  147.0247  141.1972  151.5622 H   0  0  0  0  0  0  0  0  0  0  0  0
  147.1281  139.7901  152.6139 H   0  0  0  0  0  0  0  0  0  0  0  0
  147.6196  142.7122  153.4683 H   0  0  0  0  0  0  0  0  0  0  0  0
  145.2167  141.2484  153.2343 H   0  0  0  0  0  0  0  0  0  0  0  0
  143.2896  142.6988  155.5755 H   0  0  0  0  0  0  0  0  0  0  0  0
  143.4380  141.7100  154.1384 H   0  0  0  0  0  0  0  0  0  0  0  0
  149.0009  142.7937  155.0615 H   0  0  0  0  0  0  0  0  0  0  0  0
  148.9047  139.6403  157.1523 H   0  0  0  0  0  0  0  0  0  0  0  0
  150.4570  139.3402  159.0299 H   0  0  0  0  0  0  0  0  0  0  0  0
  153.0915  139.1628  159.2453 H   0  0  0  0  0  0  0  0  0  0  0  0
  154.2035  140.4827  158.9063 H   0  0  0  0  0  0  0  0  0  0  0  0
  153.4838  139.3700  161.6813 H   0  0  0  0  0  0  0  0  0  0  0  0
  155.0213  139.2013  160.8563 H   0  0  0  0  0  0  0  0  0  0  0  0
  152.8328  141.5560  162.4864 H   0  0  0  0  0  0  0  0  0  0  0  0
  153.9123  142.9087  162.2108 H   0  0  0  0  0  0  0  0  0  0  0  0
  153.4751  142.8621  159.7782 H   0  0  0  0  0  0  0  0  0  0  0  0
  151.9598  142.9630  160.6493 H   0  0  0  0  0  0  0  0  0  0  0  0
  150.8680  143.4073  156.3164 H   0  0  0  0  0  0  0  0  0  0  0  0
  1  2  1  0  0  0  0
  1 22  1  0  0  0  0
  1 23  1  0  0  0  0
  1 24  1  0  0  0  0
  2  3  1  0  0  0  0
  2  7  1  0  0  0  0
  2 25  1  0  0  0  0
  3  4  1  0  0  0  0
  3 26  1  0  0  0  0
  4  5  1  0  0  0  0
  4  6  2  0  0  0  0
  5 27  1  0  0  0  0
  5 28  1  0  0  0  0
  7  8  2  0  0  0  0
  7  9  1  0  0  0  0
  9 10  1  0  0  0  0
  9 29  1  0  0  0  0
 10 21  1  0  0  0  0
 10 11  2  0  0  0  0
 11 12  1  0  0  0  0
 11 30  1  0  0  0  0
 12 13  2  0  0  0  0
 12 31  1  0  0  0  0
 13 14  1  0  0  0  0
 13 20  1  0  0  0  0
 14 19  1  0  0  0  0
 14 15  1  0  0  0  0
 15 16  1  0  0  0  0
 15 32  1  0  0  0  0
 15 33  1  0  0  0  0
 16 17  1  0  0  0  0
 16 34  1  0  0  0  0
 16 35  1  0  0  0  0
 17 18  1  0  0  0  0
 18 19  1  0  0  0  0
 18 36  1  0  0  0  0
 18 37  1  0  0  0  0
 19 38  1  0  0  0  0
 19 39  1  0  0  0  0
 20 21  2  0  0  0  0
 21 40  1  0  0  0  0
M  END
> <s_m_source_file>
AV-unprocessed.smi

> <i_m_source_file_index>
1255

> <i_lp_mmshare_version>
43012

> <i_f3d_flags>
0

> <s_epik_input>
W05IMl1DKD1PKVtOSF1bQ0BASF0oW0NIM10pQyg9TylbTkhdYzFbY0hdW2NIXWMobltjSF0xKU4yW0NIMl1bQ0gyXU9bQ0gyXVtDSDJdMg==

> <s_epik_cmdline>
J2VwaWtfcHl0aG9uJywgJy1waCcsICc3LjAnLCAnLXRuJywgJzgnLCAnLW1hJywgJzIwMCcsICctbWV0YWxfYmluZGluZycsICctaW1hZScsICc8aW5maWxlLm1hZT4nLCAnLW9tYWUnLCAnPG91dGZpbGUubWFlPic=

> <r_lp_tautomer_probability>
1

> <r_epik_Ionization_Penalty>
0.00069351

> <r_epik_Ionization_Penalty_Charging>
0

> <r_epik_Ionization_Penalty_Neutral>
0.00069351

> <r_epik_State_Penalty>
0.000408291

> <r_epik_Charging_Adjusted_Penalty>
0.000408291

> <i_epik_Tot_Q>
0

> <i_epik_Tot_abs_Q>
0

> <r_epik_Metal_State_Penalty>
-0

> <b_epik_Metal_Only>
0

> <s_lp_Force_Field>
OPLS_2005

> <r_lp_Energy>
18.2011

> <b_lp_Chiralities_Consistent>
1

> <s_lp_Variant>
AV-unprocessed.smi:1255-2

> <Gold.Version>
5.8.1

> <Gold.Id.Protein>
6NUR|6NUR_protein|mol2

> <Gold.PLP.Fitness>
41.7149

> <Gold.PLP.PLP>
-30.8432

> <Gold.PLP.part.hbond>
-4.1425

> <Gold.PLP.part.metal>
0.0000

> <Gold.PLP.part.buried>
-1.7635

> <Gold.PLP.part.nonpolar>
-25.2858

> <Gold.PLP.part.repulsive>
0.3155

> <Gold.PLP.ligand.clash>
0.0000

> <Gold.PLP.ligand.torsion>
0.5626

> <Gold.PLP.Chemscore.Hbond>
2.9760

> <Gold.PLP.Chemscore.CHOScore>
0.9038

> <Gold.PLP.Chemscore.Metal>
0.0000

> <Gold.Chemscore.Hbonds>
donor molecule, donor type, donor heavy atom, donor atom, acceptor molecule, acceptor atom, score
      L1  H     3    26       P1 10175  0.90
      L1  H     5    28       P1 10175  0.50
      L1  H     9    29       P1  8028  0.80
      L1  C    21    40       P1  8028  0.81

> <Gold.PLP.Chemscore.Internal.Correction>
0.3575

> <Gold.Rescore>
     Score         DG    S(hbond)    S(metal)    S(lipo)     H(rot)  DE(clash)    DE(int)     intcor
     12.26     -17.27       2.39        0.00      74.20       1.91       3.18       1.83       ----

> <Gold.Chemscore.Fitness>
12.2646

> <Gold.Chemscore.DG>
-17.2698

> <Gold.Chemscore.ZeroCoef>
-5.4800

> <Gold.Chemscore.Hbond>
2.3921

> <Gold.Chemscore.Metal>
0.0000

> <Gold.Chemscore.Lipo>
74.1995

> <Gold.Chemscore.Internal_Hbond>
0.0000

> <Gold.Chemscore.DEClash>
3.1755

> <Gold.Chemscore.DEInternal>
1.8296

> <Gold.Chemscore.Rot>
1.9067

> <Gold.Chemscore.Internal.Correction>
   9.000000E+99

> <Gold.Chemscore.Hbonds>
donor molecule, donor type, donor heavy atom, donor atom, acceptor molecule, acceptor atom, score
      L1  H     3    26       P1 10175  0.18
      L1  H     5    28       P1 10175  0.02
      L1  H     9    29       P1  8028  0.76

> <Gold.Chemscore.Hbond.Weighted>
-7.9895

> <Gold.Chemscore.Metal.Weighted>
-0.0000

> <Gold.Chemscore.Lipo.Weighted>
-8.6813

> <Gold.Chemscore.Internal_Hbond.Weighted>
0.0000

> <Gold.Chemscore.DEClash.Weighted>
3.1755

> <Gold.Chemscore.DEInternal.Weighted>
1.8296

> <Gold.Chemscore.Rot.Weighted>
4.8811

> <Gold.Chemscore.Internal.Correction.Weighted>
   9.000000E+99

> <Gold.Protein.RotatedTorsions>
[ 6907 6896 6895 6894 ] final  -58.64 input  -60.11 | X-H torsion
[ 7974 7965 7964 7962 ] final -169.41 input  175.53 | X-H torsion
[ 8008 7997 7996 7995 ] final  -98.84 input   59.86 | X-H torsion
[ 10167 10162 10161 10158 ] final -161.44 input  -65.29 | X-H torsion
[ 10718 10713 10712 10709 ] final -169.11 input   66.30 | X-H torsion
[ 10763 10752 10751 10750 ] final  -77.18 input  -60.55 | X-H torsion
[ 11005 11000 10999 10996 ] final  168.76 input  -57.11 | X-H torsion

> <Gold.Protein.ActiveResidues>
 VAL166  LYS551  ARG553  GLY616  TRP617  ASP618  TYR619  PRO620  LYS621  CYS622 
 ASP623  PHE694  ASN695  SER759  ASP760  ASP761  ALA762  ILE779  LEU786  VAL792 
 PHE793  MET794  SER795  GLU796  ALA797  LYS798  CYS799  TRP800  GLU811  SER814 

> <Gold.Protein.RotatedAtoms>
  150.7991  134.7072  159.6583 H   0  0  0  0  0  0  0  0  0  0  0  0  # atno 6907 bound_to 6896
  152.4106  134.6127  160.0039 H   0  0  0  0  0  0  0  0  0  0  0  0  # atno 6908 bound_to 6896
  151.6371  133.3291  159.3158 H   0  0  0  0  0  0  0  0  0  0  0  0  # atno 6909 bound_to 6896
  144.7186  140.2225  143.6314 H   0  0  0  0  0  0  0  0  0  0  0  0  # atno 7974 bound_to 7965
  154.8067  140.0452  157.1312 H   0  0  0  0  0  0  0  0  0  0  0  0  # atno 8008 bound_to 7997
  154.9416  140.3053  155.5098 H   0  0  0  0  0  0  0  0  0  0  0  0  # atno 8009 bound_to 7997
  156.2967  140.2304  156.4486 H   0  0  0  0  0  0  0  0  0  0  0  0  # atno 8010 bound_to 7997
  139.6465  144.0163  152.2131 H   0  0  0  0  0  0  0  0  0  0  0  0  # atno 10167 bound_to 10162
  156.7067  130.9217  151.3085 H   0  0  0  0  0  0  0  0  0  0  0  0  # atno 10718 bound_to 10713
  154.5096  135.5772  153.6594 H   0  0  0  0  0  0  0  0  0  0  0  0  # atno 10763 bound_to 10752
  152.9894  135.6155  154.2897 H   0  0  0  0  0  0  0  0  0  0  0  0  # atno 10764 bound_to 10752
  154.2810  135.2851  155.2676 H   0  0  0  0  0  0  0  0  0  0  0  0  # atno 10765 bound_to 10752
  140.2906  134.7676  157.3835 H   0  0  0  0  0  0  0  0  0  0  0  0  # atno 11005 bound_to 11000
  145.8488  139.2165  143.1784 LP  0  0  0  0  0  0  0  0  0  0  0  0  # atno 17320 bound_to 7965
  146.0280  140.8285  142.9890 LP  0  0  0  0  0  0  0  0  0  0  0  0  # atno 17321 bound_to 7965
  139.9866  144.6391  150.7852 LP  0  0  0  0  0  0  0  0  0  0  0  0  # atno 17342 bound_to 10162
  140.7517  143.2977  151.3161 LP  0  0  0  0  0  0  0  0  0  0  0  0  # atno 17343 bound_to 10162
  157.6952  130.9274  150.0624 LP  0  0  0  0  0  0  0  0  0  0  0  0  # atno 17370 bound_to 10713
  156.1690  130.3646  149.9192 LP  0  0  0  0  0  0  0  0  0  0  0  0  # atno 17371 bound_to 10713
  140.1199  134.5234  155.8193 LP  0  0  0  0  0  0  0  0  0  0  0  0  # atno 17394 bound_to 11000
  141.2147  133.6752  156.6845 LP  0  0  0  0  0  0  0  0  0  0  0  0  # atno 17395 bound_to 11000

$$$$
