AV-unprocessed.smi:1800|AV-procd|sdf|7263|dock9
  -GOLD-   22720 8513D 1   1.00000     0.00000
 Structure written by MMmdl.
 36 37  0  0  0  0  0  0  0  0  1 V2000
  149.8380  143.0727  158.4605 C   0  0  0  0  0  0  0  0  0  0  0  0
  151.0250  142.1439  158.1755 C   0  0  2  0  0  0  0  0  0  0  0  0
  152.3738  142.7847  158.5545 C   0  0  0  0  0  0  0  0  0  0  0  0
  152.5308  142.9355  159.9910 N   0  0  0  0  0  0  0  0  0  0  0  0
  153.0084  142.0156  160.9007 C   0  0  0  0  0  0  0  0  0  0  0  0
  152.9837  142.6088  162.1302 C   0  0  0  0  0  0  0  0  0  0  0  0
  152.4636  143.9068  161.8682 C   0  0  0  0  0  0  0  0  0  0  0  0
  152.1906  144.0986  160.5876 N   0  0  0  0  0  0  0  0  0  0  0  0
  151.0210  141.7785  156.7556 N   0  0  0  0  0  0  0  0  0  0  0  0
  151.4756  140.1773  156.3042 S   0  0  0  0  0  0  0  0  0  0  0  0
  151.3845  140.0910  154.8382 O   0  0  0  0  0  0  0  0  0  0  0  0
  152.7501  139.8848  156.9778 O   0  0  0  0  0  0  0  0  0  0  0  0
  150.1212  139.1615  157.0664 C   0  0  0  0  0  0  0  0  0  0  0  0
  150.1730  139.2311  158.5950 C   0  0  0  0  0  0  0  0  0  0  0  0
  151.2494  138.2175  158.9905 C   0  0  0  0  0  0  0  0  0  0  0  0
  151.2156  137.1309  157.9048 C   0  0  0  0  0  0  0  0  0  0  0  0
  150.3114  137.6664  156.7838 C   0  0  0  0  0  0  0  0  0  0  0  0
  149.7942  143.3383  159.5169 H   0  0  0  0  0  0  0  0  0  0  0  0
  148.8932  142.5927  158.2030 H   0  0  0  0  0  0  0  0  0  0  0  0
  149.9106  143.9979  157.8878 H   0  0  0  0  0  0  0  0  0  0  0  0
  150.8893  141.2420  158.7742 H   0  0  0  0  0  0  0  0  0  0  0  0
  153.2043  142.1965  158.1601 H   0  0  0  0  0  0  0  0  0  0  0  0
  152.4548  143.7756  158.1060 H   0  0  0  0  0  0  0  0  0  0  0  0
  153.3291  141.0294  160.5990 H   0  0  0  0  0  0  0  0  0  0  0  0
  153.2919  142.1811  163.0725 H   0  0  0  0  0  0  0  0  0  0  0  0
  152.2786  144.7106  162.5654 H   0  0  0  0  0  0  0  0  0  0  0  0
  150.1529  142.0607  156.3014 H   0  0  0  0  0  0  0  0  0  0  0  0
  149.1693  139.5363  156.6892 H   0  0  0  0  0  0  0  0  0  0  0  0
  150.3724  140.2308  158.9808 H   0  0  0  0  0  0  0  0  0  0  0  0
  149.2119  138.9138  159.0020 H   0  0  0  0  0  0  0  0  0  0  0  0
  152.2266  138.7023  158.9918 H   0  0  0  0  0  0  0  0  0  0  0  0
  151.0839  137.8124  159.9892 H   0  0  0  0  0  0  0  0  0  0  0  0
  152.2222  136.9323  157.5346 H   0  0  0  0  0  0  0  0  0  0  0  0
  150.8226  136.1921  158.2963 H   0  0  0  0  0  0  0  0  0  0  0  0
  149.3430  137.1673  156.8358 H   0  0  0  0  0  0  0  0  0  0  0  0
  150.7154  137.4723  155.7905 H   0  0  0  0  0  0  0  0  0  0  0  0
  1  2  1  0  0  0  0
  1 18  1  0  0  0  0
  1 19  1  0  0  0  0
  1 20  1  0  0  0  0
  2  3  1  0  0  0  0
  2  9  1  0  0  0  0
  2 21  1  0  0  0  0
  3  4  1  0  0  0  0
  3 22  1  0  0  0  0
  3 23  1  0  0  0  0
  4  8  1  0  0  0  0
  4  5  1  0  0  0  0
  5  6  2  0  0  0  0
  5 24  1  0  0  0  0
  6  7  1  0  0  0  0
  6 25  1  0  0  0  0
  7  8  2  0  0  0  0
  7 26  1  0  0  0  0
  9 10  1  0  0  0  0
  9 27  1  0  0  0  0
 10 11  2  0  0  0  0
 10 12  2  0  0  0  0
 10 13  1  0  0  0  0
 13 17  1  0  0  0  0
 13 14  1  0  0  0  0
 13 28  1  0  0  0  0
 14 15  1  0  0  0  0
 14 29  1  0  0  0  0
 14 30  1  0  0  0  0
 15 16  1  0  0  0  0
 15 31  1  0  0  0  0
 15 32  1  0  0  0  0
 16 17  1  0  0  0  0
 16 33  1  0  0  0  0
 16 34  1  0  0  0  0
 17 35  1  0  0  0  0
 17 36  1  0  0  0  0
M  END
> <s_m_source_file>
AV-unprocessed.smi

> <i_m_source_file_index>
1800

> <i_lp_mmshare_version>
43012

> <i_f3d_flags>
0

> <s_epik_input>
bjFbY0hdW2NIXVtjSF1uMVtDSDJdW0NAQEhdKFtDSDNdKVtOSF1TKD1PKSg9TylbQ0hdMltDSDJdW0NIMl1bQ0gyXVtDSDJdMg==

> <s_epik_cmdline>
J2VwaWtfcHl0aG9uJywgJy1waCcsICc3LjAnLCAnLXRuJywgJzgnLCAnLW1hJywgJzIwMCcsICctbWV0YWxfYmluZGluZycsICctaW1hZScsICc8aW5maWxlLm1hZT4nLCAnLW9tYWUnLCAnPG91dGZpbGUubWFlPic=

> <r_lp_tautomer_probability>
1

> <r_epik_Ionization_Penalty>
1.44925e-05

> <r_epik_Ionization_Penalty_Charging>
0

> <r_epik_Ionization_Penalty_Neutral>
1.44925e-05

> <r_epik_State_Penalty>
-0

> <r_epik_Charging_Adjusted_Penalty>
0

> <i_epik_Tot_Q>
0

> <i_epik_Tot_abs_Q>
0

> <r_epik_Metal_State_Penalty>
0.00862991

> <b_epik_Metal_Only>
0

> <s_lp_Force_Field>
OPLS_2005

> <r_lp_Energy>
14.2601

> <b_lp_Chiralities_Consistent>
1

> <s_lp_Variant>
AV-unprocessed.smi:1800-1

> <Gold.Version>
5.8.1

> <Gold.Id.Protein>
6NUR|6NUR_protein|mol2

> <Gold.PLP.Fitness>
37.1872

> <Gold.PLP.PLP>
-33.0749

> <Gold.PLP.part.hbond>
-2.0000

> <Gold.PLP.part.metal>
0.0000

> <Gold.PLP.part.buried>
-4.7071

> <Gold.PLP.part.nonpolar>
-24.7405

> <Gold.PLP.part.repulsive>
0.1519

> <Gold.PLP.ligand.clash>
0.0000

> <Gold.PLP.ligand.torsion>
1.0880

> <Gold.PLP.Chemscore.Hbond>
2.0000

> <Gold.PLP.Chemscore.CHOScore>
0.0000

> <Gold.PLP.Chemscore.Metal>
0.0000

> <Gold.Chemscore.Hbonds>
donor molecule, donor type, donor heavy atom, donor atom, acceptor molecule, acceptor atom, score
      P1  H  7989  7998       L1    11  1.00
      P1  H  7997  8009       L1    12  1.00

> <Gold.PLP.Chemscore.Internal.Correction>
0.2884

> <Gold.Rescore>
     Score         DG    S(hbond)    S(metal)    S(lipo)     H(rot)  DE(clash)    DE(int)     intcor
     14.55     -16.48       1.99        0.00      75.63       1.76       0.03       1.90       ----

> <Gold.Chemscore.Fitness>
14.5489

> <Gold.Chemscore.DG>
-16.4817

> <Gold.Chemscore.ZeroCoef>
-5.4800

> <Gold.Chemscore.Hbond>
1.9923

> <Gold.Chemscore.Metal>
0.0000

> <Gold.Chemscore.Lipo>
75.6341

> <Gold.Chemscore.Internal_Hbond>
0.0000

> <Gold.Chemscore.DEClash>
0.0324

> <Gold.Chemscore.DEInternal>
1.9003

> <Gold.Chemscore.Rot>
1.7585

> <Gold.Chemscore.Internal.Correction>
   9.000000E+99

> <Gold.Chemscore.Hbonds>
donor molecule, donor type, donor heavy atom, donor atom, acceptor molecule, acceptor atom, score
      P1  H  7989  7998       L1    11  0.96
      P1  H  7997  8009       L1    12  0.99

> <Gold.Chemscore.Hbond.Weighted>
-6.6544

> <Gold.Chemscore.Metal.Weighted>
-0.0000

> <Gold.Chemscore.Lipo.Weighted>
-8.8492

> <Gold.Chemscore.Internal_Hbond.Weighted>
0.0000

> <Gold.Chemscore.DEClash.Weighted>
0.0324

> <Gold.Chemscore.DEInternal.Weighted>
1.9003

> <Gold.Chemscore.Rot.Weighted>
4.5019

> <Gold.Chemscore.Internal.Correction.Weighted>
   9.000000E+99

> <Gold.Protein.RotatedTorsions>
[ 6907 6896 6895 6894 ] final  -78.03 input  -60.11 | X-H torsion
[ 7974 7965 7964 7962 ] final   58.28 input  175.53 | X-H torsion
[ 8008 7997 7996 7995 ] final -167.73 input   59.86 | X-H torsion
[ 10167 10162 10161 10158 ] final  119.14 input  -65.29 | X-H torsion
[ 10718 10713 10712 10709 ] final   20.28 input   66.30 | X-H torsion
[ 10763 10752 10751 10750 ] final  177.84 input  -60.55 | X-H torsion
[ 11005 11000 10999 10996 ] final    1.18 input  -57.11 | X-H torsion

> <Gold.Protein.ActiveResidues>
 VAL166  LYS551  ARG553  GLY616  TRP617  ASP618  TYR619  PRO620  LYS621  CYS622 
 ASP623  PHE694  ASN695  SER759  ASP760  ASP761  ALA762  ILE779  LEU786  VAL792 
 PHE793  MET794  SER795  GLU796  ALA797  LYS798  CYS799  TRP800  GLU811  SER814 

> <Gold.Protein.RotatedAtoms>
  150.6983  134.4333  159.5258 H   0  0  0  0  0  0  0  0  0  0  0  0  # atno 6907 bound_to 6896
  152.2056  134.8546  160.0512 H   0  0  0  0  0  0  0  0  0  0  0  0  # atno 6908 bound_to 6896
  151.9450  133.3614  159.4016 H   0  0  0  0  0  0  0  0  0  0  0  0  # atno 6909 bound_to 6896
  145.9198  139.3720  143.0485 H   0  0  0  0  0  0  0  0  0  0  0  0  # atno 7974 bound_to 7965
  155.8817  140.1010  157.1480 H   0  0  0  0  0  0  0  0  0  0  0  0  # atno 8008 bound_to 7997
  154.4006  140.1327  156.4269 H   0  0  0  0  0  0  0  0  0  0  0  0  # atno 8009 bound_to 7997
  155.7635  140.3462  155.5212 H   0  0  0  0  0  0  0  0  0  0  0  0  # atno 8010 bound_to 7997
  139.6066  144.7071  151.2940 H   0  0  0  0  0  0  0  0  0  0  0  0  # atno 10167 bound_to 10162
  157.1223  130.6555  149.5927 H   0  0  0  0  0  0  0  0  0  0  0  0  # atno 10718 bound_to 10713
  154.4998  135.2783  155.1430 H   0  0  0  0  0  0  0  0  0  0  0  0  # atno 10763 bound_to 10752
  154.3068  135.6237  153.5452 H   0  0  0  0  0  0  0  0  0  0  0  0  # atno 10764 bound_to 10752
  152.9900  135.5710  154.5438 H   0  0  0  0  0  0  0  0  0  0  0  0  # atno 10765 bound_to 10752
  140.6183  133.9684  155.8212 H   0  0  0  0  0  0  0  0  0  0  0  0  # atno 11005 bound_to 11000
  145.8564  140.9500  143.0723 LP  0  0  0  0  0  0  0  0  0  0  0  0  # atno 17320 bound_to 7965
  144.6752  140.0473  143.7479 LP  0  0  0  0  0  0  0  0  0  0  0  0  # atno 17321 bound_to 7965
  140.7289  143.6923  150.7912 LP  0  0  0  0  0  0  0  0  0  0  0  0  # atno 17342 bound_to 10162
  140.0510  143.5250  152.2674 LP  0  0  0  0  0  0  0  0  0  0  0  0  # atno 17343 bound_to 10162
  155.9826  130.4840  150.6888 LP  0  0  0  0  0  0  0  0  0  0  0  0  # atno 17370 bound_to 10713
  157.4465  131.0867  151.0890 LP  0  0  0  0  0  0  0  0  0  0  0  0  # atno 17371 bound_to 10713
  141.0760  134.0134  157.3457 LP  0  0  0  0  0  0  0  0  0  0  0  0  # atno 17394 bound_to 11000
  139.9163  135.0197  156.7895 LP  0  0  0  0  0  0  0  0  0  0  0  0  # atno 17395 bound_to 11000

$$$$
