AV-unprocessed.smi:2820|AV-procd|sdf|10855|dock3
  -GOLD-   2272015303D 1   1.00000     0.00000
 Structure written by MMmdl.
 30 31  0  0  0  0  0  0  0  0  2 V2000
  148.0664  138.7319  153.9516 C   0  0  0  0  0  0  0  0  0  0  0  0
  149.2356  139.5519  153.6801 N   0  0  0  0  0  0  0  0  0  0  0  0
  149.8238  140.3193  154.6945 C   0  0  0  0  0  0  0  0  0  0  0  0
  150.7994  139.7230  155.5226 C   0  0  0  0  0  0  0  0  0  0  0  0
  151.4029  140.4780  156.5493 C   0  0  0  0  0  0  0  0  0  0  0  0
  151.0199  141.8263  156.7339 C   0  0  0  0  0  0  0  0  0  0  0  0
  151.5603  142.6551  157.7258 N   0  0  0  0  0  0  0  0  0  0  0  0
  150.5492  143.4134  158.4514 C   0  0  0  0  0  0  0  0  0  0  0  0
  151.2243  144.3744  159.4453 C   0  0  0  0  0  0  0  0  0  0  0  0
  152.0788  143.6366  160.3142 O   0  0  0  0  0  0  0  0  0  0  0  0
  153.1119  142.9613  159.6028 C   0  0  0  0  0  0  0  0  0  0  0  0
  152.4858  141.9629  158.6139 C   0  0  0  0  0  0  0  0  0  0  0  0
  150.0828  142.3617  155.9216 N   0  3  0  0  0  0  0  0  0  0  0  0
  149.4815  141.6725  154.9275 C   0  0  0  0  0  0  0  0  0  0  0  0
  147.7572  138.2147  153.0433 H   0  0  0  0  0  0  0  0  0  0  0  0
  147.2322  139.3457  154.2928 H   0  0  0  0  0  0  0  0  0  0  0  0
  148.2865  137.9809  154.7110 H   0  0  0  0  0  0  0  0  0  0  0  0
  149.6189  139.5624  152.7455 H   0  0  0  0  0  0  0  0  0  0  0  0
  151.0863  138.6918  155.3752 H   0  0  0  0  0  0  0  0  0  0  0  0
  152.1489  140.0227  157.1842 H   0  0  0  0  0  0  0  0  0  0  0  0
  149.9325  143.9752  157.7486 H   0  0  0  0  0  0  0  0  0  0  0  0
  149.8889  142.7311  158.9884 H   0  0  0  0  0  0  0  0  0  0  0  0
  151.7962  145.1407  158.9195 H   0  0  0  0  0  0  0  0  0  0  0  0
  150.4714  144.8908  160.0407 H   0  0  0  0  0  0  0  0  0  0  0  0
  153.7417  143.6840  159.0813 H   0  0  0  0  0  0  0  0  0  0  0  0
  153.7500  142.4372  160.3143 H   0  0  0  0  0  0  0  0  0  0  0  0
  151.9589  141.1814  159.1632 H   0  0  0  0  0  0  0  0  0  0  0  0
  153.2672  141.4769  158.0281 H   0  0  0  0  0  0  0  0  0  0  0  0
  148.7515  142.2297  154.3588 H   0  0  0  0  0  0  0  0  0  0  0  0
  149.8152  143.3358  156.0657 H   0  0  0  0  0  0  0  0  0  0  0  0
  1  2  1  0  0  0  0
  1 15  1  0  0  0  0
  1 16  1  0  0  0  0
  1 17  1  0  0  0  0
  2  3  1  0  0  0  0
  2 18  1  0  0  0  0
  3 14  1  0  0  0  0
  3  4  2  0  0  0  0
  4  5  1  0  0  0  0
  4 19  1  0  0  0  0
  5  6  2  0  0  0  0
  5 20  1  0  0  0  0
  6  7  1  0  0  0  0
  6 13  1  0  0  0  0
  7 12  1  0  0  0  0
  7  8  1  0  0  0  0
  8  9  1  0  0  0  0
  8 21  1  0  0  0  0
  8 22  1  0  0  0  0
  9 10  1  0  0  0  0
  9 23  1  0  0  0  0
  9 24  1  0  0  0  0
 10 11  1  0  0  0  0
 11 12  1  0  0  0  0
 11 25  1  0  0  0  0
 11 26  1  0  0  0  0
 12 27  1  0  0  0  0
 12 28  1  0  0  0  0
 13 14  2  0  0  0  0
 13 30  1  0  0  0  0
 14 29  1  0  0  0  0
M  CHG  1  13   1
M  END
> <s_m_source_file>
AV-unprocessed.smi

> <i_m_source_file_index>
2820

> <i_lp_mmshare_version>
43012

> <i_f3d_flags>
0

> <s_epik_input>
W0NIM11bTkhdYzFbY0hdW2NIXWMobltjSF0xKU4yW0NIMl1bQ0gyXU9bQ0gyXVtDSDJdMg==

> <s_epik_cmdline>
J2VwaWtfcHl0aG9uJywgJy1waCcsICc3LjAnLCAnLXRuJywgJzgnLCAnLW1hJywgJzIwMCcsICctbWV0YWxfYmluZGluZycsICctaW1hZScsICc8aW5maWxlLm1hZT4nLCAnLW9tYWUnLCAnPG91dGZpbGUubWFlPic=

> <r_lp_tautomer_probability>
0.999846

> <r_epik_Ionization_Penalty>
1.60145

> <r_epik_Ionization_Penalty_Charging>
1.60145

> <r_epik_Ionization_Penalty_Neutral>
8.44735e-08

> <r_epik_State_Penalty>
1.69965

> <r_epik_Charging_Adjusted_Penalty>
3.3011

> <i_epik_Tot_Q>
1

> <i_epik_Tot_abs_Q>
1

> <r_epik_Metal_State_Penalty>
5.75781

> <b_epik_Metal_Only>
0

> <s_lp_Force_Field>
OPLS_2005

> <r_lp_Energy>
26.3697

> <b_lp_Chiralities_Consistent>
1

> <s_lp_Variant>
AV-unprocessed.smi:2820-2

> <Gold.Version>
5.8.1

> <Gold.Id.Protein>
6NUR|6NUR_protein|mol2

> <Gold.PLP.Fitness>
35.6045

> <Gold.PLP.PLP>
-28.3751

> <Gold.PLP.part.hbond>
-2.0000

> <Gold.PLP.part.metal>
0.0000

> <Gold.PLP.part.buried>
-2.7926

> <Gold.PLP.part.nonpolar>
-23.5043

> <Gold.PLP.part.repulsive>
0.3732

> <Gold.PLP.ligand.clash>
0.0000

> <Gold.PLP.ligand.torsion>
0.9326

> <Gold.PLP.Chemscore.Hbond>
3.0000

> <Gold.PLP.Chemscore.CHOScore>
0.0000

> <Gold.PLP.Chemscore.Metal>
0.0000

> <Gold.Chemscore.Hbonds>
donor molecule, donor type, donor heavy atom, donor atom, acceptor molecule, acceptor atom, score
      L1  H     2    18       P1  7957  1.00
      L1  H    13    30       P1  8028  2.00

> <Gold.PLP.Chemscore.Internal.Correction>
0.0946

> <Gold.Rescore>
     Score         DG    S(hbond)    S(metal)    S(lipo)     H(rot)  DE(clash)    DE(int)     intcor
     16.78     -17.51       1.98        0.00      68.10       1.00       0.01       0.72       ----

> <Gold.Chemscore.Fitness>
16.7810

> <Gold.Chemscore.DG>
-17.5113

> <Gold.Chemscore.ZeroCoef>
-5.4800

> <Gold.Chemscore.Hbond>
1.9830

> <Gold.Chemscore.Metal>
0.0000

> <Gold.Chemscore.Lipo>
68.1020

> <Gold.Chemscore.Internal_Hbond>
0.0000

> <Gold.Chemscore.DEClash>
0.0149

> <Gold.Chemscore.DEInternal>
0.7155

> <Gold.Chemscore.Rot>
1.0000

> <Gold.Chemscore.Internal.Correction>
   9.000000E+99

> <Gold.Chemscore.Hbonds>
donor molecule, donor type, donor heavy atom, donor atom, acceptor molecule, acceptor atom, score
      L1  H     2    18       P1  7957  0.97
      L1  H    13    30       P1  8028  0.96

> <Gold.Chemscore.Hbond.Weighted>
-6.6234

> <Gold.Chemscore.Metal.Weighted>
-0.0000

> <Gold.Chemscore.Lipo.Weighted>
-7.9679

> <Gold.Chemscore.Internal_Hbond.Weighted>
0.0000

> <Gold.Chemscore.DEClash.Weighted>
0.0149

> <Gold.Chemscore.DEInternal.Weighted>
0.7155

> <Gold.Chemscore.Rot.Weighted>
2.5600

> <Gold.Chemscore.Internal.Correction.Weighted>
   9.000000E+99

> <Gold.Protein.RotatedTorsions>
[ 6907 6896 6895 6894 ] final  -48.70 input  -60.11 | X-H torsion
[ 7974 7965 7964 7962 ] final   36.83 input  175.53 | X-H torsion
[ 8008 7997 7996 7995 ] final  -50.23 input   59.86 | X-H torsion
[ 10167 10162 10161 10158 ] final  -86.77 input  -65.29 | X-H torsion
[ 10718 10713 10712 10709 ] final  147.01 input   66.30 | X-H torsion
[ 10763 10752 10751 10750 ] final    5.08 input  -60.55 | X-H torsion
[ 11005 11000 10999 10996 ] final -124.98 input  -57.11 | X-H torsion

> <Gold.Protein.ActiveResidues>
 VAL166  LYS551  ARG553  GLY616  TRP617  ASP618  TYR619  PRO620  LYS621  CYS622 
 ASP623  PHE694  ASN695  SER759  ASP760  ASP761  ALA762  ILE779  LEU786  VAL792 
 PHE793  MET794  SER795  GLU796  ALA797  LYS798  CYS799  TRP800  GLU811  SER814 

> <Gold.Protein.RotatedAtoms>
  150.8879  134.8279  159.7272 H   0  0  0  0  0  0  0  0  0  0  0  0  # atno 6907 bound_to 6896
  152.4819  134.4694  159.9640 H   0  0  0  0  0  0  0  0  0  0  0  0  # atno 6908 bound_to 6896
  151.4760  133.3519  159.2866 H   0  0  0  0  0  0  0  0  0  0  0  0  # atno 6909 bound_to 6896
  146.1183  139.5969  142.9307 H   0  0  0  0  0  0  0  0  0  0  0  0  # atno 7974 bound_to 7965
  154.4058  140.1277  156.4632 H   0  0  0  0  0  0  0  0  0  0  0  0  # atno 8008 bound_to 7997
  155.7253  140.3492  155.5014 H   0  0  0  0  0  0  0  0  0  0  0  0  # atno 8009 bound_to 7997
  155.9177  140.1047  157.1221 H   0  0  0  0  0  0  0  0  0  0  0  0  # atno 8010 bound_to 7997
  140.3909  143.2705  151.9265 H   0  0  0  0  0  0  0  0  0  0  0  0  # atno 10167 bound_to 10162
  157.3262  131.0912  151.1200 H   0  0  0  0  0  0  0  0  0  0  0  0  # atno 10718 bound_to 10713
  153.2636  135.6925  153.7553 H   0  0  0  0  0  0  0  0  0  0  0  0  # atno 10763 bound_to 10752
  153.6603  135.3361  155.3126 H   0  0  0  0  0  0  0  0  0  0  0  0  # atno 10764 bound_to 10752
  154.8439  135.4475  154.1634 H   0  0  0  0  0  0  0  0  0  0  0  0  # atno 10765 bound_to 10752
  140.9798  134.0689  157.3777 H   0  0  0  0  0  0  0  0  0  0  0  0  # atno 11005 bound_to 11000
  145.5521  141.0412  143.2273 LP  0  0  0  0  0  0  0  0  0  0  0  0  # atno 17320 bound_to 7965
  144.7573  139.7043  143.7249 LP  0  0  0  0  0  0  0  0  0  0  0  0  # atno 17321 bound_to 7965
  139.4789  144.5728  151.8060 LP  0  0  0  0  0  0  0  0  0  0  0  0  # atno 17342 bound_to 10162
  140.4840  144.1408  150.5937 LP  0  0  0  0  0  0  0  0  0  0  0  0  # atno 17343 bound_to 10162
  157.2466  130.6594  149.5913 LP  0  0  0  0  0  0  0  0  0  0  0  0  # atno 17370 bound_to 10713
  155.9691  130.4551  150.5877 LP  0  0  0  0  0  0  0  0  0  0  0  0  # atno 17371 bound_to 10713
  139.8945  135.0136  156.6956 LP  0  0  0  0  0  0  0  0  0  0  0  0  # atno 17394 bound_to 11000
  140.7203  133.9146  155.8143 LP  0  0  0  0  0  0  0  0  0  0  0  0  # atno 17395 bound_to 11000

$$$$
