AV-unprocessed.smi:160|AV-procd|sdf|1353|dock4
  -GOLD-   2262019 53D 1   1.00000     0.00000
 Structure written by MMmdl.
 29 30  0  0  0  0  0  0  0  0  1 V2000
  147.3844  135.0005  160.3410 N   0  0  0  0  0  0  0  0  0  0  0  0
  147.7091  136.2639  160.0472 C   0  0  0  0  0  0  0  0  0  0  0  0
  147.2750  137.2214  160.6858 O   0  0  0  0  0  0  0  0  0  0  0  0
  148.6426  136.4560  158.8840 C   0  0  0  0  0  0  0  0  0  0  0  0
  149.4081  135.4262  158.4157 N   0  0  0  0  0  0  0  0  0  0  0  0
  150.0329  136.0612  157.4327 C   0  0  0  0  0  0  0  0  0  0  0  0
  149.6869  137.3459  157.3026 N   0  0  0  0  0  0  0  0  0  0  0  0
  150.1697  138.3722  156.3205 C   0  0  2  0  0  0  0  0  0  0  0  0
  149.5294  139.5825  156.5942 O   0  0  0  0  0  0  0  0  0  0  0  0
  148.4923  139.8042  155.6444 C   0  0  1  0  0  0  0  0  0  0  0  0
  148.0959  141.2900  155.5874 C   0  0  0  0  0  0  0  0  0  0  0  0
  149.2502  142.0970  155.4902 O   0  0  0  0  0  0  0  0  0  0  0  0
  149.0930  139.2273  154.3549 C   0  0  1  0  0  0  0  0  0  0  0  0
  149.9733  140.1540  153.7442 O   0  0  0  0  0  0  0  0  0  0  0  0
  149.8667  138.0080  154.8459 C   0  0  2  0  0  0  0  0  0  0  0  0
  149.0884  136.8353  154.6778 O   0  0  0  0  0  0  0  0  0  0  0  0
  148.7662  137.6281  158.2590 N   0  0  0  0  0  0  0  0  0  0  0  0
  151.2361  138.4644  156.5295 H   0  0  0  0  0  0  0  0  0  0  0  0
  147.6244  139.1995  155.9129 H   0  0  0  0  0  0  0  0  0  0  0  0
  148.3208  138.9705  153.6282 H   0  0  0  0  0  0  0  0  0  0  0  0
  150.8045  137.8735  154.3052 H   0  0  0  0  0  0  0  0  0  0  0  0
  146.7611  134.8064  161.1109 H   0  0  0  0  0  0  0  0  0  0  0  0
  147.7667  134.2469  159.7876 H   0  0  0  0  0  0  0  0  0  0  0  0
  150.7555  135.5787  156.7913 H   0  0  0  0  0  0  0  0  0  0  0  0
  147.4229  141.4917  154.7532 H   0  0  0  0  0  0  0  0  0  0  0  0
  147.5768  141.5754  156.5027 H   0  0  0  0  0  0  0  0  0  0  0  0
  148.9807  142.9984  155.4019 H   0  0  0  0  0  0  0  0  0  0  0  0
  149.9944  139.9816  152.8153 H   0  0  0  0  0  0  0  0  0  0  0  0
  148.8533  136.7581  153.7659 H   0  0  0  0  0  0  0  0  0  0  0  0
  1  2  1  0  0  0  0
  1 22  1  0  0  0  0
  1 23  1  0  0  0  0
  2  3  2  0  0  0  0
  2  4  1  0  0  0  0
  4 17  2  0  0  0  0
  4  5  1  0  0  0  0
  5  6  2  0  0  0  0
  6  7  1  0  0  0  0
  6 24  1  0  0  0  0
  7  8  1  0  0  0  0
  7 17  1  0  0  0  0
  8 18  1  0  0  0  0
  8 15  1  0  0  0  0
  8  9  1  0  0  0  0
  9 10  1  0  0  0  0
 10 19  1  0  0  0  0
 10 11  1  0  0  0  0
 10 13  1  0  0  0  0
 11 12  1  0  0  0  0
 11 25  1  0  0  0  0
 11 26  1  0  0  0  0
 12 27  1  0  0  0  0
 13 20  1  0  0  0  0
 13 14  1  0  0  0  0
 13 15  1  0  0  0  0
 14 28  1  0  0  0  0
 15 21  1  0  0  0  0
 15 16  1  0  0  0  0
 16 29  1  0  0  0  0
M  END
> <s_m_source_file>
AV-unprocessed.smi

> <i_m_source_file_index>
160

> <i_lp_mmshare_version>
43012

> <i_f3d_flags>
0

> <s_epik_input>
W05IMl1DKD1PKWMxbltjSF1uKG4xKVtDQEBIXTJPW0NASF0oW0NIMl1bT0hdKVtDQEBIXShbT0hdKVtDQEhdMltPSF0=

> <s_epik_cmdline>
J2VwaWtfcHl0aG9uJywgJy1waCcsICc3LjAnLCAnLXRuJywgJzgnLCAnLW1hJywgJzIwMCcsICctbWV0YWxfYmluZGluZycsICctaW1hZScsICc8aW5maWxlLm1hZT4nLCAnLW9tYWUnLCAnPG91dGZpbGUubWFlPic=

> <r_lp_tautomer_probability>
1

> <r_epik_Ionization_Penalty>
1.06932e-05

> <r_epik_Ionization_Penalty_Charging>
0

> <r_epik_Ionization_Penalty_Neutral>
1.06932e-05

> <r_epik_State_Penalty>
-0

> <r_epik_Charging_Adjusted_Penalty>
0

> <i_epik_Tot_Q>
0

> <i_epik_Tot_abs_Q>
0

> <r_epik_Metal_State_Penalty>
0.0142097

> <b_epik_Metal_Only>
0

> <s_epik_Chemistry_Notes>
This compound contains an acetal/aminal-like group ( X-CH(R)-Y where X, Y are N, S, or O) that may be acid/base labile, releasing an aldehyde.

> <s_lp_Force_Field>
OPLS_2005

> <r_lp_Energy>
42.6693

> <b_lp_Chiralities_Consistent>
1

> <s_lp_Variant>
AV-unprocessed.smi:160-11

> <Gold.Version>
5.8.1

> <Gold.Id.Protein>
6NUR|6NUR_protein|mol2

> <Gold.PLP.Fitness>
36.5061

> <Gold.PLP.PLP>
-18.8024

> <Gold.PLP.part.hbond>
-7.0000

> <Gold.PLP.part.metal>
0.0000

> <Gold.PLP.part.buried>
-4.6084

> <Gold.PLP.part.nonpolar>
-8.4633

> <Gold.PLP.part.repulsive>
0.0792

> <Gold.PLP.ligand.clash>
0.0000

> <Gold.PLP.ligand.torsion>
0.2065

> <Gold.PLP.Chemscore.Hbond>
6.0376

> <Gold.PLP.Chemscore.CHOScore>
0.0000

> <Gold.PLP.Chemscore.Metal>
0.0000

> <Gold.Chemscore.Hbonds>
donor molecule, donor type, donor heavy atom, donor atom, acceptor molecule, acceptor atom, score
      L1  H    12    27       P1  8028  1.00
      L1  H    14    28       P1  7957  1.00
      L1  H    16    29       P1  7948  1.00
      P1  H  6896  6909       L1     5  1.00
      P1  H  6931  6943       L1     3  0.11
      P1  H  6934  6947       L1     3  1.00
      P1  H  7989  7998       L1    14  0.15

> <Gold.PLP.Chemscore.Internal.Correction>
0.0038

> <Gold.Rescore>
     Score         DG    S(hbond)    S(metal)    S(lipo)     H(rot)  DE(clash)    DE(int)     intcor
     14.89     -16.04       5.58        0.00      19.64       4.06       0.00       1.14       ----

> <Gold.Chemscore.Fitness>
14.8911

> <Gold.Chemscore.DG>
-16.0362

> <Gold.Chemscore.ZeroCoef>
-5.4800

> <Gold.Chemscore.Hbond>
5.5843

> <Gold.Chemscore.Metal>
0.0000

> <Gold.Chemscore.Lipo>
19.6420

> <Gold.Chemscore.Internal_Hbond>
0.0000

> <Gold.Chemscore.DEClash>
0.0033

> <Gold.Chemscore.DEInternal>
1.1418

> <Gold.Chemscore.Rot>
4.0600

> <Gold.Chemscore.Internal.Correction>
   9.000000E+99

> <Gold.Chemscore.Hbonds>
donor molecule, donor type, donor heavy atom, donor atom, acceptor molecule, acceptor atom, score
      L1  H    12    27       P1  8028  1.00
      L1  H    14    28       P1  7957  1.00
      L1  H    16    29       P1  7948  0.98
      P1  H  6896  6909       L1     5  0.73
      P1  H  6931  6943       L1     3  0.10
      P1  H  6934  6947       L1     3  0.99

> <Gold.Chemscore.Hbond.Weighted>
-18.6517

> <Gold.Chemscore.Metal.Weighted>
-0.0000

> <Gold.Chemscore.Lipo.Weighted>
-2.2981

> <Gold.Chemscore.Internal_Hbond.Weighted>
0.0000

> <Gold.Chemscore.DEClash.Weighted>
0.0033

> <Gold.Chemscore.DEInternal.Weighted>
1.1418

> <Gold.Chemscore.Rot.Weighted>
10.3936

> <Gold.Chemscore.Internal.Correction.Weighted>
   9.000000E+99

> <Gold.Protein.RotatedTorsions>
[ 6907 6896 6895 6894 ] final   46.37 input  -60.11 | X-H torsion
[ 7974 7965 7964 7962 ] final   17.26 input  175.53 | X-H torsion
[ 8008 7997 7996 7995 ] final  137.51 input   59.86 | X-H torsion
[ 10167 10162 10161 10158 ] final    1.64 input  -65.29 | X-H torsion
[ 10718 10713 10712 10709 ] final  -84.11 input   66.30 | X-H torsion
[ 10763 10752 10751 10750 ] final   82.71 input  -60.55 | X-H torsion
[ 11005 11000 10999 10996 ] final  107.55 input  -57.11 | X-H torsion

> <Gold.Protein.ActiveResidues>
 VAL166  LYS551  ARG553  GLY616  TRP617  ASP618  TYR619  PRO620  LYS621  CYS622 
 ASP623  PHE694  ASN695  SER759  ASP760  ASP761  ALA762  ILE779  LEU786  VAL792 
 PHE793  MET794  SER795  GLU796  ALA797  LYS798  CYS799  TRP800  GLU811  SER814 

> <Gold.Protein.RotatedAtoms>
  152.2556  134.8087  160.0438 H   0  0  0  0  0  0  0  0  0  0  0  0  # atno 6907 bound_to 6896
  151.8752  133.3478  159.3756 H   0  0  0  0  0  0  0  0  0  0  0  0  # atno 6908 bound_to 6896
  150.7099  134.5000  159.5601 H   0  0  0  0  0  0  0  0  0  0  0  0  # atno 6909 bound_to 6896
  146.2224  139.8628  142.8601 H   0  0  0  0  0  0  0  0  0  0  0  0  # atno 7974 bound_to 7965
  156.3002  140.2417  156.3921 H   0  0  0  0  0  0  0  0  0  0  0  0  # atno 8008 bound_to 7997
  154.8604  140.0420  157.1681 H   0  0  0  0  0  0  0  0  0  0  0  0  # atno 8009 bound_to 7997
  154.8902  140.2962  155.5378 H   0  0  0  0  0  0  0  0  0  0  0  0  # atno 8010 bound_to 7997
  140.6673  143.7144  150.7853 H   0  0  0  0  0  0  0  0  0  0  0  0  # atno 10167 bound_to 10162
  156.0010  130.4687  150.4361 H   0  0  0  0  0  0  0  0  0  0  0  0  # atno 10718 bound_to 10713
  153.1226  135.4718  154.9221 H   0  0  0  0  0  0  0  0  0  0  0  0  # atno 10763 bound_to 10752
  154.7590  135.3126  154.8417 H   0  0  0  0  0  0  0  0  0  0  0  0  # atno 10764 bound_to 10752
  153.8978  135.6878  153.4810 H   0  0  0  0  0  0  0  0  0  0  0  0  # atno 10765 bound_to 10752
  139.8830  134.9404  156.5837 H   0  0  0  0  0  0  0  0  0  0  0  0  # atno 11005 bound_to 11000
  145.2687  141.0101  143.3784 LP  0  0  0  0  0  0  0  0  0  0  0  0  # atno 17320 bound_to 7965
  144.9241  139.4376  143.6527 LP  0  0  0  0  0  0  0  0  0  0  0  0  # atno 17321 bound_to 7965
  140.0823  143.4956  152.2523 LP  0  0  0  0  0  0  0  0  0  0  0  0  # atno 17342 bound_to 10162
  139.5927  144.7556  151.3361 LP  0  0  0  0  0  0  0  0  0  0  0  0  # atno 17343 bound_to 10162
  157.2405  131.0524  151.2439 LP  0  0  0  0  0  0  0  0  0  0  0  0  # atno 17370 bound_to 10713
  157.3624  130.7138  149.6511 LP  0  0  0  0  0  0  0  0  0  0  0  0  # atno 17371 bound_to 10713
  140.8008  133.8507  155.8725 LP  0  0  0  0  0  0  0  0  0  0  0  0  # atno 17394 bound_to 11000
  140.9594  134.1675  157.4666 LP  0  0  0  0  0  0  0  0  0  0  0  0  # atno 17395 bound_to 11000

$$$$
