AV-unprocessed.smi:1583|AV-procd|sdf|6363|dock10
  -GOLD-   22720 6593D 1   1.00000     0.00000
 Structure written by MMmdl.
 36 37  0  0  0  0  0  0  0  0  1 V2000
  146.4290  138.7029  152.6798 C   0  0  0  0  0  0  0  0  0  0  0  0
  147.3898  139.6225  153.2696 N   0  0  0  0  0  0  0  0  0  0  0  0
  147.1701  140.3303  154.3871 C   0  0  0  0  0  0  0  0  0  0  0  0
  146.1217  140.2720  155.0296 O   0  0  0  0  0  0  0  0  0  0  0  0
  148.3032  141.2394  154.8559 C   0  0  0  0  0  0  0  0  0  0  0  0
  149.8336  140.3138  155.1780 S   0  0  0  0  0  0  0  0  0  0  0  0
  150.5646  141.3256  156.4340 C   0  0  0  0  0  0  0  0  0  0  0  0
  150.7056  142.6485  156.3206 N   0  0  0  0  0  0  0  0  0  0  0  0
  151.3261  142.9987  157.5026 C   0  0  0  0  0  0  0  0  0  0  0  0
  151.7493  144.2595  157.9808 C   0  0  0  0  0  0  0  0  0  0  0  0
  152.3762  144.3714  159.2391 C   0  0  0  0  0  0  0  0  0  0  0  0
  152.5877  143.2273  160.0355 C   0  0  0  0  0  0  0  0  0  0  0  0
  152.1720  141.9620  159.5779 C   0  0  0  0  0  0  0  0  0  0  0  0
  151.5469  141.8566  158.3209 C   0  0  0  0  0  0  0  0  0  0  0  0
  151.0338  140.7906  157.5900 N   0  0  0  0  0  0  0  0  0  0  0  0
  151.0301  139.3960  158.0080 C   0  0  0  0  0  0  0  0  0  0  0  0
  152.4512  138.8264  158.1195 C   0  0  0  0  0  0  0  0  0  0  0  0
  153.1118  138.9328  156.8692 O   0  0  0  0  0  0  0  0  0  0  0  0
  152.3463  138.4021  155.8025 C   0  0  0  0  0  0  0  0  0  0  0  0
  146.8338  138.2824  151.7595 H   0  0  0  0  0  0  0  0  0  0  0  0
  145.4958  139.2144  152.4395 H   0  0  0  0  0  0  0  0  0  0  0  0
  146.2104  137.8812  153.3632 H   0  0  0  0  0  0  0  0  0  0  0  0
  148.2789  139.7258  152.8025 H   0  0  0  0  0  0  0  0  0  0  0  0
  148.4958  142.0097  154.1077 H   0  0  0  0  0  0  0  0  0  0  0  0
  147.9897  141.7453  155.7696 H   0  0  0  0  0  0  0  0  0  0  0  0
  151.5929  145.1416  157.3775 H   0  0  0  0  0  0  0  0  0  0  0  0
  152.6973  145.3394  159.5946 H   0  0  0  0  0  0  0  0  0  0  0  0
  153.0700  143.3215  160.9975 H   0  0  0  0  0  0  0  0  0  0  0  0
  152.3334  141.0832  160.1844 H   0  0  0  0  0  0  0  0  0  0  0  0
  150.5258  139.3269  158.9723 H   0  0  0  0  0  0  0  0  0  0  0  0
  150.4349  138.8037  157.3137 H   0  0  0  0  0  0  0  0  0  0  0  0
  153.0094  139.3701  158.8834 H   0  0  0  0  0  0  0  0  0  0  0  0
  152.4066  137.7819  158.4309 H   0  0  0  0  0  0  0  0  0  0  0  0
  152.8947  138.5147  154.8674 H   0  0  0  0  0  0  0  0  0  0  0  0
  151.3949  138.9256  155.7006 H   0  0  0  0  0  0  0  0  0  0  0  0
  152.1483  137.3396  155.9504 H   0  0  0  0  0  0  0  0  0  0  0  0
  1  2  1  0  0  0  0
  1 20  1  0  0  0  0
  1 21  1  0  0  0  0
  1 22  1  0  0  0  0
  2  3  1  0  0  0  0
  2 23  1  0  0  0  0
  3  4  2  0  0  0  0
  3  5  1  0  0  0  0
  5  6  1  0  0  0  0
  5 24  1  0  0  0  0
  5 25  1  0  0  0  0
  6  7  1  0  0  0  0
  7 15  1  0  0  0  0
  7  8  2  0  0  0  0
  8  9  1  0  0  0  0
  9 14  2  0  0  0  0
  9 10  1  0  0  0  0
 10 11  2  0  0  0  0
 10 26  1  0  0  0  0
 11 12  1  0  0  0  0
 11 27  1  0  0  0  0
 12 13  2  0  0  0  0
 12 28  1  0  0  0  0
 13 14  1  0  0  0  0
 13 29  1  0  0  0  0
 14 15  1  0  0  0  0
 15 16  1  0  0  0  0
 16 17  1  0  0  0  0
 16 30  1  0  0  0  0
 16 31  1  0  0  0  0
 17 18  1  0  0  0  0
 17 32  1  0  0  0  0
 17 33  1  0  0  0  0
 18 19  1  0  0  0  0
 19 34  1  0  0  0  0
 19 35  1  0  0  0  0
 19 36  1  0  0  0  0
M  END
> <s_m_source_file>
AV-unprocessed.smi

> <i_m_source_file_index>
1583

> <i_lp_mmshare_version>
43012

> <i_f3d_flags>
0

> <s_epik_input>
W0NIM11bTkhdQyg9TylbQ0gyXVNjKG4xKW4oW0NIMl1bQ0gyXU9bQ0gzXSljKGMxMilbY0hdW2NIXVtjSF1bY0hdMg==

> <s_epik_cmdline>
J2VwaWtfcHl0aG9uJywgJy1waCcsICc3LjAnLCAnLXRuJywgJzgnLCAnLW1hJywgJzIwMCcsICctbWV0YWxfYmluZGluZycsICctaW1hZScsICc8aW5maWxlLm1hZT4nLCAnLW9tYWUnLCAnPG91dGZpbGUubWFlPic=

> <r_epik_Ionization_Penalty>
0.0356249

> <r_epik_Ionization_Penalty_Charging>
0

> <r_epik_Ionization_Penalty_Neutral>
0.0356249

> <r_epik_State_Penalty>
0.0297112

> <r_epik_Charging_Adjusted_Penalty>
0.0297112

> <i_epik_Tot_Q>
0

> <i_epik_Tot_abs_Q>
0

> <r_epik_Metal_State_Penalty>
0.0280118

> <b_epik_Metal_Only>
0

> <s_lp_Force_Field>
OPLS_2005

> <r_lp_Energy>
5.95406

> <b_lp_Chiralities_Consistent>
1

> <s_lp_Variant>
AV-unprocessed.smi:1583-1

> <Gold.Version>
5.8.1

> <Gold.Id.Protein>
6NUR|6NUR_protein|mol2

> <Gold.PLP.Fitness>
47.0344

> <Gold.PLP.PLP>
-41.6824

> <Gold.PLP.part.hbond>
-1.9362

> <Gold.PLP.part.metal>
0.0000

> <Gold.PLP.part.buried>
-2.8084

> <Gold.PLP.part.nonpolar>
-38.8263

> <Gold.PLP.part.repulsive>
2.2823

> <Gold.PLP.ligand.clash>
0.0000

> <Gold.PLP.ligand.torsion>
0.3372

> <Gold.PLP.Chemscore.Hbond>
2.0000

> <Gold.PLP.Chemscore.CHOScore>
0.0000

> <Gold.PLP.Chemscore.Metal>
0.0000

> <Gold.Chemscore.Hbonds>
donor molecule, donor type, donor heavy atom, donor atom, acceptor molecule, acceptor atom, score
      L1  H     2    23       P1  7957  0.75
      P1  H  7997  8009       L1    18  1.00

> <Gold.PLP.Chemscore.Internal.Correction>
0.0265

> <Gold.Rescore>
     Score         DG    S(hbond)    S(metal)    S(lipo)     H(rot)  DE(clash)    DE(int)     intcor
     17.74     -18.38       1.92        0.00     103.17       2.18       0.34       0.30       ----

> <Gold.Chemscore.Fitness>
17.7418

> <Gold.Chemscore.DG>
-18.3821

> <Gold.Chemscore.ZeroCoef>
-5.4800

> <Gold.Chemscore.Hbond>
1.9218

> <Gold.Chemscore.Metal>
0.0000

> <Gold.Chemscore.Lipo>
103.1691

> <Gold.Chemscore.Internal_Hbond>
0.0000

> <Gold.Chemscore.DEClash>
0.3360

> <Gold.Chemscore.DEInternal>
0.3044

> <Gold.Chemscore.Rot>
2.1826

> <Gold.Chemscore.Internal.Correction>
   9.000000E+99

> <Gold.Chemscore.Hbonds>
donor molecule, donor type, donor heavy atom, donor atom, acceptor molecule, acceptor atom, score
      L1  H     2    23       P1  7957  0.74
      P1  H  7997  8009       L1    18  0.97

> <Gold.Chemscore.Hbond.Weighted>
-6.4187

> <Gold.Chemscore.Metal.Weighted>
-0.0000

> <Gold.Chemscore.Lipo.Weighted>
-12.0708

> <Gold.Chemscore.Internal_Hbond.Weighted>
0.0000

> <Gold.Chemscore.DEClash.Weighted>
0.3360

> <Gold.Chemscore.DEInternal.Weighted>
0.3044

> <Gold.Chemscore.Rot.Weighted>
5.5874

> <Gold.Chemscore.Internal.Correction.Weighted>
   9.000000E+99

> <Gold.Protein.RotatedTorsions>
[ 6907 6896 6895 6894 ] final  150.54 input  -60.11 | X-H torsion
[ 7974 7965 7964 7962 ] final  -75.73 input  175.53 | X-H torsion
[ 8008 7997 7996 7995 ] final -174.53 input   59.86 | X-H torsion
[ 10167 10162 10161 10158 ] final  -66.69 input  -65.29 | X-H torsion
[ 10718 10713 10712 10709 ] final -135.77 input   66.30 | X-H torsion
[ 10763 10752 10751 10750 ] final   58.89 input  -60.55 | X-H torsion
[ 11005 11000 10999 10996 ] final  157.52 input  -57.11 | X-H torsion

> <Gold.Protein.ActiveResidues>
 VAL166  LYS551  ARG553  GLY616  TRP617  ASP618  TYR619  PRO620  LYS621  CYS622 
 ASP623  PHE694  ASN695  SER759  ASP760  ASP761  ALA762  ILE779  LEU786  VAL792 
 PHE793  MET794  SER795  GLU796  ALA797  LYS798  CYS799  TRP800  GLU811  SER814 

> <Gold.Protein.RotatedAtoms>
  152.1131  133.4311  159.4639 H   0  0  0  0  0  0  0  0  0  0  0  0  # atno 6907 bound_to 6896
  150.6868  134.2625  159.4564 H   0  0  0  0  0  0  0  0  0  0  0  0  # atno 6908 bound_to 6896
  152.0495  134.9662  160.0625 H   0  0  0  0  0  0  0  0  0  0  0  0  # atno 6909 bound_to 6896
  145.6221  140.9360  143.1132 H   0  0  0  0  0  0  0  0  0  0  0  0  # atno 7974 bound_to 7965
  155.9713  140.1163  157.0810 H   0  0  0  0  0  0  0  0  0  0  0  0  # atno 8008 bound_to 7997
  154.4157  140.1163  156.5377 H   0  0  0  0  0  0  0  0  0  0  0  0  # atno 8009 bound_to 7997
  155.6593  140.3473  155.4779 H   0  0  0  0  0  0  0  0  0  0  0  0  # atno 8010 bound_to 7997
  140.5638  143.2314  151.6674 H   0  0  0  0  0  0  0  0  0  0  0  0  # atno 10167 bound_to 10162
  156.2698  130.7259  151.1222 H   0  0  0  0  0  0  0  0  0  0  0  0  # atno 10718 bound_to 10713
  152.9881  135.5591  154.5625 H   0  0  0  0  0  0  0  0  0  0  0  0  # atno 10763 bound_to 10752
  154.5041  135.2799  155.1399 H   0  0  0  0  0  0  0  0  0  0  0  0  # atno 10764 bound_to 10752
  154.2817  135.6343  153.5403 H   0  0  0  0  0  0  0  0  0  0  0  0  # atno 10765 bound_to 10752
  140.1777  134.8498  157.2766 H   0  0  0  0  0  0  0  0  0  0  0  0  # atno 11005 bound_to 11000
  144.7227  139.7977  143.7376 LP  0  0  0  0  0  0  0  0  0  0  0  0  # atno 17320 bound_to 7965
  146.1423  139.4483  143.0101 LP  0  0  0  0  0  0  0  0  0  0  0  0  # atno 17321 bound_to 7965
  139.5083  144.3616  152.0557 LP  0  0  0  0  0  0  0  0  0  0  0  0  # atno 17342 bound_to 10162
  140.2745  144.3927  150.6140 LP  0  0  0  0  0  0  0  0  0  0  0  0  # atno 17343 bound_to 10162
  157.7280  131.0635  150.5841 LP  0  0  0  0  0  0  0  0  0  0  0  0  # atno 17370 bound_to 10713
  156.5936  130.4336  149.5926 LP  0  0  0  0  0  0  0  0  0  0  0  0  # atno 17371 bound_to 10713
  140.2303  134.3917  155.7525 LP  0  0  0  0  0  0  0  0  0  0  0  0  # atno 17394 bound_to 11000
  141.2221  133.7211  156.8630 LP  0  0  0  0  0  0  0  0  0  0  0  0  # atno 17395 bound_to 11000

$$$$
