#       Name:                AV-unprocessed.smi:857
#       Creating user name   scv26
#       Creation time:       Fri Mar 27 01:43:29 2020


#       File generated by GOLD software.
#

@<TRIPOS>MOLECULE
AV-unprocessed.smi:857
    37    38     1
SMALL
NO_CHARGES


@<TRIPOS>ATOM
      1 ****         0.0472  -3.7894  -0.2743 C.3            1 S1                 0.0000
      2 ****        -0.3761  -2.3352  -0.2755 C.ar           1 S1                 0.0000
      3 ****        -1.7379  -1.9859  -0.2766 C.ar           1 S1                 0.0000
      4 ****        -2.1346  -0.6238  -0.2774 C.ar           1 S1                 0.0000
      5 ****        -3.6181  -0.3371  -0.2765 C.2            1 S1                 0.0000
      6 ****        -4.0403   0.8334  -0.2808 O.co2          1 S1                 0.0000
      7 ****        -4.4150  -1.3025  -0.2720 O.co2          1 S1                -1.0000
      8 ****        -1.1085   0.3836  -0.2778 C.ar           1 S1                 0.0000
      9 ****        -0.9013   1.8307  -0.2768 C.2            1 S1                 0.0000
     10 ****        -1.8284   3.0152  -0.2762 C.3            1 S1                 0.0000
     11 ****         0.3788   2.1257  -0.2747 N.2            1 S1                 0.0000
     12 ****         1.0579   0.9610  -0.2803 N.pl3          1 S1                 0.0000
     13 ****         2.5096   0.9983  -0.2724 C.3            1 S1                 0.0000
     14 ****         3.0629   0.9935   1.1590 C.3            1 S1                 0.0000
     15 ****         4.4739   1.0004   1.1270 O.3            1 S1                 0.0000
     16 ****         0.2242  -0.1381  -0.2789 C.ar           1 S1                 0.0000
     17 ****         0.6265  -1.4401  -0.2761 N.ar           1 S1                 0.0000
     18 ****        -0.8166  -4.4549  -0.2738 H              1 S1                 0.0000
     19 ****         0.6453  -4.0092   0.6106 H              1 S1                 0.0000
     20 ****         0.6456  -4.0109  -1.1585 H              1 S1                 0.0000
     21 ****        -2.4739  -2.7770  -0.2764 H              1 S1                 0.0000
     22 ****        -2.8828   2.7894  -0.2766 H              1 S1                 0.0000
     23 ****        -1.6498   3.6401  -1.1517 H              1 S1                 0.0000
     24 ****        -1.6502   3.6396   0.5996 H              1 S1                 0.0000
     25 ****         2.8822   0.1369  -0.8283 H              1 S1                 0.0000
     26 ****         2.8458   1.8865  -0.8098 H              1 S1                 0.0000
     27 ****         2.7150   1.8683   1.7094 H              1 S1                 0.0000
     28 ****         2.7240   0.1093   1.6998 H              1 S1                 0.0000
     29 ****         4.7954   0.9919   2.0158 H              1 S1                 0.0000
     30 ****        -5.0246   1.0099  -0.2807 LP             1 S1                 0.0000
     31 ****        -3.3953   1.5976  -0.2844 LP             1 S1                 0.0000
     32 ****        -5.4012  -1.1368  -0.2718 LP             1 S1                 0.0000
     33 ****        -4.0654  -2.2394  -0.2686 LP             1 S1                 0.0000
     34 ****         0.7757   3.0435  -0.2698 LP             1 S1                 0.0000
     35 ****         4.7963   1.8237   0.6599 LP             1 S1                 0.0000
     36 ****         4.8039   0.1908   0.6415 LP             1 S1                 0.0000
     37 ****         1.5899  -1.7079  -0.2746 LP             1 S1                 0.0000
@<TRIPOS>BOND
    1    1    2 1     
    2    1   18 1     
    3    1   19 1     
    4    1   20 1     
    5    2   17 ar    
    6    2    3 ar    
    7    3    4 ar    
    8    3   21 1     
    9    4    5 1     
   10    4    8 ar    
   11    5    6 ar    
   12    5    7 ar    
   13    8   16 ar    
   14    8    9 1     
   15    9   10 1     
   16    9   11 2     
   17   10   22 1     
   18   10   23 1     
   19   10   24 1     
   20   11   12 1     
   21   12   13 1     
   22   12   16 1     
   23   13   14 1     
   24   13   25 1     
   25   13   26 1     
   26   14   15 1     
   27   14   27 1     
   28   14   28 1     
   29   15   29 1     
   30   16   17 ar    
   31    6   30 1     
   32    6   31 1     
   33    7   32 1     
   34    7   33 1     
   35   11   34 1     
   36   15   35 1     
   37   15   36 1     
   38   17   37 1     
@<TRIPOS>SUBSTRUCTURE
      1 S1             1
@<TRIPOS>SET
LONE_PAIRS      STATIC     ATOMS    <user>   **** ""
8 30 31 32 33 34 35 36 37
DONOR_HYDROGENS      STATIC     ATOMS    <user>   **** ""
1 29
ATOM$BLUE        STATIC     ATOMS    COLORGROUP SYSTEM
8 30 31 32 33 34 35 36 37
ATOM$RED        STATIC     ATOMS    COLORGROUP SYSTEM
1 29
