#       Name:                AV-unprocessed.smi:888
#       Creating user name   scv26
#       Creation time:       Fri Mar 27 01:54:22 2020


#       File generated by GOLD software.
#

@<TRIPOS>MOLECULE
AV-unprocessed.smi:888
    49    50     1
SMALL
NO_CHARGES


@<TRIPOS>ATOM
      1 ****        -4.9478  -0.2195   4.5012 C.3            1 S1                 0.0000
      2 ****        -4.4068  -1.6004   4.1157 C.3            1 S1                 0.0000
      3 ****        -5.0820  -2.1667   2.9049 C.2            1 S1                 0.0000
      4 ****        -6.2177  -2.8733   2.9585 N.2            1 S1                 0.0000
      5 ****        -6.5183  -3.1955   1.6499 N.2            1 S1                 0.0000
      6 ****        -5.5385  -2.6437   0.9357 C.2            1 S1                 0.0000
      7 ****        -4.6148  -1.9846   1.6517 N.pl3          1 S1                 0.0000
      8 ****        -3.4407  -1.2789   1.1725 C.3            1 S1                 0.0000
      9 ****        -2.2077  -2.1916   1.1446 C.3            1 S1                 0.0000
     10 ****        -1.0372  -1.4532   0.6799 N.am           1 S1                 0.0000
     11 ****         0.2172  -1.9179   0.5523 C.2            1 S1                 0.0000
     12 ****         0.5123  -3.0764   0.8390 O.2            1 S1                 0.0000
     13 ****         1.1016  -1.0126   0.0987 N.am           1 S1                 0.0000
     14 ****         2.5282  -1.2459  -0.1336 C.3            1 S1                 0.0000
     15 ****         2.9427  -0.5510  -1.4438 C.3            1 S1                 0.0000
     16 ****         3.6717   0.7417  -1.0519 C.3            1 S1                 0.0000
     17 ****         3.6134   0.8193   0.4766 C.3            1 S1                 0.0000
     18 ****         3.4293  -0.6259   0.9669 C.3            1 S1                 0.0000
     19 ****         2.8312  -0.6672   2.3900 C.3            1 S1                 0.0000
     20 ****         4.7934  -1.3493   0.9947 C.3            1 S1                 0.0000
     21 ****        -4.4404   0.1620   5.3874 H              1 S1                 0.0000
     22 ****        -6.0151  -0.2626   4.7203 H              1 S1                 0.0000
     23 ****        -4.7996   0.5007   3.6964 H              1 S1                 0.0000
     24 ****        -3.3312  -1.5482   3.9480 H              1 S1                 0.0000
     25 ****        -4.5495  -2.2924   4.9462 H              1 S1                 0.0000
     26 ****        -5.4946  -2.7207  -0.1410 H              1 S1                 0.0000
     27 ****        -3.6524  -0.8976   0.1725 H              1 S1                 0.0000
     28 ****        -3.2661  -0.4101   1.8082 H              1 S1                 0.0000
     29 ****        -2.0142  -2.5902   2.1419 H              1 S1                 0.0000
     30 ****        -2.3887  -3.0411   0.4840 H              1 S1                 0.0000
     31 ****        -1.1911  -0.4865   0.4315 H              1 S1                 0.0000
     32 ****         0.7598  -0.0846  -0.1034 H              1 S1                 0.0000
     33 ****         2.7069  -2.3195  -0.2196 H              1 S1                 0.0000
     34 ****         3.6216  -1.1931  -2.0063 H              1 S1                 0.0000
     35 ****         2.0910  -0.3505  -2.0958 H              1 S1                 0.0000
     36 ****         4.7087   0.6969  -1.3866 H              1 S1                 0.0000
     37 ****         3.2197   1.6207  -1.5123 H              1 S1                 0.0000
     38 ****         4.4932   1.3041   0.9012 H              1 S1                 0.0000
     39 ****         2.7486   1.4193   0.7638 H              1 S1                 0.0000
     40 ****         3.5224  -0.2412   3.1179 H              1 S1                 0.0000
     41 ****         2.6196  -1.6916   2.6982 H              1 S1                 0.0000
     42 ****         1.9030  -0.1000   2.4649 H              1 S1                 0.0000
     43 ****         5.4794  -0.8750   1.6973 H              1 S1                 0.0000
     44 ****         5.2786  -1.3509   0.0183 H              1 S1                 0.0000
     45 ****         4.6797  -2.3895   1.3017 H              1 S1                 0.0000
     46 ****        -6.7396  -3.1170   3.7759 LP             1 S1                 0.0000
     47 ****        -7.2973  -3.7247   1.3136 LP             1 S1                 0.0000
     48 ****        -0.1903  -3.7021   1.1779 LP             1 S1                 0.0000
     49 ****         1.4549  -3.3931   0.7333 LP             1 S1                 0.0000
@<TRIPOS>BOND
    1    1    2 1     
    2    1   21 1     
    3    1   22 1     
    4    1   23 1     
    5    2    3 1     
    6    2   24 1     
    7    2   25 1     
    8    3    7 1     
    9    3    4 2     
   10    4    5 1     
   11    5    6 2     
   12    6    7 1     
   13    6   26 1     
   14    7    8 1     
   15    8    9 1     
   16    8   27 1     
   17    8   28 1     
   18    9   10 1     
   19    9   29 1     
   20    9   30 1     
   21   10   11 am    
   22   10   31 1     
   23   11   12 2     
   24   11   13 am    
   25   13   14 1     
   26   13   32 1     
   27   14   18 1     
   28   14   15 1     
   29   14   33 1     
   30   15   16 1     
   31   15   34 1     
   32   15   35 1     
   33   16   17 1     
   34   16   36 1     
   35   16   37 1     
   36   17   18 1     
   37   17   38 1     
   38   17   39 1     
   39   18   19 1     
   40   18   20 1     
   41   19   40 1     
   42   19   41 1     
   43   19   42 1     
   44   20   43 1     
   45   20   44 1     
   46   20   45 1     
   47    4   46 1     
   48    5   47 1     
   49   12   48 1     
   50   12   49 1     
@<TRIPOS>SUBSTRUCTURE
      1 S1             1
@<TRIPOS>SET
LONE_PAIRS      STATIC     ATOMS    <user>   **** ""
4 46 47 48 49
DONOR_HYDROGENS      STATIC     ATOMS    <user>   **** ""
2 31 32
ATOM$BLUE        STATIC     ATOMS    COLORGROUP SYSTEM
4 46 47 48 49
ATOM$RED        STATIC     ATOMS    COLORGROUP SYSTEM
2 31 32
