#       Name:                AV-unprocessed.smi:2850
#       Creating user name   scv26
#       Creation time:       Fri Mar 27 15:42:20 2020


#       File generated by GOLD software.
#

@<TRIPOS>MOLECULE
AV-unprocessed.smi:2850
    49    50     1
SMALL
NO_CHARGES


@<TRIPOS>ATOM
      1 ****        -7.9532   1.9221  -0.2957 C.3            1 S1                 0.0000
      2 ****        -7.0972   3.5036  -0.0528 S.3            1 S1                 0.0000
      3 ****        -5.3639   3.1603  -0.0137 C.ar           1 S1                 0.0000
      4 ****        -4.4307   4.2012   0.1405 C.ar           1 S1                 0.0000
      5 ****        -3.0717   3.8424   0.1610 C.ar           1 S1                 0.0000
      6 ****        -2.7525   2.4758   0.0279 C.ar           1 S1                 0.0000
      7 ****        -1.4058   2.0901   0.0436 N.pl3          1 S1                 0.0000
      8 ****        -1.0362   0.6818   0.0248 C.3            1 S1                 0.0000
      9 ****         0.4854   0.4957   0.0913 C.3            1 S1                 0.0000
     10 ****         0.8888  -0.9763  -0.1237 C.3            1 S1                 0.0000
     11 ****         2.3273  -1.1799   0.0122 N.3            1 S1                 0.0000
     12 ****         2.6790  -2.5833  -0.2132 C.3            1 S1                 0.0000
     13 ****         4.1876  -2.8893  -0.3339 C.3            1 S1                 0.0000
     14 ****         4.8235  -2.1616  -1.5298 C.3            1 S1                 0.0000
     15 ****         4.4204  -4.4033  -0.4413 C.3            1 S1                 0.0000
     16 ****         2.7512  -0.6938   1.3231 C.3            1 S1                 0.0000
     17 ****         2.3391   0.7701   1.5515 C.3            1 S1                 0.0000
     18 ****         0.9320   0.9016   1.3831 O.3            1 S1                 0.0000
     19 ****        -3.7110   1.5256  -0.1185 N.ar           1 S1                 0.0000
     20 ****        -5.0056   1.8624  -0.1388 N.ar           1 S1                 0.0000
     21 ****        -9.0311   2.0804  -0.3282 H              1 S1                 0.0000
     22 ****        -7.7304   1.2368   0.5222 H              1 S1                 0.0000
     23 ****        -7.6445   1.4607  -1.2339 H              1 S1                 0.0000
     24 ****        -4.7422   5.2307   0.2384 H              1 S1                 0.0000
     25 ****        -2.3026   4.5921   0.2753 H              1 S1                 0.0000
     26 ****        -0.6850   2.7803   0.1966 H              1 S1                 0.0000
     27 ****        -1.5150   0.1618   0.8556 H              1 S1                 0.0000
     28 ****        -1.4166   0.2383  -0.8963 H              1 S1                 0.0000
     29 ****         0.9612   1.1153  -0.6714 H              1 S1                 0.0000
     30 ****         0.3583  -1.6063   0.5924 H              1 S1                 0.0000
     31 ****         0.5656  -1.2945  -1.1156 H              1 S1                 0.0000
     32 ****         2.2517  -3.1909   0.5862 H              1 S1                 0.0000
     33 ****         2.1977  -2.9252  -1.1307 H              1 S1                 0.0000
     34 ****         4.6960  -2.5605   0.5718 H              1 S1                 0.0000
     35 ****         4.3516  -2.4538  -2.4683 H              1 S1                 0.0000
     36 ****         5.8873  -2.3878  -1.6073 H              1 S1                 0.0000
     37 ****         4.7279  -1.0799  -1.4324 H              1 S1                 0.0000
     38 ****         3.9526  -4.8139  -1.3366 H              1 S1                 0.0000
     39 ****         4.0061  -4.9267   0.4207 H              1 S1                 0.0000
     40 ****         5.4848  -4.6358  -0.4857 H              1 S1                 0.0000
     41 ****         2.3181  -1.3173   2.1069 H              1 S1                 0.0000
     42 ****         3.8330  -0.7666   1.4252 H              1 S1                 0.0000
     43 ****         2.6088   1.0871   2.5590 H              1 S1                 0.0000
     44 ****         2.8592   1.4314   0.8568 H              1 S1                 0.0000
     45 ****         2.8166  -0.6577  -0.6862 LP             1 S1                 0.0000
     46 ****         0.4747   0.3372   2.0704 LP             1 S1                 0.0000
     47 ****         0.6829   1.8604   1.5198 LP             1 S1                 0.0000
     48 ****        -3.4470   0.5656  -0.2119 LP             1 S1                 0.0000
     49 ****        -5.7059   1.1567  -0.2461 LP             1 S1                 0.0000
@<TRIPOS>BOND
    1    1    2 1     
    2    1   21 1     
    3    1   22 1     
    4    1   23 1     
    5    2    3 1     
    6    3   20 ar    
    7    3    4 ar    
    8    4    5 ar    
    9    4   24 1     
   10    5    6 ar    
   11    5   25 1     
   12    6    7 1     
   13    6   19 ar    
   14    7    8 1     
   15    7   26 1     
   16    8    9 1     
   17    8   27 1     
   18    8   28 1     
   19    9   18 1     
   20    9   10 1     
   21    9   29 1     
   22   10   11 1     
   23   10   30 1     
   24   10   31 1     
   25   11   12 1     
   26   11   16 1     
   27   12   13 1     
   28   12   32 1     
   29   12   33 1     
   30   13   14 1     
   31   13   15 1     
   32   13   34 1     
   33   14   35 1     
   34   14   36 1     
   35   14   37 1     
   36   15   38 1     
   37   15   39 1     
   38   15   40 1     
   39   16   17 1     
   40   16   41 1     
   41   16   42 1     
   42   17   18 1     
   43   17   43 1     
   44   17   44 1     
   45   19   20 ar    
   46   11   45 1     
   47   18   46 1     
   48   18   47 1     
   49   19   48 1     
   50   20   49 1     
@<TRIPOS>SUBSTRUCTURE
      1 S1             1
@<TRIPOS>SET
LONE_PAIRS      STATIC     ATOMS    <user>   **** ""
5 45 46 47 48 49
DONOR_HYDROGENS      STATIC     ATOMS    <user>   **** ""
1 26
ATOM$BLUE        STATIC     ATOMS    COLORGROUP SYSTEM
5 45 46 47 48 49
ATOM$RED        STATIC     ATOMS    COLORGROUP SYSTEM
1 26
