#       Name:                AV-unprocessed.smi:1403
#       Creating user name   scv26
#       Creation time:       Fri Mar 27 05:33:37 2020


#       File generated by GOLD software.
#

@<TRIPOS>MOLECULE
AV-unprocessed.smi:1403
    44    45     1
SMALL
NO_CHARGES


@<TRIPOS>ATOM
      1 ****        -1.9009  -0.3967   2.4970 C.3            1 S1                 0.0000
      2 ****        -1.4687  -0.2783   1.0272 C.3            1 S1                 0.0000
      3 ****        -0.0200  -0.4525   0.9552 N.am           1 S1                 0.0000
      4 ****         0.8176   0.2559   0.1822 C.2            1 S1                 0.0000
      5 ****         0.4459   1.1518  -0.5772 O.2            1 S1                 0.0000
      6 ****         2.2983  -0.1394   0.2596 C.3            1 S1                 0.0000
      7 ****         3.2080   0.9954   0.0356 N.am           1 S1                 0.0000
      8 ****         3.7355   1.1658  -1.2565 C.2            1 S1                 0.0000
      9 ****         4.5727   2.1777  -1.5540 C.2            1 S1                 0.0000
     10 ****         4.9310   3.1115  -0.4938 C.2            1 S1                 0.0000
     11 ****         5.6989   4.0381  -0.7459 O.2            1 S1                 0.0000
     12 ****         4.3888   2.9068   0.7424 N.pl3          1 S1                -1.0000
     13 ****         3.5356   1.8751   1.0297 C.2            1 S1                 0.0000
     14 ****         3.0550   1.7106   2.1517 O.2            1 S1                 0.0000
     15 ****        -2.1672  -1.3151   0.1221 C.3            1 S1                 0.0000
     16 ****        -3.6925  -1.1950   0.0775 C.3            1 S1                 0.0000
     17 ****        -4.0136  -1.8078  -1.2659 C.3            1 S1                 0.0000
     18 ****        -2.8635  -1.2871  -2.1194 C.3            1 S1                 0.0000
     19 ****        -1.7528  -1.1642  -1.2362 O.3            1 S1                 0.0000
     20 ****        -2.9712  -0.2255   2.6133 H              1 S1                 0.0000
     21 ****        -1.3867   0.3398   3.1156 H              1 S1                 0.0000
     22 ****        -1.6756  -1.3848   2.8999 H              1 S1                 0.0000
     23 ****        -1.7361   0.7231   0.6849 H              1 S1                 0.0000
     24 ****         0.3788  -1.1725   1.5398 H              1 S1                 0.0000
     25 ****         2.5087  -0.6045   1.2246 H              1 S1                 0.0000
     26 ****         2.4769  -0.9218  -0.4790 H              1 S1                 0.0000
     27 ****         3.4149   0.4355  -1.9846 H              1 S1                 0.0000
     28 ****         4.9666   2.2965  -2.5525 H              1 S1                 0.0000
     29 ****        -1.9003  -2.3265   0.4338 H              1 S1                 0.0000
     30 ****        -4.1849  -1.7053   0.9057 H              1 S1                 0.0000
     31 ****        -3.9979  -0.1475   0.0897 H              1 S1                 0.0000
     32 ****        -3.9733  -2.8959  -1.2014 H              1 S1                 0.0000
     33 ****        -4.9935  -1.5211  -1.6481 H              1 S1                 0.0000
     34 ****        -2.6360  -1.9440  -2.9592 H              1 S1                 0.0000
     35 ****        -3.1000  -0.2988  -2.5155 H              1 S1                 0.0000
     36 ****        -0.5249   1.3833  -0.6400 LP             1 S1                 0.0000
     37 ****         1.1150   1.6476  -1.1308 LP             1 S1                 0.0000
     38 ****         6.0692   4.1437  -1.6688 LP             1 S1                 0.0000
     39 ****         5.9532   4.6862  -0.0280 LP             1 S1                 0.0000
     40 ****         4.6272   3.5433   1.4760 LP             1 S1                 0.0000
     41 ****         2.4366   0.9437   2.3233 LP             1 S1                 0.0000
     42 ****         3.2833   2.3439   2.8912 LP             1 S1                 0.0000
     43 ****        -1.0803  -1.8714  -1.4544 LP             1 S1                 0.0000
     44 ****        -1.3380  -0.2620  -1.3543 LP             1 S1                 0.0000
@<TRIPOS>BOND
    1    1    2 1     
    2    1   20 1     
    3    1   21 1     
    4    1   22 1     
    5    2    3 1     
    6    2   15 1     
    7    2   23 1     
    8    3    4 am    
    9    3   24 1     
   10    4    5 2     
   11    4    6 1     
   12    6    7 1     
   13    6   25 1     
   14    6   26 1     
   15    7   13 am    
   16    7    8 1     
   17    8    9 2     
   18    8   27 1     
   19    9   10 1     
   20    9   28 1     
   21   10   11 2     
   22   10   12 1     
   23   12   13 1     
   24   13   14 2     
   25   15   19 1     
   26   15   16 1     
   27   15   29 1     
   28   16   17 1     
   29   16   30 1     
   30   16   31 1     
   31   17   18 1     
   32   17   32 1     
   33   17   33 1     
   34   18   19 1     
   35   18   34 1     
   36   18   35 1     
   37    5   36 1     
   38    5   37 1     
   39   11   38 1     
   40   11   39 1     
   41   12   40 1     
   42   14   41 1     
   43   14   42 1     
   44   19   43 1     
   45   19   44 1     
@<TRIPOS>SUBSTRUCTURE
      1 S1             1
@<TRIPOS>SET
LONE_PAIRS      STATIC     ATOMS    <user>   **** ""
9 36 37 38 39 40 41 42 43 44
DONOR_HYDROGENS      STATIC     ATOMS    <user>   **** ""
1 24
ATOM$BLUE        STATIC     ATOMS    COLORGROUP SYSTEM
9 36 37 38 39 40 41 42 43 44
ATOM$RED        STATIC     ATOMS    COLORGROUP SYSTEM
1 24
