AV-unprocessed.smi:2693|AV-procd|sdf|10404|dock2
  -GOLD-   2272014433D 1   1.00000     0.00000
 Structure written by MMmdl.
 45 47  0  0  0  0  0  0  0  0  1 V2000
  151.8902  141.0210  158.3432 C   0  0  0  0  0  0  0  0  0  0  0  0
  151.2844  141.1935  157.0260 N   0  0  0  0  0  0  0  0  0  0  0  0
  151.3585  142.5185  156.4168 C   0  0  0  0  0  0  0  0  0  0  0  0
  150.6662  140.1268  156.3669 C   0  0  0  0  0  0  0  0  0  0  0  0
  150.2401  139.1022  157.1171 N   0  0  0  0  0  0  0  0  0  0  0  0
  149.6434  138.0668  156.4891 C   0  0  0  0  0  0  0  0  0  0  0  0
  149.4711  138.0501  155.0844 C   0  0  0  0  0  0  0  0  0  0  0  0
  148.8369  137.0125  154.3506 N   0  0  0  0  0  0  0  0  0  0  0  0
  147.9311  136.1199  154.7844 C   0  0  0  0  0  0  0  0  0  0  0  0
  147.5162  136.0300  155.9394 O   0  0  0  0  0  0  0  0  0  0  0  0
  147.5442  135.3036  153.7960 N   0  0  0  0  0  0  0  0  0  0  0  0
  146.5902  134.2009  153.9547 C   0  0  1  0  0  0  0  0  0  0  0  0
  145.6154  134.0903  152.7802 C   0  0  1  0  0  0  0  0  0  0  0  0
  145.1660  134.9835  151.6813 C   0  0  0  0  0  0  0  0  0  0  0  0
  145.1667  133.9157  150.5538 C   0  0  0  0  0  0  0  0  0  0  0  0
  145.8223  132.7469  151.1099 O   0  0  0  0  0  0  0  0  0  0  0  0
  146.6916  133.2775  152.0905 C   0  0  2  0  0  0  0  0  0  0  0  0
  147.1112  132.7820  153.4928 C   0  0  0  0  0  0  0  0  0  0  0  0
  148.6069  132.4967  153.6701 C   0  0  0  0  0  0  0  0  0  0  0  0
  146.3804  131.5465  154.0487 C   0  0  0  0  0  0  0  0  0  0  0  0
  149.9459  139.1840  154.3958 C   0  0  0  0  0  0  0  0  0  0  0  0
  150.5425  140.2118  155.0356 N   0  0  0  0  0  0  0  0  0  0  0  0
  152.7487  140.3520  158.2799 H   0  0  0  0  0  0  0  0  0  0  0  0
  151.1711  140.5945  159.0430 H   0  0  0  0  0  0  0  0  0  0  0  0
  152.2325  141.9681  158.7601 H   0  0  0  0  0  0  0  0  0  0  0  0
  151.8155  142.4599  155.4284 H   0  0  0  0  0  0  0  0  0  0  0  0
  151.9542  143.2085  157.0146 H   0  0  0  0  0  0  0  0  0  0  0  0
  150.3596  142.9426  156.3098 H   0  0  0  0  0  0  0  0  0  0  0  0
  149.2943  137.2736  157.1311 H   0  0  0  0  0  0  0  0  0  0  0  0
  149.1408  136.9096  153.3934 H   0  0  0  0  0  0  0  0  0  0  0  0
  147.9375  135.4416  152.8767 H   0  0  0  0  0  0  0  0  0  0  0  0
  146.0867  134.1840  154.9229 H   0  0  0  0  0  0  0  0  0  0  0  0
  144.7654  133.4824  153.0998 H   0  0  0  0  0  0  0  0  0  0  0  0
  144.1780  135.4102  151.8562 H   0  0  0  0  0  0  0  0  0  0  0  0
  145.8765  135.7875  151.4845 H   0  0  0  0  0  0  0  0  0  0  0  0
  144.1559  133.6529  150.2412 H   0  0  0  0  0  0  0  0  0  0  0  0
  145.7090  134.2764  149.6789 H   0  0  0  0  0  0  0  0  0  0  0  0
  147.4732  133.8812  151.6178 H   0  0  0  0  0  0  0  0  0  0  0  0
  148.8887  131.5399  153.2293 H   0  0  0  0  0  0  0  0  0  0  0  0
  148.8837  132.4687  154.7244 H   0  0  0  0  0  0  0  0  0  0  0  0
  149.2280  133.2552  153.1935 H   0  0  0  0  0  0  0  0  0  0  0  0
  146.6167  130.6544  153.4679 H   0  0  0  0  0  0  0  0  0  0  0  0
  145.2963  131.6433  154.0454 H   0  0  0  0  0  0  0  0  0  0  0  0
  146.6701  131.3483  155.0812 H   0  0  0  0  0  0  0  0  0  0  0  0
  149.8511  139.2688  153.3232 H   0  0  0  0  0  0  0  0  0  0  0  0
  1  2  1  0  0  0  0
  1 23  1  0  0  0  0
  1 24  1  0  0  0  0
  1 25  1  0  0  0  0
  2  3  1  0  0  0  0
  2  4  1  0  0  0  0
  3 26  1  0  0  0  0
  3 27  1  0  0  0  0
  3 28  1  0  0  0  0
  4 22  1  0  0  0  0
  4  5  2  0  0  0  0
  5  6  1  0  0  0  0
  6  7  2  0  0  0  0
  6 29  1  0  0  0  0
  7  8  1  0  0  0  0
  7 21  1  0  0  0  0
  8  9  1  0  0  0  0
  8 30  1  0  0  0  0
  9 10  2  0  0  0  0
  9 11  1  0  0  0  0
 11 12  1  0  0  0  0
 11 31  1  0  0  0  0
 12 18  1  0  0  0  0
 12 13  1  0  0  0  0
 12 32  1  0  0  0  0
 13 17  1  0  0  0  0
 13 14  1  0  0  0  0
 13 33  1  0  0  0  0
 14 15  1  0  0  0  0
 14 34  1  0  0  0  0
 14 35  1  0  0  0  0
 15 16  1  0  0  0  0
 15 36  1  0  0  0  0
 15 37  1  0  0  0  0
 16 17  1  0  0  0  0
 17 18  1  0  0  0  0
 17 38  1  0  0  0  0
 18 19  1  0  0  0  0
 18 20  1  0  0  0  0
 19 39  1  0  0  0  0
 19 40  1  0  0  0  0
 19 41  1  0  0  0  0
 20 42  1  0  0  0  0
 20 43  1  0  0  0  0
 20 44  1  0  0  0  0
 21 22  2  0  0  0  0
 21 45  1  0  0  0  0
M  END
> <s_m_source_file>
AV-unprocessed.smi

> <i_m_source_file_index>
2693

> <i_lp_mmshare_version>
43012

> <i_f3d_flags>
0

> <s_epik_input>
W0NIM11OKFtDSDNdKWMxbltjSF1jKFtjSF1uMSlbTkhdQyg9TylbTkhdW0NASF0yQyhbQ0gzXSkoW0NIM10pW0NAQEhdKFtDQEhdMjMpT1tDSDJdW0NIMl0z

> <s_epik_cmdline>
J2VwaWtfcHl0aG9uJywgJy1waCcsICc3LjAnLCAnLXRuJywgJzgnLCAnLW1hJywgJzIwMCcsICctbWV0YWxfYmluZGluZycsICctaW1hZScsICc8aW5maWxlLm1hZT4nLCAnLW9tYWUnLCAnPG91dGZpbGUubWFlPic=

> <r_lp_tautomer_probability>
1

> <r_epik_Ionization_Penalty>
0.00031779

> <r_epik_Ionization_Penalty_Charging>
0

> <r_epik_Ionization_Penalty_Neutral>
0.00031779

> <r_epik_State_Penalty>
-0

> <r_epik_Charging_Adjusted_Penalty>
0

> <i_epik_Tot_Q>
0

> <i_epik_Tot_abs_Q>
0

> <r_epik_Metal_State_Penalty>
-0

> <b_epik_Metal_Only>
0

> <s_lp_Force_Field>
OPLS_2005

> <r_lp_Energy>
57.3202

> <b_lp_Chiralities_Consistent>
1

> <s_lp_Variant>
AV-unprocessed.smi:2693-8

> <Gold.Version>
5.8.1

> <Gold.Id.Protein>
6NUR|6NUR_protein|mol2

> <Gold.PLP.Fitness>
38.2605

> <Gold.PLP.PLP>
-27.4662

> <Gold.PLP.part.hbond>
-2.8337

> <Gold.PLP.part.metal>
0.0000

> <Gold.PLP.part.buried>
-3.9211

> <Gold.PLP.part.nonpolar>
-20.8062

> <Gold.PLP.part.repulsive>
0.2406

> <Gold.PLP.ligand.clash>
0.0000

> <Gold.PLP.ligand.torsion>
0.4868

> <Gold.PLP.Chemscore.Hbond>
2.8346

> <Gold.PLP.Chemscore.CHOScore>
1.0000

> <Gold.PLP.Chemscore.Metal>
0.0000

> <Gold.Chemscore.Hbonds>
donor molecule, donor type, donor heavy atom, donor atom, acceptor molecule, acceptor atom, score
      L1  H     8    30       P1  7948  1.00
      L1  H    11    31       P1  7948  1.00
      P1  H  7989  7998       L1    22  0.90
      L1  C    21    45       P1  7957  1.00

> <Gold.PLP.Chemscore.Internal.Correction>
0.2642

> <Gold.Rescore>
     Score         DG    S(hbond)    S(metal)    S(lipo)     H(rot)  DE(clash)    DE(int)     intcor
     15.36     -16.81       1.94        0.00      63.28       1.00       0.14       1.31       ----

> <Gold.Chemscore.Fitness>
15.3618

> <Gold.Chemscore.DG>
-16.8099

> <Gold.Chemscore.ZeroCoef>
-5.4800

> <Gold.Chemscore.Hbond>
1.9418

> <Gold.Chemscore.Metal>
0.0000

> <Gold.Chemscore.Lipo>
63.2833

> <Gold.Chemscore.Internal_Hbond>
0.0000

> <Gold.Chemscore.DEClash>
0.1372

> <Gold.Chemscore.DEInternal>
1.3110

> <Gold.Chemscore.Rot>
1.0000

> <Gold.Chemscore.Internal.Correction>
   9.000000E+99

> <Gold.Chemscore.Hbonds>
donor molecule, donor type, donor heavy atom, donor atom, acceptor molecule, acceptor atom, score
      L1  H     8    30       P1  7948  0.96
      L1  H    11    31       P1  7948  0.95
      P1  H  7989  7998       L1    22  0.17

> <Gold.Chemscore.Hbond.Weighted>
-6.4858

> <Gold.Chemscore.Metal.Weighted>
-0.0000

> <Gold.Chemscore.Lipo.Weighted>
-7.4041

> <Gold.Chemscore.Internal_Hbond.Weighted>
0.0000

> <Gold.Chemscore.DEClash.Weighted>
0.1372

> <Gold.Chemscore.DEInternal.Weighted>
1.3110

> <Gold.Chemscore.Rot.Weighted>
2.5600

> <Gold.Chemscore.Internal.Correction.Weighted>
   9.000000E+99

> <Gold.Protein.RotatedTorsions>
[ 6907 6896 6895 6894 ] final  105.66 input  -60.11 | X-H torsion
[ 7974 7965 7964 7962 ] final   12.21 input  175.53 | X-H torsion
[ 8008 7997 7996 7995 ] final   90.83 input   59.86 | X-H torsion
[ 10167 10162 10161 10158 ] final  109.96 input  -65.29 | X-H torsion
[ 10718 10713 10712 10709 ] final  122.16 input   66.30 | X-H torsion
[ 10763 10752 10751 10750 ] final  173.43 input  -60.55 | X-H torsion
[ 11005 11000 10999 10996 ] final  -13.16 input  -57.11 | X-H torsion

> <Gold.Protein.ActiveResidues>
 VAL166  LYS551  ARG553  GLY616  TRP617  ASP618  TYR619  PRO620  LYS621  CYS622 
 ASP623  PHE694  ASN695  SER759  ASP760  ASP761  ALA762  ILE779  LEU786  VAL792 
 PHE793  MET794  SER795  GLU796  ALA797  LYS798  CYS799  TRP800  GLU811  SER814 

> <Gold.Protein.RotatedAtoms>
  152.5222  133.9496  159.7665 H   0  0  0  0  0  0  0  0  0  0  0  0  # atno 6907 bound_to 6896
  150.9808  133.6239  159.2730 H   0  0  0  0  0  0  0  0  0  0  0  0  # atno 6908 bound_to 6896
  151.3417  135.0871  159.9426 H   0  0  0  0  0  0  0  0  0  0  0  0  # atno 6909 bound_to 6896
  146.2356  139.9370  142.8488 H   0  0  0  0  0  0  0  0  0  0  0  0  # atno 7974 bound_to 7965
  156.0166  140.3345  155.6995 H   0  0  0  0  0  0  0  0  0  0  0  0  # atno 8008 bound_to 7997
  155.6082  140.0662  157.2731 H   0  0  0  0  0  0  0  0  0  0  0  0  # atno 8009 bound_to 7997
  154.4300  140.1798  156.1232 H   0  0  0  0  0  0  0  0  0  0  0  0  # atno 8010 bound_to 7997
  139.6725  144.7124  151.1661 H   0  0  0  0  0  0  0  0  0  0  0  0  # atno 10167 bound_to 10162
  157.5763  131.1079  150.8272 H   0  0  0  0  0  0  0  0  0  0  0  0  # atno 10718 bound_to 10713
  154.4400  135.2762  155.1854 H   0  0  0  0  0  0  0  0  0  0  0  0  # atno 10763 bound_to 10752
  154.3725  135.6105  153.5751 H   0  0  0  0  0  0  0  0  0  0  0  0  # atno 10764 bound_to 10752
  152.9840  135.5860  154.4726 H   0  0  0  0  0  0  0  0  0  0  0  0  # atno 10765 bound_to 10752
  140.7733  133.8421  155.9226 H   0  0  0  0  0  0  0  0  0  0  0  0  # atno 11005 bound_to 11000
  145.1989  140.9845  143.4167 LP  0  0  0  0  0  0  0  0  0  0  0  0  # atno 17320 bound_to 7965
  144.9791  139.3801  143.6271 LP  0  0  0  0  0  0  0  0  0  0  0  0  # atno 17321 bound_to 7965
  140.7623  143.5821  150.8883 LP  0  0  0  0  0  0  0  0  0  0  0  0  # atno 17342 bound_to 10162
  139.9488  143.6296  152.3034 LP  0  0  0  0  0  0  0  0  0  0  0  0  # atno 17343 bound_to 10162
  156.8730  130.5153  149.5295 LP  0  0  0  0  0  0  0  0  0  0  0  0  # atno 17370 bound_to 10713
  156.0808  130.5819  150.9559 LP  0  0  0  0  0  0  0  0  0  0  0  0  # atno 17371 bound_to 10713
  140.9553  134.1726  157.4696 LP  0  0  0  0  0  0  0  0  0  0  0  0  # atno 17394 bound_to 11000
  139.8752  134.9924  156.5597 LP  0  0  0  0  0  0  0  0  0  0  0  0  # atno 17395 bound_to 11000

$$$$
