AV-unprocessed.smi:1095|AV-procd|sdf|4747|dock2
  -GOLD-   22720 3283D 1   1.00000     0.00000
 Structure written by MMmdl.
 50 51  0  0  0  0  0  0  0  0  1 V2000
  151.6145  145.4243  160.1274 C   0  0  0  0  0  0  0  0  0  0  0  0
  152.4141  145.0677  158.8665 C   0  0  0  0  0  0  0  0  0  0  0  0
  152.4393  143.5600  158.5425 C   0  0  2  0  0  0  0  0  0  0  0  0
  151.0610  143.0843  158.0432 C   0  0  0  0  0  0  0  0  0  0  0  0
  151.0631  141.5860  157.7013 C   0  0  0  0  0  0  0  0  0  0  0  0
  151.4989  140.7270  158.9031 C   0  0  1  0  0  0  0  0  0  0  0  0
  151.4744  139.2267  158.5427 C   0  0  0  0  0  0  0  0  0  0  0  0
  150.1101  138.7156  158.4731 N   0  0  0  0  0  0  0  0  0  0  0  0
  149.6874  137.5422  158.9688 C   0  0  0  0  0  0  0  0  0  0  0  0
  150.4358  136.6939  159.4533 O   0  0  0  0  0  0  0  0  0  0  0  0
  148.1775  137.3121  158.9571 C   0  0  0  0  0  0  0  0  0  0  0  0
  147.8734  136.0304  159.6925 C   0  0  0  0  0  0  0  0  0  0  0  0
  148.0014  134.6939  159.2084 C   0  0  0  0  0  0  0  0  0  0  0  0
  148.4654  134.2281  157.8580 C   0  0  0  0  0  0  0  0  0  0  0  0
  147.6318  133.7949  160.1048 N   0  0  0  0  0  0  0  0  0  0  0  0
  147.2591  134.5147  161.1816 N   0  0  0  0  0  0  0  0  0  0  0  0
  146.7866  133.8265  162.3672 C   0  0  0  0  0  0  0  0  0  0  0  0
  147.3879  135.8725  160.9631 C   0  0  0  0  0  0  0  0  0  0  0  0
  147.0239  136.8856  162.0002 C   0  0  0  0  0  0  0  0  0  0  0  0
  152.8767  141.2020  159.4146 C   0  0  0  0  0  0  0  0  0  0  0  0
  152.8796  142.7026  159.7471 C   0  0  0  0  0  0  0  0  0  0  0  0
  151.6985  146.4888  160.3471 H   0  0  0  0  0  0  0  0  0  0  0  0
  151.9824  144.8775  160.9960 H   0  0  0  0  0  0  0  0  0  0  0  0
  150.5544  145.1999  160.0109 H   0  0  0  0  0  0  0  0  0  0  0  0
  152.0214  145.6246  158.0150 H   0  0  0  0  0  0  0  0  0  0  0  0
  153.4375  145.4172  159.0080 H   0  0  0  0  0  0  0  0  0  0  0  0
  153.1544  143.4034  157.7334 H   0  0  0  0  0  0  0  0  0  0  0  0
  150.3043  143.2824  158.8035 H   0  0  0  0  0  0  0  0  0  0  0  0
  150.7666  143.6541  157.1611 H   0  0  0  0  0  0  0  0  0  0  0  0
  150.0665  141.2887  157.3732 H   0  0  0  0  0  0  0  0  0  0  0  0
  151.7308  141.4069  156.8576 H   0  0  0  0  0  0  0  0  0  0  0  0
  150.7743  140.8861  159.7034 H   0  0  0  0  0  0  0  0  0  0  0  0
  151.9315  139.0752  157.5645 H   0  0  0  0  0  0  0  0  0  0  0  0
  152.0777  138.6567  159.2512 H   0  0  0  0  0  0  0  0  0  0  0  0
  149.4141  139.3403  158.0921 H   0  0  0  0  0  0  0  0  0  0  0  0
  147.6754  138.1668  159.4118 H   0  0  0  0  0  0  0  0  0  0  0  0
  147.8297  137.2752  157.9240 H   0  0  0  0  0  0  0  0  0  0  0  0
  149.1927  134.9172  157.4299 H   0  0  0  0  0  0  0  0  0  0  0  0
  147.6278  134.1563  157.1640 H   0  0  0  0  0  0  0  0  0  0  0  0
  148.9380  133.2467  157.9134 H   0  0  0  0  0  0  0  0  0  0  0  0
  145.7186  134.0063  162.4919 H   0  0  0  0  0  0  0  0  0  0  0  0
  147.3163  134.1984  163.2445 H   0  0  0  0  0  0  0  0  0  0  0  0
  146.9576  132.7523  162.2832 H   0  0  0  0  0  0  0  0  0  0  0  0
  146.9545  137.8843  161.5694 H   0  0  0  0  0  0  0  0  0  0  0  0
  147.7712  136.9115  162.7933 H   0  0  0  0  0  0  0  0  0  0  0  0
  146.0584  136.6542  162.4505 H   0  0  0  0  0  0  0  0  0  0  0  0
  153.1653  140.6487  160.3083 H   0  0  0  0  0  0  0  0  0  0  0  0
  153.6402  140.9929  158.6643 H   0  0  0  0  0  0  0  0  0  0  0  0
  153.8801  142.9866  160.0722 H   0  0  0  0  0  0  0  0  0  0  0  0
  152.2171  142.8870  160.5940 H   0  0  0  0  0  0  0  0  0  0  0  0
  1  2  1  0  0  0  0
  1 22  1  0  0  0  0
  1 23  1  0  0  0  0
  1 24  1  0  0  0  0
  2  3  1  0  0  0  0
  2 25  1  0  0  0  0
  2 26  1  0  0  0  0
  3 21  1  0  0  0  0
  3  4  1  0  0  0  0
  3 27  1  0  0  0  0
  4  5  1  0  0  0  0
  4 28  1  0  0  0  0
  4 29  1  0  0  0  0
  5  6  1  0  0  0  0
  5 30  1  0  0  0  0
  5 31  1  0  0  0  0
  6  7  1  0  0  0  0
  6 20  1  0  0  0  0
  6 32  1  0  0  0  0
  7  8  1  0  0  0  0
  7 33  1  0  0  0  0
  7 34  1  0  0  0  0
  8  9  1  0  0  0  0
  8 35  1  0  0  0  0
  9 10  2  0  0  0  0
  9 11  1  0  0  0  0
 11 12  1  0  0  0  0
 11 36  1  0  0  0  0
 11 37  1  0  0  0  0
 12 18  2  0  0  0  0
 12 13  1  0  0  0  0
 13 14  1  0  0  0  0
 13 15  2  0  0  0  0
 14 38  1  0  0  0  0
 14 39  1  0  0  0  0
 14 40  1  0  0  0  0
 15 16  1  0  0  0  0
 16 17  1  0  0  0  0
 16 18  1  0  0  0  0
 17 41  1  0  0  0  0
 17 42  1  0  0  0  0
 17 43  1  0  0  0  0
 18 19  1  0  0  0  0
 19 44  1  0  0  0  0
 19 45  1  0  0  0  0
 19 46  1  0  0  0  0
 20 21  1  0  0  0  0
 20 47  1  0  0  0  0
 20 48  1  0  0  0  0
 21 49  1  0  0  0  0
 21 50  1  0  0  0  0
M  END
> <s_m_source_file>
AV-unprocessed.smi

> <i_m_source_file_index>
1095

> <i_lp_mmshare_version>
43012

> <i_f3d_flags>
0

> <s_epik_input>
W0NIM11bQ0gyXVtDQEBIXTFbQ0gyXVtDSDJdW0NASF0oW0NIMl1bQ0gyXTEpW0NIMl1bTkhdQyg9TylbQ0gyXWMyYyhbQ0gzXSlubihbQ0gzXSljMltDSDNd

> <s_epik_cmdline>
J2VwaWtfcHl0aG9uJywgJy1waCcsICc3LjAnLCAnLXRuJywgJzgnLCAnLW1hJywgJzIwMCcsICctbWV0YWxfYmluZGluZycsICctaW1hZScsICc8aW5maWxlLm1hZT4nLCAnLW9tYWUnLCAnPG91dGZpbGUubWFlPic=

> <r_lp_tautomer_probability>
1

> <r_epik_Ionization_Penalty>
0.00317479

> <r_epik_Ionization_Penalty_Charging>
0

> <r_epik_Ionization_Penalty_Neutral>
0.00317479

> <r_epik_State_Penalty>
0.00223767

> <r_epik_Charging_Adjusted_Penalty>
0.00223767

> <i_epik_Tot_Q>
0

> <i_epik_Tot_abs_Q>
0

> <r_epik_Metal_State_Penalty>
-0

> <b_epik_Metal_Only>
0

> <s_lp_Force_Field>
OPLS_2005

> <r_lp_Energy>
5.54232

> <b_lp_Chiralities_Consistent>
1

> <s_lp_Variant>
AV-unprocessed.smi:1095-1

> <Gold.Version>
5.8.1

> <Gold.Id.Protein>
6NUR|6NUR_protein|mol2

> <Gold.PLP.Fitness>
48.1051

> <Gold.PLP.PLP>
-46.2064

> <Gold.PLP.part.hbond>
-1.0000

> <Gold.PLP.part.metal>
0.0000

> <Gold.PLP.part.buried>
-5.5817

> <Gold.PLP.part.nonpolar>
-40.4568

> <Gold.PLP.part.repulsive>
0.1682

> <Gold.PLP.ligand.clash>
0.0000

> <Gold.PLP.ligand.torsion>
0.5720

> <Gold.PLP.Chemscore.Hbond>
1.0000

> <Gold.PLP.Chemscore.CHOScore>
0.0000

> <Gold.PLP.Chemscore.Metal>
0.0000

> <Gold.Chemscore.Hbonds>
donor molecule, donor type, donor heavy atom, donor atom, acceptor molecule, acceptor atom, score
      P1  H  6896  6907       L1    10  1.00

> <Gold.PLP.Chemscore.Internal.Correction>
0.0427

> <Gold.Rescore>
     Score         DG    S(hbond)    S(metal)    S(lipo)     H(rot)  DE(clash)    DE(int)     intcor
     19.48     -20.15       0.97        0.00     129.15       1.43       0.11       0.55       ----

> <Gold.Chemscore.Fitness>
19.4815

> <Gold.Chemscore.DG>
-20.1470

> <Gold.Chemscore.ZeroCoef>
-5.4800

> <Gold.Chemscore.Hbond>
0.9659

> <Gold.Chemscore.Metal>
0.0000

> <Gold.Chemscore.Lipo>
129.1510

> <Gold.Chemscore.Internal_Hbond>
0.0000

> <Gold.Chemscore.DEClash>
0.1112

> <Gold.Chemscore.DEInternal>
0.5543

> <Gold.Chemscore.Rot>
1.4336

> <Gold.Chemscore.Internal.Correction>
   9.000000E+99

> <Gold.Chemscore.Hbonds>
donor molecule, donor type, donor heavy atom, donor atom, acceptor molecule, acceptor atom, score
      P1  H  6896  6907       L1    10  0.99

> <Gold.Chemscore.Hbond.Weighted>
-3.2262

> <Gold.Chemscore.Metal.Weighted>
-0.0000

> <Gold.Chemscore.Lipo.Weighted>
-15.1107

> <Gold.Chemscore.Internal_Hbond.Weighted>
0.0000

> <Gold.Chemscore.DEClash.Weighted>
0.1112

> <Gold.Chemscore.DEInternal.Weighted>
0.5543

> <Gold.Chemscore.Rot.Weighted>
3.6700

> <Gold.Chemscore.Internal.Correction.Weighted>
   9.000000E+99

> <Gold.Protein.RotatedTorsions>
[ 6907 6896 6895 6894 ] final  -44.46 input  -60.11 | X-H torsion
[ 7974 7965 7964 7962 ] final  106.13 input  175.53 | X-H torsion
[ 8008 7997 7996 7995 ] final   60.54 input   59.86 | X-H torsion
[ 10167 10162 10161 10158 ] final  -55.65 input  -65.29 | X-H torsion
[ 10718 10713 10712 10709 ] final  156.55 input   66.30 | X-H torsion
[ 10763 10752 10751 10750 ] final  -44.24 input  -60.55 | X-H torsion
[ 11005 11000 10999 10996 ] final  177.18 input  -57.11 | X-H torsion

> <Gold.Protein.ActiveResidues>
 VAL166  LYS551  ARG553  GLY616  TRP617  ASP618  TYR619  PRO620  LYS621  CYS622 
 ASP623  PHE694  ASN695  SER759  ASP760  ASP761  ALA762  ILE779  LEU786  VAL792 
 PHE793  MET794  SER795  GLU796  ALA797  LYS798  CYS799  TRP800  GLU811  SER814 

> <Gold.Protein.RotatedAtoms>
  150.9326  134.8740  159.7560 H   0  0  0  0  0  0  0  0  0  0  0  0  # atno 6907 bound_to 6896
  152.5045  134.4057  159.9441 H   0  0  0  0  0  0  0  0  0  0  0  0  # atno 6908 bound_to 6896
  151.4082  133.3696  159.2775 H   0  0  0  0  0  0  0  0  0  0  0  0  # atno 6909 bound_to 6896
  145.3107  139.2541  143.3764 H   0  0  0  0  0  0  0  0  0  0  0  0  # atno 7974 bound_to 7965
  155.5839  140.3492  155.4548 H   0  0  0  0  0  0  0  0  0  0  0  0  # atno 8008 bound_to 7997
  156.0352  140.1283  157.0240 H   0  0  0  0  0  0  0  0  0  0  0  0  # atno 8009 bound_to 7997
  154.4369  140.1035  156.6143 H   0  0  0  0  0  0  0  0  0  0  0  0  # atno 8010 bound_to 7997
  140.6362  143.2483  151.5111 H   0  0  0  0  0  0  0  0  0  0  0  0  # atno 10167 bound_to 10162
  157.2034  131.0681  151.2012 H   0  0  0  0  0  0  0  0  0  0  0  0  # atno 10718 bound_to 10713
  154.0088  135.6684  153.4764 H   0  0  0  0  0  0  0  0  0  0  0  0  # atno 10763 bound_to 10752
  153.0630  135.5017  154.8133 H   0  0  0  0  0  0  0  0  0  0  0  0  # atno 10764 bound_to 10752
  154.7008  135.3078  154.9307 H   0  0  0  0  0  0  0  0  0  0  0  0  # atno 10765 bound_to 10752
  140.3813  134.6944  157.4452 H   0  0  0  0  0  0  0  0  0  0  0  0  # atno 11005 bound_to 11000
  146.3119  140.3642  142.8668 LP  0  0  0  0  0  0  0  0  0  0  0  0  # atno 17320 bound_to 7965
  144.9018  140.7652  143.5862 LP  0  0  0  0  0  0  0  0  0  0  0  0  # atno 17321 bound_to 7965
  139.5573  144.2245  152.1633 LP  0  0  0  0  0  0  0  0  0  0  0  0  # atno 17342 bound_to 10162
  140.1502  144.5122  150.6692 LP  0  0  0  0  0  0  0  0  0  0  0  0  # atno 17343 bound_to 10162
  157.3744  130.7198  149.6587 LP  0  0  0  0  0  0  0  0  0  0  0  0  # atno 17370 bound_to 10713
  155.9698  130.4190  150.4353 LP  0  0  0  0  0  0  0  0  0  0  0  0  # atno 17371 bound_to 10713
  140.0476  134.6177  155.8901 LP  0  0  0  0  0  0  0  0  0  0  0  0  # atno 17394 bound_to 11000
  141.1922  133.6574  156.5493 LP  0  0  0  0  0  0  0  0  0  0  0  0  # atno 17395 bound_to 11000

$$$$
