AV-unprocessed.smi:912|AV-procd|sdf|4147|dock7
  -GOLD-   22720 2 53D 1   1.00000     0.00000
 Structure written by MMmdl.
 26 26  0  0  0  0  0  0  0  0  3 V2000
  146.1992  137.8351  151.7590 C   0  0  0  0  0  0  0  0  0  0  0  0
  146.1329  136.4290  151.2983 N   0  3  0  0  0  0  0  0  0  0  0  0
  145.3148  135.4696  152.0985 C   0  0  2  0  0  0  0  0  0  0  0  0
  143.9286  136.0795  152.4236 C   0  0  0  0  0  0  0  0  0  0  0  0
  146.1086  135.1428  153.4001 C   0  0  0  0  0  0  0  0  0  0  0  0
  147.3543  134.6694  153.1689 N   0  5  0  0  0  0  0  0  0  0  0  0
  145.5905  135.3259  154.5008 O   0  0  0  0  0  0  0  0  0  0  0  0
  145.0713  134.1902  151.2659 C   0  0  0  0  0  0  0  0  0  0  0  0
  146.1401  133.4366  150.7177 C   0  0  0  0  0  0  0  0  0  0  0  0
  145.8566  132.2616  149.9945 C   0  0  0  0  0  0  0  0  0  0  0  0
  144.6071  131.7920  149.8025 N   0  0  0  0  0  0  0  0  0  0  0  0
  143.5874  132.4897  150.3416 C   0  0  0  0  0  0  0  0  0  0  0  0
  143.7629  133.6767  151.0803 C   0  0  0  0  0  0  0  0  0  0  0  0
  146.9087  138.3833  151.1398 H   0  0  0  0  0  0  0  0  0  0  0  0
  146.5360  137.9091  152.7931 H   0  0  0  0  0  0  0  0  0  0  0  0
  145.2331  138.3310  151.6674 H   0  0  0  0  0  0  0  0  0  0  0  0
  145.7757  136.4278  150.3546 H   0  0  0  0  0  0  0  0  0  0  0  0
  143.2886  135.3556  152.9306 H   0  0  0  0  0  0  0  0  0  0  0  0
  143.4099  136.3864  151.5148 H   0  0  0  0  0  0  0  0  0  0  0  0
  143.9964  136.9520  153.0743 H   0  0  0  0  0  0  0  0  0  0  0  0
  148.0486  135.2830  152.7266 H   0  0  0  0  0  0  0  0  0  0  0  0
  147.1688  133.7403  150.8440 H   0  0  0  0  0  0  0  0  0  0  0  0
  146.6581  131.6785  149.5658 H   0  0  0  0  0  0  0  0  0  0  0  0
  142.5976  132.0861  150.1861 H   0  0  0  0  0  0  0  0  0  0  0  0
  142.8946  134.1663  151.4945 H   0  0  0  0  0  0  0  0  0  0  0  0
  147.0738  136.0606  151.2854 H   0  0  0  0  0  0  0  0  0  0  0  0
  1  2  1  0  0  0  0
  1 14  1  0  0  0  0
  1 15  1  0  0  0  0
  1 16  1  0  0  0  0
  2  3  1  0  0  0  0
  2 17  1  0  0  0  0
  2 26  1  0  0  0  0
  3  4  1  0  0  0  0
  3  5  1  0  0  0  0
  3  8  1  0  0  0  0
  4 18  1  0  0  0  0
  4 19  1  0  0  0  0
  4 20  1  0  0  0  0
  5  6  1  0  0  0  0
  5  7  2  0  0  0  0
  6 21  1  0  0  0  0
  8 13  1  0  0  0  0
  8  9  2  0  0  0  0
  9 10  1  0  0  0  0
  9 22  1  0  0  0  0
 10 11  2  0  0  0  0
 10 23  1  0  0  0  0
 11 12  1  0  0  0  0
 12 13  2  0  0  0  0
 12 24  1  0  0  0  0
 13 25  1  0  0  0  0
M  CHG  1   2   1
M  CHG  1   6  -1
M  END
> <s_m_source_file>
AV-unprocessed.smi

> <i_m_source_file_index>
912

> <i_lp_mmshare_version>
43012

> <i_f3d_flags>
0

> <s_epik_input>
W0NIM11bTkhdW0NAQF0oW0NIM10pKEMoPU8pW05IMl0pYzFbY0hdW2NIXW5bY0hdW2NIXTE=

> <s_epik_cmdline>
J2VwaWtfcHl0aG9uJywgJy1waCcsICc3LjAnLCAnLXRuJywgJzgnLCAnLW1hJywgJzIwMCcsICctbWV0YWxfYmluZGluZycsICctaW1hZScsICc8aW5maWxlLm1hZT4nLCAnLW9tYWUnLCAnPG91dGZpbGUubWFlPic=

> <r_epik_Ionization_Penalty>
6.88213

> <r_epik_Ionization_Penalty_Charging>
6.88153

> <r_epik_Ionization_Penalty_Neutral>
0.000601258

> <r_epik_State_Penalty>
7.02604

> <r_epik_Charging_Adjusted_Penalty>
13.9076

> <i_epik_Tot_Q>
0

> <i_epik_Tot_abs_Q>
2

> <r_epik_Metal_State_Penalty>
3.10652

> <b_epik_Metal_Only>
1

> <s_lp_Force_Field>
OPLS_2005

> <r_lp_Energy>
7.66147

> <b_lp_Chiralities_Consistent>
1

> <s_lp_Variant>
AV-unprocessed.smi:912-8

> <Gold.Version>
5.8.1

> <Gold.Id.Protein>
6NUR|6NUR_protein|mol2

> <Gold.PLP.Fitness>
37.7220

> <Gold.PLP.PLP>
-23.2417

> <Gold.PLP.part.hbond>
-2.7935

> <Gold.PLP.part.metal>
0.0000

> <Gold.PLP.part.buried>
-2.3124

> <Gold.PLP.part.nonpolar>
-19.7475

> <Gold.PLP.part.repulsive>
0.2913

> <Gold.PLP.ligand.clash>
0.0000

> <Gold.PLP.ligand.torsion>
0.2945

> <Gold.PLP.Chemscore.Hbond>
3.0258

> <Gold.PLP.Chemscore.CHOScore>
1.9863

> <Gold.PLP.Chemscore.Metal>
0.0000

> <Gold.Chemscore.Hbonds>
donor molecule, donor type, donor heavy atom, donor atom, acceptor molecule, acceptor atom, score
      L1  H     2    26       P1  7948  1.98
      L1  H     6    21       P1  7948  1.00
      P1  H 10785 10796       L1    11  0.03
      L1  C    10    23       P1 10747  0.98
      L1  C    12    24       P1 10186  0.05
      L1  C    12    24       P1 10952  0.94

> <Gold.PLP.Chemscore.Internal.Correction>
0.0332

> <Gold.Rescore>
     Score         DG    S(hbond)    S(metal)    S(lipo)     H(rot)  DE(clash)    DE(int)     intcor
     12.68     -14.05       1.98        0.00      56.26       1.80       0.08       1.29       ----

> <Gold.Chemscore.Fitness>
12.6759

> <Gold.Chemscore.DG>
-14.0489

> <Gold.Chemscore.ZeroCoef>
-5.4800

> <Gold.Chemscore.Hbond>
1.9773

> <Gold.Chemscore.Metal>
0.0000

> <Gold.Chemscore.Lipo>
56.2584

> <Gold.Chemscore.Internal_Hbond>
0.0000

> <Gold.Chemscore.DEClash>
0.0825

> <Gold.Chemscore.DEInternal>
1.2904

> <Gold.Chemscore.Rot>
1.8037

> <Gold.Chemscore.Internal.Correction>
   9.000000E+99

> <Gold.Chemscore.Hbonds>
donor molecule, donor type, donor heavy atom, donor atom, acceptor molecule, acceptor atom, score
      L1  H     2    26       P1  7948  0.94
      L1  H     6    21       P1  7948  0.94
      P1  H 10785 10796       L1    11  0.01

> <Gold.Chemscore.Hbond.Weighted>
-6.6041

> <Gold.Chemscore.Metal.Weighted>
-0.0000

> <Gold.Chemscore.Lipo.Weighted>
-6.5822

> <Gold.Chemscore.Internal_Hbond.Weighted>
0.0000

> <Gold.Chemscore.DEClash.Weighted>
0.0825

> <Gold.Chemscore.DEInternal.Weighted>
1.2904

> <Gold.Chemscore.Rot.Weighted>
4.6174

> <Gold.Chemscore.Internal.Correction.Weighted>
   9.000000E+99

> <Gold.Protein.RotatedTorsions>
[ 6907 6896 6895 6894 ] final  157.12 input  -60.11 | X-H torsion
[ 7974 7965 7964 7962 ] final  145.60 input  175.53 | X-H torsion
[ 8008 7997 7996 7995 ] final -150.06 input   59.86 | X-H torsion
[ 10167 10162 10161 10158 ] final   63.83 input  -65.29 | X-H torsion
[ 10718 10713 10712 10709 ] final  -96.69 input   66.30 | X-H torsion
[ 10763 10752 10751 10750 ] final  -48.23 input  -60.55 | X-H torsion
[ 11005 11000 10999 10996 ] final  176.00 input  -57.11 | X-H torsion

> <Gold.Protein.ActiveResidues>
 VAL166  LYS551  ARG553  GLY616  TRP617  ASP618  TYR619  PRO620  LYS621  CYS622 
 ASP623  PHE694  ASN695  SER759  ASP760  ASP761  ALA762  ILE779  LEU786  VAL792 
 PHE793  MET794  SER795  GLU796  ALA797  LYS798  CYS799  TRP800  GLU811  SER814 

> <Gold.Protein.RotatedAtoms>
  152.0198  133.3894  159.4253 H   0  0  0  0  0  0  0  0  0  0  0  0  # atno 6907 bound_to 6896
  150.6891  134.3639  159.4971 H   0  0  0  0  0  0  0  0  0  0  0  0  # atno 6908 bound_to 6896
  152.1411  134.9061  160.0604 H   0  0  0  0  0  0  0  0  0  0  0  0  # atno 6909 bound_to 6896
  144.8739  139.5803  143.5874 H   0  0  0  0  0  0  0  0  0  0  0  0  # atno 7974 bound_to 7965
  155.6176  140.0678  157.2687 H   0  0  0  0  0  0  0  0  0  0  0  0  # atno 8008 bound_to 7997
  154.4237  140.1790  156.1386 H   0  0  0  0  0  0  0  0  0  0  0  0  # atno 8009 bound_to 7997
  156.0035  140.3334  155.6872 H   0  0  0  0  0  0  0  0  0  0  0  0  # atno 8010 bound_to 7997
  140.1288  144.4662  150.6877 H   0  0  0  0  0  0  0  0  0  0  0  0  # atno 10167 bound_to 10162
  156.0067  130.5162  150.6263 H   0  0  0  0  0  0  0  0  0  0  0  0  # atno 10718 bound_to 10713
  154.0744  135.6600  153.4829 H   0  0  0  0  0  0  0  0  0  0  0  0  # atno 10763 bound_to 10752
  153.0379  135.5165  154.7535 H   0  0  0  0  0  0  0  0  0  0  0  0  # atno 10764 bound_to 10752
  154.6611  135.3015  154.9833 H   0  0  0  0  0  0  0  0  0  0  0  0  # atno 10765 bound_to 10752
  140.3683  134.7052  157.4376 H   0  0  0  0  0  0  0  0  0  0  0  0  # atno 11005 bound_to 11000
  146.2949  139.7248  142.9134 LP  0  0  0  0  0  0  0  0  0  0  0  0  # atno 17320 bound_to 7965
  145.4079  141.0393  143.3033 LP  0  0  0  0  0  0  0  0  0  0  0  0  # atno 17321 bound_to 7965
  140.6829  143.2335  151.5337 LP  0  0  0  0  0  0  0  0  0  0  0  0  # atno 17342 bound_to 10162
  139.5530  144.2346  152.1564 LP  0  0  0  0  0  0  0  0  0  0  0  0  # atno 17343 bound_to 10162
  157.4069  131.0818  151.1257 LP  0  0  0  0  0  0  0  0  0  0  0  0  # atno 17370 bound_to 10713
  157.1901  130.6348  149.5701 LP  0  0  0  0  0  0  0  0  0  0  0  0  # atno 17371 bound_to 10713
  140.0572  134.6047  155.8792 LP  0  0  0  0  0  0  0  0  0  0  0  0  # atno 17394 bound_to 11000
  141.1962  133.6591  156.5682 LP  0  0  0  0  0  0  0  0  0  0  0  0  # atno 17395 bound_to 11000

$$$$
