AV-unprocessed.smi:1484|AV-procd|sdf|5998|dock3
  -GOLD-   22720 6 93D 1   1.00000     0.00000
 Structure written by MMmdl.
 38 39  0  0  0  0  0  0  0  0  1 V2000
  151.8393  145.5403  160.1733 C   0  0  0  0  0  0  0  0  0  0  0  0
  152.1707  144.2891  159.3477 C   0  0  1  0  0  0  0  0  0  0  0  0
  152.3895  143.0604  160.2508 C   0  0  0  0  0  0  0  0  0  0  0  0
  152.7216  141.8077  159.4252 C   0  0  0  0  0  0  0  0  0  0  0  0
  151.6336  141.5246  158.3783 C   0  0  0  0  0  0  0  0  0  0  0  0
  151.4010  142.7457  157.4660 C   0  0  1  0  0  0  0  0  0  0  0  0
  150.3061  142.4898  156.5375 N   0  0  0  0  0  0  0  0  0  0  0  0
  150.2838  141.5368  155.5902 C   0  0  0  0  0  0  0  0  0  0  0  0
  151.2164  140.7544  155.4098 O   0  0  0  0  0  0  0  0  0  0  0  0
  149.0317  141.4252  154.7023 C   0  0  0  0  0  0  0  0  0  0  0  0
  147.7512  141.5664  155.4152 N   0  0  0  0  0  0  0  0  0  0  0  0
  147.8711  141.5711  156.7968 N   0  0  0  0  0  0  0  0  0  0  0  0
  146.8216  141.7058  157.5348 C   0  0  0  0  0  0  0  0  0  0  0  0
  146.9869  141.7083  158.8980 O   0  0  0  0  0  0  0  0  0  0  0  0
  145.5076  141.8505  156.9481 C   0  0  0  0  0  0  0  0  0  0  0  0
  145.4002  141.8426  155.6014 C   0  0  0  0  0  0  0  0  0  0  0  0
  146.5706  141.6949  154.7345 C   0  0  0  0  0  0  0  0  0  0  0  0
  146.5036  141.6964  153.5057 O   0  0  0  0  0  0  0  0  0  0  0  0
  151.0778  143.9993  158.3007 C   0  0  0  0  0  0  0  0  0  0  0  0
  147.4637  142.5009  159.0913 H   0  0  0  0  0  0  0  0  0  0  0  0
  150.9163  145.4095  160.7393 H   0  0  0  0  0  0  0  0  0  0  0  0
  151.7156  146.4131  159.5315 H   0  0  0  0  0  0  0  0  0  0  0  0
  152.6363  145.7646  160.8829 H   0  0  0  0  0  0  0  0  0  0  0  0
  153.1023  144.4856  158.8146 H   0  0  0  0  0  0  0  0  0  0  0  0
  153.1962  143.2552  160.9583 H   0  0  0  0  0  0  0  0  0  0  0  0
  151.4945  142.8755  160.8466 H   0  0  0  0  0  0  0  0  0  0  0  0
  153.6820  141.9425  158.9263 H   0  0  0  0  0  0  0  0  0  0  0  0
  152.8341  140.9470  160.0851 H   0  0  0  0  0  0  0  0  0  0  0  0
  151.9181  140.6566  157.7825 H   0  0  0  0  0  0  0  0  0  0  0  0
  150.7047  141.2598  158.8856 H   0  0  0  0  0  0  0  0  0  0  0  0
  152.3121  142.9420  156.8973 H   0  0  0  0  0  0  0  0  0  0  0  0
  149.4973  143.0894  156.6159 H   0  0  0  0  0  0  0  0  0  0  0  0
  149.1040  142.1652  153.9035 H   0  0  0  0  0  0  0  0  0  0  0  0
  149.0661  140.4575  154.1984 H   0  0  0  0  0  0  0  0  0  0  0  0
  144.6388  141.9607  157.5802 H   0  0  0  0  0  0  0  0  0  0  0  0
  144.4246  141.9497  155.1500 H   0  0  0  0  0  0  0  0  0  0  0  0
  150.1180  143.8686  158.8033 H   0  0  0  0  0  0  0  0  0  0  0  0
  150.9640  144.8598  157.6398 H   0  0  0  0  0  0  0  0  0  0  0  0
  1  2  1  0  0  0  0
  1 21  1  0  0  0  0
  1 22  1  0  0  0  0
  1 23  1  0  0  0  0
  2 19  1  0  0  0  0
  2  3  1  0  0  0  0
  2 24  1  0  0  0  0
  3  4  1  0  0  0  0
  3 25  1  0  0  0  0
  3 26  1  0  0  0  0
  4  5  1  0  0  0  0
  4 27  1  0  0  0  0
  4 28  1  0  0  0  0
  5  6  1  0  0  0  0
  5 29  1  0  0  0  0
  5 30  1  0  0  0  0
  6  7  1  0  0  0  0
  6 19  1  0  0  0  0
  6 31  1  0  0  0  0
  7  8  1  0  0  0  0
  7 32  1  0  0  0  0
  8  9  2  0  0  0  0
  8 10  1  0  0  0  0
 10 33  1  0  0  0  0
 10 34  1  0  0  0  0
 10 11  1  0  0  0  0
 11 12  1  0  0  0  0
 11 17  1  0  0  0  0
 12 13  2  0  0  0  0
 13 14  1  0  0  0  0
 13 15  1  0  0  0  0
 14 20  1  0  0  0  0
 15 35  1  0  0  0  0
 15 16  2  0  0  0  0
 16 36  1  0  0  0  0
 16 17  1  0  0  0  0
 17 18  2  0  0  0  0
 19 37  1  0  0  0  0
 19 38  1  0  0  0  0
M  END
> <s_m_source_file>
AV-unprocessed.smi

> <i_m_source_file_index>
1484

> <i_lp_mmshare_version>
43012

> <i_f3d_flags>
0

> <s_epik_input>
W0NIM11bQ0BASF0xW0NIMl1bQ0gyXVtDSDJdW0NASF0oW0NIMl0xKVtOSF1DKD1PKVtDSDJdbjJbbkhdYyg9TylbY0hdW2NIXWMyPU8=

> <s_epik_cmdline>
J2VwaWtfcHl0aG9uJywgJy1waCcsICc3LjAnLCAnLXRuJywgJzgnLCAnLW1hJywgJzIwMCcsICctbWV0YWxfYmluZGluZycsICctaW1hZScsICc8aW5maWxlLm1hZT4nLCAnLW9tYWUnLCAnPG91dGZpbGUubWFlPic=

> <r_lp_tautomer_probability>
0.9996

> <r_epik_Ionization_Penalty>
2.10343

> <r_epik_Ionization_Penalty_Charging>
3.97871e-08

> <r_epik_Ionization_Penalty_Neutral>
2.10343

> <r_epik_State_Penalty>
1.67966

> <r_epik_Charging_Adjusted_Penalty>
1.67966

> <i_epik_Tot_Q>
0

> <i_epik_Tot_abs_Q>
0

> <r_epik_Metal_State_Penalty>
1.67966

> <b_epik_Metal_Only>
0

> <s_lp_Force_Field>
OPLS_2005

> <r_lp_Energy>
20.3723

> <b_lp_Chiralities_Consistent>
1

> <s_lp_Variant>
AV-unprocessed.smi:1484-6

> <Gold.Version>
5.8.1

> <Gold.Id.Protein>
6NUR|6NUR_protein|mol2

> <Gold.PLP.Fitness>
45.9313

> <Gold.PLP.PLP>
-40.1807

> <Gold.PLP.part.hbond>
-3.0000

> <Gold.PLP.part.metal>
0.0000

> <Gold.PLP.part.buried>
-6.0629

> <Gold.PLP.part.nonpolar>
-31.6705

> <Gold.PLP.part.repulsive>
0.4298

> <Gold.PLP.ligand.clash>
0.0000

> <Gold.PLP.ligand.torsion>
0.3464

> <Gold.PLP.Chemscore.Hbond>
2.1460

> <Gold.PLP.Chemscore.CHOScore>
0.0000

> <Gold.PLP.Chemscore.Metal>
0.0000

> <Gold.Chemscore.Hbonds>
donor molecule, donor type, donor heavy atom, donor atom, acceptor molecule, acceptor atom, score
      L1  H     7    32       P1  8028  0.69
      P1  H  6934  6946       L1    14  0.56
      P1  H  7989  7998       L1     9  0.78

> <Gold.PLP.Chemscore.Internal.Correction>
0.0054

> <Gold.Rescore>
     Score         DG    S(hbond)    S(metal)    S(lipo)     H(rot)  DE(clash)    DE(int)     intcor
     13.56     -15.62       1.70        0.00      87.21       2.24       0.13       1.93       ----

> <Gold.Chemscore.Fitness>
13.5561

> <Gold.Chemscore.DG>
-15.6210

> <Gold.Chemscore.ZeroCoef>
-5.4800

> <Gold.Chemscore.Hbond>
1.6997

> <Gold.Chemscore.Metal>
0.0000

> <Gold.Chemscore.Lipo>
87.2126

> <Gold.Chemscore.Internal_Hbond>
0.0000

> <Gold.Chemscore.DEClash>
0.1313

> <Gold.Chemscore.DEInternal>
1.9336

> <Gold.Chemscore.Rot>
2.2421

> <Gold.Chemscore.Internal.Correction>
   9.000000E+99

> <Gold.Chemscore.Hbonds>
donor molecule, donor type, donor heavy atom, donor atom, acceptor molecule, acceptor atom, score
      L1  H     7    32       P1  8028  0.66
      P1  H  6934  6946       L1    14  0.16
      P1  H  7989  7998       L1     9  0.38

> <Gold.Chemscore.Hbond.Weighted>
-5.6769

> <Gold.Chemscore.Metal.Weighted>
-0.0000

> <Gold.Chemscore.Lipo.Weighted>
-10.2039

> <Gold.Chemscore.Internal_Hbond.Weighted>
0.0000

> <Gold.Chemscore.DEClash.Weighted>
0.1313

> <Gold.Chemscore.DEInternal.Weighted>
1.9336

> <Gold.Chemscore.Rot.Weighted>
5.7398

> <Gold.Chemscore.Internal.Correction.Weighted>
   9.000000E+99

> <Gold.Protein.RotatedTorsions>
[ 6907 6896 6895 6894 ] final  146.85 input  -60.11 | X-H torsion
[ 7974 7965 7964 7962 ] final  -36.10 input  175.53 | X-H torsion
[ 8008 7997 7996 7995 ] final   33.12 input   59.86 | X-H torsion
[ 10167 10162 10161 10158 ] final   35.07 input  -65.29 | X-H torsion
[ 10718 10713 10712 10709 ] final   67.14 input   66.30 | X-H torsion
[ 10763 10752 10751 10750 ] final -140.65 input  -60.55 | X-H torsion
[ 11005 11000 10999 10996 ] final   -5.62 input  -57.11 | X-H torsion

> <Gold.Protein.ActiveResidues>
 VAL166  LYS551  ARG553  GLY616  TRP617  ASP618  TYR619  PRO620  LYS621  CYS622 
 ASP623  PHE694  ASN695  SER759  ASP760  ASP761  ALA762  ILE779  LEU786  VAL792 
 PHE793  MET794  SER795  GLU796  ALA797  LYS798  CYS799  TRP800  GLU811  SER814 

> <Gold.Protein.RotatedAtoms>
  152.1624  133.4590  159.4867 H   0  0  0  0  0  0  0  0  0  0  0  0  # atno 6907 bound_to 6896
  150.6908  134.2054  159.4347 H   0  0  0  0  0  0  0  0  0  0  0  0  # atno 6908 bound_to 6896
  151.9957  134.9955  160.0614 H   0  0  0  0  0  0  0  0  0  0  0  0  # atno 6909 bound_to 6896
  146.0690  140.6238  142.8961 H   0  0  0  0  0  0  0  0  0  0  0  0  # atno 7974 bound_to 7965
  155.1335  140.3259  155.4468 H   0  0  0  0  0  0  0  0  0  0  0  0  # atno 8008 bound_to 7997
  156.2627  140.2006  156.6402 H   0  0  0  0  0  0  0  0  0  0  0  0  # atno 8009 bound_to 7997
  154.6595  140.0549  157.0033 H   0  0  0  0  0  0  0  0  0  0  0  0  # atno 8010 bound_to 7997
  140.4256  144.1398  150.6153 H   0  0  0  0  0  0  0  0  0  0  0  0  # atno 10167 bound_to 10162
  157.6212  130.9305  150.0203 H   0  0  0  0  0  0  0  0  0  0  0  0  # atno 10718 bound_to 10713
  154.8571  135.3547  154.5742 H   0  0  0  0  0  0  0  0  0  0  0  0  # atno 10763 bound_to 10752
  153.6354  135.7000  153.5265 H   0  0  0  0  0  0  0  0  0  0  0  0  # atno 10764 bound_to 10752
  153.3015  135.4205  155.1216 H   0  0  0  0  0  0  0  0  0  0  0  0  # atno 10765 bound_to 10752
  140.6931  133.9054  155.8632 H   0  0  0  0  0  0  0  0  0  0  0  0  # atno 11005 bound_to 11000
  144.7220  140.4404  143.7001 LP  0  0  0  0  0  0  0  0  0  0  0  0  # atno 17320 bound_to 7965
  145.6425  139.1552  143.2908 LP  0  0  0  0  0  0  0  0  0  0  0  0  # atno 17321 bound_to 7965
  140.4485  143.2496  151.9379 LP  0  0  0  0  0  0  0  0  0  0  0  0  # atno 17342 bound_to 10162
  139.4783  144.5585  151.8275 LP  0  0  0  0  0  0  0  0  0  0  0  0  # atno 17343 bound_to 10162
  156.1359  130.3642  149.9658 LP  0  0  0  0  0  0  0  0  0  0  0  0  # atno 17370 bound_to 10713
  156.7709  130.9186  151.3644 LP  0  0  0  0  0  0  0  0  0  0  0  0  # atno 17371 bound_to 10713
  141.0225  134.0870  157.4105 LP  0  0  0  0  0  0  0  0  0  0  0  0  # atno 17394 bound_to 11000
  139.8917  135.0120  156.6809 LP  0  0  0  0  0  0  0  0  0  0  0  0  # atno 17395 bound_to 11000

$$$$
