AV-unprocessed.smi:1030|AV-procd|sdf|4479|dock3
  -GOLD-   22720 2453D 1   1.00000     0.00000
 Structure written by MMmdl.
 28 29  0  0  0  0  0  0  0  0  2 V2000
  153.1296  138.6895  160.3407 N   0  5  0  0  0  0  0  0  0  0  0  0
  152.6492  138.9007  158.8142 S   0  0  0  0  0  0  0  0  0  0  0  0
  153.7230  138.6214  157.8479 O   0  0  0  0  0  0  0  0  0  0  0  0
  151.3221  138.3254  158.5442 O   0  0  0  0  0  0  0  0  0  0  0  0
  152.4472  140.6931  158.8668 C   0  0  0  0  0  0  0  0  0  0  0  0
  153.0082  141.4090  159.9458 C   0  0  0  0  0  0  0  0  0  0  0  0
  152.8550  142.8075  159.9888 C   0  0  0  0  0  0  0  0  0  0  0  0
  152.1468  143.4340  158.9467 C   0  0  0  0  0  0  0  0  0  0  0  0
  151.6043  142.7619  157.9101 N   0  0  0  0  0  0  0  0  0  0  0  0
  151.7451  141.4134  157.8637 C   0  0  0  0  0  0  0  0  0  0  0  0
  151.1534  140.7503  156.7777 N   0  0  0  0  0  0  0  0  0  0  0  0
  150.3592  141.6112  155.9122 C   0  0  0  0  0  0  0  0  0  0  0  0
  149.6083  140.7555  154.8777 C   0  0  0  0  0  0  0  0  0  0  0  0
  150.5398  139.9581  154.1502 O   0  0  0  0  0  0  0  0  0  0  0  0
  151.2627  139.0699  154.9995 C   0  0  0  0  0  0  0  0  0  0  0  0
  152.0570  139.8795  156.0390 C   0  0  0  0  0  0  0  0  0  0  0  0
  152.7149  139.4399  160.9055 H   0  0  0  0  0  0  0  0  0  0  0  0
  153.5466  140.9049  160.7340 H   0  0  0  0  0  0  0  0  0  0  0  0
  153.2708  143.3846  160.8012 H   0  0  0  0  0  0  0  0  0  0  0  0
  152.0098  144.5051  158.9463 H   0  0  0  0  0  0  0  0  0  0  0  0
  149.6508  142.1859  156.5101 H   0  0  0  0  0  0  0  0  0  0  0  0
  151.0095  142.3246  155.4041 H   0  0  0  0  0  0  0  0  0  0  0  0
  148.8691  140.1172  155.3650 H   0  0  0  0  0  0  0  0  0  0  0  0
  149.0672  141.3961  154.1814 H   0  0  0  0  0  0  0  0  0  0  0  0
  150.5750  138.3787  155.4897 H   0  0  0  0  0  0  0  0  0  0  0  0
  151.9401  138.4690  154.3929 H   0  0  0  0  0  0  0  0  0  0  0  0
  152.8211  140.4777  155.5407 H   0  0  0  0  0  0  0  0  0  0  0  0
  152.5684  139.2067  156.7286 H   0  0  0  0  0  0  0  0  0  0  0  0
  1  2  1  0  0  0  0
  1 17  1  0  0  0  0
  2  3  2  0  0  0  0
  2  4  2  0  0  0  0
  2  5  1  0  0  0  0
  5 10  1  0  0  0  0
  5  6  2  0  0  0  0
  6  7  1  0  0  0  0
  6 18  1  0  0  0  0
  7  8  2  0  0  0  0
  7 19  1  0  0  0  0
  8  9  1  0  0  0  0
  8 20  1  0  0  0  0
  9 10  2  0  0  0  0
 10 11  1  0  0  0  0
 11 16  1  0  0  0  0
 11 12  1  0  0  0  0
 12 13  1  0  0  0  0
 12 21  1  0  0  0  0
 12 22  1  0  0  0  0
 13 14  1  0  0  0  0
 13 23  1  0  0  0  0
 13 24  1  0  0  0  0
 14 15  1  0  0  0  0
 15 16  1  0  0  0  0
 15 25  1  0  0  0  0
 15 26  1  0  0  0  0
 16 27  1  0  0  0  0
 16 28  1  0  0  0  0
M  CHG  1   1  -1
M  END
> <s_m_source_file>
AV-unprocessed.smi

> <i_m_source_file_index>
1030

> <i_lp_mmshare_version>
43012

> <i_f3d_flags>
0

> <s_epik_input>
W05IMl1TKD1PKSg9TyljMVtjSF1bY0hdW2NIXW5jMU4yW0NIMl1bQ0gyXU9bQ0gyXVtDSDJdMg==

> <s_epik_cmdline>
J2VwaWtfcHl0aG9uJywgJy1waCcsICc3LjAnLCAnLXRuJywgJzgnLCAnLW1hJywgJzIwMCcsICctbWV0YWxfYmluZGluZycsICctaW1hZScsICc8aW5maWxlLm1hZT4nLCAnLW9tYWUnLCAnPG91dGZpbGUubWFlPic=

> <r_lp_tautomer_probability>
1

> <r_epik_Ionization_Penalty>
3.31232

> <r_epik_Ionization_Penalty_Charging>
3.30848

> <r_epik_Ionization_Penalty_Neutral>
0.00383963

> <r_epik_State_Penalty>
3.30625

> <r_epik_Charging_Adjusted_Penalty>
6.61473

> <i_epik_Tot_Q>
-1

> <i_epik_Tot_abs_Q>
1

> <r_epik_Metal_State_Penalty>
0.483198

> <b_epik_Metal_Only>
1

> <s_lp_Force_Field>
OPLS_2005

> <r_lp_Energy>
26.4459

> <b_lp_Chiralities_Consistent>
1

> <s_lp_Variant>
AV-unprocessed.smi:1030-2

> <Gold.Version>
5.8.1

> <Gold.Id.Protein>
6NUR|6NUR_protein|mol2

> <Gold.PLP.Fitness>
36.2707

> <Gold.PLP.PLP>
-30.5430

> <Gold.PLP.part.hbond>
-1.9362

> <Gold.PLP.part.metal>
0.0000

> <Gold.PLP.part.buried>
-4.3705

> <Gold.PLP.part.nonpolar>
-25.5382

> <Gold.PLP.part.repulsive>
0.7275

> <Gold.PLP.ligand.clash>
0.0000

> <Gold.PLP.ligand.torsion>
1.2639

> <Gold.PLP.Chemscore.Hbond>
2.0000

> <Gold.PLP.Chemscore.CHOScore>
0.0000

> <Gold.PLP.Chemscore.Metal>
0.0000

> <Gold.Chemscore.Hbonds>
donor molecule, donor type, donor heavy atom, donor atom, acceptor molecule, acceptor atom, score
      P1  H  7989  7998       L1    14  1.00
      P1  H  7997  8008       L1     3  1.00

> <Gold.PLP.Chemscore.Internal.Correction>
2.2556

> <Gold.Rescore>
     Score         DG    S(hbond)    S(metal)    S(lipo)     H(rot)  DE(clash)    DE(int)     intcor
     12.68     -16.65       1.66        0.00      69.85       1.00       0.11       3.86       ----

> <Gold.Chemscore.Fitness>
12.6763

> <Gold.Chemscore.DG>
-16.6454

> <Gold.Chemscore.ZeroCoef>
-5.4800

> <Gold.Chemscore.Hbond>
1.6625

> <Gold.Chemscore.Metal>
0.0000

> <Gold.Chemscore.Lipo>
69.8528

> <Gold.Chemscore.Internal_Hbond>
0.0000

> <Gold.Chemscore.DEClash>
0.1103

> <Gold.Chemscore.DEInternal>
3.8589

> <Gold.Chemscore.Rot>
1.0000

> <Gold.Chemscore.Internal.Correction>
   9.000000E+99

> <Gold.Chemscore.Hbonds>
donor molecule, donor type, donor heavy atom, donor atom, acceptor molecule, acceptor atom, score
      P1  H  7989  7998       L1    14  0.39
      P1  H  7997  8008       L1     3  0.95

> <Gold.Chemscore.Hbond.Weighted>
-5.5526

> <Gold.Chemscore.Metal.Weighted>
-0.0000

> <Gold.Chemscore.Lipo.Weighted>
-8.1728

> <Gold.Chemscore.Internal_Hbond.Weighted>
0.0000

> <Gold.Chemscore.DEClash.Weighted>
0.1103

> <Gold.Chemscore.DEInternal.Weighted>
3.8589

> <Gold.Chemscore.Rot.Weighted>
2.5600

> <Gold.Chemscore.Internal.Correction.Weighted>
   9.000000E+99

> <Gold.Protein.RotatedTorsions>
[ 6907 6896 6895 6894 ] final -114.53 input  -60.11 | X-H torsion
[ 7974 7965 7964 7962 ] final  -76.54 input  175.53 | X-H torsion
[ 8008 7997 7996 7995 ] final  -76.48 input   59.86 | X-H torsion
[ 10167 10162 10161 10158 ] final  -36.17 input  -65.29 | X-H torsion
[ 10718 10713 10712 10709 ] final  -91.94 input   66.30 | X-H torsion
[ 10763 10752 10751 10750 ] final  172.34 input  -60.55 | X-H torsion
[ 11005 11000 10999 10996 ] final   83.96 input  -57.11 | X-H torsion

> <Gold.Protein.ActiveResidues>
 VAL166  LYS551  ARG553  GLY616  TRP617  ASP618  TYR619  PRO620  LYS621  CYS622 
 ASP623  PHE694  ASN695  SER759  ASP760  ASP761  ALA762  ILE779  LEU786  VAL792 
 PHE793  MET794  SER795  GLU796  ALA797  LYS798  CYS799  TRP800  GLU811  SER814 

> <Gold.Protein.RotatedAtoms>
  150.7909  133.8787  159.3279 H   0  0  0  0  0  0  0  0  0  0  0  0  # atno 6907 bound_to 6896
  151.6625  135.0985  160.0192 H   0  0  0  0  0  0  0  0  0  0  0  0  # atno 6908 bound_to 6896
  152.3983  133.6741  159.6330 H   0  0  0  0  0  0  0  0  0  0  0  0  # atno 6909 bound_to 6896
  145.6115  140.9385  143.1187 H   0  0  0  0  0  0  0  0  0  0  0  0  # atno 7974 bound_to 7965
  154.5509  140.0726  156.8666 H   0  0  0  0  0  0  0  0  0  0  0  0  # atno 8008 bound_to 7997
  155.2995  140.3383  155.4230 H   0  0  0  0  0  0  0  0  0  0  0  0  # atno 8009 bound_to 7997
  156.1960  140.1704  156.7983 H   0  0  0  0  0  0  0  0  0  0  0  0  # atno 8010 bound_to 7997
  140.7148  143.3427  151.2323 H   0  0  0  0  0  0  0  0  0  0  0  0  # atno 10167 bound_to 10162
  155.9998  130.4968  150.5551 H   0  0  0  0  0  0  0  0  0  0  0  0  # atno 10718 bound_to 10713
  154.4247  135.2758  155.1952 H   0  0  0  0  0  0  0  0  0  0  0  0  # atno 10763 bound_to 10752
  154.3883  135.6072  153.5833 H   0  0  0  0  0  0  0  0  0  0  0  0  # atno 10764 bound_to 10752
  152.9834  135.5897  154.4548 H   0  0  0  0  0  0  0  0  0  0  0  0  # atno 10765 bound_to 10752
  139.9015  134.8182  156.2381 H   0  0  0  0  0  0  0  0  0  0  0  0  # atno 11005 bound_to 11000
  144.7268  139.7851  143.7362 LP  0  0  0  0  0  0  0  0  0  0  0  0  # atno 17320 bound_to 7965
  146.1500  139.4581  143.0054 LP  0  0  0  0  0  0  0  0  0  0  0  0  # atno 17321 bound_to 7965
  139.6938  143.9647  152.2872 LP  0  0  0  0  0  0  0  0  0  0  0  0  # atno 17342 bound_to 10162
  139.9317  144.6737  150.8356 LP  0  0  0  0  0  0  0  0  0  0  0  0  # atno 17343 bound_to 10162
  157.3468  131.0726  151.1744 LP  0  0  0  0  0  0  0  0  0  0  0  0  # atno 17370 bound_to 10713
  157.2574  130.6643  149.5959 LP  0  0  0  0  0  0  0  0  0  0  0  0  # atno 17371 bound_to 10713
  141.0303  133.6992  156.1418 LP  0  0  0  0  0  0  0  0  0  0  0  0  # atno 17394 bound_to 11000
  140.7106  134.4465  157.5581 LP  0  0  0  0  0  0  0  0  0  0  0  0  # atno 17395 bound_to 11000

$$$$
