AV-unprocessed.smi:753|AV-procd|sdf|3602|dock5
  -GOLD-   22720 0593D 1   1.00000     0.00000
 Structure written by MMmdl.
 43 45  0  0  0  0  0  0  0  0  1 V2000
  145.6101  136.2584  150.8477 C   0  0  0  0  0  0  0  0  0  0  0  0
  145.9903  137.3775  151.7945 C   0  0  0  0  0  0  0  0  0  0  0  0
  145.6313  137.3262  153.1581 C   0  0  0  0  0  0  0  0  0  0  0  0
  146.0114  138.3955  153.9919 C   0  0  0  0  0  0  0  0  0  0  0  0
  146.7327  139.4700  153.4326 C   0  0  0  0  0  0  0  0  0  0  0  0
  147.1592  140.6483  154.2848 C   0  0  0  0  0  0  0  0  0  0  0  0
  148.6884  140.7796  154.3624 C   0  0  0  0  0  0  0  0  0  0  0  0
  149.0834  141.8738  155.2397 N   0  0  0  0  0  0  0  0  0  0  0  0
  149.6025  141.7268  156.4703 C   0  0  0  0  0  0  0  0  0  0  0  0
  149.7834  140.6338  157.0034 O   0  0  0  0  0  0  0  0  0  0  0  0
  149.9176  142.8788  157.0885 N   0  0  0  0  0  0  0  0  0  0  0  0
  150.4955  143.0582  158.4227 C   0  0  1  0  0  0  0  0  0  0  0  0
  151.7502  142.1805  158.6255 C   0  0  0  0  0  0  0  0  0  0  0  0
  152.8366  143.2106  158.9871 C   0  0  2  0  0  0  0  0  0  0  0  0
  152.5483  143.7967  160.3828 C   0  0  0  0  0  0  0  0  0  0  0  0
  151.3238  144.6983  160.1298 C   0  0  0  0  0  0  0  0  0  0  0  0
  151.0567  144.4860  158.6286 C   0  0  1  0  0  0  0  0  0  0  0  0
  152.4748  144.3758  158.0769 C   0  0  0  0  0  0  0  0  0  0  0  0
  147.0407  139.4244  152.0567 C   0  0  0  0  0  0  0  0  0  0  0  0
  146.6806  138.4036  151.2495 N   0  0  0  0  0  0  0  0  0  0  0  0
  145.0942  135.4543  151.3730 H   0  0  0  0  0  0  0  0  0  0  0  0
  146.5005  135.8403  150.3772 H   0  0  0  0  0  0  0  0  0  0  0  0
  144.9499  136.6327  150.0649 H   0  0  0  0  0  0  0  0  0  0  0  0
  145.0772  136.4898  153.5583 H   0  0  0  0  0  0  0  0  0  0  0  0
  145.7514  138.3895  155.0403 H   0  0  0  0  0  0  0  0  0  0  0  0
  146.7214  141.5594  153.8743 H   0  0  0  0  0  0  0  0  0  0  0  0
  146.7416  140.5303  155.2858 H   0  0  0  0  0  0  0  0  0  0  0  0
  149.1222  139.8596  154.7548 H   0  0  0  0  0  0  0  0  0  0  0  0
  149.1123  140.9242  153.3669 H   0  0  0  0  0  0  0  0  0  0  0  0
  148.9666  142.8107  154.8822 H   0  0  0  0  0  0  0  0  0  0  0  0
  149.7182  143.7286  156.5807 H   0  0  0  0  0  0  0  0  0  0  0  0
  149.7457  142.8148  159.1781 H   0  0  0  0  0  0  0  0  0  0  0  0
  151.6113  141.4365  159.4108 H   0  0  0  0  0  0  0  0  0  0  0  0
  152.0210  141.6480  157.7123 H   0  0  0  0  0  0  0  0  0  0  0  0
  153.8530  142.8334  158.8714 H   0  0  0  0  0  0  0  0  0  0  0  0
  152.3490  143.0215  161.1234 H   0  0  0  0  0  0  0  0  0  0  0  0
  153.3925  144.3896  160.7372 H   0  0  0  0  0  0  0  0  0  0  0  0
  150.4684  144.4264  160.7491 H   0  0  0  0  0  0  0  0  0  0  0  0
  151.5675  145.7414  160.3358 H   0  0  0  0  0  0  0  0  0  0  0  0
  150.4517  145.2781  158.1856 H   0  0  0  0  0  0  0  0  0  0  0  0
  153.0792  145.2672  158.2536 H   0  0  0  0  0  0  0  0  0  0  0  0
  152.5097  144.1241  157.0154 H   0  0  0  0  0  0  0  0  0  0  0  0
  147.5876  140.2301  151.5897 H   0  0  0  0  0  0  0  0  0  0  0  0
  1  2  1  0  0  0  0
  1 21  1  0  0  0  0
  1 22  1  0  0  0  0
  1 23  1  0  0  0  0
  2 20  1  0  0  0  0
  2  3  2  0  0  0  0
  3  4  1  0  0  0  0
  3 24  1  0  0  0  0
  4  5  2  0  0  0  0
  4 25  1  0  0  0  0
  5  6  1  0  0  0  0
  5 19  1  0  0  0  0
  6  7  1  0  0  0  0
  6 26  1  0  0  0  0
  6 27  1  0  0  0  0
  7  8  1  0  0  0  0
  7 28  1  0  0  0  0
  7 29  1  0  0  0  0
  8  9  1  0  0  0  0
  8 30  1  0  0  0  0
  9 10  2  0  0  0  0
  9 11  1  0  0  0  0
 11 12  1  0  0  0  0
 11 31  1  0  0  0  0
 12 17  1  0  0  0  0
 12 13  1  0  0  0  0
 12 32  1  0  0  0  0
 13 14  1  0  0  0  0
 13 33  1  0  0  0  0
 13 34  1  0  0  0  0
 14 18  1  0  0  0  0
 14 15  1  0  0  0  0
 14 35  1  0  0  0  0
 15 16  1  0  0  0  0
 15 36  1  0  0  0  0
 15 37  1  0  0  0  0
 16 17  1  0  0  0  0
 16 38  1  0  0  0  0
 16 39  1  0  0  0  0
 17 18  1  0  0  0  0
 17 40  1  0  0  0  0
 18 41  1  0  0  0  0
 18 42  1  0  0  0  0
 19 20  2  0  0  0  0
 19 43  1  0  0  0  0
M  END
> <s_m_source_file>
AV-unprocessed.smi

> <i_m_source_file_index>
753

> <i_lp_mmshare_version>
43012

> <i_f3d_flags>
0

> <s_epik_input>
W0NIM11jMVtjSF1bY0hdYyhbY0hdbjEpW0NIMl1bQ0gyXVtOSF1DKD1PKVtOSF1bQ0BIXShbQ0gyXVtDQEBIXTIzKVtDQEBIXShbQ0gyXTMpW0NIMl1bQ0gyXTI=

> <s_epik_cmdline>
J2VwaWtfcHl0aG9uJywgJy1waCcsICc3LjAnLCAnLXRuJywgJzgnLCAnLW1hJywgJzIwMCcsICctbWV0YWxfYmluZGluZycsICctaW1hZScsICc8aW5maWxlLm1hZT4nLCAnLW9tYWUnLCAnPG91dGZpbGUubWFlPic=

> <r_epik_Ionization_Penalty>
0.0569047

> <r_epik_Ionization_Penalty_Charging>
0

> <r_epik_Ionization_Penalty_Neutral>
0.0569047

> <r_epik_State_Penalty>
0.0490541

> <r_epik_Charging_Adjusted_Penalty>
0.0490541

> <i_epik_Tot_Q>
0

> <i_epik_Tot_abs_Q>
0

> <r_epik_Metal_State_Penalty>
0.0447357

> <b_epik_Metal_Only>
0

> <s_lp_Force_Field>
OPLS_2005

> <r_lp_Energy>
50.3887

> <b_lp_Chiralities_Consistent>
1

> <s_lp_Variant>
AV-unprocessed.smi:753-4

> <Gold.Version>
5.8.1

> <Gold.Id.Protein>
6NUR|6NUR_protein|mol2

> <Gold.PLP.Fitness>
51.1669

> <Gold.PLP.PLP>
-41.0421

> <Gold.PLP.part.hbond>
-3.0000

> <Gold.PLP.part.metal>
0.0000

> <Gold.PLP.part.buried>
-1.1414

> <Gold.PLP.part.nonpolar>
-39.4148

> <Gold.PLP.part.repulsive>
0.5992

> <Gold.PLP.ligand.clash>
0.0000

> <Gold.PLP.ligand.torsion>
0.2328

> <Gold.PLP.Chemscore.Hbond>
2.7613

> <Gold.PLP.Chemscore.CHOScore>
0.7616

> <Gold.PLP.Chemscore.Metal>
0.0000

> <Gold.Chemscore.Hbonds>
donor molecule, donor type, donor heavy atom, donor atom, acceptor molecule, acceptor atom, score
      L1  H     8    30       P1  8028  0.74
      L1  H    11    31       P1  8028  1.00
      P1  H  7954  7966       L1    20  0.88
      L1  C    19    43       P1  7957  0.83

> <Gold.PLP.Chemscore.Internal.Correction>
0.0219

> <Gold.Rescore>
     Score         DG    S(hbond)    S(metal)    S(lipo)     H(rot)  DE(clash)    DE(int)     intcor
     22.96     -25.80       2.55        0.00     132.27       1.43       1.88       0.97       ----

> <Gold.Chemscore.Fitness>
22.9633

> <Gold.Chemscore.DG>
-25.8047

> <Gold.Chemscore.ZeroCoef>
-5.4800

> <Gold.Chemscore.Hbond>
2.5473

> <Gold.Chemscore.Metal>
0.0000

> <Gold.Chemscore.Lipo>
132.2675

> <Gold.Chemscore.Internal_Hbond>
0.0000

> <Gold.Chemscore.DEClash>
1.8751

> <Gold.Chemscore.DEInternal>
0.9663

> <Gold.Chemscore.Rot>
1.4291

> <Gold.Chemscore.Internal.Correction>
   9.000000E+99

> <Gold.Chemscore.Hbonds>
donor molecule, donor type, donor heavy atom, donor atom, acceptor molecule, acceptor atom, score
      L1  H     8    30       P1  8028  0.69
      L1  H    11    31       P1  8028  0.97
      P1  H  7954  7966       L1    20  0.67

> <Gold.Chemscore.Hbond.Weighted>
-8.5079

> <Gold.Chemscore.Metal.Weighted>
-0.0000

> <Gold.Chemscore.Lipo.Weighted>
-15.4753

> <Gold.Chemscore.Internal_Hbond.Weighted>
0.0000

> <Gold.Chemscore.DEClash.Weighted>
1.8751

> <Gold.Chemscore.DEInternal.Weighted>
0.9663

> <Gold.Chemscore.Rot.Weighted>
3.6585

> <Gold.Chemscore.Internal.Correction.Weighted>
   9.000000E+99

> <Gold.Protein.RotatedTorsions>
[ 6907 6896 6895 6894 ] final   60.50 input  -60.11 | X-H torsion
[ 7974 7965 7964 7962 ] final -179.27 input  175.53 | X-H torsion
[ 8008 7997 7996 7995 ] final   97.31 input   59.86 | X-H torsion
[ 10167 10162 10161 10158 ] final   50.64 input  -65.29 | X-H torsion
[ 10718 10713 10712 10709 ] final   10.73 input   66.30 | X-H torsion
[ 10763 10752 10751 10750 ] final   34.45 input  -60.55 | X-H torsion
[ 11005 11000 10999 10996 ] final  -47.42 input  -57.11 | X-H torsion

> <Gold.Protein.ActiveResidues>
 VAL166  LYS551  ARG553  GLY616  TRP617  ASP618  TYR619  PRO620  LYS621  CYS622 
 ASP623  PHE694  ASN695  SER759  ASP760  ASP761  ALA762  ILE779  LEU786  VAL792 
 PHE793  MET794  SER795  GLU796  ALA797  LYS798  CYS799  TRP800  GLU811  SER814 

> <Gold.Protein.RotatedAtoms>
  152.4008  134.6290  160.0070 H   0  0  0  0  0  0  0  0  0  0  0  0  # atno 6907 bound_to 6896
  151.6495  133.3316  159.3156 H   0  0  0  0  0  0  0  0  0  0  0  0  # atno 6908 bound_to 6896
  150.7909  134.6973  159.6575 H   0  0  0  0  0  0  0  0  0  0  0  0  # atno 6909 bound_to 6896
  144.7135  140.0743  143.6428 H   0  0  0  0  0  0  0  0  0  0  0  0  # atno 7974 bound_to 7965
  156.0888  140.3260  155.7789 H   0  0  0  0  0  0  0  0  0  0  0  0  # atno 8008 bound_to 7997
  155.5031  140.0571  157.2953 H   0  0  0  0  0  0  0  0  0  0  0  0  # atno 8009 bound_to 7997
  154.4625  140.1973  156.0222 H   0  0  0  0  0  0  0  0  0  0  0  0  # atno 8010 bound_to 7997
  140.2703  144.3273  150.6292 H   0  0  0  0  0  0  0  0  0  0  0  0  # atno 10167 bound_to 10162
  156.9852  130.6021  149.5680 H   0  0  0  0  0  0  0  0  0  0  0  0  # atno 10718 bound_to 10713
  153.0163  135.6360  154.1671 H   0  0  0  0  0  0  0  0  0  0  0  0  # atno 10763 bound_to 10752
  154.1409  135.2834  155.3162 H   0  0  0  0  0  0  0  0  0  0  0  0  # atno 10764 bound_to 10752
  154.6125  135.5552  153.7549 H   0  0  0  0  0  0  0  0  0  0  0  0  # atno 10765 bound_to 10752
  141.0639  133.6700  156.3294 H   0  0  0  0  0  0  0  0  0  0  0  0  # atno 11005 bound_to 11000
  145.9757  139.2903  143.1072 LP  0  0  0  0  0  0  0  0  0  0  0  0  # atno 17320 bound_to 7965
  145.9067  140.9207  143.0475 LP  0  0  0  0  0  0  0  0  0  0  0  0  # atno 17321 bound_to 7965
  140.5895  143.2168  151.7280 LP  0  0  0  0  0  0  0  0  0  0  0  0  # atno 17342 bound_to 10162
  139.4991  144.3961  152.0230 LP  0  0  0  0  0  0  0  0  0  0  0  0  # atno 17343 bound_to 10162
  156.0228  130.5323  150.8325 LP  0  0  0  0  0  0  0  0  0  0  0  0  # atno 17370 bound_to 10713
  157.5498  131.0943  150.9712 LP  0  0  0  0  0  0  0  0  0  0  0  0  # atno 17371 bound_to 10713
  140.5813  134.5743  157.5480 LP  0  0  0  0  0  0  0  0  0  0  0  0  # atno 17394 bound_to 11000
  139.9458  134.7704  156.0566 LP  0  0  0  0  0  0  0  0  0  0  0  0  # atno 17395 bound_to 11000

$$$$
