#       Name:                AV-unprocessed.smi:973
#       Creating user name   scv26
#       Creation time:       Fri Mar 27 02:20:38 2020


#       File generated by GOLD software.
#

@<TRIPOS>MOLECULE
AV-unprocessed.smi:973
    45    46     1
SMALL
NO_CHARGES


@<TRIPOS>ATOM
      1 ****        -7.1270   0.7349  -1.3596 C.3            1 S1                 0.0000
      2 ****        -5.7984   1.2222  -0.9798 N.am           1 S1                 0.0000
      3 ****        -5.6694   2.5881  -0.6757 C.2            1 S1                 0.0000
      4 ****        -4.4922   3.1215  -0.3213 C.2            1 S1                 0.0000
      5 ****        -3.3385   2.2567  -0.2564 C.2            1 S1                 0.0000
      6 ****        -3.4387   0.9371  -0.5559 C.2            1 S1                 0.0000
      7 ****        -2.3687   0.0263  -0.5097 N.am           1 S1                 0.0000
      8 ****        -1.0447   0.2683  -0.5124 C.2            1 S1                 0.0000
      9 ****        -0.5143   1.3765  -0.5888 O.2            1 S1                 0.0000
     10 ****        -0.3492  -0.8758  -0.4428 N.am           1 S1                 0.0000
     11 ****         1.1056  -0.9760  -0.4632 C.3            1 S1                 0.0000
     12 ****         1.7155  -0.6907   0.9205 C.3            1 S1                 0.0000
     13 ****         3.2335  -0.7652   0.9170 C.2            1 S1                 0.0000
     14 ****         4.0011   0.3240   1.1164 C.2            1 S1                 0.0000
     15 ****         5.5197   0.3119   1.1039 C.3            1 S1                 0.0000
     16 ****         6.0906  -0.9839   0.5038 C.3            1 S1                 0.0000
     17 ****         5.3353  -2.2132   1.0236 C.3            1 S1                 0.0000
     18 ****         3.8389  -2.1427   0.6695 C.3            1 S1                 0.0000
     19 ****        -4.7418   0.3570  -0.9353 C.2            1 S1                 0.0000
     20 ****        -4.8848  -0.8389  -1.2023 O.2            1 S1                 0.0000
     21 ****        -7.8864   1.5170  -1.3339 H              1 S1                 0.0000
     22 ****        -7.4544  -0.0565  -0.6838 H              1 S1                 0.0000
     23 ****        -7.1100   0.3317  -2.3731 H              1 S1                 0.0000
     24 ****        -6.5774   3.1688  -0.7480 H              1 S1                 0.0000
     25 ****        -4.4080   4.1735  -0.0914 H              1 S1                 0.0000
     26 ****        -2.4065   2.7002   0.0545 H              1 S1                 0.0000
     27 ****        -2.6461  -0.9445  -0.5179 H              1 S1                 0.0000
     28 ****        -0.8636  -1.7428  -0.3875 H              1 S1                 0.0000
     29 ****         1.3619  -1.9841  -0.7888 H              1 S1                 0.0000
     30 ****         1.5165  -0.2944  -1.2102 H              1 S1                 0.0000
     31 ****         1.4077   0.2993   1.2607 H              1 S1                 0.0000
     32 ****         1.3318  -1.3991   1.6555 H              1 S1                 0.0000
     33 ****         3.5370   1.2811   1.3061 H              1 S1                 0.0000
     34 ****         5.8820   1.1721   0.5404 H              1 S1                 0.0000
     35 ****         5.8653   0.4360   2.1306 H              1 S1                 0.0000
     36 ****         6.0106  -0.9488  -0.5836 H              1 S1                 0.0000
     37 ****         7.1536  -1.0646   0.7329 H              1 S1                 0.0000
     38 ****         5.7712  -3.1263   0.6171 H              1 S1                 0.0000
     39 ****         5.4505  -2.2720   2.1067 H              1 S1                 0.0000
     40 ****         3.2935  -2.8907   1.2459 H              1 S1                 0.0000
     41 ****         3.7003  -2.3923  -0.3828 H              1 S1                 0.0000
     42 ****        -1.0804   2.1981  -0.6566 LP             1 S1                 0.0000
     43 ****         0.4825   1.4551  -0.5831 LP             1 S1                 0.0000
     44 ****        -5.7859  -1.1902  -1.4567 LP             1 S1                 0.0000
     45 ****        -4.0997  -1.4571  -1.1643 LP             1 S1                 0.0000
@<TRIPOS>BOND
    1    1    2 1     
    2    1   21 1     
    3    1   22 1     
    4    1   23 1     
    5    2   19 am    
    6    2    3 1     
    7    3    4 2     
    8    3   24 1     
    9    4    5 1     
   10    4   25 1     
   11    5    6 2     
   12    5   26 1     
   13    6    7 1     
   14    6   19 1     
   15    7    8 am    
   16    7   27 1     
   17    8    9 2     
   18    8   10 am    
   19   10   11 1     
   20   10   28 1     
   21   11   12 1     
   22   11   29 1     
   23   11   30 1     
   24   12   13 1     
   25   12   31 1     
   26   12   32 1     
   27   13   18 1     
   28   13   14 2     
   29   14   15 1     
   30   14   33 1     
   31   15   16 1     
   32   15   34 1     
   33   15   35 1     
   34   16   17 1     
   35   16   36 1     
   36   16   37 1     
   37   17   18 1     
   38   17   38 1     
   39   17   39 1     
   40   18   40 1     
   41   18   41 1     
   42   19   20 2     
   43    9   42 1     
   44    9   43 1     
   45   20   44 1     
   46   20   45 1     
@<TRIPOS>SUBSTRUCTURE
      1 S1             1
@<TRIPOS>SET
LONE_PAIRS      STATIC     ATOMS    <user>   **** ""
4 42 43 44 45
DONOR_HYDROGENS      STATIC     ATOMS    <user>   **** ""
2 27 28
ATOM$BLUE        STATIC     ATOMS    COLORGROUP SYSTEM
4 42 43 44 45
ATOM$RED        STATIC     ATOMS    COLORGROUP SYSTEM
2 27 28
