#       Name:                AV-unprocessed.smi:109
#       Creating user name   scv26
#       Creation time:       Thu Mar 26 18:12:07 2020


#       File generated by GOLD software.
#

@<TRIPOS>MOLECULE
AV-unprocessed.smi:109
    71    74     1
SMALL
NO_CHARGES


@<TRIPOS>ATOM
      1 ****        -4.9327   0.8488   3.2800 O.3            1 S1                 0.0000
      2 ****        -3.6778   1.1431   2.7053 C.3            1 S1                 0.0000
      3 ****        -3.8359   1.3677   1.1930 C.3            1 S1                 0.0000
      4 ****        -2.5070   1.7360   0.4964 C.3            1 S1                 0.0000
      5 ****        -1.5926   0.5950   0.5375 N.pl3          1 S1                 0.0000
      6 ****        -0.2528   0.7595   0.4716 C.ar           1 S1                 0.0000
      7 ****         0.3134   1.9925   0.5460 N.ar           1 S1                 0.0000
      8 ****         1.6419   2.1241   0.4814 C.ar           1 S1                 0.0000
      9 ****         2.5696   1.1735   0.3460 N.ar           1 S1                 0.0000
     10 ****         2.0040  -0.0663   0.2720 C.ar           1 S1                 0.0000
     11 ****         0.6125  -0.3549   0.3265 C.ar           1 S1                 0.0000
     12 ****         0.4117  -1.7246   0.2172 N.2            1 S1                 0.0000
     13 ****         1.6186  -2.2121   0.1075 C.2            1 S1                 0.0000
     14 ****         2.6372  -1.2826   0.1376 N.pl3          1 S1                 0.0000
     15 ****         4.1178  -1.4928   0.0410 C.3            1 S1                 0.0000
     16 ****         4.3292  -2.6605  -0.6972 O.3            1 S1                 0.0000
     17 ****         4.9893  -3.6498   0.0909 C.3            1 S1                 0.0000
     18 ****         4.5205  -5.0635  -0.2966 C.3            1 S1                 0.0000
     19 ****         5.2885  -6.0374   0.3776 O.3            1 S1                 0.0000
     20 ****         4.7956  -3.2223   1.5544 C.3            1 S1                 0.0000
     21 ****         3.6048  -3.7551   2.1094 O.3            1 S1                 0.0000
     22 ****         4.7616  -1.7051   1.4243 C.3            1 S1                 0.0000
     23 ****         4.1170  -1.0593   2.5088 O.3            1 S1                 0.0000
     24 ****        -2.6770   2.2517  -0.9595 C.3            1 S1                 0.0000
     25 ****        -3.3281   3.6500  -1.0283 C.3            1 S1                 0.0000
     26 ****        -3.3855   4.1719  -2.4734 C.3            1 S1                 0.0000
     27 ****        -4.1214   3.1849  -3.3929 C.3            1 S1                 0.0000
     28 ****        -3.4836   1.7882  -3.3310 C.3            1 S1                 0.0000
     29 ****        -3.4244   1.2658  -1.8864 C.3            1 S1                 0.0000
     30 ****         4.4888  -0.6138  -0.4872 H              1 S1                 0.0000
     31 ****         6.0504  -3.5559  -0.1474 H              1 S1                 0.0000
     32 ****         5.6279  -3.5505   2.1780 H              1 S1                 0.0000
     33 ****         5.7859  -1.3357   1.3601 H              1 S1                 0.0000
     34 ****        -4.8145   0.7179   4.2085 H              1 S1                 0.0000
     35 ****        -3.2677   2.0320   3.1856 H              1 S1                 0.0000
     36 ****        -2.9960   0.3171   2.9094 H              1 S1                 0.0000
     37 ****        -4.2647   0.4745   0.7369 H              1 S1                 0.0000
     38 ****        -4.5648   2.1637   1.0465 H              1 S1                 0.0000
     39 ****        -2.0692   2.5458   1.0811 H              1 S1                 0.0000
     40 ****        -2.0301  -0.3143   0.4955 H              1 S1                 0.0000
     41 ****         2.0152   3.1352   0.5492 H              1 S1                 0.0000
     42 ****         1.7956  -3.2719   0.0023 H              1 S1                 0.0000
     43 ****         3.4627  -5.2122  -0.0791 H              1 S1                 0.0000
     44 ****         4.6455  -5.2134  -1.3692 H              1 S1                 0.0000
     45 ****         5.0028  -6.8928   0.0951 H              1 S1                 0.0000
     46 ****         3.6835  -4.6965   2.1381 H              1 S1                 0.0000
     47 ****         4.5491  -1.3142   3.3092 H              1 S1                 0.0000
     48 ****        -1.6744   2.3725  -1.3725 H              1 S1                 0.0000
     49 ****        -4.3397   3.6228  -0.6246 H              1 S1                 0.0000
     50 ****        -2.7672   4.3525  -0.4108 H              1 S1                 0.0000
     51 ****        -3.8809   5.1428  -2.4981 H              1 S1                 0.0000
     52 ****        -2.3726   4.3324  -2.8449 H              1 S1                 0.0000
     53 ****        -5.1692   3.1215  -3.0966 H              1 S1                 0.0000
     54 ****        -4.1117   3.5536  -4.4190 H              1 S1                 0.0000
     55 ****        -4.0487   1.0939  -3.9535 H              1 S1                 0.0000
     56 ****        -2.4762   1.8268  -3.7472 H              1 S1                 0.0000
     57 ****        -2.9353   0.2913  -1.8753 H              1 S1                 0.0000
     58 ****        -4.4411   1.1065  -1.5265 H              1 S1                 0.0000
     59 ****        -5.3061   0.0181   2.8671 LP             1 S1                 0.0000
     60 ****        -5.5618   1.6103   3.1242 LP             1 S1                 0.0000
     61 ****        -0.2643   2.8022   0.6491 LP             1 S1                 0.0000
     62 ****         3.5534   1.3478   0.3041 LP             1 S1                 0.0000
     63 ****        -0.4556  -2.2223   0.2214 LP             1 S1                 0.0000
     64 ****         4.8944  -2.4461  -1.4939 LP             1 S1                 0.0000
     65 ****         3.4469  -3.0196  -1.0014 LP             1 S1                 0.0000
     66 ****         5.1570  -5.9467   1.3647 LP             1 S1                 0.0000
     67 ****         6.2564  -5.9153   0.1577 LP             1 S1                 0.0000
     68 ****         2.8232  -3.4988   1.5406 LP             1 S1                 0.0000
     69 ****         3.4748  -3.3988   3.0347 LP             1 S1                 0.0000
     70 ****         3.1561  -1.3340   2.5420 LP             1 S1                 0.0000
     71 ****         4.1765  -0.0676   2.3944 LP             1 S1                 0.0000
@<TRIPOS>BOND
    1    1    2 1     
    2    1   34 1     
    3    2    3 1     
    4    2   35 1     
    5    2   36 1     
    6    3    4 1     
    7    3   37 1     
    8    3   38 1     
    9    4    5 1     
   10    4   24 1     
   11    4   39 1     
   12    5    6 1     
   13    5   40 1     
   14    6   11 ar    
   15    6    7 ar    
   16    7    8 ar    
   17    8    9 ar    
   18    8   41 1     
   19    9   10 ar    
   20   10   14 1     
   21   10   11 ar    
   22   11   12 1     
   23   12   13 2     
   24   13   14 1     
   25   13   42 1     
   26   14   15 1     
   27   15   30 1     
   28   15   22 1     
   29   15   16 1     
   30   16   17 1     
   31   17   31 1     
   32   17   18 1     
   33   17   20 1     
   34   18   19 1     
   35   18   43 1     
   36   18   44 1     
   37   19   45 1     
   38   20   32 1     
   39   20   21 1     
   40   20   22 1     
   41   21   46 1     
   42   22   33 1     
   43   22   23 1     
   44   23   47 1     
   45   24   29 1     
   46   24   25 1     
   47   24   48 1     
   48   25   26 1     
   49   25   49 1     
   50   25   50 1     
   51   26   27 1     
   52   26   51 1     
   53   26   52 1     
   54   27   28 1     
   55   27   53 1     
   56   27   54 1     
   57   28   29 1     
   58   28   55 1     
   59   28   56 1     
   60   29   57 1     
   61   29   58 1     
   62    1   59 1     
   63    1   60 1     
   64    7   61 1     
   65    9   62 1     
   66   12   63 1     
   67   16   64 1     
   68   16   65 1     
   69   19   66 1     
   70   19   67 1     
   71   21   68 1     
   72   21   69 1     
   73   23   70 1     
   74   23   71 1     
@<TRIPOS>SUBSTRUCTURE
      1 S1             1
@<TRIPOS>SET
LONE_PAIRS      STATIC     ATOMS    <user>   **** ""
13 59 60 61 62 63 64 65 66 67 68 69 70 71
DONOR_HYDROGENS      STATIC     ATOMS    <user>   **** ""
5 34 40 45 46 47
ATOM$BLUE        STATIC     ATOMS    COLORGROUP SYSTEM
13 59 60 61 62 63 64 65 66 67 68 69 70 71
ATOM$RED        STATIC     ATOMS    COLORGROUP SYSTEM
5 34 40 45 46 47
