#       Name:                AV-unprocessed.smi:235
#       Creating user name   scv26
#       Creation time:       Thu Mar 26 20:38:12 2020


#       File generated by GOLD software.
#

@<TRIPOS>MOLECULE
AV-unprocessed.smi:235
    64    68     1
SMALL
NO_CHARGES


@<TRIPOS>ATOM
      1 ****        -3.8395  -1.6807  -0.5520 O.2            1 S1                 0.0000
      2 ****        -3.0807  -0.9391   0.0738 C.2            1 S1                 0.0000
      3 ****        -2.1729  -1.3856   0.9540 N.am           1 S1                 0.0000
      4 ****        -1.9551  -2.7536   1.2902 C.3            1 S1                 0.0000
      5 ****        -1.1082  -3.0442   2.5097 C.3            1 S1                 0.0000
      6 ****        -0.5576  -3.3095   1.1343 C.3            1 S1                 0.0000
      7 ****        -3.1192   0.5797  -0.1463 C.3            1 S1                 0.0000
      8 ****        -4.5151   1.1838   0.1122 C.3            1 S1                 0.0000
      9 ****        -4.6386   2.2953  -0.9219 C.3            1 S1                 0.0000
     10 ****        -3.8950   1.7032  -2.1124 C.3            1 S1                 0.0000
     11 ****        -2.8049   0.9158  -1.5410 N.3            1 S1                 0.0000
     12 ****        -1.5302   1.3465  -1.7197 C.ar           1 S1                 0.0000
     13 ****        -1.2570   2.6781  -1.7583 N.ar           1 S1                 0.0000
     14 ****         0.0054   3.1027  -1.8683 C.ar           1 S1                 0.0000
     15 ****         1.1259   2.3811  -1.9375 N.ar           1 S1                 0.0000
     16 ****         0.8558   1.0450  -1.8962 C.ar           1 S1                 0.0000
     17 ****        -0.4316   0.4476  -1.7978 C.ar           1 S1                 0.0000
     18 ****        -0.3117  -0.9368  -1.7924 N.2            1 S1                 0.0000
     19 ****         0.9741  -1.1467  -1.8601 C.2            1 S1                 0.0000
     20 ****         1.7496  -0.0107  -1.9115 N.pl3          1 S1                 0.0000
     21 ****         3.1981   0.0526  -1.9617 C.3            1 S1                 0.0000
     22 ****         3.8218   0.5865  -0.6541 C.3            1 S1                 0.0000
     23 ****         5.2240   0.5916  -0.8314 O.3            1 S1                 0.0000
     24 ****         3.4773  -0.2391   0.6066 C.3            1 S1                 0.0000
     25 ****         4.1671   0.2474   1.8857 C.3            1 S1                 0.0000
     26 ****         3.2283  -0.1796   3.0049 C.3            1 S1                 0.0000
     27 ****         1.9592  -0.6207   2.2761 C.3            1 S1                 0.0000
     28 ****         2.1077  -0.1083   0.9617 O.3            1 S1                 0.0000
     29 ****        -1.5843  -0.7049   1.4119 H              1 S1                 0.0000
     30 ****        -2.7769  -3.4455   1.1100 H              1 S1                 0.0000
     31 ****        -0.6964  -2.2001   3.0596 H              1 S1                 0.0000
     32 ****        -1.3801  -3.9060   3.1158 H              1 S1                 0.0000
     33 ****        -0.4642  -4.3473   0.8210 H              1 S1                 0.0000
     34 ****         0.2113  -2.6392   0.7553 H              1 S1                 0.0000
     35 ****        -2.4068   1.0664   0.5252 H              1 S1                 0.0000
     36 ****        -5.3085   0.4532  -0.0546 H              1 S1                 0.0000
     37 ****        -4.6229   1.5568   1.1311 H              1 S1                 0.0000
     38 ****        -5.6724   2.5555  -1.1504 H              1 S1                 0.0000
     39 ****        -4.1285   3.1931  -0.5699 H              1 S1                 0.0000
     40 ****        -4.5467   1.0196  -2.6580 H              1 S1                 0.0000
     41 ****        -3.5799   2.4693  -2.8220 H              1 S1                 0.0000
     42 ****         0.1366   4.1744  -1.8945 H              1 S1                 0.0000
     43 ****         1.3941  -2.1421  -1.8576 H              1 S1                 0.0000
     44 ****         3.5801  -0.9451  -2.1829 H              1 S1                 0.0000
     45 ****         3.4782   0.6885  -2.8027 H              1 S1                 0.0000
     46 ****         3.5101   1.6201  -0.4990 H              1 S1                 0.0000
     47 ****         5.4316   1.1551  -1.5613 H              1 S1                 0.0000
     48 ****         3.7011  -1.2951   0.4429 H              1 S1                 0.0000
     49 ****         5.1713  -0.1626   1.9982 H              1 S1                 0.0000
     50 ****         4.2503   1.3351   1.8796 H              1 S1                 0.0000
     51 ****         3.6428  -0.9974   3.5954 H              1 S1                 0.0000
     52 ****         3.0302   0.6555   3.6779 H              1 S1                 0.0000
     53 ****         1.9030  -1.7090   2.2341 H              1 S1                 0.0000
     54 ****         1.0491  -0.2488   2.7469 H              1 S1                 0.0000
     55 ****        -3.7968  -2.6704  -0.4151 LP             1 S1                 0.0000
     56 ****        -4.4981  -1.2931  -1.1969 LP             1 S1                 0.0000
     57 ****        -2.7773   0.0893  -2.1033 LP             1 S1                 0.0000
     58 ****        -2.0031   3.3417  -1.7042 LP             1 S1                 0.0000
     59 ****         2.0444   2.7697  -2.0102 LP             1 S1                 0.0000
     60 ****        -1.0436  -1.6167  -1.7470 LP             1 S1                 0.0000
     61 ****         5.5436  -0.3370  -1.0204 LP             1 S1                 0.0000
     62 ****         5.6676   0.9347  -0.0034 LP             1 S1                 0.0000
     63 ****         1.5385  -0.6291   0.3255 LP             1 S1                 0.0000
     64 ****         1.8389   0.8546   0.9379 LP             1 S1                 0.0000
@<TRIPOS>BOND
    1    1    2 2     
    2    2    3 am    
    3    2    7 1     
    4    3    4 1     
    5    3   29 1     
    6    4    6 1     
    7    4    5 1     
    8    4   30 1     
    9    5    6 1     
   10    5   31 1     
   11    5   32 1     
   12    6   33 1     
   13    6   34 1     
   14    7   11 1     
   15    7    8 1     
   16    7   35 1     
   17    8    9 1     
   18    8   36 1     
   19    8   37 1     
   20    9   10 1     
   21    9   38 1     
   22    9   39 1     
   23   10   11 1     
   24   10   40 1     
   25   10   41 1     
   26   11   12 1     
   27   12   17 ar    
   28   12   13 ar    
   29   13   14 ar    
   30   14   15 ar    
   31   14   42 1     
   32   15   16 ar    
   33   16   20 1     
   34   16   17 ar    
   35   17   18 1     
   36   18   19 2     
   37   19   20 1     
   38   19   43 1     
   39   20   21 1     
   40   21   22 1     
   41   21   44 1     
   42   21   45 1     
   43   22   23 1     
   44   22   24 1     
   45   22   46 1     
   46   23   47 1     
   47   24   28 1     
   48   24   25 1     
   49   24   48 1     
   50   25   26 1     
   51   25   49 1     
   52   25   50 1     
   53   26   27 1     
   54   26   51 1     
   55   26   52 1     
   56   27   28 1     
   57   27   53 1     
   58   27   54 1     
   59    1   55 1     
   60    1   56 1     
   61   11   57 1     
   62   13   58 1     
   63   15   59 1     
   64   18   60 1     
   65   23   61 1     
   66   23   62 1     
   67   28   63 1     
   68   28   64 1     
@<TRIPOS>SUBSTRUCTURE
      1 S1             1
@<TRIPOS>SET
LONE_PAIRS      STATIC     ATOMS    <user>   **** ""
10 55 56 57 58 59 60 61 62 63 64
DONOR_HYDROGENS      STATIC     ATOMS    <user>   **** ""
2 29 47
ATOM$BLUE        STATIC     ATOMS    COLORGROUP SYSTEM
10 55 56 57 58 59 60 61 62 63 64
ATOM$RED        STATIC     ATOMS    COLORGROUP SYSTEM
2 29 47
