AV-unprocessed.smi:1648|AV-procd|sdf|6630|dock5
  -GOLD-   22720 7333D 1   1.00000     0.00000
 Structure written by MMmdl.
 42 42  0  0  0  0  0  0  0  0  2 V2000
  150.4822  135.6288  156.7501 C   0  0  0  0  0  0  0  0  0  0  0  0
  150.0797  136.3150  155.4433 C   0  0  0  0  0  0  0  0  0  0  0  0
  150.8772  136.3464  154.5093 O   0  0  0  0  0  0  0  0  0  0  0  0
  148.8593  136.8688  155.3384 N   0  0  0  0  0  0  0  0  0  0  0  0
  148.2968  137.5642  154.1780 C   0  0  1  0  0  0  0  0  0  0  0  0
  146.8224  137.1373  154.0629 C   0  0  0  0  0  0  0  0  0  0  0  0
  146.0501  137.3025  155.0085 O   0  0  0  0  0  0  0  0  0  0  0  0
  146.4530  136.5751  152.9011 N   0  0  0  0  0  0  0  0  0  0  0  0
  145.1215  136.0571  152.5904 C   0  0  1  0  0  0  0  0  0  0  0  0
  144.0783  137.1153  152.9721 C   0  0  0  0  0  0  0  0  0  0  0  0
  145.0072  135.6730  151.0981 C   0  0  0  0  0  0  0  0  0  0  0  0
  145.3117  134.2606  150.8394 N   0  0  0  0  0  0  0  0  0  0  0  0
  144.4697  133.3103  150.3205 C   0  0  0  0  0  0  0  0  0  0  0  0
  145.1827  132.1401  150.2721 C   0  0  0  0  0  0  0  0  0  0  0  0
  146.4322  132.4273  150.7521 N   0  3  0  0  0  0  0  0  0  0  0  0
  146.5115  133.7188  151.0870 C   0  0  0  0  0  0  0  0  0  0  0  0
  148.3899  139.1004  154.4130 C   0  0  0  0  0  0  0  0  0  0  0  0
  147.4943  139.9085  153.4511 C   0  0  0  0  0  0  0  0  0  0  0  0
  149.8403  139.6097  154.2984 C   0  0  0  0  0  0  0  0  0  0  0  0
  150.3582  136.2957  157.6026 H   0  0  0  0  0  0  0  0  0  0  0  0
  151.5277  135.3206  156.7159 H   0  0  0  0  0  0  0  0  0  0  0  0
  149.8747  134.7384  156.9135 H   0  0  0  0  0  0  0  0  0  0  0  0
  148.2363  136.7524  156.1248 H   0  0  0  0  0  0  0  0  0  0  0  0
  148.8408  137.3100  153.2667 H   0  0  0  0  0  0  0  0  0  0  0  0
  147.1526  136.4898  152.1776 H   0  0  0  0  0  0  0  0  0  0  0  0
  144.9199  135.1740  153.1995 H   0  0  0  0  0  0  0  0  0  0  0  0
  143.0666  136.7523  152.7887 H   0  0  0  0  0  0  0  0  0  0  0  0
  144.2117  138.0322  152.3966 H   0  0  0  0  0  0  0  0  0  0  0  0
  144.1475  137.3726  154.0296 H   0  0  0  0  0  0  0  0  0  0  0  0
  143.9914  135.8483  150.7415 H   0  0  0  0  0  0  0  0  0  0  0  0
  145.6667  136.2917  150.4870 H   0  0  0  0  0  0  0  0  0  0  0  0
  143.4491  133.5292  150.0415 H   0  0  0  0  0  0  0  0  0  0  0  0
  144.9018  131.1511  149.9402 H   0  0  0  0  0  0  0  0  0  0  0  0
  147.3739  134.2202  151.4878 H   0  0  0  0  0  0  0  0  0  0  0  0
  148.0558  139.3209  155.4284 H   0  0  0  0  0  0  0  0  0  0  0  0
  147.7504  139.7062  152.4106 H   0  0  0  0  0  0  0  0  0  0  0  0
  147.6097  140.9800  153.6167 H   0  0  0  0  0  0  0  0  0  0  0  0
  146.4361  139.6828  153.5843 H   0  0  0  0  0  0  0  0  0  0  0  0
  150.2562  139.3972  153.3131 H   0  0  0  0  0  0  0  0  0  0  0  0
  150.4939  139.1523  155.0413 H   0  0  0  0  0  0  0  0  0  0  0  0
  149.8912  140.6878  154.4531 H   0  0  0  0  0  0  0  0  0  0  0  0
  147.1891  131.7607  150.8401 H   0  0  0  0  0  0  0  0  0  0  0  0
  1  2  1  0  0  0  0
  1 20  1  0  0  0  0
  1 21  1  0  0  0  0
  1 22  1  0  0  0  0
  2  3  2  0  0  0  0
  2  4  1  0  0  0  0
  4  5  1  0  0  0  0
  4 23  1  0  0  0  0
  5  6  1  0  0  0  0
  5 17  1  0  0  0  0
  5 24  1  0  0  0  0
  6  7  2  0  0  0  0
  6  8  1  0  0  0  0
  8  9  1  0  0  0  0
  8 25  1  0  0  0  0
  9 10  1  0  0  0  0
  9 11  1  0  0  0  0
  9 26  1  0  0  0  0
 10 27  1  0  0  0  0
 10 28  1  0  0  0  0
 10 29  1  0  0  0  0
 11 12  1  0  0  0  0
 11 30  1  0  0  0  0
 11 31  1  0  0  0  0
 12 16  1  0  0  0  0
 12 13  1  0  0  0  0
 13 14  2  0  0  0  0
 13 32  1  0  0  0  0
 14 15  1  0  0  0  0
 14 33  1  0  0  0  0
 15 16  2  0  0  0  0
 15 42  1  0  0  0  0
 16 34  1  0  0  0  0
 17 18  1  0  0  0  0
 17 19  1  0  0  0  0
 17 35  1  0  0  0  0
 18 36  1  0  0  0  0
 18 37  1  0  0  0  0
 18 38  1  0  0  0  0
 19 39  1  0  0  0  0
 19 40  1  0  0  0  0
 19 41  1  0  0  0  0
M  CHG  1  15   1
M  END
> <s_m_source_file>
AV-unprocessed.smi

> <i_m_source_file_index>
1648

> <i_lp_mmshare_version>
43012

> <i_f3d_flags>
0

> <s_epik_input>
W0NIM11DKD1PKVtOSF1bQ0BASF0oW0NIXShbQ0gzXSlbQ0gzXSlDKD1PKVtOSF1bQ0BIXShbQ0gzXSlbQ0gyXW4xW2NIXVtjSF1uW2NIXTE=

> <s_epik_cmdline>
J2VwaWtfcHl0aG9uJywgJy1waCcsICc3LjAnLCAnLXRuJywgJzgnLCAnLW1hJywgJzIwMCcsICctbWV0YWxfYmluZGluZycsICctaW1hZScsICc8aW5maWxlLm1hZT4nLCAnLW9tYWUnLCAnPG91dGZpbGUubWFlPic=

> <r_lp_tautomer_probability>
1

> <r_epik_Ionization_Penalty>
0.251562

> <r_epik_Ionization_Penalty_Charging>
0

> <r_epik_Ionization_Penalty_Neutral>
0.251562

> <r_epik_State_Penalty>
0.242926

> <r_epik_Charging_Adjusted_Penalty>
0.242926

> <i_epik_Tot_Q>
1

> <i_epik_Tot_abs_Q>
1

> <r_epik_Metal_State_Penalty>
0.53388

> <b_epik_Metal_Only>
0

> <s_lp_Force_Field>
OPLS_2005

> <r_lp_Energy>
9.97271

> <b_lp_Chiralities_Consistent>
1

> <s_lp_Variant>
AV-unprocessed.smi:1648-4

> <Gold.Version>
5.8.1

> <Gold.Id.Protein>
6NUR|6NUR_protein|mol2

> <Gold.PLP.Fitness>
35.9467

> <Gold.PLP.PLP>
-25.6988

> <Gold.PLP.part.hbond>
-2.4426

> <Gold.PLP.part.metal>
0.0000

> <Gold.PLP.part.buried>
-1.4975

> <Gold.PLP.part.nonpolar>
-21.9500

> <Gold.PLP.part.repulsive>
0.3077

> <Gold.PLP.ligand.clash>
0.0000

> <Gold.PLP.ligand.torsion>
0.9879

> <Gold.PLP.Chemscore.Hbond>
2.4878

> <Gold.PLP.Chemscore.CHOScore>
1.5649

> <Gold.PLP.Chemscore.Metal>
0.0000

> <Gold.Chemscore.Hbonds>
donor molecule, donor type, donor heavy atom, donor atom, acceptor molecule, acceptor atom, score
      L1  H     8    25       P1  7948  0.91
      L1  H    15    42       P1 10747  0.88
      P1  H 10752 10765       L1     3  0.65
      L1  C    13    32       P1 10186  0.71
      L1  C    16    34       P1  7948  0.90

> <Gold.PLP.Chemscore.Internal.Correction>
0.0655

> <Gold.Rescore>
     Score         DG    S(hbond)    S(metal)    S(lipo)     H(rot)  DE(clash)    DE(int)     intcor
     11.78     -15.18       2.91        0.00      57.03       2.61       1.16       2.25       ----

> <Gold.Chemscore.Fitness>
11.7787

> <Gold.Chemscore.DG>
-15.1828

> <Gold.Chemscore.ZeroCoef>
-5.4800

> <Gold.Chemscore.Hbond>
2.9106

> <Gold.Chemscore.Metal>
0.0000

> <Gold.Chemscore.Lipo>
57.0258

> <Gold.Chemscore.Internal_Hbond>
0.0000

> <Gold.Chemscore.DEClash>
1.1577

> <Gold.Chemscore.DEInternal>
2.2464

> <Gold.Chemscore.Rot>
2.6135

> <Gold.Chemscore.Internal.Correction>
   9.000000E+99

> <Gold.Chemscore.Hbonds>
donor molecule, donor type, donor heavy atom, donor atom, acceptor molecule, acceptor atom, score
      L1  H     8    25       P1  7948  0.88
      L1  H    15    42       P1 10747  0.83
      P1  H 10752 10765       L1     3  0.65

> <Gold.Chemscore.Hbond.Weighted>
-9.7215

> <Gold.Chemscore.Metal.Weighted>
-0.0000

> <Gold.Chemscore.Lipo.Weighted>
-6.6720

> <Gold.Chemscore.Internal_Hbond.Weighted>
0.0000

> <Gold.Chemscore.DEClash.Weighted>
1.1577

> <Gold.Chemscore.DEInternal.Weighted>
2.2464

> <Gold.Chemscore.Rot.Weighted>
6.6906

> <Gold.Chemscore.Internal.Correction.Weighted>
   9.000000E+99

> <Gold.Protein.RotatedTorsions>
[ 6907 6896 6895 6894 ] final -148.27 input  -60.11 | X-H torsion
[ 7974 7965 7964 7962 ] final   27.68 input  175.53 | X-H torsion
[ 8008 7997 7996 7995 ] final -164.00 input   59.86 | X-H torsion
[ 10167 10162 10161 10158 ] final -129.12 input  -65.29 | X-H torsion
[ 10718 10713 10712 10709 ] final -134.88 input   66.30 | X-H torsion
[ 10763 10752 10751 10750 ] final  173.02 input  -60.55 | X-H torsion
[ 11005 11000 10999 10996 ] final -154.05 input  -57.11 | X-H torsion

> <Gold.Protein.ActiveResidues>
 VAL166  LYS551  ARG553  GLY616  TRP617  ASP618  TYR619  PRO620  LYS621  CYS622 
 ASP623  PHE694  ASN695  SER759  ASP760  ASP761  ALA762  ILE779  LEU786  VAL792 
 PHE793  MET794  SER795  GLU796  ALA797  LYS798  CYS799  TRP800  GLU811  SER814 

> <Gold.Protein.RotatedAtoms>
  151.1675  133.4806  159.2593 H   0  0  0  0  0  0  0  0  0  0  0  0  # atno 6907 bound_to 6896
  151.1391  135.0170  159.8627 H   0  0  0  0  0  0  0  0  0  0  0  0  # atno 6908 bound_to 6896
  152.5462  134.1570  159.8595 H   0  0  0  0  0  0  0  0  0  0  0  0  # atno 6909 bound_to 6896
  146.1771  139.7159  142.8927 H   0  0  0  0  0  0  0  0  0  0  0  0  # atno 7974 bound_to 7965
  155.8293  140.0931  157.1802 H   0  0  0  0  0  0  0  0  0  0  0  0  # atno 8008 bound_to 7997
  154.3979  140.1422  156.3655 H   0  0  0  0  0  0  0  0  0  0  0  0  # atno 8009 bound_to 7997
  155.8183  140.3447  155.5501 H   0  0  0  0  0  0  0  0  0  0  0  0  # atno 8010 bound_to 7997
  139.9431  143.6141  152.2498 H   0  0  0  0  0  0  0  0  0  0  0  0  # atno 10167 bound_to 10162
  156.2602  130.7205  151.1136 H   0  0  0  0  0  0  0  0  0  0  0  0  # atno 10718 bound_to 10713
  154.4343  135.2760  155.1891 H   0  0  0  0  0  0  0  0  0  0  0  0  # atno 10763 bound_to 10752
  154.3784  135.6093  153.5781 H   0  0  0  0  0  0  0  0  0  0  0  0  # atno 10764 bound_to 10752
  152.9837  135.5874  154.4659 H   0  0  0  0  0  0  0  0  0  0  0  0  # atno 10765 bound_to 10752
  140.7015  134.3932  157.5209 H   0  0  0  0  0  0  0  0  0  0  0  0  # atno 11005 bound_to 11000
  145.4181  141.0403  143.2979 LP  0  0  0  0  0  0  0  0  0  0  0  0  # atno 17320 bound_to 7965
  144.8254  139.5720  143.6968 LP  0  0  0  0  0  0  0  0  0  0  0  0  # atno 17321 bound_to 7965
  139.6688  144.7661  151.1821 LP  0  0  0  0  0  0  0  0  0  0  0  0  # atno 17342 bound_to 10162
  140.7605  143.5896  150.8810 LP  0  0  0  0  0  0  0  0  0  0  0  0  # atno 17343 bound_to 10162
  157.7247  131.0658  150.5982 LP  0  0  0  0  0  0  0  0  0  0  0  0  # atno 17370 bound_to 10713
  156.6069  130.4369  149.5874 LP  0  0  0  0  0  0  0  0  0  0  0  0  # atno 17371 bound_to 10713
  139.8895  134.8827  156.2415 LP  0  0  0  0  0  0  0  0  0  0  0  0  # atno 17394 bound_to 11000
  141.0160  133.7068  156.1189 LP  0  0  0  0  0  0  0  0  0  0  0  0  # atno 17395 bound_to 11000

$$$$
