AV-unprocessed.smi:813|AV-procd|sdf|3818|dock8
  -GOLD-   22720 1253D 1   1.00000     0.00000
 Structure written by MMmdl.
 36 37  0  0  0  0  0  0  0  0  1 V2000
  148.9103  132.2960  154.2612 C   0  0  0  0  0  0  0  0  0  0  0  0
  147.8877  133.4409  154.3550 C   0  0  1  0  0  0  0  0  0  0  0  0
  148.5957  134.7017  154.1388 N   0  0  0  0  0  0  0  0  0  0  0  0
  148.9613  135.5568  155.1062 C   0  0  0  0  0  0  0  0  0  0  0  0
  148.7476  135.3582  156.3025 O   0  0  0  0  0  0  0  0  0  0  0  0
  149.5768  136.6371  154.5944 N   0  0  0  0  0  0  0  0  0  0  0  0
  150.1233  137.7492  155.2883 C   0  0  0  0  0  0  0  0  0  0  0  0
  150.2130  137.8221  156.6256 N   0  0  0  0  0  0  0  0  0  0  0  0
  150.7901  139.0143  157.0438 N   0  0  0  0  0  0  0  0  0  0  0  0
  151.1123  139.7929  156.0071 C   0  0  0  0  0  0  0  0  0  0  0  0
  150.7433  139.1454  154.4180 S   0  0  0  0  0  0  0  0  0  0  0  0
  146.8270  133.2309  153.2632 C   0  0  0  0  0  0  0  0  0  0  0  0
  146.0039  132.3188  153.3566 O   0  0  0  0  0  0  0  0  0  0  0  0
  146.8586  134.0912  152.2345 N   0  0  0  0  0  0  0  0  0  0  0  0
  145.9596  134.0618  151.0841 C   0  0  0  0  0  0  0  0  0  0  0  0
  144.4876  134.2132  151.5163 C   0  0  0  0  0  0  0  0  0  0  0  0
  143.8712  132.8211  151.3879 C   0  0  0  0  0  0  0  0  0  0  0  0
  144.6169  132.1944  150.2142 C   0  0  0  0  0  0  0  0  0  0  0  0
  146.0523  132.7074  150.3531 C   0  0  0  0  0  0  0  0  0  0  0  0
  148.4357  131.3274  154.4240 H   0  0  0  0  0  0  0  0  0  0  0  0
  149.6872  132.4061  155.0186 H   0  0  0  0  0  0  0  0  0  0  0  0
  149.4022  132.2666  153.2877 H   0  0  0  0  0  0  0  0  0  0  0  0
  147.4244  133.4369  155.3438 H   0  0  0  0  0  0  0  0  0  0  0  0
  148.8036  134.9459  153.1817 H   0  0  0  0  0  0  0  0  0  0  0  0
  149.6696  136.6659  153.5898 H   0  0  0  0  0  0  0  0  0  0  0  0
  151.5714  140.7551  156.1791 H   0  0  0  0  0  0  0  0  0  0  0  0
  147.5694  134.8084  152.2393 H   0  0  0  0  0  0  0  0  0  0  0  0
  146.2247  134.8680  150.3973 H   0  0  0  0  0  0  0  0  0  0  0  0
  144.3648  134.6248  152.5192 H   0  0  0  0  0  0  0  0  0  0  0  0
  143.9817  134.8924  150.8291 H   0  0  0  0  0  0  0  0  0  0  0  0
  144.0643  132.2482  152.2960 H   0  0  0  0  0  0  0  0  0  0  0  0
  142.7924  132.8520  151.2341 H   0  0  0  0  0  0  0  0  0  0  0  0
  144.5592  131.1056  150.2126 H   0  0  0  0  0  0  0  0  0  0  0  0
  144.1882  132.5517  149.2769 H   0  0  0  0  0  0  0  0  0  0  0  0
  146.5420  132.7986  149.3832 H   0  0  0  0  0  0  0  0  0  0  0  0
  146.6317  131.9908  150.9374 H   0  0  0  0  0  0  0  0  0  0  0  0
  1  2  1  0  0  0  0
  1 20  1  0  0  0  0
  1 21  1  0  0  0  0
  1 22  1  0  0  0  0
  2  3  1  0  0  0  0
  2 12  1  0  0  0  0
  2 23  1  0  0  0  0
  3  4  1  0  0  0  0
  3 24  1  0  0  0  0
  4  5  2  0  0  0  0
  4  6  1  0  0  0  0
  6  7  1  0  0  0  0
  6 25  1  0  0  0  0
  7 11  1  0  0  0  0
  7  8  2  0  0  0  0
  8  9  1  0  0  0  0
  9 10  2  0  0  0  0
 10 11  1  0  0  0  0
 10 26  1  0  0  0  0
 12 13  2  0  0  0  0
 12 14  1  0  0  0  0
 14 15  1  0  0  0  0
 14 27  1  0  0  0  0
 15 19  1  0  0  0  0
 15 16  1  0  0  0  0
 15 28  1  0  0  0  0
 16 17  1  0  0  0  0
 16 29  1  0  0  0  0
 16 30  1  0  0  0  0
 17 18  1  0  0  0  0
 17 31  1  0  0  0  0
 17 32  1  0  0  0  0
 18 19  1  0  0  0  0
 18 33  1  0  0  0  0
 18 34  1  0  0  0  0
 19 35  1  0  0  0  0
 19 36  1  0  0  0  0
M  END
> <s_m_source_file>
AV-unprocessed.smi

> <i_m_source_file_index>
813

> <i_lp_mmshare_version>
43012

> <i_f3d_flags>
0

> <s_epik_input>
W0NIMl0xW0NIMl1bQ0gyXVtDSDJdW0NIXTFbTkhdQyg9TylbQ0BIXShbQ0gzXSlbTkhdQyg9TylbTkhdYzJubltjSF1zMg==

> <s_epik_cmdline>
J2VwaWtfcHl0aG9uJywgJy1waCcsICc3LjAnLCAnLXRuJywgJzgnLCAnLW1hJywgJzIwMCcsICctbWV0YWxfYmluZGluZycsICctaW1hZScsICc8aW5maWxlLm1hZT4nLCAnLW9tYWUnLCAnPG91dGZpbGUubWFlPic=

> <r_lp_tautomer_probability>
1

> <r_epik_Ionization_Penalty>
0.00321247

> <r_epik_Ionization_Penalty_Charging>
0

> <r_epik_Ionization_Penalty_Neutral>
0.00321247

> <r_epik_State_Penalty>
-0

> <r_epik_Charging_Adjusted_Penalty>
0

> <i_epik_Tot_Q>
0

> <i_epik_Tot_abs_Q>
0

> <r_epik_Metal_State_Penalty>
0.363968

> <b_epik_Metal_Only>
0

> <s_lp_Force_Field>
OPLS_2005

> <r_lp_Energy>
15.9742

> <b_lp_Chiralities_Consistent>
1

> <s_lp_Variant>
AV-unprocessed.smi:813-2

> <Gold.Version>
5.8.1

> <Gold.Id.Protein>
6NUR|6NUR_protein|mol2

> <Gold.PLP.Fitness>
37.9346

> <Gold.PLP.PLP>
-30.1671

> <Gold.PLP.part.hbond>
-3.0000

> <Gold.PLP.part.metal>
0.0000

> <Gold.PLP.part.buried>
-3.8990

> <Gold.PLP.part.nonpolar>
-23.7710

> <Gold.PLP.part.repulsive>
0.2226

> <Gold.PLP.ligand.clash>
0.0000

> <Gold.PLP.ligand.torsion>
0.4708

> <Gold.PLP.Chemscore.Hbond>
2.9000

> <Gold.PLP.Chemscore.CHOScore>
0.0000

> <Gold.PLP.Chemscore.Metal>
0.0000

> <Gold.Chemscore.Hbonds>
donor molecule, donor type, donor heavy atom, donor atom, acceptor molecule, acceptor atom, score
      L1  H     3    24       P1  7948  1.00
      L1  H     6    25       P1  7948  1.00
      L1  H    14    27       P1  7948  1.00

> <Gold.PLP.Chemscore.Internal.Correction>
0.0090

> <Gold.Rescore>
     Score         DG    S(hbond)    S(metal)    S(lipo)     H(rot)  DE(clash)    DE(int)     intcor
     12.91     -16.19       2.47        0.00      59.26       1.74       0.01       3.27       ----

> <Gold.Chemscore.Fitness>
12.9142

> <Gold.Chemscore.DG>
-16.1947

> <Gold.Chemscore.ZeroCoef>
-5.4800

> <Gold.Chemscore.Hbond>
2.4684

> <Gold.Chemscore.Metal>
0.0000

> <Gold.Chemscore.Lipo>
59.2571

> <Gold.Chemscore.Internal_Hbond>
0.0000

> <Gold.Chemscore.DEClash>
0.0115

> <Gold.Chemscore.DEInternal>
3.2690

> <Gold.Chemscore.Rot>
1.7433

> <Gold.Chemscore.Internal.Correction>
   9.000000E+99

> <Gold.Chemscore.Hbonds>
donor molecule, donor type, donor heavy atom, donor atom, acceptor molecule, acceptor atom, score
      L1  H     3    24       P1  7948  0.33
      L1  H     6    25       P1  7948  0.57
      L1  H    14    27       P1  7948  0.83

> <Gold.Chemscore.Hbond.Weighted>
-8.2444

> <Gold.Chemscore.Metal.Weighted>
-0.0000

> <Gold.Chemscore.Lipo.Weighted>
-6.9331

> <Gold.Chemscore.Internal_Hbond.Weighted>
0.0000

> <Gold.Chemscore.DEClash.Weighted>
0.0115

> <Gold.Chemscore.DEInternal.Weighted>
3.2690

> <Gold.Chemscore.Rot.Weighted>
4.4628

> <Gold.Chemscore.Internal.Correction.Weighted>
   9.000000E+99

> <Gold.Protein.RotatedTorsions>
[ 6907 6896 6895 6894 ] final -136.75 input  -60.11 | X-H torsion
[ 7974 7965 7964 7962 ] final  -95.09 input  175.53 | X-H torsion
[ 8008 7997 7996 7995 ] final  -15.72 input   59.86 | X-H torsion
[ 10167 10162 10161 10158 ] final -130.32 input  -65.29 | X-H torsion
[ 10718 10713 10712 10709 ] final  -61.04 input   66.30 | X-H torsion
[ 10763 10752 10751 10750 ] final  130.56 input  -60.55 | X-H torsion
[ 11005 11000 10999 10996 ] final  163.98 input  -57.11 | X-H torsion

> <Gold.Protein.ActiveResidues>
 VAL166  LYS551  ARG553  GLY616  TRP617  ASP618  TYR619  PRO620  LYS621  CYS622 
 ASP623  PHE694  ASN695  SER759  ASP760  ASP761  ALA762  ILE779  LEU786  VAL792 
 PHE793  MET794  SER795  GLU796  ALA797  LYS798  CYS799  TRP800  GLU811  SER814 

> <Gold.Protein.RotatedAtoms>
  151.0139  133.5939  159.2679 H   0  0  0  0  0  0  0  0  0  0  0  0  # atno 6907 bound_to 6896
  151.3081  135.0786  159.9272 H   0  0  0  0  0  0  0  0  0  0  0  0  # atno 6908 bound_to 6896
  152.5306  133.9809  159.7860 H   0  0  0  0  0  0  0  0  0  0  0  0  # atno 6909 bound_to 6896
  145.3647  140.9497  143.2481 H   0  0  0  0  0  0  0  0  0  0  0  0  # atno 7974 bound_to 7965
  154.5108  140.2189  155.9159 H   0  0  0  0  0  0  0  0  0  0  0  0  # atno 8008 bound_to 7997
  156.1550  140.3154  155.8677 H   0  0  0  0  0  0  0  0  0  0  0  0  # atno 8009 bound_to 7997
  155.3864  140.0475  157.3033 H   0  0  0  0  0  0  0  0  0  0  0  0  # atno 8010 bound_to 7997
  139.9306  143.6276  152.2530 H   0  0  0  0  0  0  0  0  0  0  0  0  # atno 10167 bound_to 10162
  156.0949  130.4194  150.0938 H   0  0  0  0  0  0  0  0  0  0  0  0  # atno 10718 bound_to 10713
  153.7601  135.3197  155.3335 H   0  0  0  0  0  0  0  0  0  0  0  0  # atno 10763 bound_to 10752
  154.8233  135.4588  154.0846 H   0  0  0  0  0  0  0  0  0  0  0  0  # atno 10764 bound_to 10752
  153.2075  135.6931  153.8239 H   0  0  0  0  0  0  0  0  0  0  0  0  # atno 10765 bound_to 10752
  140.2413  134.8048  157.3413 H   0  0  0  0  0  0  0  0  0  0  0  0  # atno 11005 bound_to 11000
  144.8620  139.5163  143.6807 LP  0  0  0  0  0  0  0  0  0  0  0  0  # atno 17320 bound_to 7965
  146.2912  139.7144  142.9160 LP  0  0  0  0  0  0  0  0  0  0  0  0  # atno 17321 bound_to 7965
  139.6785  144.7657  151.1651 LP  0  0  0  0  0  0  0  0  0  0  0  0  # atno 17342 bound_to 10162
  140.7638  143.5759  150.8946 LP  0  0  0  0  0  0  0  0  0  0  0  0  # atno 17343 bound_to 10162
  156.8939  130.9598  151.3585 LP  0  0  0  0  0  0  0  0  0  0  0  0  # atno 17370 bound_to 10713
  157.6107  130.8581  149.8947 LP  0  0  0  0  0  0  0  0  0  0  0  0  # atno 17371 bound_to 10713
  140.1650  134.4680  155.7869 LP  0  0  0  0  0  0  0  0  0  0  0  0  # atno 17394 bound_to 11000
  141.2210  133.6917  156.7610 LP  0  0  0  0  0  0  0  0  0  0  0  0  # atno 17395 bound_to 11000

$$$$
