AV-unprocessed.smi:2881|AV-procd|sdf|11061|dock7
  -GOLD-   2272015533D 1   1.00000     0.00000
 Structure written by MMmdl.
 40 42  0  0  0  0  0  0  0  0  1 V2000
  146.6705  134.1672  162.8359 C   0  0  0  0  0  0  0  0  0  0  0  0
  147.1282  135.0874  161.7559 C   0  0  0  0  0  0  0  0  0  0  0  0
  147.4311  134.8601  160.4433 C   0  0  0  0  0  0  0  0  0  0  0  0
  147.7960  136.1428  159.9370 C   0  0  0  0  0  0  0  0  0  0  0  0
  148.2032  136.5014  158.5325 C   0  0  0  0  0  0  0  0  0  0  0  0
  149.5692  137.1856  158.5593 C   0  0  0  0  0  0  0  0  0  0  0  0
  150.5043  136.6737  159.1745 O   0  0  0  0  0  0  0  0  0  0  0  0
  149.6745  138.3238  157.8564 N   0  0  0  0  0  0  0  0  0  0  0  0
  150.9138  139.0611  157.6107 C   0  0  2  0  0  0  0  0  0  0  0  0
  151.0004  140.3714  158.4315 C   0  0  2  0  0  0  0  0  0  0  0  0
  149.7188  141.2187  158.2811 C   0  0  0  0  0  0  0  0  0  0  0  0
  149.8116  141.7113  156.8261 C   0  0  0  0  0  0  0  0  0  0  0  0
  151.1463  141.1072  156.3402 C   0  0  1  0  0  0  0  0  0  0  0  0
  151.9875  141.1932  157.6084 C   0  0  0  0  0  0  0  0  0  0  0  0
  151.0570  139.5729  156.1475 C   0  0  2  0  0  0  0  0  0  0  0  0
  150.0126  139.0798  155.1178 C   0  0  0  0  0  0  0  0  0  0  0  0
  150.2783  139.6272  153.8440 O   0  0  0  0  0  0  0  0  0  0  0  0
  147.7308  137.0882  160.8652 N   0  0  0  0  0  0  0  0  0  0  0  0
  147.3211  136.4330  161.9673 N   0  0  0  0  0  0  0  0  0  0  0  0
  147.1810  136.9105  162.8464 H   0  0  0  0  0  0  0  0  0  0  0  0
  146.7241  133.1280  162.5107 H   0  0  0  0  0  0  0  0  0  0  0  0
  145.6380  134.3802  163.1133 H   0  0  0  0  0  0  0  0  0  0  0  0
  147.2905  134.2729  163.7265 H   0  0  0  0  0  0  0  0  0  0  0  0
  147.3903  133.9183  159.9160 H   0  0  0  0  0  0  0  0  0  0  0  0
  148.2486  135.6166  157.8955 H   0  0  0  0  0  0  0  0  0  0  0  0
  147.4696  137.1718  158.0835 H   0  0  0  0  0  0  0  0  0  0  0  0
  148.8462  138.6649  157.3899 H   0  0  0  0  0  0  0  0  0  0  0  0
  151.7764  138.4394  157.8583 H   0  0  0  0  0  0  0  0  0  0  0  0
  151.2941  140.2131  159.4696 H   0  0  0  0  0  0  0  0  0  0  0  0
  148.7995  140.6687  158.4822 H   0  0  0  0  0  0  0  0  0  0  0  0
  149.7426  142.0664  158.9675 H   0  0  0  0  0  0  0  0  0  0  0  0
  148.9555  141.4107  156.2240 H   0  0  0  0  0  0  0  0  0  0  0  0
  149.8553  142.8008  156.8008 H   0  0  0  0  0  0  0  0  0  0  0  0
  151.5714  141.6278  155.4816 H   0  0  0  0  0  0  0  0  0  0  0  0
  152.1168  142.2129  157.9762 H   0  0  0  0  0  0  0  0  0  0  0  0
  152.9684  140.7239  157.5129 H   0  0  0  0  0  0  0  0  0  0  0  0
  152.0300  139.2351  155.7855 H   0  0  0  0  0  0  0  0  0  0  0  0
  150.0548  137.9938  155.0314 H   0  0  0  0  0  0  0  0  0  0  0  0
  148.9933  139.3308  155.4093 H   0  0  0  0  0  0  0  0  0  0  0  0
  149.5317  139.4666  153.2874 H   0  0  0  0  0  0  0  0  0  0  0  0
  1  2  1  0  0  0  0
  1 21  1  0  0  0  0
  1 22  1  0  0  0  0
  1 23  1  0  0  0  0
  2 19  1  0  0  0  0
  2  3  2  0  0  0  0
  3  4  1  0  0  0  0
  3 24  1  0  0  0  0
  4  5  1  0  0  0  0
  4 18  2  0  0  0  0
  5  6  1  0  0  0  0
  5 25  1  0  0  0  0
  5 26  1  0  0  0  0
  6  7  2  0  0  0  0
  6  8  1  0  0  0  0
  8  9  1  0  0  0  0
  8 27  1  0  0  0  0
  9 15  1  0  0  0  0
  9 10  1  0  0  0  0
  9 28  1  0  0  0  0
 10 14  1  0  0  0  0
 10 11  1  0  0  0  0
 10 29  1  0  0  0  0
 11 12  1  0  0  0  0
 11 30  1  0  0  0  0
 11 31  1  0  0  0  0
 12 13  1  0  0  0  0
 12 32  1  0  0  0  0
 12 33  1  0  0  0  0
 13 14  1  0  0  0  0
 13 15  1  0  0  0  0
 13 34  1  0  0  0  0
 14 35  1  0  0  0  0
 14 36  1  0  0  0  0
 15 16  1  0  0  0  0
 15 37  1  0  0  0  0
 16 17  1  0  0  0  0
 16 38  1  0  0  0  0
 16 39  1  0  0  0  0
 17 40  1  0  0  0  0
 18 19  1  0  0  0  0
 19 20  1  0  0  0  0
M  END
> <s_m_source_file>
AV-unprocessed.smi

> <i_m_source_file_index>
2881

> <i_lp_mmshare_version>
43012

> <i_f3d_flags>
0

> <s_epik_input>
W0NIM11jMVtjSF1jKG5bbkhdMSlbQ0gyXUMoPU8pW05IXVtDQEhdKFtDQEBIXTIzKVtDQEhdKFtDSDJdW09IXSlbQ0BASF0oW0NIMl0zKVtDSDJdW0NIMl0y

> <s_epik_cmdline>
J2VwaWtfcHl0aG9uJywgJy1waCcsICc3LjAnLCAnLXRuJywgJzgnLCAnLW1hJywgJzIwMCcsICctbWV0YWxfYmluZGluZycsICctaW1hZScsICc8aW5maWxlLm1hZT4nLCAnLW9tYWUnLCAnPG91dGZpbGUubWFlPic=

> <r_lp_tautomer_probability>
0.5

> <r_epik_Ionization_Penalty>
9.4349e-05

> <r_epik_Ionization_Penalty_Charging>
0

> <r_epik_Ionization_Penalty_Neutral>
9.4349e-05

> <r_epik_State_Penalty>
0.41068

> <r_epik_Charging_Adjusted_Penalty>
0.41068

> <i_epik_Tot_Q>
0

> <i_epik_Tot_abs_Q>
0

> <r_epik_Metal_State_Penalty>
0.4107

> <b_epik_Metal_Only>
0

> <s_lp_Force_Field>
OPLS_2005

> <r_lp_Energy>
48.5283

> <b_lp_Chiralities_Consistent>
1

> <s_lp_Variant>
AV-unprocessed.smi:2881-7

> <Gold.Version>
5.8.1

> <Gold.Id.Protein>
6NUR|6NUR_protein|mol2

> <Gold.PLP.Fitness>
40.1985

> <Gold.PLP.PLP>
-29.5044

> <Gold.PLP.part.hbond>
-5.0000

> <Gold.PLP.part.metal>
0.0000

> <Gold.PLP.part.buried>
-4.5720

> <Gold.PLP.part.nonpolar>
-21.3257

> <Gold.PLP.part.repulsive>
0.2363

> <Gold.PLP.ligand.clash>
0.0000

> <Gold.PLP.ligand.torsion>
0.3150

> <Gold.PLP.Chemscore.Hbond>
3.7699

> <Gold.PLP.Chemscore.CHOScore>
0.0000

> <Gold.PLP.Chemscore.Metal>
0.0000

> <Gold.Chemscore.Hbonds>
donor molecule, donor type, donor heavy atom, donor atom, acceptor molecule, acceptor atom, score
      L1  H    17    40       P1  7957  0.23
      P1  H  6896  6908       L1     7  1.00
      P1  H  6931  6943       L1    18  0.64
      P1  H  6934  6947       L1    18  0.91
      P1  H  7989  7998       L1    17  0.99

> <Gold.PLP.Chemscore.Internal.Correction>
0.0144

> <Gold.Rescore>
     Score         DG    S(hbond)    S(metal)    S(lipo)     H(rot)  DE(clash)    DE(int)     intcor
     17.95     -18.36       3.10        0.00      71.31       2.28       0.02       0.40       ----

> <Gold.Chemscore.Fitness>
17.9460

> <Gold.Chemscore.DG>
-18.3586

> <Gold.Chemscore.ZeroCoef>
-5.4800

> <Gold.Chemscore.Hbond>
3.1019

> <Gold.Chemscore.Metal>
0.0000

> <Gold.Chemscore.Lipo>
71.3116

> <Gold.Chemscore.Internal_Hbond>
0.0000

> <Gold.Chemscore.DEClash>
0.0174

> <Gold.Chemscore.DEInternal>
0.3951

> <Gold.Chemscore.Rot>
2.2755

> <Gold.Chemscore.Internal.Correction>
   9.000000E+99

> <Gold.Chemscore.Hbonds>
donor molecule, donor type, donor heavy atom, donor atom, acceptor molecule, acceptor atom, score
      L1  H    17    40       P1  7957  0.22
      P1  H  6896  6908       L1     7  1.00
      P1  H  6931  6943       L1    18  0.06
      P1  H  6934  6947       L1    18  0.66
      P1  H  7989  7998       L1    17  0.93

> <Gold.Chemscore.Hbond.Weighted>
-10.3603

> <Gold.Chemscore.Metal.Weighted>
-0.0000

> <Gold.Chemscore.Lipo.Weighted>
-8.3435

> <Gold.Chemscore.Internal_Hbond.Weighted>
0.0000

> <Gold.Chemscore.DEClash.Weighted>
0.0174

> <Gold.Chemscore.DEInternal.Weighted>
0.3951

> <Gold.Chemscore.Rot.Weighted>
5.8252

> <Gold.Chemscore.Internal.Correction.Weighted>
   9.000000E+99

> <Gold.Protein.RotatedTorsions>
[ 6907 6896 6895 6894 ] final -149.15 input  -60.11 | X-H torsion
[ 7974 7965 7964 7962 ] final  130.18 input  175.53 | X-H torsion
[ 8008 7997 7996 7995 ] final  -69.60 input   59.86 | X-H torsion
[ 10167 10162 10161 10158 ] final  -25.70 input  -65.29 | X-H torsion
[ 10718 10713 10712 10709 ] final  159.40 input   66.30 | X-H torsion
[ 10763 10752 10751 10750 ] final -154.40 input  -60.55 | X-H torsion
[ 11005 11000 10999 10996 ] final  -97.76 input  -57.11 | X-H torsion

> <Gold.Protein.ActiveResidues>
 VAL166  LYS551  ARG553  GLY616  TRP617  ASP618  TYR619  PRO620  LYS621  CYS622 
 ASP623  PHE694  ASN695  SER759  ASP760  ASP761  ALA762  ILE779  LEU786  VAL792 
 PHE793  MET794  SER795  GLU796  ALA797  LYS798  CYS799  TRP800  GLU811  SER814 

> <Gold.Protein.RotatedAtoms>
  151.1800  133.4731  159.2593 H   0  0  0  0  0  0  0  0  0  0  0  0  # atno 6907 bound_to 6896
  151.1269  135.0109  159.8574 H   0  0  0  0  0  0  0  0  0  0  0  0  # atno 6908 bound_to 6896
  152.5458  134.1706  159.8648 H   0  0  0  0  0  0  0  0  0  0  0  0  # atno 6909 bound_to 6896
  145.0206  139.4135  143.5199 H   0  0  0  0  0  0  0  0  0  0  0  0  # atno 7974 bound_to 7965
  154.4951  140.0850  156.7678 H   0  0  0  0  0  0  0  0  0  0  0  0  # atno 8008 bound_to 7997
  155.4137  140.3442  155.4247 H   0  0  0  0  0  0  0  0  0  0  0  0  # atno 8009 bound_to 7997
  156.1382  140.1521  156.8949 H   0  0  0  0  0  0  0  0  0  0  0  0  # atno 8010 bound_to 7997
  140.7285  143.4242  151.0903 H   0  0  0  0  0  0  0  0  0  0  0  0  # atno 10167 bound_to 10162
  157.1647  131.0596  151.2214 H   0  0  0  0  0  0  0  0  0  0  0  0  # atno 10718 bound_to 10713
  154.7861  135.3191  154.7882 H   0  0  0  0  0  0  0  0  0  0  0  0  # atno 10763 bound_to 10752
  153.8582  135.6856  153.4790 H   0  0  0  0  0  0  0  0  0  0  0  0  # atno 10764 bound_to 10752
  153.1514  135.4698  154.9581 H   0  0  0  0  0  0  0  0  0  0  0  0  # atno 10765 bound_to 10752
  141.1368  133.8195  157.0749 H   0  0  0  0  0  0  0  0  0  0  0  0  # atno 11005 bound_to 11000
  146.3485  139.9702  142.8707 LP  0  0  0  0  0  0  0  0  0  0  0  0  # atno 17320 bound_to 7965
  145.1900  140.9807  143.4216 LP  0  0  0  0  0  0  0  0  0  0  0  0  # atno 17321 bound_to 7965
  139.7891  143.8244  152.3149 LP  0  0  0  0  0  0  0  0  0  0  0  0  # atno 17342 bound_to 10162
  139.8222  144.7291  150.9558 LP  0  0  0  0  0  0  0  0  0  0  0  0  # atno 17343 bound_to 10162
  157.4099  130.7379  149.6831 LP  0  0  0  0  0  0  0  0  0  0  0  0  # atno 17370 bound_to 10713
  155.9748  130.4098  150.3897 LP  0  0  0  0  0  0  0  0  0  0  0  0  # atno 17371 bound_to 10713
  140.0488  134.9816  157.1098 LP  0  0  0  0  0  0  0  0  0  0  0  0  # atno 17394 bound_to 11000
  140.4022  134.2071  155.7163 LP  0  0  0  0  0  0  0  0  0  0  0  0  # atno 17395 bound_to 11000

$$$$
