AV-unprocessed.smi:1620|AV-procd|sdf|6492|dock10
  -GOLD-   22720 7153D 1   1.00000     0.00000
 Structure written by MMmdl.
 40 40  0  0  0  0  0  0  0  0  1 V2000
  149.5341  144.9005  160.4093 C   0  0  0  0  0  0  0  0  0  0  0  0
  151.0353  144.6071  160.2233 C   0  0  0  0  0  0  0  0  0  0  0  0
  151.8250  145.9276  160.2710 C   0  0  0  0  0  0  0  0  0  0  0  0
  151.3346  143.7906  158.9326 C   0  0  1  0  0  0  0  0  0  0  0  0
  152.1557  144.5538  157.8710 C   0  0  0  0  0  0  0  0  0  0  0  0
  151.9624  142.4767  159.2311 N   0  0  0  0  0  0  0  0  0  0  0  0
  152.7010  142.3972  160.4987 C   0  0  0  0  0  0  0  0  0  0  0  0
  151.9955  141.4034  158.3962 C   0  0  0  0  0  0  0  0  0  0  0  0
  152.5689  140.3535  158.6915 O   0  0  0  0  0  0  0  0  0  0  0  0
  151.2869  141.5545  157.2604 N   0  0  0  0  0  0  0  0  0  0  0  0
  151.1182  140.6220  156.2061 C   0  0  0  0  0  0  0  0  0  0  0  0
  150.1989  140.7733  155.1359 C   0  0  0  0  0  0  0  0  0  0  0  0
  150.2594  139.7456  154.3031 N   0  0  0  0  0  0  0  0  0  0  0  0
  151.2084  138.9266  154.8227 N   0  0  0  0  0  0  0  0  0  0  0  0
  151.5292  137.6797  154.1506 C   0  0  0  0  0  0  0  0  0  0  0  0
  151.2449  136.4746  155.0494 C   0  0  0  0  0  0  0  0  0  0  0  0
  150.2061  135.7010  154.7226 N   0  0  0  0  0  0  0  0  0  0  0  0
  151.9569  136.2424  156.0240 O   0  0  0  0  0  0  0  0  0  0  0  0
  151.7550  139.4334  155.9857 C   0  0  0  0  0  0  0  0  0  0  0  0
  149.1323  145.4610  159.5646 H   0  0  0  0  0  0  0  0  0  0  0  0
  149.3577  145.4889  161.3102 H   0  0  0  0  0  0  0  0  0  0  0  0
  148.9511  143.9852  160.5113 H   0  0  0  0  0  0  0  0  0  0  0  0
  151.3531  144.0190  161.0846 H   0  0  0  0  0  0  0  0  0  0  0  0
  151.6011  146.5558  159.4082 H   0  0  0  0  0  0  0  0  0  0  0  0
  152.9007  145.7556  160.2915 H   0  0  0  0  0  0  0  0  0  0  0  0
  151.5806  146.4988  161.1669 H   0  0  0  0  0  0  0  0  0  0  0  0
  150.3709  143.6423  158.4459 H   0  0  0  0  0  0  0  0  0  0  0  0
  151.5971  145.3970  157.4656 H   0  0  0  0  0  0  0  0  0  0  0  0
  152.4020  143.9060  157.0289 H   0  0  0  0  0  0  0  0  0  0  0  0
  153.0892  144.9462  158.2743 H   0  0  0  0  0  0  0  0  0  0  0  0
  152.5058  141.4538  161.0114 H   0  0  0  0  0  0  0  0  0  0  0  0
  152.4277  143.1887  161.1953 H   0  0  0  0  0  0  0  0  0  0  0  0
  153.7741  142.4698  160.3169 H   0  0  0  0  0  0  0  0  0  0  0  0
  150.8274  142.4449  157.1362 H   0  0  0  0  0  0  0  0  0  0  0  0
  149.5045  141.5769  154.9393 H   0  0  0  0  0  0  0  0  0  0  0  0
  150.9543  137.6010  153.2264 H   0  0  0  0  0  0  0  0  0  0  0  0
  152.5836  137.6956  153.8715 H   0  0  0  0  0  0  0  0  0  0  0  0
  149.9884  134.8889  155.2821 H   0  0  0  0  0  0  0  0  0  0  0  0
  149.6488  135.9254  153.9111 H   0  0  0  0  0  0  0  0  0  0  0  0
  152.5242  138.9083  156.5325 H   0  0  0  0  0  0  0  0  0  0  0  0
  1  2  1  0  0  0  0
  1 20  1  0  0  0  0
  1 21  1  0  0  0  0
  1 22  1  0  0  0  0
  2  3  1  0  0  0  0
  2  4  1  0  0  0  0
  2 23  1  0  0  0  0
  3 24  1  0  0  0  0
  3 25  1  0  0  0  0
  3 26  1  0  0  0  0
  4  5  1  0  0  0  0
  4  6  1  0  0  0  0
  4 27  1  0  0  0  0
  5 28  1  0  0  0  0
  5 29  1  0  0  0  0
  5 30  1  0  0  0  0
  6  7  1  0  0  0  0
  6  8  1  0  0  0  0
  7 31  1  0  0  0  0
  7 32  1  0  0  0  0
  7 33  1  0  0  0  0
  8  9  2  0  0  0  0
  8 10  1  0  0  0  0
 10 11  1  0  0  0  0
 10 34  1  0  0  0  0
 11 19  2  0  0  0  0
 11 12  1  0  0  0  0
 12 13  2  0  0  0  0
 12 35  1  0  0  0  0
 13 14  1  0  0  0  0
 14 15  1  0  0  0  0
 14 19  1  0  0  0  0
 15 16  1  0  0  0  0
 15 36  1  0  0  0  0
 15 37  1  0  0  0  0
 16 17  1  0  0  0  0
 16 18  2  0  0  0  0
 17 38  1  0  0  0  0
 17 39  1  0  0  0  0
 19 40  1  0  0  0  0
M  END
> <s_m_source_file>
AV-unprocessed.smi

> <i_m_source_file_index>
1620

> <i_lp_mmshare_version>
43012

> <i_f3d_flags>
0

> <s_epik_input>
W0NIM11bQ0hdKFtDSDNdKVtDQEhdKFtDSDNdKU4oW0NIM10pQyg9TylbTkhdYzFbY0hdbm4oW2NIXTEpW0NIMl1DKD1PKVtOSDJd

> <s_epik_cmdline>
J2VwaWtfcHl0aG9uJywgJy1waCcsICc3LjAnLCAnLXRuJywgJzgnLCAnLW1hJywgJzIwMCcsICctbWV0YWxfYmluZGluZycsICctaW1hZScsICc8aW5maWxlLm1hZT4nLCAnLW9tYWUnLCAnPG91dGZpbGUubWFlPic=

> <r_lp_tautomer_probability>
1

> <r_epik_Ionization_Penalty>
4.85642e-05

> <r_epik_Ionization_Penalty_Charging>
0

> <r_epik_Ionization_Penalty_Neutral>
4.85642e-05

> <r_epik_State_Penalty>
-0

> <r_epik_Charging_Adjusted_Penalty>
0

> <i_epik_Tot_Q>
0

> <i_epik_Tot_abs_Q>
0

> <r_epik_Metal_State_Penalty>
-0

> <b_epik_Metal_Only>
0

> <s_lp_Force_Field>
OPLS_2005

> <r_lp_Energy>
32.9866

> <b_lp_Chiralities_Consistent>
1

> <s_lp_Variant>
AV-unprocessed.smi:1620-2

> <Gold.Version>
5.8.1

> <Gold.Id.Protein>
6NUR|6NUR_protein|mol2

> <Gold.PLP.Fitness>
46.0087

> <Gold.PLP.PLP>
-43.7332

> <Gold.PLP.part.hbond>
-3.0000

> <Gold.PLP.part.metal>
0.0000

> <Gold.PLP.part.buried>
-4.1604

> <Gold.PLP.part.nonpolar>
-38.2239

> <Gold.PLP.part.repulsive>
0.2706

> <Gold.PLP.ligand.clash>
0.0000

> <Gold.PLP.ligand.torsion>
2.0803

> <Gold.PLP.Chemscore.Hbond>
2.0800

> <Gold.PLP.Chemscore.CHOScore>
0.0000

> <Gold.PLP.Chemscore.Metal>
0.0000

> <Gold.Chemscore.Hbonds>
donor molecule, donor type, donor heavy atom, donor atom, acceptor molecule, acceptor atom, score
      L1  H    17    39       P1  7948  0.70
      P1  H  7989  7998       L1    13  0.05
      P1  H 10752 10763       L1    18  0.70

> <Gold.PLP.Chemscore.Internal.Correction>
0.1961

> <Gold.Rescore>
     Score         DG    S(hbond)    S(metal)    S(lipo)     H(rot)  DE(clash)    DE(int)     intcor
     12.39     -16.25       1.57        0.00      93.13       2.10       0.74       3.12       ----

> <Gold.Chemscore.Fitness>
12.3889

> <Gold.Chemscore.DG>
-16.2480

> <Gold.Chemscore.ZeroCoef>
-5.4800

> <Gold.Chemscore.Hbond>
1.5743

> <Gold.Chemscore.Metal>
0.0000

> <Gold.Chemscore.Lipo>
93.1267

> <Gold.Chemscore.Internal_Hbond>
0.0000

> <Gold.Chemscore.DEClash>
0.7370

> <Gold.Chemscore.DEInternal>
3.1221

> <Gold.Chemscore.Rot>
2.1039

> <Gold.Chemscore.Internal.Correction>
   9.000000E+99

> <Gold.Chemscore.Hbonds>
donor molecule, donor type, donor heavy atom, donor atom, acceptor molecule, acceptor atom, score
      L1  H    17    39       P1  7948  0.24
      P1  H 10752 10763       L1    18  0.07

> <Gold.Chemscore.Hbond.Weighted>
-5.2581

> <Gold.Chemscore.Metal.Weighted>
-0.0000

> <Gold.Chemscore.Lipo.Weighted>
-10.8958

> <Gold.Chemscore.Internal_Hbond.Weighted>
0.0000

> <Gold.Chemscore.DEClash.Weighted>
0.7370

> <Gold.Chemscore.DEInternal.Weighted>
3.1221

> <Gold.Chemscore.Rot.Weighted>
5.3860

> <Gold.Chemscore.Internal.Correction.Weighted>
   9.000000E+99

> <Gold.Protein.RotatedTorsions>
[ 6907 6896 6895 6894 ] final -131.17 input  -60.11 | X-H torsion
[ 7974 7965 7964 7962 ] final  -90.68 input  175.53 | X-H torsion
[ 8008 7997 7996 7995 ] final -115.71 input   59.86 | X-H torsion
[ 10167 10162 10161 10158 ] final  -65.44 input  -65.29 | X-H torsion
[ 10718 10713 10712 10709 ] final   19.40 input   66.30 | X-H torsion
[ 10763 10752 10751 10750 ] final   92.52 input  -60.55 | X-H torsion
[ 11005 11000 10999 10996 ] final  -52.44 input  -57.11 | X-H torsion

> <Gold.Protein.ActiveResidues>
 VAL166  LYS551  ARG553  GLY616  TRP617  ASP618  TYR619  PRO620  LYS621  CYS622 
 ASP623  PHE694  ASN695  SER759  ASP760  ASP761  ALA762  ILE779  LEU786  VAL792 
 PHE793  MET794  SER795  GLU796  ALA797  LYS798  CYS799  TRP800  GLU811  SER814 

> <Gold.Protein.RotatedAtoms>
  150.9479  133.6582  159.2777 H   0  0  0  0  0  0  0  0  0  0  0  0  # atno 6907 bound_to 6896
  151.3948  135.0960  159.9547 H   0  0  0  0  0  0  0  0  0  0  0  0  # atno 6908 bound_to 6896
  152.5097  133.8986  159.7484 H   0  0  0  0  0  0  0  0  0  0  0  0  # atno 6909 bound_to 6896
  145.4232  140.9552  143.2169 H   0  0  0  0  0  0  0  0  0  0  0  0  # atno 7974 bound_to 7965
  155.0563  140.0393  157.2561 H   0  0  0  0  0  0  0  0  0  0  0  0  # atno 8008 bound_to 7997
  154.7096  140.2690  155.6617 H   0  0  0  0  0  0  0  0  0  0  0  0  # atno 8009 bound_to 7997
  156.2785  140.2724  156.1734 H   0  0  0  0  0  0  0  0  0  0  0  0  # atno 8010 bound_to 7997
  140.5729  143.2319  151.6501 H   0  0  0  0  0  0  0  0  0  0  0  0  # atno 10167 bound_to 10162
  157.1099  130.6504  149.5895 H   0  0  0  0  0  0  0  0  0  0  0  0  # atno 10718 bound_to 10713
  153.2201  135.4358  155.0479 H   0  0  0  0  0  0  0  0  0  0  0  0  # atno 10763 bound_to 10752
  154.8245  135.3354  154.6941 H   0  0  0  0  0  0  0  0  0  0  0  0  # atno 10764 bound_to 10752
  153.7373  135.7007  153.5031 H   0  0  0  0  0  0  0  0  0  0  0  0  # atno 10765 bound_to 10752
  141.0925  133.6630  156.4025 H   0  0  0  0  0  0  0  0  0  0  0  0  # atno 11005 bound_to 11000
  144.8231  139.5756  143.6977 LP  0  0  0  0  0  0  0  0  0  0  0  0  # atno 17320 bound_to 7965
  146.2646  139.6489  142.9338 LP  0  0  0  0  0  0  0  0  0  0  0  0  # atno 17321 bound_to 7965
  139.5127  144.3467  152.0690 LP  0  0  0  0  0  0  0  0  0  0  0  0  # atno 17342 bound_to 10162
  140.2607  144.4071  150.6187 LP  0  0  0  0  0  0  0  0  0  0  0  0  # atno 17343 bound_to 10162
  155.9853  130.4882  150.7024 LP  0  0  0  0  0  0  0  0  0  0  0  0  # atno 17370 bound_to 10713
  157.4568  131.0879  151.0788 LP  0  0  0  0  0  0  0  0  0  0  0  0  # atno 17371 bound_to 10713
  140.5219  134.6296  157.5321 LP  0  0  0  0  0  0  0  0  0  0  0  0  # atno 17394 bound_to 11000
  139.9753  134.7225  155.9961 LP  0  0  0  0  0  0  0  0  0  0  0  0  # atno 17395 bound_to 11000

$$$$
