AV-unprocessed.smi:2829|AV-procd|sdf|10905|dock2
  -GOLD-   2272015353D 1   1.00000     0.00000
 Structure written by MMmdl.
 50 53  0  0  0  0  0  0  0  0  1 V2000
  149.3628  141.9642  158.0613 C   0  0  0  0  0  0  0  0  0  0  0  0
  150.5744  141.3399  157.3383 C   0  0  0  0  0  0  0  0  0  0  0  0
  151.2645  142.4028  156.4585 C   0  0  0  0  0  0  0  0  0  0  0  0
  151.5878  140.9049  158.4209 C   0  0  0  0  0  0  0  0  0  0  0  0
  150.1076  140.1631  156.4625 C   0  0  0  0  0  0  0  0  0  0  0  0
  150.2903  140.1210  155.0618 C   0  0  0  0  0  0  0  0  0  0  0  0
  149.8168  138.9913  154.3738 C   0  0  0  0  0  0  0  0  0  0  0  0
  149.1911  137.9677  155.1131 C   0  0  0  0  0  0  0  0  0  0  0  0
  148.7406  136.8577  154.3525 N   0  0  0  0  0  0  0  0  0  0  0  0
  147.8934  135.8781  154.7261 C   0  0  0  0  0  0  0  0  0  0  0  0
  147.3383  135.8092  155.8208 O   0  0  0  0  0  0  0  0  0  0  0  0
  147.6945  134.9409  153.7827 N   0  0  0  0  0  0  0  0  0  0  0  0
  146.8354  133.7529  153.8777 C   0  0  1  0  0  0  0  0  0  0  0  0
  145.9753  133.4959  152.6332 C   0  0  1  0  0  0  0  0  0  0  0  0
  145.4332  134.3294  151.5296 C   0  0  0  0  0  0  0  0  0  0  0  0
  145.6535  133.3012  150.3907 C   0  0  0  0  0  0  0  0  0  0  0  0
  146.4412  132.2306  150.9710 O   0  0  0  0  0  0  0  0  0  0  0  0
  147.1963  132.8555  151.9932 C   0  0  2  0  0  0  0  0  0  0  0  0
  147.5419  132.4315  153.4325 C   0  0  0  0  0  0  0  0  0  0  0  0
  148.9837  132.0964  153.8346 C   0  0  0  0  0  0  0  0  0  0  0  0
  148.5885  130.6158  153.8328 C   0  0  0  0  0  0  0  0  0  0  0  0
  147.1257  131.0512  153.9661 C   0  0  0  0  0  0  0  0  0  0  0  0
  149.0505  138.0730  156.4580 N   0  0  0  0  0  0  0  0  0  0  0  0
  149.4976  139.1455  157.1181 N   0  0  0  0  0  0  0  0  0  0  0  0
  149.6666  142.7887  158.7071 H   0  0  0  0  0  0  0  0  0  0  0  0
  148.8526  141.2289  158.6846 H   0  0  0  0  0  0  0  0  0  0  0  0
  148.6311  142.3619  157.3571 H   0  0  0  0  0  0  0  0  0  0  0  0
  150.5867  142.8088  155.7068 H   0  0  0  0  0  0  0  0  0  0  0  0
  152.1242  141.9845  155.9339 H   0  0  0  0  0  0  0  0  0  0  0  0
  151.6209  143.2428  157.0558 H   0  0  0  0  0  0  0  0  0  0  0  0
  151.9053  141.7534  159.0284 H   0  0  0  0  0  0  0  0  0  0  0  0
  152.4882  140.4743  157.9810 H   0  0  0  0  0  0  0  0  0  0  0  0
  151.1593  140.1690  159.1023 H   0  0  0  0  0  0  0  0  0  0  0  0
  150.7722  140.9133  154.5104 H   0  0  0  0  0  0  0  0  0  0  0  0
  149.9337  138.9158  153.3025 H   0  0  0  0  0  0  0  0  0  0  0  0
  149.1196  136.7865  153.4199 H   0  0  0  0  0  0  0  0  0  0  0  0
  148.1972  135.0561  152.9145 H   0  0  0  0  0  0  0  0  0  0  0  0
  146.2984  133.6576  154.8225 H   0  0  0  0  0  0  0  0  0  0  0  0
  145.2230  132.7480  152.9102 H   0  0  0  0  0  0  0  0  0  0  0  0
  144.3837  134.5896  151.6683 H   0  0  0  0  0  0  0  0  0  0  0  0
  146.0135  135.2396  151.3737 H   0  0  0  0  0  0  0  0  0  0  0  0
  144.7119  132.9004  150.0147 H   0  0  0  0  0  0  0  0  0  0  0  0
  146.1871  133.7558  149.5552 H   0  0  0  0  0  0  0  0  0  0  0  0
  147.9121  133.5725  151.5800 H   0  0  0  0  0  0  0  0  0  0  0  0
  149.7396  132.3669  153.0968 H   0  0  0  0  0  0  0  0  0  0  0  0
  149.2397  132.4630  154.8297 H   0  0  0  0  0  0  0  0  0  0  0  0
  148.7960  130.1259  152.8802 H   0  0  0  0  0  0  0  0  0  0  0  0
  148.9718  130.0404  154.6760 H   0  0  0  0  0  0  0  0  0  0  0  0
  146.7887  131.0840  155.0031 H   0  0  0  0  0  0  0  0  0  0  0  0
  146.4293  130.5025  153.3314 H   0  0  0  0  0  0  0  0  0  0  0  0
  1  2  1  0  0  0  0
  1 25  1  0  0  0  0
  1 26  1  0  0  0  0
  1 27  1  0  0  0  0
  2  3  1  0  0  0  0
  2  4  1  0  0  0  0
  2  5  1  0  0  0  0
  3 28  1  0  0  0  0
  3 29  1  0  0  0  0
  3 30  1  0  0  0  0
  4 31  1  0  0  0  0
  4 32  1  0  0  0  0
  4 33  1  0  0  0  0
  5 24  1  0  0  0  0
  5  6  2  0  0  0  0
  6  7  1  0  0  0  0
  6 34  1  0  0  0  0
  7  8  2  0  0  0  0
  7 35  1  0  0  0  0
  8  9  1  0  0  0  0
  8 23  1  0  0  0  0
  9 10  1  0  0  0  0
  9 36  1  0  0  0  0
 10 11  2  0  0  0  0
 10 12  1  0  0  0  0
 12 13  1  0  0  0  0
 12 37  1  0  0  0  0
 13 19  1  0  0  0  0
 13 14  1  0  0  0  0
 13 38  1  0  0  0  0
 14 18  1  0  0  0  0
 14 15  1  0  0  0  0
 14 39  1  0  0  0  0
 15 16  1  0  0  0  0
 15 40  1  0  0  0  0
 15 41  1  0  0  0  0
 16 17  1  0  0  0  0
 16 42  1  0  0  0  0
 16 43  1  0  0  0  0
 17 18  1  0  0  0  0
 18 19  1  0  0  0  0
 18 44  1  0  0  0  0
 19 22  1  0  0  0  0
 19 20  1  0  0  0  0
 20 21  1  0  0  0  0
 20 45  1  0  0  0  0
 20 46  1  0  0  0  0
 21 22  1  0  0  0  0
 21 47  1  0  0  0  0
 21 48  1  0  0  0  0
 22 49  1  0  0  0  0
 22 50  1  0  0  0  0
 23 24  2  0  0  0  0
M  END
> <s_m_source_file>
AV-unprocessed.smi

> <i_m_source_file_index>
2829

> <i_lp_mmshare_version>
43012

> <i_f3d_flags>
0

> <s_epik_input>
W0NIM11DKFtDSDNdKShbQ0gzXSljMVtjSF1bY0hdYyhubjEpW05IXUMoPU8pW05IXVtDQEBIXTJbQ0BIXShbQ0gyXVtDSDJdTzMpW0NAQEhdM0MyNFtDSDJdW0NIMl1bQ0gyXTQ=

> <s_epik_cmdline>
J2VwaWtfcHl0aG9uJywgJy1waCcsICc3LjAnLCAnLXRuJywgJzgnLCAnLW1hJywgJzIwMCcsICctbWV0YWxfYmluZGluZycsICctaW1hZScsICc8aW5maWxlLm1hZT4nLCAnLW9tYWUnLCAnPG91dGZpbGUubWFlPic=

> <r_lp_tautomer_probability>
1

> <r_epik_Ionization_Penalty>
0.011915

> <r_epik_Ionization_Penalty_Charging>
0

> <r_epik_Ionization_Penalty_Neutral>
0.011915

> <r_epik_State_Penalty>
0.00486223

> <r_epik_Charging_Adjusted_Penalty>
0.00486223

> <i_epik_Tot_Q>
0

> <i_epik_Tot_abs_Q>
0

> <r_epik_Metal_State_Penalty>
-0

> <b_epik_Metal_Only>
0

> <s_lp_Force_Field>
OPLS_2005

> <r_lp_Energy>
85.0365

> <b_lp_Chiralities_Consistent>
1

> <s_lp_Variant>
AV-unprocessed.smi:2829-8

> <Gold.Version>
5.8.1

> <Gold.Id.Protein>
6NUR|6NUR_protein|mol2

> <Gold.PLP.Fitness>
37.7891

> <Gold.PLP.PLP>
-31.8843

> <Gold.PLP.part.hbond>
-2.0000

> <Gold.PLP.part.metal>
0.0000

> <Gold.PLP.part.buried>
-3.5559

> <Gold.PLP.part.nonpolar>
-25.9884

> <Gold.PLP.part.repulsive>
0.1850

> <Gold.PLP.ligand.clash>
0.0000

> <Gold.PLP.ligand.torsion>
0.2054

> <Gold.PLP.Chemscore.Hbond>
2.0000

> <Gold.PLP.Chemscore.CHOScore>
0.0000

> <Gold.PLP.Chemscore.Metal>
0.0000

> <Gold.Chemscore.Hbonds>
donor molecule, donor type, donor heavy atom, donor atom, acceptor molecule, acceptor atom, score
      L1  H     9    36       P1  7948  0.99
      L1  H    12    37       P1  7948  0.91

> <Gold.PLP.Chemscore.Internal.Correction>
0.3157

> <Gold.Rescore>
     Score         DG    S(hbond)    S(metal)    S(lipo)     H(rot)  DE(clash)    DE(int)     intcor
     17.32     -18.81       1.90        0.00      85.09       1.16       0.03       1.46       ----

> <Gold.Chemscore.Fitness>
17.3197

> <Gold.Chemscore.DG>
-18.8111

> <Gold.Chemscore.ZeroCoef>
-5.4800

> <Gold.Chemscore.Hbond>
1.9012

> <Gold.Chemscore.Metal>
0.0000

> <Gold.Chemscore.Lipo>
85.0884

> <Gold.Chemscore.Internal_Hbond>
0.0000

> <Gold.Chemscore.DEClash>
0.0309

> <Gold.Chemscore.DEInternal>
1.4606

> <Gold.Chemscore.Rot>
1.1618

> <Gold.Chemscore.Internal.Correction>
   9.000000E+99

> <Gold.Chemscore.Hbonds>
donor molecule, donor type, donor heavy atom, donor atom, acceptor molecule, acceptor atom, score
      L1  H     9    36       P1  7948  0.94
      L1  H    12    37       P1  7948  0.81

> <Gold.Chemscore.Hbond.Weighted>
-6.3499

> <Gold.Chemscore.Metal.Weighted>
-0.0000

> <Gold.Chemscore.Lipo.Weighted>
-9.9553

> <Gold.Chemscore.Internal_Hbond.Weighted>
0.0000

> <Gold.Chemscore.DEClash.Weighted>
0.0309

> <Gold.Chemscore.DEInternal.Weighted>
1.4606

> <Gold.Chemscore.Rot.Weighted>
2.9741

> <Gold.Chemscore.Internal.Correction.Weighted>
   9.000000E+99

> <Gold.Protein.RotatedTorsions>
[ 6907 6896 6895 6894 ] final   61.94 input  -60.11 | X-H torsion
[ 7974 7965 7964 7962 ] final  -64.39 input  175.53 | X-H torsion
[ 8008 7997 7996 7995 ] final   19.31 input   59.86 | X-H torsion
[ 10167 10162 10161 10158 ] final  163.63 input  -65.29 | X-H torsion
[ 10718 10713 10712 10709 ] final -116.92 input   66.30 | X-H torsion
[ 10763 10752 10751 10750 ] final  -32.67 input  -60.55 | X-H torsion
[ 11005 11000 10999 10996 ] final  161.99 input  -57.11 | X-H torsion

> <Gold.Protein.ActiveResidues>
 VAL166  LYS551  ARG553  GLY616  TRP617  ASP618  TYR619  PRO620  LYS621  CYS622 
 ASP623  PHE694  ASN695  SER759  ASP760  ASP761  ALA762  ILE779  LEU786  VAL792 
 PHE793  MET794  SER795  GLU796  ALA797  LYS798  CYS799  TRP800  GLU811  SER814 

> <Gold.Protein.RotatedAtoms>
  152.4131  134.6090  160.0020 H   0  0  0  0  0  0  0  0  0  0  0  0  # atno 6907 bound_to 6896
  151.6261  133.3330  159.3106 H   0  0  0  0  0  0  0  0  0  0  0  0  # atno 6908 bound_to 6896
  150.8020  134.7161  159.6676 H   0  0  0  0  0  0  0  0  0  0  0  0  # atno 6909 bound_to 6896
  145.7673  140.8831  143.0398 H   0  0  0  0  0  0  0  0  0  0  0  0  # atno 7974 bound_to 7965
  154.9189  140.3024  155.5227 H   0  0  0  0  0  0  0  0  0  0  0  0  # atno 8008 bound_to 7997
  156.3011  140.2375  156.4172 H   0  0  0  0  0  0  0  0  0  0  0  0  # atno 8009 bound_to 7997
  154.8351  140.0416  157.1492 H   0  0  0  0  0  0  0  0  0  0  0  0  # atno 8010 bound_to 7997
  139.4877  144.4317  151.9062 H   0  0  0  0  0  0  0  0  0  0  0  0  # atno 10167 bound_to 10162
  156.0997  130.6162  150.9098 H   0  0  0  0  0  0  0  0  0  0  0  0  # atno 10718 bound_to 10713
  153.8176  135.6877  153.4832 H   0  0  0  0  0  0  0  0  0  0  0  0  # atno 10763 bound_to 10752
  153.1589  135.4588  154.9742 H   0  0  0  0  0  0  0  0  0  0  0  0  # atno 10764 bound_to 10752
  154.7941  135.3312  154.7651 H   0  0  0  0  0  0  0  0  0  0  0  0  # atno 10765 bound_to 10752
  140.2213  134.8194  157.3223 H   0  0  0  0  0  0  0  0  0  0  0  0  # atno 11005 bound_to 11000
  144.6819  139.9806  143.7483 LP  0  0  0  0  0  0  0  0  0  0  0  0  # atno 17320 bound_to 7965
  146.0205  139.3246  143.0816 LP  0  0  0  0  0  0  0  0  0  0  0  0  # atno 17321 bound_to 7965
  140.3765  144.2790  150.5913 LP  0  0  0  0  0  0  0  0  0  0  0  0  # atno 17342 bound_to 10162
  140.5272  143.2251  151.8296 LP  0  0  0  0  0  0  0  0  0  0  0  0  # atno 17343 bound_to 10162
  157.6165  131.0933  150.8700 LP  0  0  0  0  0  0  0  0  0  0  0  0  # atno 17370 bound_to 10713
  156.8831  130.5186  149.5290 LP  0  0  0  0  0  0  0  0  0  0  0  0  # atno 17371 bound_to 10713
  140.1847  134.4446  155.7751 LP  0  0  0  0  0  0  0  0  0  0  0  0  # atno 17394 bound_to 11000
  141.2223  133.6999  156.7927 LP  0  0  0  0  0  0  0  0  0  0  0  0  # atno 17395 bound_to 11000

$$$$
