#       Name:                AV-unprocessed.smi:1978
#       Creating user name   scv26
#       Creation time:       Fri Mar 27 10:20:43 2020


#       File generated by GOLD software.
#

@<TRIPOS>MOLECULE
AV-unprocessed.smi:1978
    50    51     1
SMALL
NO_CHARGES


@<TRIPOS>ATOM
      1 ****        -6.4941   5.3609   0.0501 C.3            1 S1                 0.0000
      2 ****        -5.5181   4.2640   0.3041 C.2            1 S1                 0.0000
      3 ****        -4.1528   4.2138   0.2956 C.2            1 S1                 0.0000
      4 ****        -3.8792   2.8576   0.6166 C.2            1 S1                 0.0000
      5 ****        -2.5410   2.3904   0.7004 N.am           1 S1                 0.0000
      6 ****        -2.0970   1.1438   0.9434 C.2            1 S1                 0.0000
      7 ****        -2.8976   0.2268   1.1604 O.2            1 S1                 0.0000
      8 ****        -0.7384   1.0674   0.9094 N.pl3          1 S1                -1.0000
      9 ****         0.0390  -0.1581   1.0966 C.3            1 S1                 0.0000
     10 ****         1.1820  -0.2340   0.0524 C.3            1 S1                 0.0000
     11 ****         2.2724   0.8551   0.2412 C.3            1 S1                 0.0000
     12 ****         1.7303  -1.6271   0.0093 N.4            1 S1                 1.0000
     13 ****         2.9324  -1.9008   0.8518 C.3            1 S1                 0.0000
     14 ****         3.1888  -3.4113   0.9708 C.3            1 S1                 0.0000
     15 ****         3.3238  -4.0588  -0.4124 C.3            1 S1                 0.0000
     16 ****         2.0857  -3.7417  -1.2635 C.3            1 S1                 0.0000
     17 ****         1.8165  -2.2252  -1.3585 C.3            1 S1                 0.0000
     18 ****         2.8229  -1.5072  -2.2818 C.3            1 S1                 0.0000
     19 ****        -4.9801   2.1455   0.8081 N.2            1 S1                 0.0000
     20 ****        -6.0356   3.0433   0.6091 O.3            1 S1                 0.0000
     21 ****        -5.9854   6.2665  -0.2811 H              1 S1                 0.0000
     22 ****        -7.0524   5.5985   0.9557 H              1 S1                 0.0000
     23 ****        -7.2068   5.0723  -0.7227 H              1 S1                 0.0000
     24 ****        -3.4622   5.0177   0.0887 H              1 S1                 0.0000
     25 ****        -1.8270   3.0843   0.5364 H              1 S1                 0.0000
     26 ****         0.4643  -0.2174   2.0987 H              1 S1                 0.0000
     27 ****        -0.5763  -1.0532   0.9914 H              1 S1                 0.0000
     28 ****         0.7145  -0.0444  -0.9153 H              1 S1                 0.0000
     29 ****         1.8648   1.8606   0.1208 H              1 S1                 0.0000
     30 ****         3.0632   0.7566  -0.5016 H              1 S1                 0.0000
     31 ****         2.7455   0.8171   1.2239 H              1 S1                 0.0000
     32 ****         3.8118  -1.4072   0.4379 H              1 S1                 0.0000
     33 ****         2.7852  -1.4940   1.8527 H              1 S1                 0.0000
     34 ****         4.0907  -3.5916   1.5565 H              1 S1                 0.0000
     35 ****         2.3677  -3.8792   1.5156 H              1 S1                 0.0000
     36 ****         4.2243  -3.6945  -0.9078 H              1 S1                 0.0000
     37 ****         3.4417  -5.1381  -0.3107 H              1 S1                 0.0000
     38 ****         2.1951  -4.1709  -2.2600 H              1 S1                 0.0000
     39 ****         1.2174  -4.2305  -0.8194 H              1 S1                 0.0000
     40 ****         0.8326  -2.1190  -1.8181 H              1 S1                 0.0000
     41 ****         2.8534  -1.9843  -3.2616 H              1 S1                 0.0000
     42 ****         3.8364  -1.5212  -1.8824 H              1 S1                 0.0000
     43 ****         2.5444  -0.4671  -2.4478 H              1 S1                 0.0000
     44 ****         0.9961  -2.1643   0.4489 H              1 S1                 0.0000
     45 ****        -3.8807   0.4098   1.1558 LP             1 S1                 0.0000
     46 ****        -2.5619  -0.6979   1.3404 LP             1 S1                 0.0000
     47 ****        -0.2326   1.9140   0.7437 LP             1 S1                 0.0000
     48 ****        -5.0433   1.1757   1.0439 LP             1 S1                 0.0000
     49 ****        -6.6114   2.7242  -0.1437 LP             1 S1                 0.0000
     50 ****        -6.5834   3.1088   1.4431 LP             1 S1                 0.0000
@<TRIPOS>BOND
    1    1    2 1     
    2    1   21 1     
    3    1   22 1     
    4    1   23 1     
    5    2   20 1     
    6    2    3 2     
    7    3    4 1     
    8    3   24 1     
    9    4    5 1     
   10    4   19 2     
   11    5    6 am    
   12    5   25 1     
   13    6    7 2     
   14    6    8 1     
   15    8    9 1     
   16    9   10 1     
   17    9   26 1     
   18    9   27 1     
   19   10   11 1     
   20   10   12 1     
   21   10   28 1     
   22   11   29 1     
   23   11   30 1     
   24   11   31 1     
   25   12   17 1     
   26   12   13 1     
   27   12   44 1     
   28   13   14 1     
   29   13   32 1     
   30   13   33 1     
   31   14   15 1     
   32   14   34 1     
   33   14   35 1     
   34   15   16 1     
   35   15   36 1     
   36   15   37 1     
   37   16   17 1     
   38   16   38 1     
   39   16   39 1     
   40   17   18 1     
   41   17   40 1     
   42   18   41 1     
   43   18   42 1     
   44   18   43 1     
   45   19   20 1     
   46    7   45 1     
   47    7   46 1     
   48    8   47 1     
   49   19   48 1     
   50   20   49 1     
   51   20   50 1     
@<TRIPOS>SUBSTRUCTURE
      1 S1             1
@<TRIPOS>SET
LONE_PAIRS      STATIC     ATOMS    <user>   **** ""
6 45 46 47 48 49 50
DONOR_HYDROGENS      STATIC     ATOMS    <user>   **** ""
2 25 44
ATOM$BLUE        STATIC     ATOMS    COLORGROUP SYSTEM
6 45 46 47 48 49 50
ATOM$RED        STATIC     ATOMS    COLORGROUP SYSTEM
2 25 44
