AV-unprocessed.smi:2514|AV-procd|sdf|9895|dock4
  -GOLD-   2272013533D 1   1.00000     0.00000
 Structure written by MMmdl.
 24 25  0  0  0  0  0  0  0  0  1 V2000
  152.6594  143.9684  158.9728 C   0  0  0  0  0  0  0  0  0  0  0  0
  151.6898  143.8847  157.7874 C   0  0  2  0  0  0  0  0  0  0  0  0
  150.4274  144.3924  158.1694 O   0  0  0  0  0  0  0  0  0  0  0  0
  151.4751  142.4744  157.3133 C   0  0  0  0  0  0  0  0  0  0  0  0
  150.6891  142.0300  156.2880 C   0  0  0  0  0  0  0  0  0  0  0  0
  150.8929  140.6662  156.2950 N   0  0  0  0  0  0  0  0  0  0  0  0
  150.2567  139.6821  155.4700 C   0  0  0  0  0  0  0  0  0  0  0  0
  151.0051  139.0099  154.3157 C   0  0  0  0  0  0  0  0  0  0  0  0
  149.7421  139.0183  153.5975 N   0  0  0  0  0  0  0  0  0  0  0  0
  149.2292  140.1025  154.4179 C   0  0  0  0  0  0  0  0  0  0  0  0
  151.7197  140.2904  157.2988 N   0  0  0  0  0  0  0  0  0  0  0  0
  152.0962  141.3716  157.9057 N   0  0  0  0  0  0  0  0  0  0  0  0
  153.6422  143.5836  158.7003 H   0  0  0  0  0  0  0  0  0  0  0  0
  152.2995  143.3892  159.8239 H   0  0  0  0  0  0  0  0  0  0  0  0
  152.7877  144.9998  159.3021 H   0  0  0  0  0  0  0  0  0  0  0  0
  152.0670  144.5018  156.9713 H   0  0  0  0  0  0  0  0  0  0  0  0
  149.9291  144.5733  157.3871 H   0  0  0  0  0  0  0  0  0  0  0  0
  150.0395  142.5375  155.5904 H   0  0  0  0  0  0  0  0  0  0  0  0
  149.8385  138.9374  156.1511 H   0  0  0  0  0  0  0  0  0  0  0  0
  151.7547  139.6393  153.8336 H   0  0  0  0  0  0  0  0  0  0  0  0
  151.3791  138.0116  154.5438 H   0  0  0  0  0  0  0  0  0  0  0  0
  149.8515  139.2861  152.6297 H   0  0  0  0  0  0  0  0  0  0  0  0
  148.1918  139.9734  154.7272 H   0  0  0  0  0  0  0  0  0  0  0  0
  149.4152  141.0801  153.9705 H   0  0  0  0  0  0  0  0  0  0  0  0
  1  2  1  0  0  0  0
  1 13  1  0  0  0  0
  1 14  1  0  0  0  0
  1 15  1  0  0  0  0
  2  3  1  0  0  0  0
  2  4  1  0  0  0  0
  2 16  1  0  0  0  0
  3 17  1  0  0  0  0
  4 12  1  0  0  0  0
  4  5  2  0  0  0  0
  5  6  1  0  0  0  0
  5 18  1  0  0  0  0
  6  7  1  0  0  0  0
  6 11  1  0  0  0  0
  7 10  1  0  0  0  0
  7  8  1  0  0  0  0
  7 19  1  0  0  0  0
  8  9  1  0  0  0  0
  8 20  1  0  0  0  0
  8 21  1  0  0  0  0
  9 10  1  0  0  0  0
  9 22  1  0  0  0  0
 10 23  1  0  0  0  0
 10 24  1  0  0  0  0
 11 12  2  0  0  0  0
M  END
> <s_m_source_file>
AV-unprocessed.smi

> <i_m_source_file_index>
2514

> <i_lp_mmshare_version>
43012

> <i_f3d_flags>
0

> <s_epik_input>
W0NIM11bQ0BIXShbT0hdKWMxW2NIXW4obm4xKVtDSF0yW0NIMl1bTkhdW0NIMl0y

> <s_epik_cmdline>
J2VwaWtfcHl0aG9uJywgJy1waCcsICc3LjAnLCAnLXRuJywgJzgnLCAnLW1hJywgJzIwMCcsICctbWV0YWxfYmluZGluZycsICctaW1hZScsICc8aW5maWxlLm1hZT4nLCAnLW9tYWUnLCAnPG91dGZpbGUubWFlPic=

> <r_lp_tautomer_probability>
1

> <r_epik_Ionization_Penalty>
0.704859

> <r_epik_Ionization_Penalty_Charging>
0

> <r_epik_Ionization_Penalty_Neutral>
0.704859

> <r_epik_State_Penalty>
0.727806

> <r_epik_Charging_Adjusted_Penalty>
0.727806

> <i_epik_Tot_Q>
0

> <i_epik_Tot_abs_Q>
0

> <r_epik_Metal_State_Penalty>
0.727738

> <b_epik_Metal_Only>
0

> <s_lp_Force_Field>
OPLS_2005

> <r_lp_Energy>
11.6004

> <b_lp_Chiralities_Consistent>
1

> <s_lp_Variant>
AV-unprocessed.smi:2514-3

> <Gold.Version>
5.8.1

> <Gold.Id.Protein>
6NUR|6NUR_protein|mol2

> <Gold.PLP.Fitness>
35.6562

> <Gold.PLP.PLP>
-26.9136

> <Gold.PLP.part.hbond>
-3.0950

> <Gold.PLP.part.metal>
0.0000

> <Gold.PLP.part.buried>
-2.9739

> <Gold.PLP.part.nonpolar>
-20.4537

> <Gold.PLP.part.repulsive>
0.0000

> <Gold.PLP.ligand.clash>
0.0000

> <Gold.PLP.ligand.torsion>
0.2427

> <Gold.PLP.Chemscore.Hbond>
2.0000

> <Gold.PLP.Chemscore.CHOScore>
0.9944

> <Gold.PLP.Chemscore.Metal>
0.0000

> <Gold.Chemscore.Hbonds>
donor molecule, donor type, donor heavy atom, donor atom, acceptor molecule, acceptor atom, score
      L1  H     3    17       P1  8028  0.90
      L1  H     9    22       P1  7957  1.00
      L1  C     5    18       P1  8028  1.00

> <Gold.PLP.Chemscore.Internal.Correction>
0.2448

> <Gold.Rescore>
     Score         DG    S(hbond)    S(metal)    S(lipo)     H(rot)  DE(clash)    DE(int)     intcor
     13.30     -13.76       1.62        0.00      63.61       1.78       0.02       0.44       ----

> <Gold.Chemscore.Fitness>
13.2988

> <Gold.Chemscore.DG>
-13.7558

> <Gold.Chemscore.ZeroCoef>
-5.4800

> <Gold.Chemscore.Hbond>
1.6157

> <Gold.Chemscore.Metal>
0.0000

> <Gold.Chemscore.Lipo>
63.6087

> <Gold.Chemscore.Internal_Hbond>
0.0000

> <Gold.Chemscore.DEClash>
0.0203

> <Gold.Chemscore.DEInternal>
0.4367

> <Gold.Chemscore.Rot>
1.7823

> <Gold.Chemscore.Internal.Correction>
   9.000000E+99

> <Gold.Chemscore.Hbonds>
donor molecule, donor type, donor heavy atom, donor atom, acceptor molecule, acceptor atom, score
      L1  H     3    17       P1  8028  0.17
      L1  H     9    22       P1  7957  0.94

> <Gold.Chemscore.Hbond.Weighted>
-5.3963

> <Gold.Chemscore.Metal.Weighted>
-0.0000

> <Gold.Chemscore.Lipo.Weighted>
-7.4422

> <Gold.Chemscore.Internal_Hbond.Weighted>
0.0000

> <Gold.Chemscore.DEClash.Weighted>
0.0203

> <Gold.Chemscore.DEInternal.Weighted>
0.4367

> <Gold.Chemscore.Rot.Weighted>
4.5627

> <Gold.Chemscore.Internal.Correction.Weighted>
   9.000000E+99

> <Gold.Protein.RotatedTorsions>
[ 6907 6896 6895 6894 ] final   89.08 input  -60.11 | X-H torsion
[ 7974 7965 7964 7962 ] final -151.08 input  175.53 | X-H torsion
[ 8008 7997 7996 7995 ] final  160.08 input   59.86 | X-H torsion
[ 10167 10162 10161 10158 ] final -120.91 input  -65.29 | X-H torsion
[ 10718 10713 10712 10709 ] final    3.41 input   66.30 | X-H torsion
[ 10763 10752 10751 10750 ] final  142.19 input  -60.55 | X-H torsion
[ 11005 11000 10999 10996 ] final  -17.33 input  -57.11 | X-H torsion

> <Gold.Protein.ActiveResidues>
 VAL166  LYS551  ARG553  GLY616  TRP617  ASP618  TYR619  PRO620  LYS621  CYS622 
 ASP623  PHE694  ASN695  SER759  ASP760  ASP761  ALA762  ILE779  LEU786  VAL792 
 PHE793  MET794  SER795  GLU796  ALA797  LYS798  CYS799  TRP800  GLU811  SER814 

> <Gold.Protein.RotatedAtoms>
  152.5432  134.2022  159.8716 H   0  0  0  0  0  0  0  0  0  0  0  0  # atno 6907 bound_to 6896
  151.2010  133.4604  159.2604 H   0  0  0  0  0  0  0  0  0  0  0  0  # atno 6908 bound_to 6896
  151.0989  134.9973  159.8494 H   0  0  0  0  0  0  0  0  0  0  0  0  # atno 6909 bound_to 6896
  144.7870  140.4846  143.5799 H   0  0  0  0  0  0  0  0  0  0  0  0  # atno 7974 bound_to 7965
  156.2196  140.1814  156.7508 H   0  0  0  0  0  0  0  0  0  0  0  0  # atno 8008 bound_to 7997
  154.5845  140.0661  156.9180 H   0  0  0  0  0  0  0  0  0  0  0  0  # atno 8009 bound_to 7997
  155.2444  140.3324  155.4291 H   0  0  0  0  0  0  0  0  0  0  0  0  # atno 8010 bound_to 7997
  140.0307  143.5251  152.2177 H   0  0  0  0  0  0  0  0  0  0  0  0  # atno 10167 bound_to 10162
  156.8775  130.5641  149.5654 H   0  0  0  0  0  0  0  0  0  0  0  0  # atno 10718 bound_to 10713
  153.9518  135.2969  155.3438 H   0  0  0  0  0  0  0  0  0  0  0  0  # atno 10763 bound_to 10752
  154.7422  135.5019  153.9146 H   0  0  0  0  0  0  0  0  0  0  0  0  # atno 10764 bound_to 10752
  153.0990  135.6729  153.9816 H   0  0  0  0  0  0  0  0  0  0  0  0  # atno 10765 bound_to 10752
  140.8157  133.8106  155.9608 H   0  0  0  0  0  0  0  0  0  0  0  0  # atno 11005 bound_to 11000
  145.5895  139.1494  143.3190 LP  0  0  0  0  0  0  0  0  0  0  0  0  # atno 17320 bound_to 7965
  146.2106  140.6021  142.9061 LP  0  0  0  0  0  0  0  0  0  0  0  0  # atno 17321 bound_to 7965
  139.6078  144.7601  151.3022 LP  0  0  0  0  0  0  0  0  0  0  0  0  # atno 17342 bound_to 10162
  140.7303  143.6883  150.7943 LP  0  0  0  0  0  0  0  0  0  0  0  0  # atno 17343 bound_to 10162
  156.0694  130.5730  150.9354 LP  0  0  0  0  0  0  0  0  0  0  0  0  # atno 17370 bound_to 10713
  157.6160  131.0933  150.8710 LP  0  0  0  0  0  0  0  0  0  0  0  0  # atno 17371 bound_to 10713
  140.9151  134.2211  157.4961 LP  0  0  0  0  0  0  0  0  0  0  0  0  # atno 17394 bound_to 11000
  139.8711  134.9768  156.4933 LP  0  0  0  0  0  0  0  0  0  0  0  0  # atno 17395 bound_to 11000

$$$$
