AV-unprocessed.smi:2604|AV-procd|sdf|10191|dock4
  -GOLD-   2272014203D 1   1.00000     0.00000
 Structure written by MMmdl.
 26 27  0  0  0  0  0  0  0  0  2 V2000
  152.3592  144.5906  158.2621 C   0  0  0  0  0  0  0  0  0  0  0  0
  152.7974  144.0343  159.4799 C   0  0  0  0  0  0  0  0  0  0  0  0
  152.5188  142.7682  159.8569 N   0  0  0  0  0  0  0  0  0  0  0  0
  151.7860  142.0043  159.0191 C   0  0  0  0  0  0  0  0  0  0  0  0
  151.2971  142.4604  157.7750 C   0  0  0  0  0  0  0  0  0  0  0  0
  150.4672  141.5442  156.8890 C   0  0  2  0  0  0  0  0  0  0  0  0
  151.2198  140.2564  156.4811 C   0  0  0  0  0  0  0  0  0  0  0  0
  150.3535  139.4101  155.6662 N   0  0  0  0  0  0  0  0  0  0  0  0
  150.0021  140.1293  154.4455 C   0  0  0  0  0  0  0  0  0  0  0  0
  149.2135  141.4040  154.7999 C   0  0  0  0  0  0  0  0  0  0  0  0
  150.0199  142.2720  155.6820 N   0  3  0  0  0  0  0  0  0  0  0  0
  151.5949  143.7875  157.3943 C   0  0  0  0  0  0  0  0  0  0  0  0
  152.6026  145.6102  158.0020 H   0  0  0  0  0  0  0  0  0  0  0  0
  153.3835  144.6225  160.1707 H   0  0  0  0  0  0  0  0  0  0  0  0
  151.5814  140.9990  159.3568 H   0  0  0  0  0  0  0  0  0  0  0  0
  149.5751  141.2574  157.4492 H   0  0  0  0  0  0  0  0  0  0  0  0
  152.1316  140.4821  155.9268 H   0  0  0  0  0  0  0  0  0  0  0  0
  151.5152  139.6985  157.3703 H   0  0  0  0  0  0  0  0  0  0  0  0
  150.8406  138.5568  155.4288 H   0  0  0  0  0  0  0  0  0  0  0  0
  150.9041  140.3725  153.8818 H   0  0  0  0  0  0  0  0  0  0  0  0
  149.3962  139.4785  153.8146 H   0  0  0  0  0  0  0  0  0  0  0  0
  148.9568  141.9557  153.8956 H   0  0  0  0  0  0  0  0  0  0  0  0
  148.2759  141.1500  155.2969 H   0  0  0  0  0  0  0  0  0  0  0  0
  149.4720  143.0747  155.9566 H   0  0  0  0  0  0  0  0  0  0  0  0
  151.2399  144.1919  156.4578 H   0  0  0  0  0  0  0  0  0  0  0  0
  150.8336  142.5848  155.1723 H   0  0  0  0  0  0  0  0  0  0  0  0
  1 12  1  0  0  0  0
  1  2  2  0  0  0  0
  1 13  1  0  0  0  0
  2  3  1  0  0  0  0
  2 14  1  0  0  0  0
  3  4  2  0  0  0  0
  4  5  1  0  0  0  0
  4 15  1  0  0  0  0
  5  6  1  0  0  0  0
  5 12  2  0  0  0  0
  6 11  1  0  0  0  0
  6  7  1  0  0  0  0
  6 16  1  0  0  0  0
  7  8  1  0  0  0  0
  7 17  1  0  0  0  0
  7 18  1  0  0  0  0
  8  9  1  0  0  0  0
  8 19  1  0  0  0  0
  9 10  1  0  0  0  0
  9 20  1  0  0  0  0
  9 21  1  0  0  0  0
 10 11  1  0  0  0  0
 10 22  1  0  0  0  0
 10 23  1  0  0  0  0
 11 24  1  0  0  0  0
 11 26  1  0  0  0  0
 12 25  1  0  0  0  0
M  CHG  1  11   1
M  END
> <s_m_source_file>
AV-unprocessed.smi

> <i_m_source_file_index>
2604

> <i_lp_mmshare_version>
43012

> <i_f3d_flags>
0

> <s_epik_input>
W2NIXTFbY0hdW2NIXW5bY0hdYzFbQ0BASF0yW0NIMl1bTkhdW0NIMl1bQ0gyXVtOSF0y

> <s_epik_cmdline>
J2VwaWtfcHl0aG9uJywgJy1waCcsICc3LjAnLCAnLXRuJywgJzgnLCAnLW1hJywgJzIwMCcsICctbWV0YWxfYmluZGluZycsICctaW1hZScsICc8aW5maWxlLm1hZT4nLCAnLW9tYWUnLCAnPG91dGZpbGUubWFlPic=

> <r_epik_Ionization_Penalty>
0.0278512

> <r_epik_Ionization_Penalty_Charging>
0.015072

> <r_epik_Ionization_Penalty_Neutral>
0.0127792

> <r_epik_State_Penalty>
0.548815

> <r_epik_Charging_Adjusted_Penalty>
0.563887

> <i_epik_Tot_Q>
1

> <i_epik_Tot_abs_Q>
1

> <r_epik_Metal_State_Penalty>
0.542887

> <b_epik_Metal_Only>
0

> <s_lp_Force_Field>
OPLS_2005

> <r_lp_Energy>
7.72855

> <b_lp_Chiralities_Consistent>
1

> <s_lp_Variant>
AV-unprocessed.smi:2604-3

> <Gold.Version>
5.8.1

> <Gold.Id.Protein>
6NUR|6NUR_protein|mol2

> <Gold.PLP.Fitness>
34.2629

> <Gold.PLP.PLP>
-28.2656

> <Gold.PLP.part.hbond>
-1.0000

> <Gold.PLP.part.metal>
0.0000

> <Gold.PLP.part.buried>
-1.5589

> <Gold.PLP.part.nonpolar>
-25.2982

> <Gold.PLP.part.repulsive>
0.1668

> <Gold.PLP.ligand.clash>
0.0000

> <Gold.PLP.ligand.torsion>
0.0074

> <Gold.PLP.Chemscore.Hbond>
2.0000

> <Gold.PLP.Chemscore.CHOScore>
0.0000

> <Gold.PLP.Chemscore.Metal>
0.0000

> <Gold.Chemscore.Hbonds>
donor molecule, donor type, donor heavy atom, donor atom, acceptor molecule, acceptor atom, score
      L1  H    11    24       P1  8028  2.00

> <Gold.PLP.Chemscore.Internal.Correction>
0.0121

> <Gold.Rescore>
     Score         DG    S(hbond)    S(metal)    S(lipo)     H(rot)  DE(clash)    DE(int)     intcor
     16.31     -16.49       0.99        0.00      87.76       1.00       0.18       0.01       ----

> <Gold.Chemscore.Fitness>
16.3068

> <Gold.Chemscore.DG>
-16.4899

> <Gold.Chemscore.ZeroCoef>
-5.4800

> <Gold.Chemscore.Hbond>
0.9886

> <Gold.Chemscore.Metal>
0.0000

> <Gold.Chemscore.Lipo>
87.7605

> <Gold.Chemscore.Internal_Hbond>
0.0000

> <Gold.Chemscore.DEClash>
0.1770

> <Gold.Chemscore.DEInternal>
0.0061

> <Gold.Chemscore.Rot>
1.0000

> <Gold.Chemscore.Internal.Correction>
   9.000000E+99

> <Gold.Chemscore.Hbonds>
donor molecule, donor type, donor heavy atom, donor atom, acceptor molecule, acceptor atom, score
      L1  H    11    24       P1  8028  0.95

> <Gold.Chemscore.Hbond.Weighted>
-3.3019

> <Gold.Chemscore.Metal.Weighted>
-0.0000

> <Gold.Chemscore.Lipo.Weighted>
-10.2680

> <Gold.Chemscore.Internal_Hbond.Weighted>
0.0000

> <Gold.Chemscore.DEClash.Weighted>
0.1770

> <Gold.Chemscore.DEInternal.Weighted>
0.0061

> <Gold.Chemscore.Rot.Weighted>
2.5600

> <Gold.Chemscore.Internal.Correction.Weighted>
   9.000000E+99

> <Gold.Protein.RotatedTorsions>
[ 6907 6896 6895 6894 ] final   70.02 input  -60.11 | X-H torsion
[ 7974 7965 7964 7962 ] final   97.53 input  175.53 | X-H torsion
[ 8008 7997 7996 7995 ] final   57.04 input   59.86 | X-H torsion
[ 10167 10162 10161 10158 ] final -101.41 input  -65.29 | X-H torsion
[ 10718 10713 10712 10709 ] final -173.13 input   66.30 | X-H torsion
[ 10763 10752 10751 10750 ] final   54.54 input  -60.55 | X-H torsion
[ 11005 11000 10999 10996 ] final -113.15 input  -57.11 | X-H torsion

> <Gold.Protein.ActiveResidues>
 VAL166  LYS551  ARG553  GLY616  TRP617  ASP618  TYR619  PRO620  LYS621  CYS622 
 ASP623  PHE694  ASN695  SER759  ASP760  ASP761  ALA762  ILE779  LEU786  VAL792 
 PHE793  MET794  SER795  GLU796  ALA797  LYS798  CYS799  TRP800  GLU811  SER814 

> <Gold.Protein.RotatedAtoms>
  152.4723  134.4930  159.9700 H   0  0  0  0  0  0  0  0  0  0  0  0  # atno 6907 bound_to 6896
  151.4954  133.3510  159.2868 H   0  0  0  0  0  0  0  0  0  0  0  0  # atno 6908 bound_to 6896
  150.8740  134.8147  159.7237 H   0  0  0  0  0  0  0  0  0  0  0  0  # atno 6909 bound_to 6896
  145.4242  139.2318  143.3179 H   0  0  0  0  0  0  0  0  0  0  0  0  # atno 7974 bound_to 7965
  155.5272  140.3481  155.4419 H   0  0  0  0  0  0  0  0  0  0  0  0  # atno 8008 bound_to 7997
  156.0743  140.1371  156.9817 H   0  0  0  0  0  0  0  0  0  0  0  0  # atno 8009 bound_to 7997
  154.4545  140.0959  156.6691 H   0  0  0  0  0  0  0  0  0  0  0  0  # atno 8010 bound_to 7997
  140.2416  143.3535  152.0797 H   0  0  0  0  0  0  0  0  0  0  0  0  # atno 10167 bound_to 10162
  156.7659  130.9430  151.3119 H   0  0  0  0  0  0  0  0  0  0  0  0  # atno 10718 bound_to 10713
  152.9806  135.5741  154.4920 H   0  0  0  0  0  0  0  0  0  0  0  0  # atno 10763 bound_to 10752
  154.4453  135.2777  155.1821 H   0  0  0  0  0  0  0  0  0  0  0  0  # atno 10764 bound_to 10752
  154.3472  135.6217  153.5678 H   0  0  0  0  0  0  0  0  0  0  0  0  # atno 10765 bound_to 10752
  141.0632  133.9502  157.2628 H   0  0  0  0  0  0  0  0  0  0  0  0  # atno 11005 bound_to 11000
  146.2641  140.4971  142.8841 LP  0  0  0  0  0  0  0  0  0  0  0  0  # atno 17320 bound_to 7965
  144.8225  140.6573  143.6344 LP  0  0  0  0  0  0  0  0  0  0  0  0  # atno 17321 bound_to 7965
  139.5075  144.6834  151.5950 LP  0  0  0  0  0  0  0  0  0  0  0  0  # atno 17342 bound_to 10162
  140.6109  143.9437  150.6453 LP  0  0  0  0  0  0  0  0  0  0  0  0  # atno 17343 bound_to 10162
  157.6713  130.9054  150.0048 LP  0  0  0  0  0  0  0  0  0  0  0  0  # atno 17370 bound_to 10713
  156.1309  130.3643  149.9733 LP  0  0  0  0  0  0  0  0  0  0  0  0  # atno 17371 bound_to 10713
  139.9452  135.0185  156.8829 LP  0  0  0  0  0  0  0  0  0  0  0  0  # atno 17394 bound_to 11000
  140.5827  134.0337  155.7470 LP  0  0  0  0  0  0  0  0  0  0  0  0  # atno 17395 bound_to 11000

$$$$
