AV-unprocessed.smi:2786|AV-procd|sdf|10749|dock3
  -GOLD-   2272015183D 1   1.00000     0.00000
 Structure written by MMmdl.
 27 28  0  0  0  0  0  0  0  0  2 V2000
  151.8740  144.8030  159.3052 C   0  0  0  0  0  0  0  0  0  0  0  0
  152.1736  143.4039  159.5406 N   0  0  0  0  0  0  0  0  0  0  0  0
  153.1416  142.9153  160.4082 C   0  0  0  0  0  0  0  0  0  0  0  0
  153.0968  141.5453  160.3181 C   0  0  0  0  0  0  0  0  0  0  0  0
  152.1140  141.1759  159.4063 N   0  0  0  0  0  0  0  0  0  0  0  0
  151.5913  142.3244  158.9822 C   0  0  0  0  0  0  0  0  0  0  0  0
  150.4912  142.4200  157.9645 C   0  0  1  0  0  0  0  0  0  0  0  0
  150.9525  141.8945  156.5870 C   0  0  0  0  0  0  0  0  0  0  0  0
  149.8698  142.0382  155.5916 N   0  3  0  0  0  0  0  0  0  0  0  0
  148.6317  141.3764  156.0497 C   0  0  0  0  0  0  0  0  0  0  0  0
  148.2261  141.9206  157.4317 C   0  0  0  0  0  0  0  0  0  0  0  0
  149.3022  141.6796  158.3879 N   0  0  0  0  0  0  0  0  0  0  0  0
  152.5835  145.4347  159.8406 H   0  0  0  0  0  0  0  0  0  0  0  0
  150.8669  145.0285  159.6567 H   0  0  0  0  0  0  0  0  0  0  0  0
  151.9428  145.0231  158.2395 H   0  0  0  0  0  0  0  0  0  0  0  0
  153.7677  143.5653  161.0017 H   0  0  0  0  0  0  0  0  0  0  0  0
  153.6902  140.8041  160.8328 H   0  0  0  0  0  0  0  0  0  0  0  0
  150.2071  143.4688  157.8711 H   0  0  0  0  0  0  0  0  0  0  0  0
  151.8223  142.4523  156.2389 H   0  0  0  0  0  0  0  0  0  0  0  0
  151.2502  140.8465  156.6515 H   0  0  0  0  0  0  0  0  0  0  0  0
  149.6801  143.0214  155.4608 H   0  0  0  0  0  0  0  0  0  0  0  0
  147.8402  141.5577  155.3224 H   0  0  0  0  0  0  0  0  0  0  0  0
  148.7880  140.2973  156.0912 H   0  0  0  0  0  0  0  0  0  0  0  0
  147.9957  142.9861  157.3842 H   0  0  0  0  0  0  0  0  0  0  0  0
  147.3262  141.4144  157.7816 H   0  0  0  0  0  0  0  0  0  0  0  0
  149.5194  140.6928  158.3763 H   0  0  0  0  0  0  0  0  0  0  0  0
  150.1628  141.6371  154.7122 H   0  0  0  0  0  0  0  0  0  0  0  0
  1  2  1  0  0  0  0
  1 13  1  0  0  0  0
  1 14  1  0  0  0  0
  1 15  1  0  0  0  0
  2  6  1  0  0  0  0
  2  3  1  0  0  0  0
  3  4  2  0  0  0  0
  3 16  1  0  0  0  0
  4  5  1  0  0  0  0
  4 17  1  0  0  0  0
  5  6  2  0  0  0  0
  6  7  1  0  0  0  0
  7 12  1  0  0  0  0
  7  8  1  0  0  0  0
  7 18  1  0  0  0  0
  8  9  1  0  0  0  0
  8 19  1  0  0  0  0
  8 20  1  0  0  0  0
  9 10  1  0  0  0  0
  9 21  1  0  0  0  0
  9 27  1  0  0  0  0
 10 11  1  0  0  0  0
 10 22  1  0  0  0  0
 10 23  1  0  0  0  0
 11 12  1  0  0  0  0
 11 24  1  0  0  0  0
 11 25  1  0  0  0  0
 12 26  1  0  0  0  0
M  CHG  1   9   1
M  END
> <s_m_source_file>
AV-unprocessed.smi

> <i_m_source_file_index>
2786

> <i_lp_mmshare_version>
43012

> <i_f3d_flags>
0

> <s_epik_input>
W0NIM11uMVtjSF1bY0hdbmMxW0NAQEhdMltDSDJdW05IXVtDSDJdW0NIMl1bTkhdMg==

> <s_epik_cmdline>
J2VwaWtfcHl0aG9uJywgJy1waCcsICc3LjAnLCAnLXRuJywgJzgnLCAnLW1hJywgJzIwMCcsICctbWV0YWxfYmluZGluZycsICctaW1hZScsICc8aW5maWxlLm1hZT4nLCAnLW9tYWUnLCAnPG91dGZpbGUubWFlPic=

> <r_lp_tautomer_probability>
1

> <r_epik_Ionization_Penalty>
0.130484

> <r_epik_Ionization_Penalty_Charging>
0.130409

> <r_epik_Ionization_Penalty_Neutral>
7.57914e-05

> <r_epik_State_Penalty>
0.270147

> <r_epik_Charging_Adjusted_Penalty>
0.400555

> <i_epik_Tot_Q>
1

> <i_epik_Tot_abs_Q>
1

> <r_epik_Metal_State_Penalty>
0.136376

> <b_epik_Metal_Only>
0

> <s_lp_Force_Field>
OPLS_2005

> <r_lp_Energy>
9.37099

> <b_lp_Chiralities_Consistent>
1

> <s_lp_Variant>
AV-unprocessed.smi:2786-2

> <Gold.Version>
5.8.1

> <Gold.Id.Protein>
6NUR|6NUR_protein|mol2

> <Gold.PLP.Fitness>
33.3986

> <Gold.PLP.PLP>
-27.4745

> <Gold.PLP.part.hbond>
-1.0000

> <Gold.PLP.part.metal>
0.0000

> <Gold.PLP.part.buried>
-4.1945

> <Gold.PLP.part.nonpolar>
-22.4674

> <Gold.PLP.part.repulsive>
0.1627

> <Gold.PLP.ligand.clash>
0.0000

> <Gold.PLP.ligand.torsion>
0.0417

> <Gold.PLP.Chemscore.Hbond>
2.0000

> <Gold.PLP.Chemscore.CHOScore>
0.0000

> <Gold.PLP.Chemscore.Metal>
0.0000

> <Gold.Chemscore.Hbonds>
donor molecule, donor type, donor heavy atom, donor atom, acceptor molecule, acceptor atom, score
      L1  H     9    21       P1  8028  2.00

> <Gold.PLP.Chemscore.Internal.Correction>
0.0076

> <Gold.Rescore>
     Score         DG    S(hbond)    S(metal)    S(lipo)     H(rot)  DE(clash)    DE(int)     intcor
     13.04     -13.09       0.99        0.00      58.63       1.00       0.05       0.01       ----

> <Gold.Chemscore.Fitness>
13.0380

> <Gold.Chemscore.DG>
-13.0949

> <Gold.Chemscore.ZeroCoef>
-5.4800

> <Gold.Chemscore.Hbond>
0.9926

> <Gold.Chemscore.Metal>
0.0000

> <Gold.Chemscore.Lipo>
58.6305

> <Gold.Chemscore.Internal_Hbond>
0.0000

> <Gold.Chemscore.DEClash>
0.0509

> <Gold.Chemscore.DEInternal>
0.0060

> <Gold.Chemscore.Rot>
1.0000

> <Gold.Chemscore.Internal.Correction>
   9.000000E+99

> <Gold.Chemscore.Hbonds>
donor molecule, donor type, donor heavy atom, donor atom, acceptor molecule, acceptor atom, score
      L1  H     9    21       P1  8028  1.00

> <Gold.Chemscore.Hbond.Weighted>
-3.3151

> <Gold.Chemscore.Metal.Weighted>
-0.0000

> <Gold.Chemscore.Lipo.Weighted>
-6.8598

> <Gold.Chemscore.Internal_Hbond.Weighted>
0.0000

> <Gold.Chemscore.DEClash.Weighted>
0.0509

> <Gold.Chemscore.DEInternal.Weighted>
0.0060

> <Gold.Chemscore.Rot.Weighted>
2.5600

> <Gold.Chemscore.Internal.Correction.Weighted>
   9.000000E+99

> <Gold.Protein.RotatedTorsions>
[ 6907 6896 6895 6894 ] final   77.97 input  -60.11 | X-H torsion
[ 7974 7965 7964 7962 ] final   79.81 input  175.53 | X-H torsion
[ 8008 7997 7996 7995 ] final  112.16 input   59.86 | X-H torsion
[ 10167 10162 10161 10158 ] final -173.03 input  -65.29 | X-H torsion
[ 10718 10713 10712 10709 ] final  -74.22 input   66.30 | X-H torsion
[ 10763 10752 10751 10750 ] final   14.96 input  -60.55 | X-H torsion
[ 11005 11000 10999 10996 ] final  103.47 input  -57.11 | X-H torsion

> <Gold.Protein.ActiveResidues>
 VAL166  LYS551  ARG553  GLY616  TRP617  ASP618  TYR619  PRO620  LYS621  CYS622 
 ASP623  PHE694  ASN695  SER759  ASP760  ASP761  ALA762  ILE779  LEU786  VAL792 
 PHE793  MET794  SER795  GLU796  ALA797  LYS798  CYS799  TRP800  GLU811  SER814 

> <Gold.Protein.RotatedAtoms>
  152.5140  134.3736  159.9326 H   0  0  0  0  0  0  0  0  0  0  0  0  # atno 6907 bound_to 6896
  151.3691  133.3855  159.2705 H   0  0  0  0  0  0  0  0  0  0  0  0  # atno 6908 bound_to 6896
  150.9592  134.9001  159.7778 H   0  0  0  0  0  0  0  0  0  0  0  0  # atno 6909 bound_to 6896
  145.6593  139.2467  143.1932 H   0  0  0  0  0  0  0  0  0  0  0  0  # atno 7974 bound_to 7965
  156.2173  140.3005  155.9870 H   0  0  0  0  0  0  0  0  0  0  0  0  # atno 8008 bound_to 7997
  155.2572  140.0428  157.3010 H   0  0  0  0  0  0  0  0  0  0  0  0  # atno 8009 bound_to 7997
  154.5787  140.2369  155.8093 H   0  0  0  0  0  0  0  0  0  0  0  0  # atno 8010 bound_to 7997
  139.5711  144.1639  152.1385 H   0  0  0  0  0  0  0  0  0  0  0  0  # atno 10167 bound_to 10162
  156.0251  130.4412  150.2860 H   0  0  0  0  0  0  0  0  0  0  0  0  # atno 10718 bound_to 10713
  153.1571  135.6789  153.8797 H   0  0  0  0  0  0  0  0  0  0  0  0  # atno 10763 bound_to 10752
  153.8204  135.3131  155.3411 H   0  0  0  0  0  0  0  0  0  0  0  0  # atno 10764 bound_to 10752
  154.7905  135.4837  154.0130 H   0  0  0  0  0  0  0  0  0  0  0  0  # atno 10765 bound_to 10752
  139.8784  134.9264  156.5214 H   0  0  0  0  0  0  0  0  0  0  0  0  # atno 11005 bound_to 11000
  146.1138  140.7395  142.9490 LP  0  0  0  0  0  0  0  0  0  0  0  0  # atno 17320 bound_to 7965
  144.7095  140.3982  143.7092 LP  0  0  0  0  0  0  0  0  0  0  0  0  # atno 17321 bound_to 7965
  140.1172  144.5405  150.6886 LP  0  0  0  0  0  0  0  0  0  0  0  0  # atno 17342 bound_to 10162
  140.6995  143.2426  151.4904 LP  0  0  0  0  0  0  0  0  0  0  0  0  # atno 17343 bound_to 10162
  157.0963  131.0183  151.3102 LP  0  0  0  0  0  0  0  0  0  0  0  0  # atno 17370 bound_to 10713
  157.4815  130.7768  149.7418 LP  0  0  0  0  0  0  0  0  0  0  0  0  # atno 17371 bound_to 10713
  140.8448  133.8177  155.9110 LP  0  0  0  0  0  0  0  0  0  0  0  0  # atno 17394 bound_to 11000
  140.9202  134.2151  157.4931 LP  0  0  0  0  0  0  0  0  0  0  0  0  # atno 17395 bound_to 11000

$$$$
