AV-unprocessed.smi:2448|AV-procd|sdf|9656|dock4
  -GOLD-   2272013293D 1   1.00000     0.00000
 Structure written by MMmdl.
 38 39  0  0  0  0  0  0  0  0  2 V2000
  151.0523  143.8712  156.9767 O   0  0  0  0  0  0  0  0  0  0  0  0
  150.6890  143.1179  158.1209 C   0  0  2  0  0  0  0  0  0  0  0  0
  150.0268  141.8090  157.6477 C   0  0  0  0  0  0  0  0  0  0  0  0
  148.8379  142.0678  156.8046 N   0  3  0  0  0  0  0  0  0  0  0  0
  148.5485  141.0343  155.7824 C   0  0  2  0  0  0  0  0  0  0  0  0
  149.7252  140.8926  154.7901 C   0  0  0  0  0  0  0  0  0  0  0  0
  150.5444  139.6313  154.9951 C   0  0  0  0  0  0  0  0  0  0  0  0
  151.6921  139.6421  155.8150 C   0  0  0  0  0  0  0  0  0  0  0  0
  152.4020  138.4375  155.9923 C   0  0  0  0  0  0  0  0  0  0  0  0
  152.0378  137.2717  155.4171 N   0  0  0  0  0  0  0  0  0  0  0  0
  150.9429  137.2703  154.6269 C   0  0  0  0  0  0  0  0  0  0  0  0
  150.1627  138.4189  154.3849 C   0  0  0  0  0  0  0  0  0  0  0  0
  147.2333  141.3767  155.0563 C   0  0  0  0  0  0  0  0  0  0  0  0
  147.4458  142.3632  154.1852 F   0  0  0  0  0  0  0  0  0  0  0  0
  146.7687  140.3143  154.3981 F   0  0  0  0  0  0  0  0  0  0  0  0
  146.3144  141.7817  155.9325 F   0  0  0  0  0  0  0  0  0  0  0  0
  149.7345  143.9753  158.9682 C   0  0  0  0  0  0  0  0  0  0  0  0
  150.5639  145.0689  159.6493 C   0  0  0  0  0  0  0  0  0  0  0  0
  152.1950  144.3723  160.0109 S   0  0  0  0  0  0  0  0  0  0  0  0
  151.9283  142.8890  159.0050 C   0  0  0  0  0  0  0  0  0  0  0  0
  150.2799  144.0194  156.4522 H   0  0  0  0  0  0  0  0  0  0  0  0
  150.7498  141.2177  157.0862 H   0  0  0  0  0  0  0  0  0  0  0  0
  149.7295  141.2054  158.5067 H   0  0  0  0  0  0  0  0  0  0  0  0
  148.0409  142.1260  157.4231 H   0  0  0  0  0  0  0  0  0  0  0  0
  148.3966  140.0762  156.2829 H   0  0  0  0  0  0  0  0  0  0  0  0
  149.3481  140.8810  153.7669 H   0  0  0  0  0  0  0  0  0  0  0  0
  150.3810  141.7615  154.8585 H   0  0  0  0  0  0  0  0  0  0  0  0
  152.0226  140.5470  156.3036 H   0  0  0  0  0  0  0  0  0  0  0  0
  153.2820  138.4092  156.6177 H   0  0  0  0  0  0  0  0  0  0  0  0
  150.6772  136.3249  154.1777 H   0  0  0  0  0  0  0  0  0  0  0  0
  149.2913  138.3650  153.7487 H   0  0  0  0  0  0  0  0  0  0  0  0
  148.9179  144.3956  158.3796 H   0  0  0  0  0  0  0  0  0  0  0  0
  149.2788  143.3527  159.7397 H   0  0  0  0  0  0  0  0  0  0  0  0
  150.6981  145.9145  158.9743 H   0  0  0  0  0  0  0  0  0  0  0  0
  150.0871  145.4417  160.5560 H   0  0  0  0  0  0  0  0  0  0  0  0
  151.7470  142.0654  159.6959 H   0  0  0  0  0  0  0  0  0  0  0  0
  152.8203  142.6403  158.4291 H   0  0  0  0  0  0  0  0  0  0  0  0
  148.9440  142.9592  156.3418 H   0  0  0  0  0  0  0  0  0  0  0  0
  1  2  1  0  0  0  0
  1 21  1  0  0  0  0
  2 20  1  0  0  0  0
  2  3  1  0  0  0  0
  2 17  1  0  0  0  0
  3  4  1  0  0  0  0
  3 22  1  0  0  0  0
  3 23  1  0  0  0  0
  4  5  1  0  0  0  0
  4 24  1  0  0  0  0
  4 38  1  0  0  0  0
  5  6  1  0  0  0  0
  5 13  1  0  0  0  0
  5 25  1  0  0  0  0
  6  7  1  0  0  0  0
  6 26  1  0  0  0  0
  6 27  1  0  0  0  0
  7 12  1  0  0  0  0
  7  8  2  0  0  0  0
  8  9  1  0  0  0  0
  8 28  1  0  0  0  0
  9 10  2  0  0  0  0
  9 29  1  0  0  0  0
 10 11  1  0  0  0  0
 11 12  2  0  0  0  0
 11 30  1  0  0  0  0
 12 31  1  0  0  0  0
 13 14  1  0  0  0  0
 13 15  1  0  0  0  0
 13 16  1  0  0  0  0
 17 18  1  0  0  0  0
 17 32  1  0  0  0  0
 17 33  1  0  0  0  0
 18 19  1  0  0  0  0
 18 34  1  0  0  0  0
 18 35  1  0  0  0  0
 19 20  1  0  0  0  0
 20 36  1  0  0  0  0
 20 37  1  0  0  0  0
M  CHG  1   4   1
M  END
> <s_m_source_file>
AV-unprocessed.smi

> <i_m_source_file_index>
2448

> <i_lp_mmshare_version>
43012

> <i_f3d_flags>
0

> <s_epik_input>
W0NIMl0xU1tDSDJdW0NIMl1bQ0BAXTEoW09IXSlbQ0gyXVtOSF1bQ0BASF0oQyhGKShGKUYpW0NIMl1jMltjSF1bY0hdbltjSF1bY0hdMg==

> <s_epik_cmdline>
J2VwaWtfcHl0aG9uJywgJy1waCcsICc3LjAnLCAnLXRuJywgJzgnLCAnLW1hJywgJzIwMCcsICctbWV0YWxfYmluZGluZycsICctaW1hZScsICc8aW5maWxlLm1hZT4nLCAnLW9tYWUnLCAnPG91dGZpbGUubWFlPic=

> <r_epik_Ionization_Penalty>
1.19945

> <r_epik_Ionization_Penalty_Charging>
1.19892

> <r_epik_Ionization_Penalty_Neutral>
0.000532129

> <r_epik_State_Penalty>
0.752927

> <r_epik_Charging_Adjusted_Penalty>
1.95185

> <i_epik_Tot_Q>
1

> <i_epik_Tot_abs_Q>
1

> <r_epik_Metal_State_Penalty>
0.804507

> <b_epik_Metal_Only>
0

> <s_lp_Force_Field>
OPLS_2005

> <r_lp_Energy>
23.2993

> <b_lp_Chiralities_Consistent>
1

> <s_lp_Variant>
AV-unprocessed.smi:2448-6

> <Gold.Version>
5.8.1

> <Gold.Id.Protein>
6NUR|6NUR_protein|mol2

> <Gold.PLP.Fitness>
53.7068

> <Gold.PLP.PLP>
-42.2842

> <Gold.PLP.part.hbond>
-3.0000

> <Gold.PLP.part.metal>
0.0000

> <Gold.PLP.part.buried>
-2.2051

> <Gold.PLP.part.nonpolar>
-37.6601

> <Gold.PLP.part.repulsive>
0.0713

> <Gold.PLP.ligand.clash>
0.0000

> <Gold.PLP.ligand.torsion>
1.5514

> <Gold.PLP.Chemscore.Hbond>
3.8000

> <Gold.PLP.Chemscore.CHOScore>
0.7584

> <Gold.PLP.Chemscore.Metal>
0.0000

> <Gold.Chemscore.Hbonds>
donor molecule, donor type, donor heavy atom, donor atom, acceptor molecule, acceptor atom, score
      L1  H     1    21       P1  8028  1.00
      L1  H     4    38       P1  8028  2.00
      P1  H 10752 10765       L1    10  0.66
      L1  C    11    30       P1  7948  0.09
      L1  C    11    30       P1  7949  0.24

> <Gold.PLP.Chemscore.Internal.Correction>
0.8502

> <Gold.Rescore>
     Score         DG    S(hbond)    S(metal)    S(lipo)     H(rot)  DE(clash)    DE(int)     intcor
     20.09     -21.75       2.88        0.00     109.11       2.39       0.18       1.48       ----

> <Gold.Chemscore.Fitness>
20.0898

> <Gold.Chemscore.DG>
-21.7533

> <Gold.Chemscore.ZeroCoef>
-5.4800

> <Gold.Chemscore.Hbond>
2.8793

> <Gold.Chemscore.Metal>
0.0000

> <Gold.Chemscore.Lipo>
109.1111

> <Gold.Chemscore.Internal_Hbond>
0.0000

> <Gold.Chemscore.DEClash>
0.1806

> <Gold.Chemscore.DEInternal>
1.4829

> <Gold.Chemscore.Rot>
2.3866

> <Gold.Chemscore.Internal.Correction>
   9.000000E+99

> <Gold.Chemscore.Hbonds>
donor molecule, donor type, donor heavy atom, donor atom, acceptor molecule, acceptor atom, score
      L1  H     1    21       P1  8028  1.00
      L1  H     4    38       P1  8028  1.00
      P1  H 10752 10765       L1    10  0.11

> <Gold.Chemscore.Hbond.Weighted>
-9.6169

> <Gold.Chemscore.Metal.Weighted>
-0.0000

> <Gold.Chemscore.Lipo.Weighted>
-12.7660

> <Gold.Chemscore.Internal_Hbond.Weighted>
0.0000

> <Gold.Chemscore.DEClash.Weighted>
0.1806

> <Gold.Chemscore.DEInternal.Weighted>
1.4829

> <Gold.Chemscore.Rot.Weighted>
6.1096

> <Gold.Chemscore.Internal.Correction.Weighted>
   9.000000E+99

> <Gold.Protein.RotatedTorsions>
[ 6907 6896 6895 6894 ] final   17.49 input  -60.11 | X-H torsion
[ 7974 7965 7964 7962 ] final  -91.95 input  175.53 | X-H torsion
[ 8008 7997 7996 7995 ] final -148.51 input   59.86 | X-H torsion
[ 10167 10162 10161 10158 ] final   17.57 input  -65.29 | X-H torsion
[ 10718 10713 10712 10709 ] final   71.60 input   66.30 | X-H torsion
[ 10763 10752 10751 10750 ] final  176.81 input  -60.55 | X-H torsion
[ 11005 11000 10999 10996 ] final    3.12 input  -57.11 | X-H torsion

> <Gold.Protein.ActiveResidues>
 VAL166  LYS551  ARG553  GLY616  TRP617  ASP618  TYR619  PRO620  LYS621  CYS622 
 ASP623  PHE694  ASN695  SER759  ASP760  ASP761  ALA762  ILE779  LEU786  VAL792 
 PHE793  MET794  SER795  GLU796  ALA797  LYS798  CYS799  TRP800  GLU811  SER814 

> <Gold.Protein.RotatedAtoms>
  151.8505  135.0559  160.0458 H   0  0  0  0  0  0  0  0  0  0  0  0  # atno 6907 bound_to 6896
  152.2740  133.5404  159.5465 H   0  0  0  0  0  0  0  0  0  0  0  0  # atno 6908 bound_to 6896
  150.7163  134.0574  159.3861 H   0  0  0  0  0  0  0  0  0  0  0  0  # atno 6909 bound_to 6896
  145.4063  140.9541  143.2259 H   0  0  0  0  0  0  0  0  0  0  0  0  # atno 7974 bound_to 7965
  155.5928  140.0654  157.2754 H   0  0  0  0  0  0  0  0  0  0  0  0  # atno 8008 bound_to 7997
  154.4300  140.1832  156.1139 H   0  0  0  0  0  0  0  0  0  0  0  0  # atno 8009 bound_to 7997
  156.0219  140.3316  155.7051 H   0  0  0  0  0  0  0  0  0  0  0  0  # atno 8010 bound_to 7997
  140.5716  143.9150  150.6717 H   0  0  0  0  0  0  0  0  0  0  0  0  # atno 10167 bound_to 10162
  157.6460  130.9537  150.0812 H   0  0  0  0  0  0  0  0  0  0  0  0  # atno 10718 bound_to 10713
  154.4861  135.2777  155.1533 H   0  0  0  0  0  0  0  0  0  0  0  0  # atno 10763 bound_to 10752
  154.3224  135.6207  153.5517 H   0  0  0  0  0  0  0  0  0  0  0  0  # atno 10764 bound_to 10752
  152.9881  135.5746  154.5272 H   0  0  0  0  0  0  0  0  0  0  0  0  # atno 10765 bound_to 10752
  140.5966  133.9874  155.8113 H   0  0  0  0  0  0  0  0  0  0  0  0  # atno 11005 bound_to 11000
  144.8339  139.5582  143.6931 LP  0  0  0  0  0  0  0  0  0  0  0  0  # atno 17320 bound_to 7965
  146.2727  139.6675  142.9285 LP  0  0  0  0  0  0  0  0  0  0  0  0  # atno 17321 bound_to 7965
  140.2627  143.3512  152.1308 LP  0  0  0  0  0  0  0  0  0  0  0  0  # atno 17342 bound_to 10162
  139.5120  144.6910  151.5759 LP  0  0  0  0  0  0  0  0  0  0  0  0  # atno 17343 bound_to 10162
  156.1788  130.3649  149.9064 LP  0  0  0  0  0  0  0  0  0  0  0  0  # atno 17370 bound_to 10713
  156.7021  130.8937  151.3600 LP  0  0  0  0  0  0  0  0  0  0  0  0  # atno 17371 bound_to 10713
  141.0900  133.9932  157.3253 LP  0  0  0  0  0  0  0  0  0  0  0  0  # atno 17394 bound_to 11000
  139.9250  135.0201  156.8203 LP  0  0  0  0  0  0  0  0  0  0  0  0  # atno 17395 bound_to 11000

$$$$
