AV-unprocessed.smi:2784|AV-procd|sdf|10731|dock6
  -GOLD-   2272015173D 1   1.00000     0.00000
 Structure written by MMmdl.
 32 33  0  0  0  0  0  0  0  0  2 V2000
  144.9354  135.8812  156.8548 C   0  0  0  0  0  0  0  0  0  0  0  0
  144.7754  136.4746  155.5762 O   0  0  0  0  0  0  0  0  0  0  0  0
  145.9710  136.5082  154.8004 C   0  0  1  0  0  0  0  0  0  0  0  0
  146.5151  135.0832  154.6462 C   0  0  0  0  0  0  0  0  0  0  0  0
  145.7002  134.4943  153.4985 C   0  0  0  0  0  0  0  0  0  0  0  0
  145.5054  135.6587  152.5248 C   0  0  0  0  0  0  0  0  0  0  0  0
  145.6493  136.9507  153.3534 C   0  0  1  0  0  0  0  0  0  0  0  0
  144.4441  137.7726  153.2614 N   0  0  0  0  0  0  0  0  0  0  0  0
  143.1988  137.3313  153.4894 C   0  0  0  0  0  0  0  0  0  0  0  0
  142.9342  136.1768  153.8262 O   0  0  0  0  0  0  0  0  0  0  0  0
  142.2893  138.2982  153.2966 N   0  0  0  0  0  0  0  0  0  0  0  0
  140.8928  138.1635  153.4704 C   0  0  0  0  0  0  0  0  0  0  0  0
  139.9845  138.7690  152.7067 N   0  3  0  0  0  0  0  0  0  0  0  0
  138.7330  138.4237  153.1532 C   0  0  0  0  0  0  0  0  0  0  0  0
  138.9361  137.5835  154.2217 C   0  0  0  0  0  0  0  0  0  0  0  0
  140.2893  137.4097  154.4330 O   0  0  0  0  0  0  0  0  0  0  0  0
  143.9823  135.8951  157.3830 H   0  0  0  0  0  0  0  0  0  0  0  0
  145.6579  136.4343  157.4562 H   0  0  0  0  0  0  0  0  0  0  0  0
  145.2622  134.8441  156.7836 H   0  0  0  0  0  0  0  0  0  0  0  0
  146.7021  137.1818  155.2516 H   0  0  0  0  0  0  0  0  0  0  0  0
  147.5665  135.1252  154.3582 H   0  0  0  0  0  0  0  0  0  0  0  0
  146.4503  134.4851  155.5550 H   0  0  0  0  0  0  0  0  0  0  0  0
  146.1883  133.6373  153.0337 H   0  0  0  0  0  0  0  0  0  0  0  0
  144.7311  134.1616  153.8727 H   0  0  0  0  0  0  0  0  0  0  0  0
  146.2810  135.6308  151.7583 H   0  0  0  0  0  0  0  0  0  0  0  0
  144.5465  135.5835  152.0100 H   0  0  0  0  0  0  0  0  0  0  0  0
  146.4976  137.5105  152.9543 H   0  0  0  0  0  0  0  0  0  0  0  0
  144.5726  138.7338  152.9808 H   0  0  0  0  0  0  0  0  0  0  0  0
  140.1469  139.3866  151.9211 H   0  0  0  0  0  0  0  0  0  0  0  0
  137.8402  138.8033  152.6768 H   0  0  0  0  0  0  0  0  0  0  0  0
  138.2742  137.0588  154.8953 H   0  0  0  0  0  0  0  0  0  0  0  0
  142.6240  139.2053  153.0073 H   0  0  0  0  0  0  0  0  0  0  0  0
  1  2  1  0  0  0  0
  1 17  1  0  0  0  0
  1 18  1  0  0  0  0
  1 19  1  0  0  0  0
  2  3  1  0  0  0  0
  3  7  1  0  0  0  0
  3  4  1  0  0  0  0
  3 20  1  0  0  0  0
  4  5  1  0  0  0  0
  4 21  1  0  0  0  0
  4 22  1  0  0  0  0
  5  6  1  0  0  0  0
  5 23  1  0  0  0  0
  5 24  1  0  0  0  0
  6  7  1  0  0  0  0
  6 25  1  0  0  0  0
  6 26  1  0  0  0  0
  7  8  1  0  0  0  0
  7 27  1  0  0  0  0
  8 28  1  0  0  0  0
  8  9  1  0  0  0  0
  9 11  1  0  0  0  0
  9 10  2  0  0  0  0
 11 12  1  0  0  0  0
 11 32  1  0  0  0  0
 12 16  1  0  0  0  0
 12 13  2  0  0  0  0
 13 29  1  0  0  0  0
 13 14  1  0  0  0  0
 14 30  1  0  0  0  0
 14 15  2  0  0  0  0
 15 31  1  0  0  0  0
 15 16  1  0  0  0  0
M  CHG  1  13   1
M  END
> <s_m_source_file>
AV-unprocessed.smi

> <i_m_source_file_index>
2784

> <i_lp_mmshare_version>
43012

> <i_f3d_flags>
0

> <s_epik_input>
W0NIM11PW0NAQEhdMVtDSDJdW0NIMl1bQ0gyXVtDQEhdMVtOSF1DKD1PKVtOSF1jMm5bY0hdW2NIXW8y

> <s_epik_cmdline>
J2VwaWtfcHl0aG9uJywgJy1waCcsICc3LjAnLCAnLXRuJywgJzgnLCAnLW1hJywgJzIwMCcsICctbWV0YWxfYmluZGluZycsICctaW1hZScsICc8aW5maWxlLm1hZT4nLCAnLW9tYWUnLCAnPG91dGZpbGUubWFlPic=

> <r_epik_Ionization_Penalty>
6.73843

> <r_epik_Ionization_Penalty_Charging>
6.66704

> <r_epik_Ionization_Penalty_Neutral>
0.0713889

> <r_epik_State_Penalty>
1.94951

> <r_epik_Charging_Adjusted_Penalty>
8.61656

> <i_epik_Tot_Q>
1

> <i_epik_Tot_abs_Q>
1

> <r_epik_Metal_State_Penalty>
1.97013

> <b_epik_Metal_Only>
0

> <s_lp_Force_Field>
OPLS_2005

> <r_lp_Energy>
28.3285

> <b_lp_Chiralities_Consistent>
1

> <s_lp_Variant>
AV-unprocessed.smi:2784-6

> <Gold.Version>
5.8.1

> <Gold.Id.Protein>
6NUR|6NUR_protein|mol2

> <Gold.PLP.Fitness>
33.6014

> <Gold.PLP.PLP>
-25.6706

> <Gold.PLP.part.hbond>
-3.9863

> <Gold.PLP.part.metal>
0.0000

> <Gold.PLP.part.buried>
-3.5034

> <Gold.PLP.part.nonpolar>
-18.1486

> <Gold.PLP.part.repulsive>
0.4318

> <Gold.PLP.ligand.clash>
0.0000

> <Gold.PLP.ligand.torsion>
0.3484

> <Gold.PLP.Chemscore.Hbond>
2.8723

> <Gold.PLP.Chemscore.CHOScore>
0.0000

> <Gold.PLP.Chemscore.Metal>
0.0000

> <Gold.Chemscore.Hbonds>
donor molecule, donor type, donor heavy atom, donor atom, acceptor molecule, acceptor atom, score
      L1  H     8    28       P1 10175  0.91
      L1  H    11    32       P1 10175  1.00
      L1  H    13    29       P1 10160  1.00

> <Gold.PLP.Chemscore.Internal.Correction>
0.0107

> <Gold.Rescore>
     Score         DG    S(hbond)    S(metal)    S(lipo)     H(rot)  DE(clash)    DE(int)     intcor
     11.63     -16.62       2.91        0.00      41.33       1.34       0.04       4.95       ----

> <Gold.Chemscore.Fitness>
11.6283

> <Gold.Chemscore.DG>
-16.6200

> <Gold.Chemscore.ZeroCoef>
-5.4800

> <Gold.Chemscore.Hbond>
2.9107

> <Gold.Chemscore.Metal>
0.0000

> <Gold.Chemscore.Lipo>
41.3338

> <Gold.Chemscore.Internal_Hbond>
0.0000

> <Gold.Chemscore.DEClash>
0.0422

> <Gold.Chemscore.DEInternal>
4.9495

> <Gold.Chemscore.Rot>
1.3351

> <Gold.Chemscore.Internal.Correction>
   9.000000E+99

> <Gold.Chemscore.Hbonds>
donor molecule, donor type, donor heavy atom, donor atom, acceptor molecule, acceptor atom, score
      L1  H     8    28       P1 10175  0.85
      L1  H    11    32       P1 10175  1.00
      L1  H    13    29       P1 10160  0.97

> <Gold.Chemscore.Hbond.Weighted>
-9.7217

> <Gold.Chemscore.Metal.Weighted>
-0.0000

> <Gold.Chemscore.Lipo.Weighted>
-4.8361

> <Gold.Chemscore.Internal_Hbond.Weighted>
0.0000

> <Gold.Chemscore.DEClash.Weighted>
0.0422

> <Gold.Chemscore.DEInternal.Weighted>
4.9495

> <Gold.Chemscore.Rot.Weighted>
3.4177

> <Gold.Chemscore.Internal.Correction.Weighted>
   9.000000E+99

> <Gold.Protein.RotatedTorsions>
[ 6907 6896 6895 6894 ] final    3.40 input  -60.11 | X-H torsion
[ 7974 7965 7964 7962 ] final  101.40 input  175.53 | X-H torsion
[ 8008 7997 7996 7995 ] final -117.20 input   59.86 | X-H torsion
[ 10167 10162 10161 10158 ] final    7.58 input  -65.29 | X-H torsion
[ 10718 10713 10712 10709 ] final  -87.55 input   66.30 | X-H torsion
[ 10763 10752 10751 10750 ] final   -9.32 input  -60.55 | X-H torsion
[ 11005 11000 10999 10996 ] final  -28.07 input  -57.11 | X-H torsion

> <Gold.Protein.ActiveResidues>
 VAL166  LYS551  ARG553  GLY616  TRP617  ASP618  TYR619  PRO620  LYS621  CYS622 
 ASP623  PHE694  ASN695  SER759  ASP760  ASP761  ALA762  ILE779  LEU786  VAL792 
 PHE793  MET794  SER795  GLU796  ALA797  LYS798  CYS799  TRP800  GLU811  SER814 

> <Gold.Protein.RotatedAtoms>
  151.6244  135.1029  160.0108 H   0  0  0  0  0  0  0  0  0  0  0  0  # atno 6907 bound_to 6896
  152.4140  133.7004  159.6431 H   0  0  0  0  0  0  0  0  0  0  0  0  # atno 6908 bound_to 6896
  150.8029  133.8490  159.3241 H   0  0  0  0  0  0  0  0  0  0  0  0  # atno 6909 bound_to 6896
  145.3728  139.2395  143.3446 H   0  0  0  0  0  0  0  0  0  0  0  0  # atno 7974 bound_to 7965
  155.0799  140.0394  157.2636 H   0  0  0  0  0  0  0  0  0  0  0  0  # atno 8008 bound_to 7997
  154.6915  140.2654  155.6783 H   0  0  0  0  0  0  0  0  0  0  0  0  # atno 8009 bound_to 7997
  156.2730  140.2758  156.1494 H   0  0  0  0  0  0  0  0  0  0  0  0  # atno 8010 bound_to 7997
  140.6363  143.7878  150.7364 H   0  0  0  0  0  0  0  0  0  0  0  0  # atno 10167 bound_to 10162
  155.9985  130.4804  150.4885 H   0  0  0  0  0  0  0  0  0  0  0  0  # atno 10718 bound_to 10713
  153.4531  135.7015  153.6096 H   0  0  0  0  0  0  0  0  0  0  0  0  # atno 10763 bound_to 10752
  153.4422  135.3777  155.2235 H   0  0  0  0  0  0  0  0  0  0  0  0  # atno 10764 bound_to 10752
  154.8728  135.3976  154.3947 H   0  0  0  0  0  0  0  0  0  0  0  0  # atno 10765 bound_to 10752
  140.9175  133.7420  156.0755 H   0  0  0  0  0  0  0  0  0  0  0  0  # atno 11005 bound_to 11000
  146.2877  140.4382  142.8751 LP  0  0  0  0  0  0  0  0  0  0  0  0  # atno 17320 bound_to 7965
  144.8564  140.7076  143.6135 LP  0  0  0  0  0  0  0  0  0  0  0  0  # atno 17321 bound_to 7965
  140.1500  143.4366  152.2138 LP  0  0  0  0  0  0  0  0  0  0  0  0  # atno 17342 bound_to 10162
  139.5574  144.7382  151.4255 LP  0  0  0  0  0  0  0  0  0  0  0  0  # atno 17343 bound_to 10162
  157.2882  131.0621  151.2151 LP  0  0  0  0  0  0  0  0  0  0  0  0  # atno 17370 bound_to 10713
  157.3173  130.6920  149.6249 LP  0  0  0  0  0  0  0  0  0  0  0  0  # atno 17371 bound_to 10713
  140.8031  134.3486  157.5434 LP  0  0  0  0  0  0  0  0  0  0  0  0  # atno 17394 bound_to 11000
  139.8769  134.9209  156.3263 LP  0  0  0  0  0  0  0  0  0  0  0  0  # atno 17395 bound_to 11000

$$$$
