#       Name:                AV-unprocessed.smi:2855
#       Creating user name   scv26
#       Creation time:       Fri Mar 27 15:43:30 2020


#       File generated by GOLD software.
#

@<TRIPOS>MOLECULE
AV-unprocessed.smi:2855
    53    54     1
SMALL
NO_CHARGES


@<TRIPOS>ATOM
      1 ****        -4.0912  -0.3282   3.2086 C.3            1 S1                 0.0000
      2 ****        -2.6694  -0.5883   2.6908 C.3            1 S1                 0.0000
      3 ****        -1.6086  -0.1773   3.7259 C.3            1 S1                 0.0000
      4 ****        -0.1853  -0.4407   3.2105 C.3            1 S1                 0.0000
      5 ****         0.0867   0.2822   1.8700 C.3            1 S1                 0.0000
      6 ****         1.5530   0.1184   1.3664 C.3            1 S1                 0.0000
      7 ****         1.9546  -1.3361   1.0597 C.3            1 S1                 0.0000
      8 ****         2.5756   0.7768   2.3082 C.3            1 S1                 0.0000
      9 ****        -0.9905  -0.1238   0.8257 C.3            1 S1                 0.0000
     10 ****        -0.8116   0.6156  -0.4227 N.am           1 S1                 0.0000
     11 ****        -0.5656   0.0787  -1.6278 C.2            1 S1                 0.0000
     12 ****        -0.5218  -1.1343  -1.8365 O.2            1 S1                 0.0000
     13 ****        -0.3422   1.0710  -2.7764 C.3            1 S1                 0.0000
     14 ****         0.6629   0.5970  -3.7386 N.am           1 S1                 0.0000
     15 ****         0.2708   0.0413  -4.9482 C.2            1 S1                 0.0000
     16 ****         1.1441  -0.4244  -5.8724 C.2            1 S1                 0.0000
     17 ****         2.5814  -0.3607  -5.6291 C.2            1 S1                 0.0000
     18 ****         3.4501  -0.7540  -6.4044 O.2            1 S1                 0.0000
     19 ****         2.9359   0.2024  -4.4003 N.am           1 S1                 0.0000
     20 ****         2.0414   0.6829  -3.4427 C.2            1 S1                 0.0000
     21 ****         2.4610   1.1578  -2.3877 O.2            1 S1                 0.0000
     22 ****        -2.4139   0.1346   1.3566 C.3            1 S1                 0.0000
     23 ****         3.9206   0.2657  -4.1866 H              1 S1                 0.0000
     24 ****        -4.2541   0.7317   3.4057 H              1 S1                 0.0000
     25 ****        -4.2767  -0.8717   4.1354 H              1 S1                 0.0000
     26 ****        -4.8382  -0.6509   2.4827 H              1 S1                 0.0000
     27 ****        -2.5740  -1.6613   2.5172 H              1 S1                 0.0000
     28 ****        -1.7175   0.8808   3.9683 H              1 S1                 0.0000
     29 ****        -1.7649  -0.7239   4.6566 H              1 S1                 0.0000
     30 ****         0.5235  -0.1184   3.9722 H              1 S1                 0.0000
     31 ****        -0.0448  -1.5154   3.0930 H              1 S1                 0.0000
     32 ****        -0.0526   1.3485   2.0571 H              1 S1                 0.0000
     33 ****         1.6411   0.6670   0.4287 H              1 S1                 0.0000
     34 ****         1.9467  -1.9563   1.9557 H              1 S1                 0.0000
     35 ****         2.9620  -1.3782   0.6448 H              1 S1                 0.0000
     36 ****         1.2910  -1.7943   0.3275 H              1 S1                 0.0000
     37 ****         2.6591   0.2450   3.2557 H              1 S1                 0.0000
     38 ****         2.3056   1.8107   2.5253 H              1 S1                 0.0000
     39 ****         3.5676   0.7881   1.8558 H              1 S1                 0.0000
     40 ****        -0.9051  -1.1959   0.6433 H              1 S1                 0.0000
     41 ****        -0.8385   1.6226  -0.3563 H              1 S1                 0.0000
     42 ****        -1.2999   1.2368  -3.2715 H              1 S1                 0.0000
     43 ****        -0.0469   2.0463  -2.3831 H              1 S1                 0.0000
     44 ****        -0.7844  -0.0311  -5.1701 H              1 S1                 0.0000
     45 ****         0.7772  -0.8474  -6.7964 H              1 S1                 0.0000
     46 ****        -3.1451  -0.1947   0.6168 H              1 S1                 0.0000
     47 ****        -2.5699   1.2068   1.4867 H              1 S1                 0.0000
     48 ****        -0.6741  -1.7767  -1.0854 LP             1 S1                 0.0000
     49 ****        -0.3339  -1.4768  -2.7570 LP             1 S1                 0.0000
     50 ****         3.1915  -1.1562  -7.2827 LP             1 S1                 0.0000
     51 ****         4.4155  -0.6719  -6.1569 LP             1 S1                 0.0000
     52 ****         1.8179   1.5004  -1.7029 LP             1 S1                 0.0000
     53 ****         3.4451   1.2010  -2.2153 LP             1 S1                 0.0000
@<TRIPOS>BOND
    1    1    2 1     
    2    1   24 1     
    3    1   25 1     
    4    1   26 1     
    5    2   22 1     
    6    2    3 1     
    7    2   27 1     
    8    3    4 1     
    9    3   28 1     
   10    3   29 1     
   11    4    5 1     
   12    4   30 1     
   13    4   31 1     
   14    5    6 1     
   15    5    9 1     
   16    5   32 1     
   17    6    7 1     
   18    6    8 1     
   19    6   33 1     
   20    7   34 1     
   21    7   35 1     
   22    7   36 1     
   23    8   37 1     
   24    8   38 1     
   25    8   39 1     
   26    9   10 1     
   27    9   22 1     
   28    9   40 1     
   29   10   11 am    
   30   10   41 1     
   31   11   12 2     
   32   11   13 1     
   33   13   14 1     
   34   13   42 1     
   35   13   43 1     
   36   14   20 1     
   37   14   15 1     
   38   15   16 2     
   39   15   44 1     
   40   16   17 1     
   41   16   45 1     
   42   17   18 2     
   43   17   19 1     
   44   19   23 1     
   45   19   20 1     
   46   20   21 2     
   47   22   46 1     
   48   22   47 1     
   49   12   48 1     
   50   12   49 1     
   51   18   50 1     
   52   18   51 1     
   53   21   52 1     
   54   21   53 1     
@<TRIPOS>SUBSTRUCTURE
      1 S1             1
@<TRIPOS>SET
LONE_PAIRS      STATIC     ATOMS    <user>   **** ""
6 48 49 50 51 52 53
DONOR_HYDROGENS      STATIC     ATOMS    <user>   **** ""
2 41 23
ATOM$BLUE        STATIC     ATOMS    COLORGROUP SYSTEM
6 48 49 50 51 52 53
ATOM$RED        STATIC     ATOMS    COLORGROUP SYSTEM
2 41 23
