AV-unprocessed.smi:2531|AV-procd|sdf|9964|dock1
  -GOLD-   2272014 03D 1   1.00000     0.00000
 Structure written by MMmdl.
 46 48  0  0  0  0  0  0  0  0  1 V2000
  149.8659  142.6325  159.1846 O   0  0  0  0  0  0  0  0  0  0  0  0
  150.5228  142.8462  158.1649 C   0  0  0  0  0  0  0  0  0  0  0  0
  151.9472  143.4424  158.2402 C   0  0  0  0  0  0  0  0  0  0  0  0
  152.8811  142.6972  159.2091 C   0  0  0  0  0  0  0  0  0  0  0  0
  152.6256  143.3094  160.5930 C   0  0  0  0  0  0  0  0  0  0  0  0
  152.0062  144.6928  160.3421 C   0  0  0  0  0  0  0  0  0  0  0  0
  151.9455  144.8658  158.8190 C   0  0  0  0  0  0  0  0  0  0  0  0
  150.0380  142.4838  156.9043 N   0  0  0  0  0  0  0  0  0  0  0  0
  150.8975  141.9033  155.8835 C   0  0  0  0  0  0  0  0  0  0  0  0
  149.6301  141.2053  155.3770 C   0  0  0  0  0  0  0  0  0  0  0  0
  149.9089  139.4225  154.9798 S   0  0  0  0  0  0  0  0  0  0  0  0
  151.3306  139.2369  154.6507 O   0  0  0  0  0  0  0  0  0  0  0  0
  149.2774  138.5746  156.0026 O   0  0  0  0  0  0  0  0  0  0  0  0
  149.0103  139.2257  153.5231 N   0  0  0  0  0  0  0  0  0  0  0  0
  147.5743  139.4941  153.5671 C   0  0  0  0  0  0  0  0  0  0  0  0
  146.9724  139.4083  152.1582 C   0  0  0  0  0  0  0  0  0  0  0  0
  146.2546  138.0932  151.9203 C   0  0  0  0  0  0  0  0  0  0  0  0
  145.3092  137.6090  152.8496 C   0  0  0  0  0  0  0  0  0  0  0  0
  144.6665  136.3858  152.5768 C   0  0  0  0  0  0  0  0  0  0  0  0
  144.9909  135.6984  151.3914 C   0  0  0  0  0  0  0  0  0  0  0  0
  145.9479  136.2672  150.5274 C   0  0  0  0  0  0  0  0  0  0  0  0
  146.5703  137.4390  150.7796 N   0  0  0  0  0  0  0  0  0  0  0  0
  149.0076  141.4674  156.7556 C   0  0  0  0  0  0  0  0  0  0  0  0
  152.3791  143.4311  157.2393 H   0  0  0  0  0  0  0  0  0  0  0  0
  152.7498  141.6142  159.2045 H   0  0  0  0  0  0  0  0  0  0  0  0
  153.9155  142.8852  158.9177 H   0  0  0  0  0  0  0  0  0  0  0  0
  151.9283  142.6891  161.1573 H   0  0  0  0  0  0  0  0  0  0  0  0
  153.5467  143.3740  161.1731 H   0  0  0  0  0  0  0  0  0  0  0  0
  151.0003  144.7254  160.7623 H   0  0  0  0  0  0  0  0  0  0  0  0
  152.5813  145.4912  160.8119 H   0  0  0  0  0  0  0  0  0  0  0  0
  152.8371  145.3920  158.4760 H   0  0  0  0  0  0  0  0  0  0  0  0
  151.0873  145.4650  158.5117 H   0  0  0  0  0  0  0  0  0  0  0  0
  151.3233  142.6307  155.1916 H   0  0  0  0  0  0  0  0  0  0  0  0
  151.6424  141.2111  156.2810 H   0  0  0  0  0  0  0  0  0  0  0  0
  149.1485  141.7361  154.5540 H   0  0  0  0  0  0  0  0  0  0  0  0
  149.4502  139.7358  152.7575 H   0  0  0  0  0  0  0  0  0  0  0  0
  147.0941  138.7748  154.2314 H   0  0  0  0  0  0  0  0  0  0  0  0
  147.4122  140.4865  153.9896 H   0  0  0  0  0  0  0  0  0  0  0  0
  146.2687  140.2271  152.0003 H   0  0  0  0  0  0  0  0  0  0  0  0
  147.7567  139.5294  151.4095 H   0  0  0  0  0  0  0  0  0  0  0  0
  145.0792  138.1604  153.7495 H   0  0  0  0  0  0  0  0  0  0  0  0
  143.9372  135.9828  153.2640 H   0  0  0  0  0  0  0  0  0  0  0  0
  144.5174  134.7584  151.1494 H   0  0  0  0  0  0  0  0  0  0  0  0
  146.2205  135.7680  149.6094 H   0  0  0  0  0  0  0  0  0  0  0  0
  149.1084  140.6454  157.4663 H   0  0  0  0  0  0  0  0  0  0  0  0
  147.9949  141.8698  156.7250 H   0  0  0  0  0  0  0  0  0  0  0  0
  1  2  2  0  0  0  0
  2  3  1  0  0  0  0
  2  8  1  0  0  0  0
  3  7  1  0  0  0  0
  3  4  1  0  0  0  0
  3 24  1  0  0  0  0
  4  5  1  0  0  0  0
  4 25  1  0  0  0  0
  4 26  1  0  0  0  0
  5  6  1  0  0  0  0
  5 27  1  0  0  0  0
  5 28  1  0  0  0  0
  6  7  1  0  0  0  0
  6 29  1  0  0  0  0
  6 30  1  0  0  0  0
  7 31  1  0  0  0  0
  7 32  1  0  0  0  0
  8 23  1  0  0  0  0
  8  9  1  0  0  0  0
  9 10  1  0  0  0  0
  9 33  1  0  0  0  0
  9 34  1  0  0  0  0
 10 11  1  0  0  0  0
 10 23  1  0  0  0  0
 10 35  1  0  0  0  0
 11 12  2  0  0  0  0
 11 13  2  0  0  0  0
 11 14  1  0  0  0  0
 14 15  1  0  0  0  0
 14 36  1  0  0  0  0
 15 16  1  0  0  0  0
 15 37  1  0  0  0  0
 15 38  1  0  0  0  0
 16 17  1  0  0  0  0
 16 39  1  0  0  0  0
 16 40  1  0  0  0  0
 17 22  1  0  0  0  0
 17 18  2  0  0  0  0
 18 19  1  0  0  0  0
 18 41  1  0  0  0  0
 19 20  2  0  0  0  0
 19 42  1  0  0  0  0
 20 21  1  0  0  0  0
 20 43  1  0  0  0  0
 21 22  2  0  0  0  0
 21 44  1  0  0  0  0
 23 45  1  0  0  0  0
 23 46  1  0  0  0  0
M  END
> <s_m_source_file>
AV-unprocessed.smi

> <i_m_source_file_index>
2531

> <i_lp_mmshare_version>
43012

> <i_f3d_flags>
0

> <s_epik_input>
W0NIMl0xW0NIMl1bQ0gyXVtDSDJdW0NIXTFDKD1PKU4yW0NIMl1bQ0hdKFtDSDJdMilTKD1PKSg9TylbTkhdW0NIMl1bQ0gyXWMzW2NIXVtjSF1bY0hdW2NIXW4z

> <s_epik_cmdline>
J2VwaWtfcHl0aG9uJywgJy1waCcsICc3LjAnLCAnLXRuJywgJzgnLCAnLW1hJywgJzIwMCcsICctbWV0YWxfYmluZGluZycsICctaW1hZScsICc8aW5maWxlLm1hZT4nLCAnLW9tYWUnLCAnPG91dGZpbGUubWFlPic=

> <r_epik_Ionization_Penalty>
0.0203172

> <r_epik_Ionization_Penalty_Charging>
0

> <r_epik_Ionization_Penalty_Neutral>
0.0203172

> <r_epik_State_Penalty>
0.0162494

> <r_epik_Charging_Adjusted_Penalty>
0.0162494

> <i_epik_Tot_Q>
0

> <i_epik_Tot_abs_Q>
0

> <r_epik_Metal_State_Penalty>
0.0444853

> <b_epik_Metal_Only>
0

> <s_lp_Force_Field>
OPLS_2005

> <r_lp_Energy>
30.9959

> <b_lp_Chiralities_Consistent>
1

> <s_lp_Variant>
AV-unprocessed.smi:2531-1

> <Gold.Version>
5.8.1

> <Gold.Id.Protein>
6NUR|6NUR_protein|mol2

> <Gold.PLP.Fitness>
56.3016

> <Gold.PLP.PLP>
-45.1783

> <Gold.PLP.part.hbond>
-4.0000

> <Gold.PLP.part.metal>
0.0000

> <Gold.PLP.part.buried>
-0.6865

> <Gold.PLP.part.nonpolar>
-43.2939

> <Gold.PLP.part.repulsive>
2.6820

> <Gold.PLP.ligand.clash>
0.0000

> <Gold.PLP.ligand.torsion>
1.3324

> <Gold.PLP.Chemscore.Hbond>
3.0000

> <Gold.PLP.Chemscore.CHOScore>
1.0000

> <Gold.PLP.Chemscore.Metal>
0.0000

> <Gold.Chemscore.Hbonds>
donor molecule, donor type, donor heavy atom, donor atom, acceptor molecule, acceptor atom, score
      L1  H    14    36       P1  7957  1.00
      P1  H  7954  7966       L1    22  1.00
      P1  H  7989  7998       L1    12  1.00
      L1  C    21    44       P1  7921  1.00

> <Gold.PLP.Chemscore.Internal.Correction>
1.7881

> <Gold.Rescore>
     Score         DG    S(hbond)    S(metal)    S(lipo)     H(rot)  DE(clash)    DE(int)     intcor
     19.05     -23.29       2.40        0.00     124.08       1.85       3.00       1.25       ----

> <Gold.Chemscore.Fitness>
19.0469

> <Gold.Chemscore.DG>
-23.2939

> <Gold.Chemscore.ZeroCoef>
-5.4800

> <Gold.Chemscore.Hbond>
2.4046

> <Gold.Chemscore.Metal>
0.0000

> <Gold.Chemscore.Lipo>
124.0784

> <Gold.Chemscore.Internal_Hbond>
0.0000

> <Gold.Chemscore.DEClash>
2.9959

> <Gold.Chemscore.DEInternal>
1.2511

> <Gold.Chemscore.Rot>
1.8494

> <Gold.Chemscore.Internal.Correction>
   9.000000E+99

> <Gold.Chemscore.Hbonds>
donor molecule, donor type, donor heavy atom, donor atom, acceptor molecule, acceptor atom, score
      L1  H    14    36       P1  7957  0.94
      P1  H  7954  7966       L1    22  0.93
      P1  H  7989  7998       L1    12  0.29

> <Gold.Chemscore.Hbond.Weighted>
-8.0313

> <Gold.Chemscore.Metal.Weighted>
-0.0000

> <Gold.Chemscore.Lipo.Weighted>
-14.5172

> <Gold.Chemscore.Internal_Hbond.Weighted>
0.0000

> <Gold.Chemscore.DEClash.Weighted>
2.9959

> <Gold.Chemscore.DEInternal.Weighted>
1.2511

> <Gold.Chemscore.Rot.Weighted>
4.7346

> <Gold.Chemscore.Internal.Correction.Weighted>
   9.000000E+99

> <Gold.Protein.RotatedTorsions>
[ 6907 6896 6895 6894 ] final -118.16 input  -60.11 | X-H torsion
[ 7974 7965 7964 7962 ] final   28.52 input  175.53 | X-H torsion
[ 8008 7997 7996 7995 ] final  -38.26 input   59.86 | X-H torsion
[ 10167 10162 10161 10158 ] final   26.87 input  -65.29 | X-H torsion
[ 10718 10713 10712 10709 ] final   16.57 input   66.30 | X-H torsion
[ 10763 10752 10751 10750 ] final  -28.73 input  -60.55 | X-H torsion
[ 11005 11000 10999 10996 ] final  -74.45 input  -57.11 | X-H torsion

> <Gold.Protein.ActiveResidues>
 VAL166  LYS551  ARG553  GLY616  TRP617  ASP618  TYR619  PRO620  LYS621  CYS622 
 ASP623  PHE694  ASN695  SER759  ASP760  ASP761  ALA762  ILE779  LEU786  VAL792 
 PHE793  MET794  SER795  GLU796  ALA797  LYS798  CYS799  TRP800  GLU811  SER814 

> <Gold.Protein.RotatedAtoms>
  150.8197  133.8275  159.3144 H   0  0  0  0  0  0  0  0  0  0  0  0  # atno 6907 bound_to 6896
  151.6037  135.1044  160.0075 H   0  0  0  0  0  0  0  0  0  0  0  0  # atno 6908 bound_to 6896
  152.4286  133.7198  159.6583 H   0  0  0  0  0  0  0  0  0  0  0  0  # atno 6909 bound_to 6896
  146.1724  139.7045  142.8958 H   0  0  0  0  0  0  0  0  0  0  0  0  # atno 7974 bound_to 7965
  154.4040  140.1582  156.2671 H   0  0  0  0  0  0  0  0  0  0  0  0  # atno 8008 bound_to 7997
  155.8986  140.3434  155.5987 H   0  0  0  0  0  0  0  0  0  0  0  0  # atno 8009 bound_to 7997
  155.7475  140.0800  157.2208 H   0  0  0  0  0  0  0  0  0  0  0  0  # atno 8010 bound_to 7997
  140.4987  144.0351  150.6324 H   0  0  0  0  0  0  0  0  0  0  0  0  # atno 10167 bound_to 10162
  157.0697  130.6343  149.5803 H   0  0  0  0  0  0  0  0  0  0  0  0  # atno 10718 bound_to 10713
  153.7532  135.6924  153.4941 H   0  0  0  0  0  0  0  0  0  0  0  0  # atno 10763 bound_to 10752
  153.1989  135.4444  155.0241 H   0  0  0  0  0  0  0  0  0  0  0  0  # atno 10764 bound_to 10752
  154.8180  135.3408  154.7051 H   0  0  0  0  0  0  0  0  0  0  0  0  # atno 10765 bound_to 10752
  141.1635  133.6912  156.7366 H   0  0  0  0  0  0  0  0  0  0  0  0  # atno 11005 bound_to 11000
  145.4304  141.0414  143.2914 LP  0  0  0  0  0  0  0  0  0  0  0  0  # atno 17320 bound_to 7965
  144.8183  139.5836  143.6998 LP  0  0  0  0  0  0  0  0  0  0  0  0  # atno 17321 bound_to 7965
  140.3640  143.2892  152.0352 LP  0  0  0  0  0  0  0  0  0  0  0  0  # atno 17342 bound_to 10162
  139.4867  144.6281  151.7125 LP  0  0  0  0  0  0  0  0  0  0  0  0  # atno 17343 bound_to 10162
  155.9954  130.5020  150.7457 LP  0  0  0  0  0  0  0  0  0  0  0  0  # atno 17370 bound_to 10713
  157.4888  131.0909  151.0451 LP  0  0  0  0  0  0  0  0  0  0  0  0  # atno 17371 bound_to 10713
  140.2705  134.8396  157.3843 LP  0  0  0  0  0  0  0  0  0  0  0  0  # atno 17394 bound_to 11000
  140.1526  134.4831  155.7951 LP  0  0  0  0  0  0  0  0  0  0  0  0  # atno 17395 bound_to 11000

$$$$
