#       Name:                AV-unprocessed.smi:1412
#       Creating user name   scv26
#       Creation time:       Fri Mar 27 05:38:06 2020


#       File generated by GOLD software.
#

@<TRIPOS>MOLECULE
AV-unprocessed.smi:1412
    48    49     1
SMALL
NO_CHARGES


@<TRIPOS>ATOM
      1 ****        -2.6132  -0.3703   0.9766 C.3            1 S1                 0.0000
      2 ****        -1.0832  -0.2616   0.8429 C.3            1 S1                 0.0000
      3 ****        -0.5618   0.3950  -0.4750 C.3            1 S1                 0.0000
      4 ****        -0.9739   1.8907  -0.4102 C.3            1 S1                 0.0000
      5 ****         0.9999   0.3206  -0.4907 C.3            1 S1                 0.0000
      6 ****         1.6395   1.0273   0.6202 N.am           1 S1                 0.0000
      7 ****         2.1658   0.4762   1.7238 C.2            1 S1                 0.0000
      8 ****         2.1443  -0.7473   1.8750 O.2            1 S1                 0.0000
      9 ****         2.6750   1.3806   2.5907 N.pl3          1 S1                -1.0000
     10 ****         3.2091   0.9698   3.7526 C.2            1 S1                 0.0000
     11 ****         4.5334   0.8346   3.9271 N.2            1 S1                 0.0000
     12 ****         4.8748   0.4041   5.2021 N.2            1 S1                 0.0000
     13 ****         3.7941   0.2352   5.9636 C.2            1 S1                 0.0000
     14 ****         2.2618   0.5862   5.1928 S.3            1 S1                 0.0000
     15 ****        -1.1639  -0.2629  -1.6697 N.3            1 S1                 0.0000
     16 ****        -0.8632   0.3753  -2.9565 C.3            1 S1                 0.0000
     17 ****        -1.6390  -0.2741  -4.1154 C.3            1 S1                 0.0000
     18 ****        -1.3500  -1.6661  -4.1683 O.3            1 S1                 0.0000
     19 ****        -1.6747  -2.3351  -2.9553 C.3            1 S1                 0.0000
     20 ****        -0.8975  -1.7016  -1.7893 C.3            1 S1                 0.0000
     21 ****        -2.8781  -0.8468   1.9204 H              1 S1                 0.0000
     22 ****        -3.0504  -0.9688   0.1776 H              1 S1                 0.0000
     23 ****        -3.0908   0.6089   0.9632 H              1 S1                 0.0000
     24 ****        -0.7262   0.3019   1.7053 H              1 S1                 0.0000
     25 ****        -0.6478  -1.2530   0.9682 H              1 S1                 0.0000
     26 ****        -0.7501   2.3357   0.5600 H              1 S1                 0.0000
     27 ****        -2.0418   2.0229  -0.5849 H              1 S1                 0.0000
     28 ****        -0.4462   2.4917  -1.1510 H              1 S1                 0.0000
     29 ****         1.3425  -0.7140  -0.5151 H              1 S1                 0.0000
     30 ****         1.3931   0.7793  -1.3969 H              1 S1                 0.0000
     31 ****         1.6811   2.0333   0.5483 H              1 S1                 0.0000
     32 ****         3.9000  -0.0959   6.9858 H              1 S1                 0.0000
     33 ****        -1.1202   1.4330  -2.9370 H              1 S1                 0.0000
     34 ****         0.2033   0.3115  -3.1714 H              1 S1                 0.0000
     35 ****        -2.7128  -0.1231  -3.9936 H              1 S1                 0.0000
     36 ****        -1.3570   0.1840  -5.0633 H              1 S1                 0.0000
     37 ****        -2.7497  -2.2808  -2.7766 H              1 S1                 0.0000
     38 ****        -1.4186  -3.3902  -3.0516 H              1 S1                 0.0000
     39 ****         0.1668  -1.8775  -1.9454 H              1 S1                 0.0000
     40 ****        -1.1738  -2.2285  -0.8781 H              1 S1                 0.0000
     41 ****         1.7339  -1.3306   1.1740 LP             1 S1                 0.0000
     42 ****         2.5372  -1.1563   2.6986 LP             1 S1                 0.0000
     43 ****         2.6539   2.3550   2.3667 LP             1 S1                 0.0000
     44 ****         5.2055   1.0246   3.2115 LP             1 S1                 0.0000
     45 ****         5.8122   0.2414   5.5099 LP             1 S1                 0.0000
     46 ****        -2.1367  -0.1351  -1.4765 LP             1 S1                 0.0000
     47 ****        -0.3736  -1.7845  -4.3487 LP             1 S1                 0.0000
     48 ****        -1.8784  -2.0756  -4.9120 LP             1 S1                 0.0000
@<TRIPOS>BOND
    1    1    2 1     
    2    1   21 1     
    3    1   22 1     
    4    1   23 1     
    5    2    3 1     
    6    2   24 1     
    7    2   25 1     
    8    3    4 1     
    9    3    5 1     
   10    3   15 1     
   11    4   26 1     
   12    4   27 1     
   13    4   28 1     
   14    5    6 1     
   15    5   29 1     
   16    5   30 1     
   17    6    7 am    
   18    6   31 1     
   19    7    8 2     
   20    7    9 1     
   21    9   10 1     
   22   10   14 1     
   23   10   11 2     
   24   11   12 1     
   25   12   13 2     
   26   13   14 1     
   27   13   32 1     
   28   15   20 1     
   29   15   16 1     
   30   16   17 1     
   31   16   33 1     
   32   16   34 1     
   33   17   18 1     
   34   17   35 1     
   35   17   36 1     
   36   18   19 1     
   37   19   20 1     
   38   19   37 1     
   39   19   38 1     
   40   20   39 1     
   41   20   40 1     
   42    8   41 1     
   43    8   42 1     
   44    9   43 1     
   45   11   44 1     
   46   12   45 1     
   47   15   46 1     
   48   18   47 1     
   49   18   48 1     
@<TRIPOS>SUBSTRUCTURE
      1 S1             1
@<TRIPOS>SET
LONE_PAIRS      STATIC     ATOMS    <user>   **** ""
8 41 42 43 44 45 46 47 48
DONOR_HYDROGENS      STATIC     ATOMS    <user>   **** ""
1 31
ATOM$BLUE        STATIC     ATOMS    COLORGROUP SYSTEM
8 41 42 43 44 45 46 47 48
ATOM$RED        STATIC     ATOMS    COLORGROUP SYSTEM
1 31
