AV-unprocessed.smi:1855|AV-procd|sdf|7532|dock4
  -GOLD-   22720 9243D 1   1.00000     0.00000
 Structure written by MMmdl.
 44 46  0  0  0  0  0  0  0  0  2 V2000
  147.1272  137.7251  163.3731 C   0  0  0  0  0  0  0  0  0  0  0  0
  147.6701  137.2709  162.1427 O   0  0  0  0  0  0  0  0  0  0  0  0
  147.4508  135.9592  161.7740 C   0  0  0  0  0  0  0  0  0  0  0  0
  146.7021  135.0375  162.5487 C   0  0  0  0  0  0  0  0  0  0  0  0
  146.5261  133.7129  162.1080 C   0  0  0  0  0  0  0  0  0  0  0  0
  147.0923  133.2950  160.8914 C   0  0  0  0  0  0  0  0  0  0  0  0
  147.8370  134.2012  160.1148 C   0  0  0  0  0  0  0  0  0  0  0  0
  148.0216  135.5362  160.5521 C   0  0  0  0  0  0  0  0  0  0  0  0
  148.7354  136.4789  159.8461 O   0  0  0  0  0  0  0  0  0  0  0  0
  149.1329  136.1863  158.5145 C   0  0  0  0  0  0  0  0  0  0  0  0
  150.1032  137.2783  158.0407 C   0  0  0  0  0  0  0  0  0  0  0  0
  149.9039  137.6148  156.6212 N   0  0  0  0  0  0  0  0  0  0  0  0
  149.7027  136.8060  155.5403 C   0  0  0  0  0  0  0  0  0  0  0  0
  149.6159  135.3117  155.5288 C   0  0  0  0  0  0  0  0  0  0  0  0
  149.3259  134.7704  154.2065 N   0  0  0  0  0  0  0  0  0  0  0  0
  149.2827  133.4650  153.9041 C   0  0  0  0  0  0  0  0  0  0  0  0
  149.4709  132.5577  154.7124 O   0  0  0  0  0  0  0  0  0  0  0  0
  149.5975  137.6133  154.4468 N   0  3  0  0  0  0  0  0  0  0  0  0
  149.7399  138.9477  154.8273 C   0  0  0  0  0  0  0  0  0  0  0  0
  149.7177  140.1169  154.0731 C   0  0  0  0  0  0  0  0  0  0  0  0
  149.9084  141.3257  154.7738 C   0  0  0  0  0  0  0  0  0  0  0  0
  150.1070  141.3414  156.1696 C   0  0  0  0  0  0  0  0  0  0  0  0
  150.1207  140.1500  156.9235 C   0  0  0  0  0  0  0  0  0  0  0  0
  149.9355  138.9577  156.2231 C   0  0  0  0  0  0  0  0  0  0  0  0
  147.3957  138.7714  163.5184 H   0  0  0  0  0  0  0  0  0  0  0  0
  147.5267  137.1622  164.2176 H   0  0  0  0  0  0  0  0  0  0  0  0
  146.0385  137.6602  163.3767 H   0  0  0  0  0  0  0  0  0  0  0  0
  146.2514  135.3223  163.4871 H   0  0  0  0  0  0  0  0  0  0  0  0
  145.9541  133.0174  162.7041 H   0  0  0  0  0  0  0  0  0  0  0  0
  146.9543  132.2790  160.5521 H   0  0  0  0  0  0  0  0  0  0  0  0
  148.2538  133.8504  159.1830 H   0  0  0  0  0  0  0  0  0  0  0  0
  149.6311  135.2164  158.4704 H   0  0  0  0  0  0  0  0  0  0  0  0
  148.2623  136.1512  157.8582 H   0  0  0  0  0  0  0  0  0  0  0  0
  149.9647  138.1856  158.6278 H   0  0  0  0  0  0  0  0  0  0  0  0
  151.1387  136.9746  158.1938 H   0  0  0  0  0  0  0  0  0  0  0  0
  150.5703  134.9055  155.8640 H   0  0  0  0  0  0  0  0  0  0  0  0
  148.8688  134.9692  156.2455 H   0  0  0  0  0  0  0  0  0  0  0  0
  149.1577  135.4351  153.4653 H   0  0  0  0  0  0  0  0  0  0  0  0
  149.0559  133.3163  152.8372 H   0  0  0  0  0  0  0  0  0  0  0  0
  149.5682  140.1072  153.0035 H   0  0  0  0  0  0  0  0  0  0  0  0
  149.9044  142.2593  154.2303 H   0  0  0  0  0  0  0  0  0  0  0  0
  150.2540  142.2862  156.6726 H   0  0  0  0  0  0  0  0  0  0  0  0
  150.2827  140.1743  157.9908 H   0  0  0  0  0  0  0  0  0  0  0  0
  149.4447  137.2716  153.5068 H   0  0  0  0  0  0  0  0  0  0  0  0
  1  2  1  0  0  0  0
  1 25  1  0  0  0  0
  1 26  1  0  0  0  0
  1 27  1  0  0  0  0
  2  3  1  0  0  0  0
  3  8  1  0  0  0  0
  3  4  2  0  0  0  0
  4  5  1  0  0  0  0
  4 28  1  0  0  0  0
  5  6  2  0  0  0  0
  5 29  1  0  0  0  0
  6  7  1  0  0  0  0
  6 30  1  0  0  0  0
  7  8  2  0  0  0  0
  7 31  1  0  0  0  0
  8  9  1  0  0  0  0
  9 10  1  0  0  0  0
 10 11  1  0  0  0  0
 10 32  1  0  0  0  0
 10 33  1  0  0  0  0
 11 12  1  0  0  0  0
 11 34  1  0  0  0  0
 11 35  1  0  0  0  0
 12 24  1  0  0  0  0
 12 13  1  0  0  0  0
 13 14  1  0  0  0  0
 13 18  2  0  0  0  0
 14 15  1  0  0  0  0
 14 36  1  0  0  0  0
 14 37  1  0  0  0  0
 15 16  1  0  0  0  0
 15 38  1  0  0  0  0
 16 17  2  0  0  0  0
 16 39  1  0  0  0  0
 18 19  1  0  0  0  0
 18 44  1  0  0  0  0
 19 24  2  0  0  0  0
 19 20  1  0  0  0  0
 20 21  2  0  0  0  0
 20 40  1  0  0  0  0
 21 22  1  0  0  0  0
 21 41  1  0  0  0  0
 22 23  2  0  0  0  0
 22 42  1  0  0  0  0
 23 24  1  0  0  0  0
 23 43  1  0  0  0  0
M  CHG  1  18   1
M  END
> <s_m_source_file>
AV-unprocessed.smi

> <i_m_source_file_index>
1855

> <i_lp_mmshare_version>
43012

> <i_f3d_flags>
0

> <s_epik_input>
W0NIM11PYzFbY0hdW2NIXVtjSF1bY0hdYzFPW0NIMl1bQ0gyXW4oYyhuMilbQ0gyXVtOSF1bQ0hdPU8pYyhjMjMpW2NIXVtjSF1bY0hdW2NIXTM=

> <s_epik_cmdline>
J2VwaWtfcHl0aG9uJywgJy1waCcsICc3LjAnLCAnLXRuJywgJzgnLCAnLW1hJywgJzIwMCcsICctbWV0YWxfYmluZGluZycsICctaW1hZScsICc8aW5maWxlLm1hZT4nLCAnLW9tYWUnLCAnPG91dGZpbGUubWFlPic=

> <r_lp_tautomer_probability>
1

> <r_epik_Ionization_Penalty>
1.39865

> <r_epik_Ionization_Penalty_Charging>
1.39865

> <r_epik_Ionization_Penalty_Neutral>
7.38905e-08

> <r_epik_State_Penalty>
1.48061

> <r_epik_Charging_Adjusted_Penalty>
2.87925

> <i_epik_Tot_Q>
1

> <i_epik_Tot_abs_Q>
1

> <r_epik_Metal_State_Penalty>
1.53473

> <b_epik_Metal_Only>
0

> <s_lp_Force_Field>
OPLS_2005

> <r_lp_Energy>
17.0983

> <b_lp_Chiralities_Consistent>
1

> <s_lp_Variant>
AV-unprocessed.smi:1855-2

> <Gold.Version>
5.8.1

> <Gold.Id.Protein>
6NUR|6NUR_protein|mol2

> <Gold.PLP.Fitness>
51.2472

> <Gold.PLP.PLP>
-39.5561

> <Gold.PLP.part.hbond>
-4.0000

> <Gold.PLP.part.metal>
0.0000

> <Gold.PLP.part.buried>
-1.8262

> <Gold.PLP.part.nonpolar>
-33.2148

> <Gold.PLP.part.repulsive>
0.0461

> <Gold.PLP.ligand.clash>
0.0000

> <Gold.PLP.ligand.torsion>
0.6367

> <Gold.PLP.Chemscore.Hbond>
4.2639

> <Gold.PLP.Chemscore.CHOScore>
0.0000

> <Gold.PLP.Chemscore.Metal>
0.0000

> <Gold.Chemscore.Hbonds>
donor molecule, donor type, donor heavy atom, donor atom, acceptor molecule, acceptor atom, score
      L1  H    15    38       P1  7948  1.00
      L1  H    18    44       P1  7948  2.00
      P1  H  6931  6943       L1     2  0.93
      P1  H  6934  6947       L1     2  0.31

> <Gold.PLP.Chemscore.Internal.Correction>
0.1728

> <Gold.Rescore>
     Score         DG    S(hbond)    S(metal)    S(lipo)     H(rot)  DE(clash)    DE(int)     intcor
     16.43     -17.68       2.47        0.00      95.30       2.81       0.47       0.78       ----

> <Gold.Chemscore.Fitness>
16.4286

> <Gold.Chemscore.DG>
-17.6757

> <Gold.Chemscore.ZeroCoef>
-5.4800

> <Gold.Chemscore.Hbond>
2.4674

> <Gold.Chemscore.Metal>
0.0000

> <Gold.Chemscore.Lipo>
95.3011

> <Gold.Chemscore.Internal_Hbond>
0.0000

> <Gold.Chemscore.DEClash>
0.4681

> <Gold.Chemscore.DEInternal>
0.7790

> <Gold.Chemscore.Rot>
2.8108

> <Gold.Chemscore.Internal.Correction>
   9.000000E+99

> <Gold.Chemscore.Hbonds>
donor molecule, donor type, donor heavy atom, donor atom, acceptor molecule, acceptor atom, score
      L1  H    15    38       P1  7948  0.45
      L1  H    18    44       P1  7948  0.92
      P1  H  6931  6943       L1     2  0.36
      P1  H  6934  6947       L1     2  0.05

> <Gold.Chemscore.Hbond.Weighted>
-8.2410

> <Gold.Chemscore.Metal.Weighted>
-0.0000

> <Gold.Chemscore.Lipo.Weighted>
-11.1502

> <Gold.Chemscore.Internal_Hbond.Weighted>
0.0000

> <Gold.Chemscore.DEClash.Weighted>
0.4681

> <Gold.Chemscore.DEInternal.Weighted>
0.7790

> <Gold.Chemscore.Rot.Weighted>
7.1955

> <Gold.Chemscore.Internal.Correction.Weighted>
   9.000000E+99

> <Gold.Protein.RotatedTorsions>
[ 6907 6896 6895 6894 ] final   50.65 input  -60.11 | X-H torsion
[ 7974 7965 7964 7962 ] final  -40.14 input  175.53 | X-H torsion
[ 8008 7997 7996 7995 ] final  -97.45 input   59.86 | X-H torsion
[ 10167 10162 10161 10158 ] final   37.68 input  -65.29 | X-H torsion
[ 10718 10713 10712 10709 ] final   96.08 input   66.30 | X-H torsion
[ 10763 10752 10751 10750 ] final  171.42 input  -60.55 | X-H torsion
[ 11005 11000 10999 10996 ] final  -41.78 input  -57.11 | X-H torsion

> <Gold.Protein.ActiveResidues>
 VAL166  LYS551  ARG553  GLY616  TRP617  ASP618  TYR619  PRO620  LYS621  CYS622 
 ASP623  PHE694  ASN695  SER759  ASP760  ASP761  ALA762  ILE779  LEU786  VAL792 
 PHE793  MET794  SER795  GLU796  ALA797  LYS798  CYS799  TRP800  GLU811  SER814 

> <Gold.Protein.RotatedAtoms>
  152.3042  134.7575  160.0350 H   0  0  0  0  0  0  0  0  0  0  0  0  # atno 6907 bound_to 6896
  151.8078  133.3372  159.3554 H   0  0  0  0  0  0  0  0  0  0  0  0  # atno 6908 bound_to 6896
  150.7288  134.5622  159.5892 H   0  0  0  0  0  0  0  0  0  0  0  0  # atno 6909 bound_to 6896
  146.0332  140.6705  142.9122 H   0  0  0  0  0  0  0  0  0  0  0  0  # atno 7974 bound_to 7965
  154.7879  140.0463  157.1178 H   0  0  0  0  0  0  0  0  0  0  0  0  # atno 8008 bound_to 7997
  154.9626  140.3079  155.5004 H   0  0  0  0  0  0  0  0  0  0  0  0  # atno 8009 bound_to 7997
  156.2946  140.2268  156.4712 H   0  0  0  0  0  0  0  0  0  0  0  0  # atno 8010 bound_to 7997
  140.4010  144.1724  150.6134 H   0  0  0  0  0  0  0  0  0  0  0  0  # atno 10167 bound_to 10162
  157.6931  131.0566  150.4436 H   0  0  0  0  0  0  0  0  0  0  0  0  # atno 10718 bound_to 10713
  154.4116  135.2756  155.2033 H   0  0  0  0  0  0  0  0  0  0  0  0  # atno 10763 bound_to 10752
  154.4016  135.6043  153.5904 H   0  0  0  0  0  0  0  0  0  0  0  0  # atno 10764 bound_to 10752
  152.9831  135.5928  154.4399 H   0  0  0  0  0  0  0  0  0  0  0  0  # atno 10765 bound_to 10752
  141.0270  133.6837  156.2505 H   0  0  0  0  0  0  0  0  0  0  0  0  # atno 11005 bound_to 11000
  144.7040  140.3773  143.7133 LP  0  0  0  0  0  0  0  0  0  0  0  0  # atno 17320 bound_to 7965
  145.7007  139.1660  143.2594 LP  0  0  0  0  0  0  0  0  0  0  0  0  # atno 17321 bound_to 7965
  140.4740  143.2402  151.9049 LP  0  0  0  0  0  0  0  0  0  0  0  0  # atno 17342 bound_to 10162
  139.4785  144.5340  151.8626 LP  0  0  0  0  0  0  0  0  0  0  0  0  # atno 17343 bound_to 10162
  156.4793  130.4070  149.6471 LP  0  0  0  0  0  0  0  0  0  0  0  0  # atno 17370 bound_to 10713
  156.3523  130.7438  151.2399 LP  0  0  0  0  0  0  0  0  0  0  0  0  # atno 17371 bound_to 10713
  140.6474  134.5103  157.5575 LP  0  0  0  0  0  0  0  0  0  0  0  0  # atno 17394 bound_to 11000
  139.9182  134.8202  156.1295 LP  0  0  0  0  0  0  0  0  0  0  0  0  # atno 17395 bound_to 11000

$$$$
