AV-unprocessed.smi:597|AV-procd|sdf|3020|dock10
  -GOLD-   2262023533D 1   1.00000     0.00000
 Structure written by MMmdl.
 37 38  0  0  0  0  0  0  0  0  3 V2000
  154.2504  140.1365  158.8347 O   0  0  0  0  0  0  0  0  0  0  0  0
  153.0254  140.0232  158.7705 C   0  0  0  0  0  0  0  0  0  0  0  0
  152.3761  138.6959  158.3527 C   0  0  0  0  0  0  0  0  0  0  0  0
  151.8723  138.7017  156.9687 N   0  0  0  0  0  0  0  0  0  0  0  0
  150.9999  139.7483  156.6098 C   0  0  0  0  0  0  0  0  0  0  0  0
  150.4727  139.8491  155.3738 C   0  0  0  0  0  0  0  0  0  0  0  0
  149.5744  140.9277  155.0244 N   0  3  0  0  0  0  0  0  0  0  0  0
  149.4411  141.2225  153.8409 O   0  0  0  0  0  0  0  0  0  0  0  0
  148.9743  141.5164  155.9189 O   0  5  0  0  0  0  0  0  0  0  0  0
  150.8342  138.8351  154.4022 C   0  0  0  0  0  0  0  0  0  0  0  0
  151.6645  137.8291  154.7406 C   0  0  0  0  0  0  0  0  0  0  0  0
  152.2330  137.7186  156.0880 C   0  0  0  0  0  0  0  0  0  0  0  0
  152.9871  136.7985  156.4051 O   0  0  0  0  0  0  0  0  0  0  0  0
  152.1788  141.0197  159.0709 N   0  0  0  0  0  0  0  0  0  0  0  0
  152.5696  142.3612  159.4939 C   0  0  0  0  0  0  0  0  0  0  0  0
  152.0860  142.6439  160.9320 C   0  0  0  0  0  0  0  0  0  0  0  0
  152.4205  144.0803  161.3662 C   0  0  0  0  0  0  0  0  0  0  0  0
  151.8483  145.1101  160.3795 C   0  0  0  0  0  0  0  0  0  0  0  0
  152.3332  144.8343  158.9476 C   0  0  0  0  0  0  0  0  0  0  0  0
  151.9948  143.3996  158.5116 C   0  0  0  0  0  0  0  0  0  0  0  0
  153.1111  137.9009  158.4872 H   0  0  0  0  0  0  0  0  0  0  0  0
  151.5687  138.4563  159.0474 H   0  0  0  0  0  0  0  0  0  0  0  0
  150.7885  140.4477  157.4059 H   0  0  0  0  0  0  0  0  0  0  0  0
  150.4416  138.8742  153.3966 H   0  0  0  0  0  0  0  0  0  0  0  0
  151.9197  137.0840  154.0016 H   0  0  0  0  0  0  0  0  0  0  0  0
  151.1884  140.8378  158.9962 H   0  0  0  0  0  0  0  0  0  0  0  0
  153.6584  142.4368  159.4663 H   0  0  0  0  0  0  0  0  0  0  0  0
  151.0078  142.4895  160.9961 H   0  0  0  0  0  0  0  0  0  0  0  0
  152.5404  141.9393  161.6295 H   0  0  0  0  0  0  0  0  0  0  0  0
  152.0288  144.2666  162.3666 H   0  0  0  0  0  0  0  0  0  0  0  0
  153.5030  144.1984  161.4311 H   0  0  0  0  0  0  0  0  0  0  0  0
  150.7584  145.0783  160.4090 H   0  0  0  0  0  0  0  0  0  0  0  0
  152.1368  146.1168  160.6827 H   0  0  0  0  0  0  0  0  0  0  0  0
  151.8820  145.5481  158.2581 H   0  0  0  0  0  0  0  0  0  0  0  0
  153.4116  144.9883  158.8905 H   0  0  0  0  0  0  0  0  0  0  0  0
  152.3828  143.2210  157.5079 H   0  0  0  0  0  0  0  0  0  0  0  0
  150.9112  143.2892  158.4481 H   0  0  0  0  0  0  0  0  0  0  0  0
  1  2  2  0  0  0  0
  2  3  1  0  0  0  0
  2 14  1  0  0  0  0
  3  4  1  0  0  0  0
  3 21  1  0  0  0  0
  3 22  1  0  0  0  0
  4 12  1  0  0  0  0
  4  5  1  0  0  0  0
  5  6  2  0  0  0  0
  5 23  1  0  0  0  0
  6  7  1  0  0  0  0
  6 10  1  0  0  0  0
  7  8  2  0  0  0  0
  7  9  1  0  0  0  0
 10 11  2  0  0  0  0
 10 24  1  0  0  0  0
 11 12  1  0  0  0  0
 11 25  1  0  0  0  0
 12 13  2  0  0  0  0
 14 15  1  0  0  0  0
 14 26  1  0  0  0  0
 15 20  1  0  0  0  0
 15 16  1  0  0  0  0
 15 27  1  0  0  0  0
 16 17  1  0  0  0  0
 16 28  1  0  0  0  0
 16 29  1  0  0  0  0
 17 18  1  0  0  0  0
 17 30  1  0  0  0  0
 17 31  1  0  0  0  0
 18 19  1  0  0  0  0
 18 32  1  0  0  0  0
 18 33  1  0  0  0  0
 19 20  1  0  0  0  0
 19 34  1  0  0  0  0
 19 35  1  0  0  0  0
 20 36  1  0  0  0  0
 20 37  1  0  0  0  0
M  CHG  1   7   1
M  CHG  1   9  -1
M  END
> <s_m_source_file>
AV-unprocessed.smi

> <i_m_source_file_index>
597

> <i_lp_mmshare_version>
43012

> <i_f3d_flags>
0

> <s_epik_input>
W0NIMl0xW0NIMl1bQ0gyXVtDSDJdW0NIMl1bQ0hdMVtOSF1DKD1PKVtDSDJdbjJbY0hdYyhbTitdKD1PKVtPLV0pW2NIXVtjSF1jMj1P

> <s_epik_cmdline>
J2VwaWtfcHl0aG9uJywgJy1waCcsICc3LjAnLCAnLXRuJywgJzgnLCAnLW1hJywgJzIwMCcsICctbWV0YWxfYmluZGluZycsICctaW1hZScsICc8aW5maWxlLm1hZT4nLCAnLW9tYWUnLCAnPG91dGZpbGUubWFlPic=

> <r_lp_tautomer_probability>
1

> <r_epik_Ionization_Penalty>
1.91289e-08

> <r_epik_Ionization_Penalty_Charging>
8.20451e-11

> <r_epik_Ionization_Penalty_Neutral>
1.90469e-08

> <r_epik_State_Penalty>
-0

> <r_epik_Charging_Adjusted_Penalty>
8.20451e-11

> <i_epik_Tot_Q>
0

> <i_epik_Tot_abs_Q>
2

> <r_epik_Metal_State_Penalty>
-0

> <b_epik_Metal_Only>
0

> <s_lp_Force_Field>
OPLS_2005

> <r_lp_Energy>
19.9817

> <b_lp_Chiralities_Consistent>
1

> <s_lp_Variant>
AV-unprocessed.smi:597-1

> <Gold.Version>
5.8.1

> <Gold.Id.Protein>
6NUR|6NUR_protein|mol2

> <Gold.PLP.Fitness>
48.1414

> <Gold.PLP.PLP>
-40.8253

> <Gold.PLP.part.hbond>
-4.0000

> <Gold.PLP.part.metal>
0.0000

> <Gold.PLP.part.buried>
-3.5508

> <Gold.PLP.part.nonpolar>
-34.7742

> <Gold.PLP.part.repulsive>
2.0827

> <Gold.PLP.ligand.clash>
0.0000

> <Gold.PLP.ligand.torsion>
0.4915

> <Gold.PLP.Chemscore.Hbond>
2.7621

> <Gold.PLP.Chemscore.CHOScore>
0.0000

> <Gold.PLP.Chemscore.Metal>
0.0000

> <Gold.Chemscore.Hbonds>
donor molecule, donor type, donor heavy atom, donor atom, acceptor molecule, acceptor atom, score
      P1  H  7989  7998       L1     8  0.10
      P1  H  7997  8008       L1     1  0.94
      P1  H  8011  8017       L1     8  0.86
      P1  H 10752 10763       L1    13  0.75

> <Gold.PLP.Chemscore.Internal.Correction>
0.0129

> <Gold.Rescore>
     Score         DG    S(hbond)    S(metal)    S(lipo)     H(rot)  DE(clash)    DE(int)     intcor
     19.53     -23.07       2.86        0.00     102.92       1.56       2.43       1.11       ----

> <Gold.Chemscore.Fitness>
19.5271

> <Gold.Chemscore.DG>
-23.0718

> <Gold.Chemscore.ZeroCoef>
-5.4800

> <Gold.Chemscore.Hbond>
2.8608

> <Gold.Chemscore.Metal>
0.0000

> <Gold.Chemscore.Lipo>
102.9234

> <Gold.Chemscore.Internal_Hbond>
0.0000

> <Gold.Chemscore.DEClash>
2.4315

> <Gold.Chemscore.DEInternal>
1.1132

> <Gold.Chemscore.Rot>
1.5646

> <Gold.Chemscore.Internal.Correction>
   9.000000E+99

> <Gold.Chemscore.Hbonds>
donor molecule, donor type, donor heavy atom, donor atom, acceptor molecule, acceptor atom, score
      P1  H  7989  7998       L1     8  0.01
      P1  H  7997  8008       L1     1  0.55
      P1  H  8011  8017       L1     8  0.84
      P1  H 10752 10763       L1    13  0.67

> <Gold.Chemscore.Hbond.Weighted>
-9.5550

> <Gold.Chemscore.Metal.Weighted>
-0.0000

> <Gold.Chemscore.Lipo.Weighted>
-12.0420

> <Gold.Chemscore.Internal_Hbond.Weighted>
0.0000

> <Gold.Chemscore.DEClash.Weighted>
2.4315

> <Gold.Chemscore.DEInternal.Weighted>
1.1132

> <Gold.Chemscore.Rot.Weighted>
4.0053

> <Gold.Chemscore.Internal.Correction.Weighted>
   9.000000E+99

> <Gold.Protein.RotatedTorsions>
[ 6907 6896 6895 6894 ] final  162.18 input  -60.11 | X-H torsion
[ 7974 7965 7964 7962 ] final -118.64 input  175.53 | X-H torsion
[ 8008 7997 7996 7995 ] final -104.08 input   59.86 | X-H torsion
[ 10167 10162 10161 10158 ] final   22.75 input  -65.29 | X-H torsion
[ 10718 10713 10712 10709 ] final  101.95 input   66.30 | X-H torsion
[ 10763 10752 10751 10750 ] final   90.36 input  -60.55 | X-H torsion
[ 11005 11000 10999 10996 ] final  -43.63 input  -57.11 | X-H torsion

> <Gold.Protein.ActiveResidues>
 VAL166  LYS551  ARG553  GLY616  TRP617  ASP618  TYR619  PRO620  LYS621  CYS622 
 ASP623  PHE694  ASN695  SER759  ASP760  ASP761  ALA762  ILE779  LEU786  VAL792 
 PHE793  MET794  SER795  GLU796  ALA797  LYS798  CYS799  TRP800  GLU811  SER814 

> <Gold.Protein.RotatedAtoms>
  151.9443  133.3647  159.3976 H   0  0  0  0  0  0  0  0  0  0  0  0  # atno 6907 bound_to 6896
  150.6992  134.4406  159.5300 H   0  0  0  0  0  0  0  0  0  0  0  0  # atno 6908 bound_to 6896
  152.2069  134.8537  160.0552 H   0  0  0  0  0  0  0  0  0  0  0  0  # atno 6909 bound_to 6896
  145.0715  140.8362  143.4092 H   0  0  0  0  0  0  0  0  0  0  0  0  # atno 7974 bound_to 7965
  154.8801  140.0419  157.1777 H   0  0  0  0  0  0  0  0  0  0  0  0  # atno 8008 bound_to 7997
  154.8648  140.2949  155.5496 H   0  0  0  0  0  0  0  0  0  0  0  0  # atno 8009 bound_to 7997
  156.2999  140.2440  156.3628 H   0  0  0  0  0  0  0  0  0  0  0  0  # atno 8010 bound_to 7997
  140.5324  143.9819  150.6473 H   0  0  0  0  0  0  0  0  0  0  0  0  # atno 10167 bound_to 10162
  157.6815  131.0740  150.5330 H   0  0  0  0  0  0  0  0  0  0  0  0  # atno 10718 bound_to 10713
  153.1967  135.4437  155.0217 H   0  0  0  0  0  0  0  0  0  0  0  0  # atno 10763 bound_to 10752
  154.8123  135.3300  154.7274 H   0  0  0  0  0  0  0  0  0  0  0  0  # atno 10764 bound_to 10752
  153.7723  135.6983  153.4959 H   0  0  0  0  0  0  0  0  0  0  0  0  # atno 10765 bound_to 10752
  141.0397  133.6785  156.2760 H   0  0  0  0  0  0  0  0  0  0  0  0  # atno 11005 bound_to 11000
  145.1286  139.2646  143.5551 LP  0  0  0  0  0  0  0  0  0  0  0  0  # atno 17320 bound_to 7965
  146.3529  140.0931  142.8611 LP  0  0  0  0  0  0  0  0  0  0  0  0  # atno 17321 bound_to 7965
  140.3197  143.3145  152.0796 LP  0  0  0  0  0  0  0  0  0  0  0  0  # atno 17342 bound_to 10162
  139.4959  144.6582  151.6525 LP  0  0  0  0  0  0  0  0  0  0  0  0  # atno 17343 bound_to 10162
  156.5640  130.4263  149.6050 LP  0  0  0  0  0  0  0  0  0  0  0  0  # atno 17370 bound_to 10713
  156.2797  130.7064  151.1884 LP  0  0  0  0  0  0  0  0  0  0  0  0  # atno 17371 bound_to 10713
  140.6258  134.5315  157.5553 LP  0  0  0  0  0  0  0  0  0  0  0  0  # atno 17394 bound_to 11000
  139.9266  134.8044  156.1050 LP  0  0  0  0  0  0  0  0  0  0  0  0  # atno 17395 bound_to 11000

$$$$
