AV-unprocessed.smi:341|AV-procd|sdf|2382|dock2
  -GOLD-   2262022303D 1   1.00000     0.00000
 Structure written by MMmdl.
 44 46  0  0  0  0  0  0  0  0  1 V2000
  155.1287  140.9643  160.1834 C   0  0  0  0  0  0  0  0  0  0  0  0
  153.7390  140.3229  160.0887 C   0  0  0  0  0  0  0  0  0  0  0  0
  152.8281  141.1494  159.3007 N   0  0  0  0  0  0  0  0  0  0  0  0
  152.3464  140.8698  158.0666 C   0  0  0  0  0  0  0  0  0  0  0  0
  152.5886  139.8591  157.4075 O   0  0  0  0  0  0  0  0  0  0  0  0
  151.5454  141.8926  157.6861 N   0  0  0  0  0  0  0  0  0  0  0  0
  150.8017  141.9948  156.4317 C   0  0  0  0  0  0  0  0  0  0  0  0
  150.4250  140.6032  155.8823 C   0  0  2  0  0  0  0  0  0  0  0  0
  151.4826  140.1660  155.0516 O   0  0  0  0  0  0  0  0  0  0  0  0
  149.1574  140.6509  155.0121 C   0  0  0  0  0  0  0  0  0  0  0  0
  148.0305  140.8540  155.8551 O   0  0  0  0  0  0  0  0  0  0  0  0
  147.0759  141.7672  155.4621 C   0  0  0  0  0  0  0  0  0  0  0  0
  146.9612  142.0164  154.0788 C   0  0  0  0  0  0  0  0  0  0  0  0
  146.0126  142.9335  153.5863 C   0  0  0  0  0  0  0  0  0  0  0  0
  145.1622  143.6151  154.4787 C   0  0  0  0  0  0  0  0  0  0  0  0
  144.1804  144.5605  153.9739 C   0  0  0  0  0  0  0  0  0  0  0  0
  143.3992  145.3134  153.5717 N   0  0  0  0  0  0  0  0  0  0  0  0
  145.2668  143.3754  155.8631 C   0  0  0  0  0  0  0  0  0  0  0  0
  146.2164  142.4577  156.3539 C   0  0  0  0  0  0  0  0  0  0  0  0
  151.5086  142.8518  158.7087 C   0  0  0  0  0  0  0  0  0  0  0  0
  150.8233  144.0756  158.8060 C   0  0  0  0  0  0  0  0  0  0  0  0
  151.0029  144.8244  159.9926 C   0  0  0  0  0  0  0  0  0  0  0  0
  151.8425  144.3481  161.0329 C   0  0  0  0  0  0  0  0  0  0  0  0
  152.5181  143.1115  160.9101 C   0  0  0  0  0  0  0  0  0  0  0  0
  152.3198  142.3864  159.7223 C   0  0  0  0  0  0  0  0  0  0  0  0
  155.8013  140.3447  160.7768 H   0  0  0  0  0  0  0  0  0  0  0  0
  155.0787  141.9465  160.6545 H   0  0  0  0  0  0  0  0  0  0  0  0
  155.5745  141.0874  159.1960 H   0  0  0  0  0  0  0  0  0  0  0  0
  153.8188  139.3295  159.6445 H   0  0  0  0  0  0  0  0  0  0  0  0
  153.3276  140.1740  161.0873 H   0  0  0  0  0  0  0  0  0  0  0  0
  149.9004  142.5738  156.6347 H   0  0  0  0  0  0  0  0  0  0  0  0
  151.3572  142.5752  155.6924 H   0  0  0  0  0  0  0  0  0  0  0  0
  150.2769  139.9011  156.7044 H   0  0  0  0  0  0  0  0  0  0  0  0
  151.9037  139.4268  155.4633 H   0  0  0  0  0  0  0  0  0  0  0  0
  149.2195  141.4951  154.3236 H   0  0  0  0  0  0  0  0  0  0  0  0
  149.0600  139.7409  154.4169 H   0  0  0  0  0  0  0  0  0  0  0  0
  147.6088  141.4981  153.3868 H   0  0  0  0  0  0  0  0  0  0  0  0
  145.9430  143.1083  152.5220 H   0  0  0  0  0  0  0  0  0  0  0  0
  144.6200  143.8926  156.5574 H   0  0  0  0  0  0  0  0  0  0  0  0
  146.2641  142.3005  157.4205 H   0  0  0  0  0  0  0  0  0  0  0  0
  150.1852  144.4333  158.0115 H   0  0  0  0  0  0  0  0  0  0  0  0
  150.4951  145.7707  160.1076 H   0  0  0  0  0  0  0  0  0  0  0  0
  151.9663  144.9360  161.9305 H   0  0  0  0  0  0  0  0  0  0  0  0
  153.1578  142.7437  161.6987 H   0  0  0  0  0  0  0  0  0  0  0  0
  1  2  1  0  0  0  0
  1 26  1  0  0  0  0
  1 27  1  0  0  0  0
  1 28  1  0  0  0  0
  2  3  1  0  0  0  0
  2 29  1  0  0  0  0
  2 30  1  0  0  0  0
  3 25  1  0  0  0  0
  3  4  1  0  0  0  0
  4  5  2  0  0  0  0
  4  6  1  0  0  0  0
  6  7  1  0  0  0  0
  6 20  1  0  0  0  0
  7  8  1  0  0  0  0
  7 31  1  0  0  0  0
  7 32  1  0  0  0  0
  8  9  1  0  0  0  0
  8 10  1  0  0  0  0
  8 33  1  0  0  0  0
  9 34  1  0  0  0  0
 10 11  1  0  0  0  0
 10 35  1  0  0  0  0
 10 36  1  0  0  0  0
 11 12  1  0  0  0  0
 12 19  1  0  0  0  0
 12 13  2  0  0  0  0
 13 14  1  0  0  0  0
 13 37  1  0  0  0  0
 14 15  2  0  0  0  0
 14 38  1  0  0  0  0
 15 16  1  0  0  0  0
 15 18  1  0  0  0  0
 16 17  3  0  0  0  0
 18 19  2  0  0  0  0
 18 39  1  0  0  0  0
 19 40  1  0  0  0  0
 20 25  2  0  0  0  0
 20 21  1  0  0  0  0
 21 22  2  0  0  0  0
 21 41  1  0  0  0  0
 22 23  1  0  0  0  0
 22 42  1  0  0  0  0
 23 24  2  0  0  0  0
 23 43  1  0  0  0  0
 24 25  1  0  0  0  0
 24 44  1  0  0  0  0
M  END
> <s_m_source_file>
AV-unprocessed.smi

> <i_m_source_file_index>
341

> <i_lp_mmshare_version>
43012

> <i_f3d_flags>
0

> <s_epik_input>
W2NIXTFbY0hdW2NIXVtjSF1jKGMxMiluKFtDSDJdW0NIM10pYyg9TyluMltDSDJdW0NASF0oW09IXSlbQ0gyXU9jM1tjSF1bY0hdYyhDI04pW2NIXVtjSF0z

> <s_epik_cmdline>
J2VwaWtfcHl0aG9uJywgJy1waCcsICc3LjAnLCAnLXRuJywgJzgnLCAnLW1hJywgJzIwMCcsICctbWV0YWxfYmluZGluZycsICctaW1hZScsICc8aW5maWxlLm1hZT4nLCAnLW9tYWUnLCAnPG91dGZpbGUubWFlPic=

> <r_lp_tautomer_probability>
1

> <r_epik_Ionization_Penalty>
2.40146e-06

> <r_epik_Ionization_Penalty_Charging>
2.16099e-09

> <r_epik_Ionization_Penalty_Neutral>
2.3993e-06

> <r_epik_State_Penalty>
-0

> <r_epik_Charging_Adjusted_Penalty>
2.16099e-09

> <i_epik_Tot_Q>
0

> <i_epik_Tot_abs_Q>
0

> <r_epik_Metal_State_Penalty>
-0

> <b_epik_Metal_Only>
0

> <s_lp_Force_Field>
OPLS_2005

> <r_lp_Energy>
48.2045

> <b_lp_Chiralities_Consistent>
1

> <s_lp_Variant>
AV-unprocessed.smi:341-1

> <Gold.Version>
5.8.1

> <Gold.Id.Protein>
6NUR|6NUR_protein|mol2

> <Gold.PLP.Fitness>
60.4964

> <Gold.PLP.PLP>
-57.2886

> <Gold.PLP.part.hbond>
-3.0000

> <Gold.PLP.part.metal>
0.0000

> <Gold.PLP.part.buried>
-9.9756

> <Gold.PLP.part.nonpolar>
-45.4432

> <Gold.PLP.part.repulsive>
0.1644

> <Gold.PLP.ligand.clash>
0.0333

> <Gold.PLP.ligand.torsion>
1.5444

> <Gold.PLP.Chemscore.Hbond>
2.0000

> <Gold.PLP.Chemscore.CHOScore>
0.0000

> <Gold.PLP.Chemscore.Metal>
0.0000

> <Gold.Chemscore.Hbonds>
donor molecule, donor type, donor heavy atom, donor atom, acceptor molecule, acceptor atom, score
      P1  H  7989  7998       L1     9  1.00
      P1  H  7997  8009       L1     5  1.00

> <Gold.PLP.Chemscore.Internal.Correction>
0.3300

> <Gold.Rescore>
     Score         DG    S(hbond)    S(metal)    S(lipo)     H(rot)  DE(clash)    DE(int)     intcor
     17.04     -19.84       1.76        0.00     126.77       2.48       0.04       2.76       ----

> <Gold.Chemscore.Fitness>
17.0378

> <Gold.Chemscore.DG>
-19.8389

> <Gold.Chemscore.ZeroCoef>
-5.4800

> <Gold.Chemscore.Hbond>
1.7567

> <Gold.Chemscore.Metal>
0.0000

> <Gold.Chemscore.Lipo>
126.7718

> <Gold.Chemscore.Internal_Hbond>
0.0000

> <Gold.Chemscore.DEClash>
0.0402

> <Gold.Chemscore.DEInternal>
2.7609

> <Gold.Chemscore.Rot>
2.4768

> <Gold.Chemscore.Internal.Correction>
   9.000000E+99

> <Gold.Chemscore.Hbonds>
donor molecule, donor type, donor heavy atom, donor atom, acceptor molecule, acceptor atom, score
      P1  H  7989  7998       L1     9  0.94
      P1  H  7997  8009       L1     5  0.62

> <Gold.Chemscore.Hbond.Weighted>
-5.8673

> <Gold.Chemscore.Metal.Weighted>
-0.0000

> <Gold.Chemscore.Lipo.Weighted>
-14.8323

> <Gold.Chemscore.Internal_Hbond.Weighted>
0.0000

> <Gold.Chemscore.DEClash.Weighted>
0.0402

> <Gold.Chemscore.DEInternal.Weighted>
2.7609

> <Gold.Chemscore.Rot.Weighted>
6.3407

> <Gold.Chemscore.Internal.Correction.Weighted>
   9.000000E+99

> <Gold.Protein.RotatedTorsions>
[ 6907 6896 6895 6894 ] final  -41.47 input  -60.11 | X-H torsion
[ 7974 7965 7964 7962 ] final  -41.18 input  175.53 | X-H torsion
[ 8008 7997 7996 7995 ] final -171.60 input   59.86 | X-H torsion
[ 10167 10162 10161 10158 ] final   86.68 input  -65.29 | X-H torsion
[ 10718 10713 10712 10709 ] final   51.53 input   66.30 | X-H torsion
[ 10763 10752 10751 10750 ] final -103.90 input  -60.55 | X-H torsion
[ 11005 11000 10999 10996 ] final  -86.97 input  -57.11 | X-H torsion

> <Gold.Protein.ActiveResidues>
 VAL166  LYS551  ARG553  GLY616  TRP617  ASP618  TYR619  PRO620  LYS621  CYS622 
 ASP623  PHE694  ASN695  SER759  ASP760  ASP761  ALA762  ILE779  LEU786  VAL792 
 PHE793  MET794  SER795  GLU796  ALA797  LYS798  CYS799  TRP800  GLU811  SER814 

> <Gold.Protein.RotatedAtoms>
  150.9664  134.9044  159.7761 H   0  0  0  0  0  0  0  0  0  0  0  0  # atno 6907 bound_to 6896
  152.5175  134.3602  159.9292 H   0  0  0  0  0  0  0  0  0  0  0  0  # atno 6908 bound_to 6896
  151.3612  133.3848  159.2724 H   0  0  0  0  0  0  0  0  0  0  0  0  # atno 6909 bound_to 6896
  146.0235  140.6820  142.9167 H   0  0  0  0  0  0  0  0  0  0  0  0  # atno 7974 bound_to 7965
  155.9337  140.1096  157.1112 H   0  0  0  0  0  0  0  0  0  0  0  0  # atno 8008 bound_to 7997
  154.4075  140.1232  156.4902 H   0  0  0  0  0  0  0  0  0  0  0  0  # atno 8009 bound_to 7997
  155.7048  140.3471  155.4951 H   0  0  0  0  0  0  0  0  0  0  0  0  # atno 8010 bound_to 7997
  139.8851  144.6418  150.8800 H   0  0  0  0  0  0  0  0  0  0  0  0  # atno 10167 bound_to 10162
  157.4990  130.8425  149.8293 H   0  0  0  0  0  0  0  0  0  0  0  0  # atno 10718 bound_to 10713
  154.7841  135.4806  153.9907 H   0  0  0  0  0  0  0  0  0  0  0  0  # atno 10763 bound_to 10752
  153.1534  135.6795  153.8855 H   0  0  0  0  0  0  0  0  0  0  0  0  # atno 10764 bound_to 10752
  153.8492  135.3169  155.3409 H   0  0  0  0  0  0  0  0  0  0  0  0  # atno 10765 bound_to 10752
  141.1623  133.7485  156.9239 H   0  0  0  0  0  0  0  0  0  0  0  0  # atno 11005 bound_to 11000
  144.7000  140.3609  143.7164 LP  0  0  0  0  0  0  0  0  0  0  0  0  # atno 17320 bound_to 7965
  145.7155  139.1696  143.2514 LP  0  0  0  0  0  0  0  0  0  0  0  0  # atno 17321 bound_to 7965
  140.7737  143.3554  151.1931 LP  0  0  0  0  0  0  0  0  0  0  0  0  # atno 17342 bound_to 10162
  139.7160  143.9299  152.2967 LP  0  0  0  0  0  0  0  0  0  0  0  0  # atno 17343 bound_to 10162
  156.0217  130.3793  150.1941 LP  0  0  0  0  0  0  0  0  0  0  0  0  # atno 17370 bound_to 10713
  157.0130  130.9957  151.3360 LP  0  0  0  0  0  0  0  0  0  0  0  0  # atno 17371 bound_to 10713
  140.1432  134.9279  157.2495 LP  0  0  0  0  0  0  0  0  0  0  0  0  # atno 17394 bound_to 11000
  140.2811  134.3349  155.7343 LP  0  0  0  0  0  0  0  0  0  0  0  0  # atno 17395 bound_to 11000

$$$$
