#       Name:                AV-unprocessed.smi:1055
#       Creating user name   scv26
#       Creation time:       Fri Mar 27 03:12:49 2020


#       File generated by GOLD software.
#

@<TRIPOS>MOLECULE
AV-unprocessed.smi:1055
    54    55     1
SMALL
NO_CHARGES


@<TRIPOS>ATOM
      1 ****        -3.6705  -5.3586   0.5327 C.2            1 S1                 0.0000
      2 ****        -3.9638  -4.6558  -0.5738 C.2            1 S1                 0.0000
      3 ****        -5.3929  -4.4516  -1.0405 C.3            1 S1                 0.0000
      4 ****        -2.8844  -4.0228  -1.4378 C.3            1 S1                 0.0000
      5 ****        -2.9803  -2.5416  -1.4465 N.4            1 S1                 1.0000
      6 ****        -2.2127  -1.9372  -2.5646 C.3            1 S1                 0.0000
      7 ****        -2.4528  -0.4190  -2.6492 C.3            1 S1                 0.0000
      8 ****        -2.1393   0.2933  -1.3220 C.3            1 S1                 0.0000
      9 ****        -0.6954   0.3398  -1.0903 N.am           1 S1                 0.0000
     10 ****        -0.0674   1.2323  -0.3108 C.2            1 S1                 0.0000
     11 ****        -0.6545   2.1064   0.3258 O.2            1 S1                 0.0000
     12 ****         1.2617   1.0295  -0.3082 N.am           1 S1                 0.0000
     13 ****         2.2693   1.7792   0.3583 C.ar           1 S1                 0.0000
     14 ****         3.5345   1.1791   0.5266 C.ar           1 S1                 0.0000
     15 ****         4.5700   1.8900   1.1674 C.ar           1 S1                 0.0000
     16 ****         4.3382   3.2083   1.6307 C.ar           1 S1                 0.0000
     17 ****         5.3235   3.9846   2.2785 N.pl3          1 S1                 0.0000
     18 ****         5.0022   5.3337   2.7305 C.3            1 S1                 0.0000
     19 ****         6.6493   3.4271   2.5106 C.3            1 S1                 0.0000
     20 ****         3.1099   3.7468   1.4351 N.pl3          1 S1                 1.0000
     21 ****         2.0899   3.1017   0.8292 C.ar           1 S1                 0.0000
     22 ****        -2.8839  -0.4028  -0.1654 C.3            1 S1                 0.0000
     23 ****        -2.6295  -1.9203  -0.1419 C.3            1 S1                 0.0000
     24 ****        -4.4476  -5.8053   1.1360 H              1 S1                 0.0000
     25 ****        -2.6487  -5.4990   0.8539 H              1 S1                 0.0000
     26 ****        -5.5228  -4.8487  -2.0476 H              1 S1                 0.0000
     27 ****        -5.6459  -3.3913  -1.0536 H              1 S1                 0.0000
     28 ****        -6.1011  -4.9582  -0.3837 H              1 S1                 0.0000
     29 ****        -1.8916  -4.3262  -1.1011 H              1 S1                 0.0000
     30 ****        -3.0042  -4.4108  -2.4503 H              1 S1                 0.0000
     31 ****        -1.1501  -2.1486  -2.4351 H              1 S1                 0.0000
     32 ****        -2.5129  -2.3979  -3.5065 H              1 S1                 0.0000
     33 ****        -1.8620   0.0105  -3.4592 H              1 S1                 0.0000
     34 ****        -3.4969  -0.2406  -2.9104 H              1 S1                 0.0000
     35 ****        -2.4998   1.3206  -1.4019 H              1 S1                 0.0000
     36 ****        -0.1336  -0.3446  -1.5751 H              1 S1                 0.0000
     37 ****         1.5890   0.2222  -0.8181 H              1 S1                 0.0000
     38 ****         3.7150   0.1750   0.1712 H              1 S1                 0.0000
     39 ****         5.5289   1.4096   1.2912 H              1 S1                 0.0000
     40 ****         4.6788   5.9531   1.8932 H              1 S1                 0.0000
     41 ****         5.8670   5.8165   3.1862 H              1 S1                 0.0000
     42 ****         4.2039   5.3080   3.4727 H              1 S1                 0.0000
     43 ****         7.1273   3.1697   1.5650 H              1 S1                 0.0000
     44 ****         6.5859   2.5291   3.1258 H              1 S1                 0.0000
     45 ****         7.2942   4.1386   3.0266 H              1 S1                 0.0000
     46 ****         1.1822   3.6787   0.7385 H              1 S1                 0.0000
     47 ****        -2.6059   0.0385   0.7923 H              1 S1                 0.0000
     48 ****        -3.9547  -0.2266  -0.2757 H              1 S1                 0.0000
     49 ****        -3.2229  -2.3626   0.6584 H              1 S1                 0.0000
     50 ****        -1.5840  -2.1260   0.0927 H              1 S1                 0.0000
     51 ****        -3.9513  -2.3241  -1.6211 H              1 S1                 0.0000
     52 ****         2.9452   4.6989   1.7623 H              1 S1                 0.0000
     53 ****        -1.6509   2.1767   0.2768 LP             1 S1                 0.0000
     54 ****        -0.1354   2.7465   0.8921 LP             1 S1                 0.0000
@<TRIPOS>BOND
    1    1    2 2     
    2    1   24 1     
    3    1   25 1     
    4    2    3 1     
    5    2    4 1     
    6    3   26 1     
    7    3   27 1     
    8    3   28 1     
    9    4    5 1     
   10    4   29 1     
   11    4   30 1     
   12    5   23 1     
   13    5    6 1     
   14    5   51 1     
   15    6    7 1     
   16    6   31 1     
   17    6   32 1     
   18    7    8 1     
   19    7   33 1     
   20    7   34 1     
   21    8    9 1     
   22    8   22 1     
   23    8   35 1     
   24    9   10 am    
   25    9   36 1     
   26   10   11 2     
   27   10   12 am    
   28   12   13 1     
   29   12   37 1     
   30   13   21 ar    
   31   13   14 ar    
   32   14   15 ar    
   33   14   38 1     
   34   15   16 ar    
   35   15   39 1     
   36   16   17 1     
   37   16   20 ar    
   38   17   18 1     
   39   17   19 1     
   40   18   40 1     
   41   18   41 1     
   42   18   42 1     
   43   19   43 1     
   44   19   44 1     
   45   19   45 1     
   46   20   21 ar    
   47   20   52 1     
   48   21   46 1     
   49   22   23 1     
   50   22   47 1     
   51   22   48 1     
   52   23   49 1     
   53   23   50 1     
   54   11   53 1     
   55   11   54 1     
@<TRIPOS>SUBSTRUCTURE
      1 S1             1
@<TRIPOS>SET
LONE_PAIRS      STATIC     ATOMS    <user>   **** ""
2 53 54
DONOR_HYDROGENS      STATIC     ATOMS    <user>   **** ""
4 51 36 37 52
ATOM$BLUE        STATIC     ATOMS    COLORGROUP SYSTEM
2 53 54
ATOM$RED        STATIC     ATOMS    COLORGROUP SYSTEM
4 51 36 37 52
