AV-unprocessed.smi:1005|AV-procd|sdf|4365|dock1
  -GOLD-   22720 2263D 1   1.00000     0.00000
 Structure written by MMmdl.
 56 58  0  0  0  0  0  0  0  0  2 V2000
  152.5527  143.5293  161.2307 C   0  0  0  0  0  0  0  0  0  0  0  0
  152.0944  142.9263  159.9144 C   0  0  0  0  0  0  0  0  0  0  0  0
  152.6404  141.6916  159.4971 C   0  0  0  0  0  0  0  0  0  0  0  0
  152.2417  141.0979  158.2796 C   0  0  0  0  0  0  0  0  0  0  0  0
  152.6400  139.9126  157.6851 N   0  0  0  0  0  0  0  0  0  0  0  0
  151.9144  139.9152  156.5707 C   0  0  0  0  0  0  0  0  0  0  0  0
  151.0925  140.9633  156.3719 N   0  0  0  0  0  0  0  0  0  0  0  0
  150.2136  141.1789  155.2359 C   0  0  0  0  0  0  0  0  0  0  0  0
  148.7257  141.0126  155.5997 C   0  0  1  0  0  0  0  0  0  0  0  0
  148.2689  142.1842  156.2482 O   0  0  0  0  0  0  0  0  0  0  0  0
  147.8628  140.7741  154.3435 C   0  0  0  0  0  0  0  0  0  0  0  0
  147.0300  139.5694  154.3626 N   0  0  0  0  0  0  0  0  0  0  0  0
  145.8875  139.6865  155.2661 C   0  0  0  0  0  0  0  0  0  0  0  0
  145.0535  138.3955  155.3043 C   0  0  0  0  0  0  0  0  0  0  0  0
  145.8906  137.3003  155.6580 O   0  0  0  0  0  0  0  0  0  0  0  0
  146.9729  137.1073  154.7508 C   0  0  2  0  0  0  0  0  0  0  0  0
  147.8002  135.8892  155.2057 C   0  0  0  0  0  0  0  0  0  0  0  0
  148.2023  134.9978  154.0863 N   0  3  0  0  0  0  0  0  0  0  0  0
  147.0888  134.1895  153.5378 C   0  0  0  0  0  0  0  0  0  0  0  0
  149.3593  134.1482  154.4473 C   0  0  0  0  0  0  0  0  0  0  0  0
  147.8150  138.4001  154.7438 C   0  0  0  0  0  0  0  0  0  0  0  0
  151.2744  141.7788  157.4838 C   0  0  0  0  0  0  0  0  0  0  0  0
  150.7225  143.0070  157.8893 C   0  0  0  0  0  0  0  0  0  0  0  0
  151.1317  143.5859  159.1088 C   0  0  0  0  0  0  0  0  0  0  0  0
  150.5296  144.9121  159.5380 C   0  0  0  0  0  0  0  0  0  0  0  0
  153.2971  142.9003  161.7198 H   0  0  0  0  0  0  0  0  0  0  0  0
  151.7098  143.6417  161.9130 H   0  0  0  0  0  0  0  0  0  0  0  0
  152.9995  144.5102  161.0667 H   0  0  0  0  0  0  0  0  0  0  0  0
  153.3725  141.1878  160.1110 H   0  0  0  0  0  0  0  0  0  0  0  0
  151.9830  139.1078  155.8562 H   0  0  0  0  0  0  0  0  0  0  0  0
  150.4023  142.1737  154.8306 H   0  0  0  0  0  0  0  0  0  0  0  0
  150.4900  140.4690  154.4552 H   0  0  0  0  0  0  0  0  0  0  0  0
  148.6372  140.1792  156.2951 H   0  0  0  0  0  0  0  0  0  0  0  0
  148.5577  142.9352  155.7533 H   0  0  0  0  0  0  0  0  0  0  0  0
  147.2264  141.6491  154.2024 H   0  0  0  0  0  0  0  0  0  0  0  0
  148.5119  140.7402  153.4671 H   0  0  0  0  0  0  0  0  0  0  0  0
  146.2345  139.9212  156.2735 H   0  0  0  0  0  0  0  0  0  0  0  0
  145.2387  140.5055  154.9595 H   0  0  0  0  0  0  0  0  0  0  0  0
  144.2520  138.4830  156.0378 H   0  0  0  0  0  0  0  0  0  0  0  0
  144.5846  138.2078  154.3371 H   0  0  0  0  0  0  0  0  0  0  0  0
  146.5858  136.9283  153.7457 H   0  0  0  0  0  0  0  0  0  0  0  0
  148.7145  136.2635  155.6688 H   0  0  0  0  0  0  0  0  0  0  0  0
  147.2760  135.3256  155.9791 H   0  0  0  0  0  0  0  0  0  0  0  0
  146.6216  133.5852  154.3164 H   0  0  0  0  0  0  0  0  0  0  0  0
  147.4477  133.5178  152.7572 H   0  0  0  0  0  0  0  0  0  0  0  0
  146.3262  134.8209  153.0841 H   0  0  0  0  0  0  0  0  0  0  0  0
  149.1072  133.4724  155.2657 H   0  0  0  0  0  0  0  0  0  0  0  0
  150.2090  134.7582  154.7558 H   0  0  0  0  0  0  0  0  0  0  0  0
  149.6800  133.5485  153.5947 H   0  0  0  0  0  0  0  0  0  0  0  0
  148.6489  138.2808  154.0509 H   0  0  0  0  0  0  0  0  0  0  0  0
  148.2520  138.5548  155.7319 H   0  0  0  0  0  0  0  0  0  0  0  0
  149.9894  143.4984  157.2671 H   0  0  0  0  0  0  0  0  0  0  0  0
  149.7980  145.2698  158.8130 H   0  0  0  0  0  0  0  0  0  0  0  0
  151.3065  145.6712  159.6317 H   0  0  0  0  0  0  0  0  0  0  0  0
  150.0255  144.8107  160.4994 H   0  0  0  0  0  0  0  0  0  0  0  0
  148.5211  135.5971  153.3382 H   0  0  0  0  0  0  0  0  0  0  0  0
  1  2  1  0  0  0  0
  1 26  1  0  0  0  0
  1 27  1  0  0  0  0
  1 28  1  0  0  0  0
  2 24  1  0  0  0  0
  2  3  2  0  0  0  0
  3  4  1  0  0  0  0
  3 29  1  0  0  0  0
  4 22  2  0  0  0  0
  4  5  1  0  0  0  0
  5  6  2  0  0  0  0
  6  7  1  0  0  0  0
  6 30  1  0  0  0  0
  7  8  1  0  0  0  0
  7 22  1  0  0  0  0
  8  9  1  0  0  0  0
  8 31  1  0  0  0  0
  8 32  1  0  0  0  0
  9 10  1  0  0  0  0
  9 11  1  0  0  0  0
  9 33  1  0  0  0  0
 10 34  1  0  0  0  0
 11 12  1  0  0  0  0
 11 35  1  0  0  0  0
 11 36  1  0  0  0  0
 12 21  1  0  0  0  0
 12 13  1  0  0  0  0
 13 14  1  0  0  0  0
 13 37  1  0  0  0  0
 13 38  1  0  0  0  0
 14 15  1  0  0  0  0
 14 39  1  0  0  0  0
 14 40  1  0  0  0  0
 15 16  1  0  0  0  0
 16 17  1  0  0  0  0
 16 21  1  0  0  0  0
 16 41  1  0  0  0  0
 17 18  1  0  0  0  0
 17 42  1  0  0  0  0
 17 43  1  0  0  0  0
 18 19  1  0  0  0  0
 18 20  1  0  0  0  0
 18 56  1  0  0  0  0
 19 44  1  0  0  0  0
 19 45  1  0  0  0  0
 19 46  1  0  0  0  0
 20 47  1  0  0  0  0
 20 48  1  0  0  0  0
 20 49  1  0  0  0  0
 21 50  1  0  0  0  0
 21 51  1  0  0  0  0
 22 23  1  0  0  0  0
 23 24  2  0  0  0  0
 23 52  1  0  0  0  0
 24 25  1  0  0  0  0
 25 53  1  0  0  0  0
 25 54  1  0  0  0  0
 25 55  1  0  0  0  0
M  CHG  1  18   1
M  END
> <s_m_source_file>
AV-unprocessed.smi

> <i_m_source_file_index>
1005

> <i_lp_mmshare_version>
43012

> <i_f3d_flags>
0

> <s_epik_input>
W0NIM11jKFtjSF0xKWMoW0NIM10pW2NIXWMoYzEyKW4oW2NIXW4yKVtDSDJdW0NASF0oW09IXSlbQ0gyXU4zW0NIMl1bQ0gyXU9bQ0BIXShbQ0gyXTMpW0NIMl1OKFtDSDNdKVtDSDNd

> <s_epik_cmdline>
J2VwaWtfcHl0aG9uJywgJy1waCcsICc3LjAnLCAnLXRuJywgJzgnLCAnLW1hJywgJzIwMCcsICctbWV0YWxfYmluZGluZycsICctaW1hZScsICc8aW5maWxlLm1hZT4nLCAnLW9tYWUnLCAnPG91dGZpbGUubWFlPic=

> <r_epik_Ionization_Penalty>
0.226781

> <r_epik_Ionization_Penalty_Charging>
0.00915946

> <r_epik_Ionization_Penalty_Neutral>
0.217622

> <r_epik_State_Penalty>
0.173018

> <r_epik_Charging_Adjusted_Penalty>
0.182178

> <i_epik_Tot_Q>
1

> <i_epik_Tot_abs_Q>
1

> <r_epik_Metal_State_Penalty>
0.0905268

> <b_epik_Metal_Only>
0

> <s_lp_Force_Field>
OPLS_2005

> <r_lp_Energy>
38.1997

> <b_lp_Chiralities_Consistent>
1

> <s_lp_Variant>
AV-unprocessed.smi:1005-4

> <Gold.Version>
5.8.1

> <Gold.Id.Protein>
6NUR|6NUR_protein|mol2

> <Gold.PLP.Fitness>
47.6627

> <Gold.PLP.PLP>
-39.2249

> <Gold.PLP.part.hbond>
-3.0000

> <Gold.PLP.part.metal>
0.0000

> <Gold.PLP.part.buried>
-3.6219

> <Gold.PLP.part.nonpolar>
-32.4510

> <Gold.PLP.part.repulsive>
0.1182

> <Gold.PLP.ligand.clash>
0.0000

> <Gold.PLP.ligand.torsion>
1.8432

> <Gold.PLP.Chemscore.Hbond>
4.0000

> <Gold.PLP.Chemscore.CHOScore>
0.0000

> <Gold.PLP.Chemscore.Metal>
0.0000

> <Gold.Chemscore.Hbonds>
donor molecule, donor type, donor heavy atom, donor atom, acceptor molecule, acceptor atom, score
      L1  H    10    34       P1  8028  0.99
      L1  H    18    56       P1  7948  2.00
      P1  H  7997  8010       L1     5  1.00

> <Gold.PLP.Chemscore.Internal.Correction>
0.1241

> <Gold.Rescore>
     Score         DG    S(hbond)    S(metal)    S(lipo)     H(rot)  DE(clash)    DE(int)     intcor
     18.95     -21.20       2.61        0.00     112.56       2.41       0.38       1.87       ----

> <Gold.Chemscore.Fitness>
18.9452

> <Gold.Chemscore.DG>
-21.1998

> <Gold.Chemscore.ZeroCoef>
-5.4800

> <Gold.Chemscore.Hbond>
2.6135

> <Gold.Chemscore.Metal>
0.0000

> <Gold.Chemscore.Lipo>
112.5605

> <Gold.Chemscore.Internal_Hbond>
0.0000

> <Gold.Chemscore.DEClash>
0.3799

> <Gold.Chemscore.DEInternal>
1.8747

> <Gold.Chemscore.Rot>
2.4136

> <Gold.Chemscore.Internal.Correction>
   9.000000E+99

> <Gold.Chemscore.Hbonds>
donor molecule, donor type, donor heavy atom, donor atom, acceptor molecule, acceptor atom, score
      L1  H    10    34       P1  8028  0.94
      L1  H    18    56       P1  7948  0.99
      P1  H  7997  8010       L1     5  0.20

> <Gold.Chemscore.Hbond.Weighted>
-8.7290

> <Gold.Chemscore.Metal.Weighted>
-0.0000

> <Gold.Chemscore.Lipo.Weighted>
-13.1696

> <Gold.Chemscore.Internal_Hbond.Weighted>
0.0000

> <Gold.Chemscore.DEClash.Weighted>
0.3799

> <Gold.Chemscore.DEInternal.Weighted>
1.8747

> <Gold.Chemscore.Rot.Weighted>
6.1788

> <Gold.Chemscore.Internal.Correction.Weighted>
   9.000000E+99

> <Gold.Protein.RotatedTorsions>
[ 6907 6896 6895 6894 ] final -179.30 input  -60.11 | X-H torsion
[ 7974 7965 7964 7962 ] final  122.29 input  175.53 | X-H torsion
[ 8008 7997 7996 7995 ] final   43.81 input   59.86 | X-H torsion
[ 10167 10162 10161 10158 ] final  118.51 input  -65.29 | X-H torsion
[ 10718 10713 10712 10709 ] final  -14.14 input   66.30 | X-H torsion
[ 10763 10752 10751 10750 ] final  -65.24 input  -60.55 | X-H torsion
[ 11005 11000 10999 10996 ] final -120.09 input  -57.11 | X-H torsion

> <Gold.Protein.ActiveResidues>
 VAL166  LYS551  ARG553  GLY616  TRP617  ASP618  TYR619  PRO620  LYS621  CYS622 
 ASP623  PHE694  ASN695  SER759  ASP760  ASP761  ALA762  ILE779  LEU786  VAL792 
 PHE793  MET794  SER795  GLU796  ALA797  LYS798  CYS799  TRP800  GLU811  SER814 

> <Gold.Protein.RotatedAtoms>
  151.6512  133.3321  159.3152 H   0  0  0  0  0  0  0  0  0  0  0  0  # atno 6907 bound_to 6896
  150.7959  134.7022  159.6566 H   0  0  0  0  0  0  0  0  0  0  0  0  # atno 6908 bound_to 6896
  152.4046  134.6233  160.0108 H   0  0  0  0  0  0  0  0  0  0  0  0  # atno 6909 bound_to 6896
  145.1093  139.3464  143.4771 H   0  0  0  0  0  0  0  0  0  0  0  0  # atno 7974 bound_to 7965
  155.3089  140.3390  155.4244 H   0  0  0  0  0  0  0  0  0  0  0  0  # atno 8008 bound_to 7997
  156.1965  140.1717  156.8025 H   0  0  0  0  0  0  0  0  0  0  0  0  # atno 8009 bound_to 7997
  154.5505  140.0706  156.8644 H   0  0  0  0  0  0  0  0  0  0  0  0  # atno 8010 bound_to 7997
  139.6106  144.7081  151.2852 H   0  0  0  0  0  0  0  0  0  0  0  0  # atno 10167 bound_to 10162
  156.6202  130.4873  149.6168 H   0  0  0  0  0  0  0  0  0  0  0  0  # atno 10718 bound_to 10713
  154.3421  135.6154  153.5601 H   0  0  0  0  0  0  0  0  0  0  0  0  # atno 10763 bound_to 10752
  152.9803  135.5772  154.4841 H   0  0  0  0  0  0  0  0  0  0  0  0  # atno 10764 bound_to 10752
  154.4547  135.2854  155.1733 H   0  0  0  0  0  0  0  0  0  0  0  0  # atno 10765 bound_to 10752
  141.0169  134.0182  157.3337 H   0  0  0  0  0  0  0  0  0  0  0  0  # atno 11005 bound_to 11000
  146.3527  140.1005  142.8608 LP  0  0  0  0  0  0  0  0  0  0  0  0  # atno 17320 bound_to 7965
  145.0865  140.9256  143.4794 LP  0  0  0  0  0  0  0  0  0  0  0  0  # atno 17321 bound_to 7965
  140.7316  143.6845  150.7973 LP  0  0  0  0  0  0  0  0  0  0  0  0  # atno 17342 bound_to 10162
  140.0439  143.5318  152.2705 LP  0  0  0  0  0  0  0  0  0  0  0  0  # atno 17343 bound_to 10162
  156.2318  130.6799  151.1471 LP  0  0  0  0  0  0  0  0  0  0  0  0  # atno 17370 bound_to 10713
  157.7230  131.0669  150.6055 LP  0  0  0  0  0  0  0  0  0  0  0  0  # atno 17371 bound_to 10713
  139.9122  135.0192  156.7739 LP  0  0  0  0  0  0  0  0  0  0  0  0  # atno 17394 bound_to 11000
  140.6639  133.9620  155.7820 LP  0  0  0  0  0  0  0  0  0  0  0  0  # atno 17395 bound_to 11000

$$$$
