AV-unprocessed.smi:2140|AV-procd|sdf|8714|dock7
  -GOLD-   2272011483D 1   1.00000     0.00000
 Structure written by MMmdl.
 39 40  0  0  0  0  0  0  0  0  1 V2000
  147.0905  140.0440  153.1765 C   0  0  0  0  0  0  0  0  0  0  0  0
  147.7631  141.3519  153.6658 C   0  0  2  0  0  0  0  0  0  0  0  0
  149.1522  141.0119  154.2771 C   0  0  0  0  0  0  0  0  0  0  0  0
  149.6105  142.0079  155.2436 N   0  0  0  0  0  0  0  0  0  0  0  0
  150.3486  141.7579  156.3350 C   0  0  0  0  0  0  0  0  0  0  0  0
  150.7403  140.6349  156.6508 O   0  0  0  0  0  0  0  0  0  0  0  0
  150.5817  142.8849  157.0292 N   0  0  0  0  0  0  0  0  0  0  0  0
  151.3283  143.0436  158.2276 C   0  0  0  0  0  0  0  0  0  0  0  0
  151.4495  144.3414  158.7648 C   0  0  0  0  0  0  0  0  0  0  0  0
  152.1985  144.5300  159.9418 C   0  0  0  0  0  0  0  0  0  0  0  0
  152.8094  143.4077  160.5335 C   0  0  0  0  0  0  0  0  0  0  0  0
  152.7176  142.1613  160.0244 N   0  0  0  0  0  0  0  0  0  0  0  0
  151.9954  141.9870  158.8962 C   0  0  0  0  0  0  0  0  0  0  0  0
  146.8973  142.1325  154.5820 N   0  0  0  0  0  0  0  0  0  0  0  0
  145.8587  142.8905  153.8740 C   0  0  0  0  0  0  0  0  0  0  0  0
  144.9351  143.6745  154.8224 C   0  0  0  0  0  0  0  0  0  0  0  0
  144.3397  142.7847  155.7561 O   0  0  0  0  0  0  0  0  0  0  0  0
  145.3128  142.0900  156.5232 C   0  0  0  0  0  0  0  0  0  0  0  0
  146.2368  141.2915  155.5874 C   0  0  0  0  0  0  0  0  0  0  0  0
  147.7429  139.4563  152.5325 H   0  0  0  0  0  0  0  0  0  0  0  0
  146.2032  140.2344  152.5748 H   0  0  0  0  0  0  0  0  0  0  0  0
  146.8016  139.4107  154.0158 H   0  0  0  0  0  0  0  0  0  0  0  0
  147.9477  141.9621  152.7801 H   0  0  0  0  0  0  0  0  0  0  0  0
  149.1185  140.0836  154.8433 H   0  0  0  0  0  0  0  0  0  0  0  0
  149.8832  140.8577  153.4817 H   0  0  0  0  0  0  0  0  0  0  0  0
  149.3361  142.9633  155.0686 H   0  0  0  0  0  0  0  0  0  0  0  0
  150.1227  143.7180  156.6915 H   0  0  0  0  0  0  0  0  0  0  0  0
  150.9710  145.1835  158.2860 H   0  0  0  0  0  0  0  0  0  0  0  0
  152.3028  145.5115  160.3801 H   0  0  0  0  0  0  0  0  0  0  0  0
  153.3913  143.5150  161.4370 H   0  0  0  0  0  0  0  0  0  0  0  0
  151.9804  140.9749  158.5231 H   0  0  0  0  0  0  0  0  0  0  0  0
  146.3041  143.6182  153.1988 H   0  0  0  0  0  0  0  0  0  0  0  0
  145.2589  142.2140  153.2633 H   0  0  0  0  0  0  0  0  0  0  0  0
  145.4910  144.4512  155.3497 H   0  0  0  0  0  0  0  0  0  0  0  0
  144.1484  144.1730  154.2561 H   0  0  0  0  0  0  0  0  0  0  0  0
  145.8874  142.7967  157.1241 H   0  0  0  0  0  0  0  0  0  0  0  0
  144.8058  141.4188  157.2168 H   0  0  0  0  0  0  0  0  0  0  0  0
  145.6610  140.5074  155.0935 H   0  0  0  0  0  0  0  0  0  0  0  0
  146.9731  140.7958  156.2173 H   0  0  0  0  0  0  0  0  0  0  0  0
  1  2  1  0  0  0  0
  1 20  1  0  0  0  0
  1 21  1  0  0  0  0
  1 22  1  0  0  0  0
  2  3  1  0  0  0  0
  2 14  1  0  0  0  0
  2 23  1  0  0  0  0
  3  4  1  0  0  0  0
  3 24  1  0  0  0  0
  3 25  1  0  0  0  0
  4  5  1  0  0  0  0
  4 26  1  0  0  0  0
  5  6  2  0  0  0  0
  5  7  1  0  0  0  0
  7  8  1  0  0  0  0
  7 27  1  0  0  0  0
  8 13  1  0  0  0  0
  8  9  2  0  0  0  0
  9 10  1  0  0  0  0
  9 28  1  0  0  0  0
 10 11  2  0  0  0  0
 10 29  1  0  0  0  0
 11 12  1  0  0  0  0
 11 30  1  0  0  0  0
 12 13  2  0  0  0  0
 13 31  1  0  0  0  0
 14 19  1  0  0  0  0
 14 15  1  0  0  0  0
 15 16  1  0  0  0  0
 15 32  1  0  0  0  0
 15 33  1  0  0  0  0
 16 17  1  0  0  0  0
 16 34  1  0  0  0  0
 16 35  1  0  0  0  0
 17 18  1  0  0  0  0
 18 19  1  0  0  0  0
 18 36  1  0  0  0  0
 18 37  1  0  0  0  0
 19 38  1  0  0  0  0
 19 39  1  0  0  0  0
M  END
> <s_m_source_file>
AV-unprocessed.smi

> <i_m_source_file_index>
2140

> <i_lp_mmshare_version>
43012

> <i_f3d_flags>
0

> <s_epik_input>
W0NIMl0xW0NIMl1PW0NIMl1bQ0gyXU4xW0NASF0oW0NIM10pW0NIMl1bTkhdQyg9TylbTkhdYzJbY0hdW2NIXVtjSF1uW2NIXTI=

> <s_epik_cmdline>
J2VwaWtfcHl0aG9uJywgJy1waCcsICc3LjAnLCAnLXRuJywgJzgnLCAnLW1hJywgJzIwMCcsICctbWV0YWxfYmluZGluZycsICctaW1hZScsICc8aW5maWxlLm1hZT4nLCAnLW9tYWUnLCAnPG91dGZpbGUubWFlPic=

> <r_epik_Ionization_Penalty>
0.270748

> <r_epik_Ionization_Penalty_Charging>
0

> <r_epik_Ionization_Penalty_Neutral>
0.270748

> <r_epik_State_Penalty>
0.268258

> <r_epik_Charging_Adjusted_Penalty>
0.268258

> <i_epik_Tot_Q>
0

> <i_epik_Tot_abs_Q>
0

> <r_epik_Metal_State_Penalty>
0.264828

> <b_epik_Metal_Only>
0

> <s_lp_Force_Field>
OPLS_2005

> <r_lp_Energy>
32.9676

> <b_lp_Chiralities_Consistent>
1

> <s_lp_Variant>
AV-unprocessed.smi:2140-1

> <Gold.Version>
5.8.1

> <Gold.Id.Protein>
6NUR|6NUR_protein|mol2

> <Gold.PLP.Fitness>
44.1155

> <Gold.PLP.PLP>
-39.8210

> <Gold.PLP.part.hbond>
-2.0000

> <Gold.PLP.part.metal>
0.0000

> <Gold.PLP.part.buried>
-7.0647

> <Gold.PLP.part.nonpolar>
-31.6635

> <Gold.PLP.part.repulsive>
0.5082

> <Gold.PLP.ligand.clash>
0.0000

> <Gold.PLP.ligand.torsion>
0.8653

> <Gold.PLP.Chemscore.Hbond>
2.0000

> <Gold.PLP.Chemscore.CHOScore>
0.0000

> <Gold.PLP.Chemscore.Metal>
0.0000

> <Gold.Chemscore.Hbonds>
donor molecule, donor type, donor heavy atom, donor atom, acceptor molecule, acceptor atom, score
      L1  H     4    26       P1  8028  1.00
      L1  H     7    27       P1  8028  1.00

> <Gold.PLP.Chemscore.Internal.Correction>
0.0251

> <Gold.Rescore>
     Score         DG    S(hbond)    S(metal)    S(lipo)     H(rot)  DE(clash)    DE(int)     intcor
     17.59     -19.86       1.97        0.00      99.00       1.47       0.07       2.20       ----

> <Gold.Chemscore.Fitness>
17.5888

> <Gold.Chemscore.DG>
-19.8645

> <Gold.Chemscore.ZeroCoef>
-5.4800

> <Gold.Chemscore.Hbond>
1.9668

> <Gold.Chemscore.Metal>
0.0000

> <Gold.Chemscore.Lipo>
99.0049

> <Gold.Chemscore.Internal_Hbond>
0.0000

> <Gold.Chemscore.DEClash>
0.0732

> <Gold.Chemscore.DEInternal>
2.2025

> <Gold.Chemscore.Rot>
1.4719

> <Gold.Chemscore.Internal.Correction>
   9.000000E+99

> <Gold.Chemscore.Hbonds>
donor molecule, donor type, donor heavy atom, donor atom, acceptor molecule, acceptor atom, score
      L1  H     4    26       P1  8028  0.97
      L1  H     7    27       P1  8028  0.99

> <Gold.Chemscore.Hbond.Weighted>
-6.5690

> <Gold.Chemscore.Metal.Weighted>
-0.0000

> <Gold.Chemscore.Lipo.Weighted>
-11.5836

> <Gold.Chemscore.Internal_Hbond.Weighted>
0.0000

> <Gold.Chemscore.DEClash.Weighted>
0.0732

> <Gold.Chemscore.DEInternal.Weighted>
2.2025

> <Gold.Chemscore.Rot.Weighted>
3.7681

> <Gold.Chemscore.Internal.Correction.Weighted>
   9.000000E+99

> <Gold.Protein.RotatedTorsions>
[ 6907 6896 6895 6894 ] final -177.34 input  -60.11 | X-H torsion
[ 7974 7965 7964 7962 ] final   65.06 input  175.53 | X-H torsion
[ 8008 7997 7996 7995 ] final -173.08 input   59.86 | X-H torsion
[ 10167 10162 10161 10158 ] final -122.59 input  -65.29 | X-H torsion
[ 10718 10713 10712 10709 ] final -108.62 input   66.30 | X-H torsion
[ 10763 10752 10751 10750 ] final -123.88 input  -60.55 | X-H torsion
[ 11005 11000 10999 10996 ] final   45.24 input  -57.11 | X-H torsion

> <Gold.Protein.ActiveResidues>
 VAL166  LYS551  ARG553  GLY616  TRP617  ASP618  TYR619  PRO620  LYS621  CYS622 
 ASP623  PHE694  ASN695  SER759  ASP760  ASP761  ALA762  ILE779  LEU786  VAL792 
 PHE793  MET794  SER795  GLU796  ALA797  LYS798  CYS799  TRP800  GLU811  SER814 

> <Gold.Protein.RotatedAtoms>
  151.6194  133.3340  159.3084 H   0  0  0  0  0  0  0  0  0  0  0  0  # atno 6907 bound_to 6896
  150.8114  134.7274  159.6702 H   0  0  0  0  0  0  0  0  0  0  0  0  # atno 6908 bound_to 6896
  152.4210  134.5960  160.0038 H   0  0  0  0  0  0  0  0  0  0  0  0  # atno 6909 bound_to 6896
  145.8429  139.3206  143.0921 H   0  0  0  0  0  0  0  0  0  0  0  0  # atno 7974 bound_to 7965
  155.9529  140.1130  157.0962 H   0  0  0  0  0  0  0  0  0  0  0  0  # atno 8008 bound_to 7997
  154.4114  140.1197  156.5143 H   0  0  0  0  0  0  0  0  0  0  0  0  # atno 8009 bound_to 7997
  155.6819  140.3473  155.4861 H   0  0  0  0  0  0  0  0  0  0  0  0  # atno 8010 bound_to 7997
  140.0126  143.5426  152.2256 H   0  0  0  0  0  0  0  0  0  0  0  0  # atno 10167 bound_to 10162
  156.0495  130.5722  150.7986 H   0  0  0  0  0  0  0  0  0  0  0  0  # atno 10718 bound_to 10713
  154.8715  135.4083  154.3015 H   0  0  0  0  0  0  0  0  0  0  0  0  # atno 10763 bound_to 10752
  153.3874  135.7013  153.6526 H   0  0  0  0  0  0  0  0  0  0  0  0  # atno 10764 bound_to 10752
  153.5323  135.3665  155.2652 H   0  0  0  0  0  0  0  0  0  0  0  0  # atno 10765 bound_to 10752
  140.1478  134.4501  155.8403 H   0  0  0  0  0  0  0  0  0  0  0  0  # atno 11005 bound_to 11000
  145.9445  140.8955  143.0291 LP  0  0  0  0  0  0  0  0  0  0  0  0  # atno 17320 bound_to 7965
  144.6732  140.1594  143.7423 LP  0  0  0  0  0  0  0  0  0  0  0  0  # atno 17321 bound_to 7965
  139.6195  144.7626  151.2773 LP  0  0  0  0  0  0  0  0  0  0  0  0  # atno 17342 bound_to 10162
  140.7375  143.6675  150.8110 LP  0  0  0  0  0  0  0  0  0  0  0  0  # atno 17343 bound_to 10162
  157.5406  131.0940  150.9833 LP  0  0  0  0  0  0  0  0  0  0  0  0  # atno 17370 bound_to 10713
  157.0116  130.5639  149.5321 LP  0  0  0  0  0  0  0  0  0  0  0  0  # atno 17371 bound_to 10713
  141.2195  133.6859  156.7365 LP  0  0  0  0  0  0  0  0  0  0  0  0  # atno 17394 bound_to 11000
  140.2642  134.8443  157.3787 LP  0  0  0  0  0  0  0  0  0  0  0  0  # atno 17395 bound_to 11000

$$$$
