#       Name:                AV-unprocessed.smi:676
#       Creating user name   scv26
#       Creation time:       Fri Mar 27 00:27:21 2020


#       File generated by GOLD software.
#

@<TRIPOS>MOLECULE
AV-unprocessed.smi:676
    48    49     1
SMALL
NO_CHARGES


@<TRIPOS>ATOM
      1 ****        -4.0746  -1.5601  -2.9263 C.3            1 S1                 0.0000
      2 ****        -3.4396  -1.5828  -1.6545 O.3            1 S1                 0.0000
      3 ****        -2.8925  -0.3449  -1.1973 C.3            1 S1                 0.0000
      4 ****        -4.0220   0.6612  -0.9259 C.3            1 S1                 0.0000
      5 ****        -1.7038   0.1196  -2.0590 C.3            1 S1                 0.0000
      6 ****        -1.0011   0.4624  -0.7475 C.3            1 S1                 0.0000
      7 ****         0.4314   0.1899  -0.7865 N.am           1 S1                 0.0000
      8 ****         1.2808   0.4707   0.2119 C.2            1 S1                 0.0000
      9 ****         0.9258   0.9990   1.2669 O.2            1 S1                 0.0000
     10 ****         2.7443   0.0693  -0.0208 C.3            1 S1                 0.0000
     11 ****         3.6708   0.6296   0.9770 N.am           1 S1                 0.0000
     12 ****         3.9959  -0.1878   2.0781 C.2            1 S1                 0.0000
     13 ****         4.8235   0.2269   3.0504 C.2            1 S1                 0.0000
     14 ****         5.3884   1.5516   2.9468 C.2            1 S1                 0.0000
     15 ****         5.0810   2.3430   1.8997 C.2            1 S1                 0.0000
     16 ****         4.1732   1.8953   0.8369 C.2            1 S1                 0.0000
     17 ****         3.8825   2.6139  -0.1198 O.2            1 S1                 0.0000
     18 ****        -1.8542  -0.6380  -0.0656 C.3            1 S1                 0.0000
     19 ****        -2.2971  -0.3445   1.3713 C.3            1 S1                 0.0000
     20 ****        -1.2612  -2.0615  -0.0403 C.3            1 S1                 0.0000
     21 ****        -4.3501  -2.5773  -3.2043 H              1 S1                 0.0000
     22 ****        -3.4176  -1.1726  -3.7050 H              1 S1                 0.0000
     23 ****        -4.9906  -0.9699  -2.9129 H              1 S1                 0.0000
     24 ****        -3.6508   1.5709  -0.4545 H              1 S1                 0.0000
     25 ****        -4.7801   0.2378  -0.2668 H              1 S1                 0.0000
     26 ****        -4.5181   0.9738  -1.8443 H              1 S1                 0.0000
     27 ****        -1.2240  -0.6869  -2.6169 H              1 S1                 0.0000
     28 ****        -1.9106   0.9786  -2.6981 H              1 S1                 0.0000
     29 ****        -1.2499   1.4700  -0.4067 H              1 S1                 0.0000
     30 ****         0.7960  -0.2479  -1.6201 H              1 S1                 0.0000
     31 ****         2.8016  -1.0202  -0.0201 H              1 S1                 0.0000
     32 ****         3.0426   0.3698  -1.0269 H              1 S1                 0.0000
     33 ****         3.5253  -1.1604   2.0841 H              1 S1                 0.0000
     34 ****         5.0569  -0.4115   3.8898 H              1 S1                 0.0000
     35 ****         6.0597   1.9105   3.7130 H              1 S1                 0.0000
     36 ****         5.5124   3.3316   1.8395 H              1 S1                 0.0000
     37 ****        -1.4850  -0.5034   2.0816 H              1 S1                 0.0000
     38 ****        -3.1268  -0.9853   1.6707 H              1 S1                 0.0000
     39 ****        -2.6213   0.6885   1.4960 H              1 S1                 0.0000
     40 ****        -0.4143  -2.1335   0.6429 H              1 S1                 0.0000
     41 ****        -0.9073  -2.3806  -1.0208 H              1 S1                 0.0000
     42 ****        -1.9997  -2.7947   0.2857 H              1 S1                 0.0000
     43 ****        -2.6939  -2.2477  -1.6983 LP             1 S1                 0.0000
     44 ****        -4.1156  -1.8839  -0.9819 LP             1 S1                 0.0000
     45 ****        -0.0349   1.2384   1.4077 LP             1 S1                 0.0000
     46 ****         1.5983   1.1884   1.9823 LP             1 S1                 0.0000
     47 ****         3.2604   2.2777  -0.8269 LP             1 S1                 0.0000
     48 ****         4.2686   3.5337  -0.1898 LP             1 S1                 0.0000
@<TRIPOS>BOND
    1    1    2 1     
    2    1   21 1     
    3    1   22 1     
    4    1   23 1     
    5    2    3 1     
    6    3   18 1     
    7    3    4 1     
    8    3    5 1     
    9    4   24 1     
   10    4   25 1     
   11    4   26 1     
   12    5    6 1     
   13    5   27 1     
   14    5   28 1     
   15    6    7 1     
   16    6   18 1     
   17    6   29 1     
   18    7    8 am    
   19    7   30 1     
   20    8    9 2     
   21    8   10 1     
   22   10   11 1     
   23   10   31 1     
   24   10   32 1     
   25   11   16 am    
   26   11   12 1     
   27   12   13 2     
   28   12   33 1     
   29   13   14 1     
   30   13   34 1     
   31   14   15 2     
   32   14   35 1     
   33   15   16 1     
   34   15   36 1     
   35   16   17 2     
   36   18   19 1     
   37   18   20 1     
   38   19   37 1     
   39   19   38 1     
   40   19   39 1     
   41   20   40 1     
   42   20   41 1     
   43   20   42 1     
   44    2   43 1     
   45    2   44 1     
   46    9   45 1     
   47    9   46 1     
   48   17   47 1     
   49   17   48 1     
@<TRIPOS>SUBSTRUCTURE
      1 S1             1
@<TRIPOS>SET
LONE_PAIRS      STATIC     ATOMS    <user>   **** ""
6 43 44 45 46 47 48
DONOR_HYDROGENS      STATIC     ATOMS    <user>   **** ""
1 30
ATOM$BLUE        STATIC     ATOMS    COLORGROUP SYSTEM
6 43 44 45 46 47 48
ATOM$RED        STATIC     ATOMS    COLORGROUP SYSTEM
1 30
