AV-unprocessed.smi:44|AV-procd|sdf|399|dock3
  -GOLD-   2262016253D 1   1.00000     0.00000
 Structure written by MMmdl.
 29 31  0  0  0  0  0  0  0  0  3 V2000
  149.5944  141.2409  154.0375 O   0  0  0  0  0  0  0  0  0  0  0  0
  150.4218  140.7404  154.7965 C   0  0  0  0  0  0  0  0  0  0  0  0
  151.2748  139.6959  154.5440 N   0  5  0  0  0  0  0  0  0  0  0  0
  152.1626  139.2270  155.5060 C   0  0  0  0  0  0  0  0  0  0  0  0
  152.3209  139.6664  156.7040 N   0  0  0  0  0  0  0  0  0  0  0  0
  151.4936  140.7434  157.0570 C   0  0  0  0  0  0  0  0  0  0  0  0
  150.5763  141.2844  156.1865 C   0  0  0  0  0  0  0  0  0  0  0  0
  149.9047  142.3049  156.8035 N   0  3  0  0  0  0  0  0  0  0  0  0
  150.4467  142.3372  158.0209 C   0  0  0  0  0  0  0  0  0  0  0  0
  151.4356  141.4201  158.2498 N   0  0  0  0  0  0  0  0  0  0  0  0
  152.2103  141.1991  159.5125 C   0  0  1  0  0  0  0  0  0  0  0  0
  153.6655  141.6223  159.3076 C   0  0  0  0  0  0  0  0  0  0  0  0
  153.5884  143.0987  159.6237 C   0  0  0  0  0  0  0  0  0  0  0  0
  152.6015  143.1056  160.7915 C   0  0  1  0  0  0  0  0  0  0  0  0
  151.8594  144.4408  160.9523 C   0  0  0  0  0  0  0  0  0  0  0  0
  150.7392  144.2717  161.7931 O   0  0  0  0  0  0  0  0  0  0  0  0
  151.6889  142.0436  160.4989 O   0  0  0  0  0  0  0  0  0  0  0  0
  149.1674  142.8882  156.4293 H   0  0  0  0  0  0  0  0  0  0  0  0
  152.0703  140.1420  159.7412 H   0  0  0  0  0  0  0  0  0  0  0  0
  153.1444  142.8535  161.7044 H   0  0  0  0  0  0  0  0  0  0  0  0
  152.7616  138.3916  155.1350 H   0  0  0  0  0  0  0  0  0  0  0  0
  150.1241  143.0345  158.7722 H   0  0  0  0  0  0  0  0  0  0  0  0
  154.2890  141.1024  160.0363 H   0  0  0  0  0  0  0  0  0  0  0  0
  154.0310  141.3992  158.3050 H   0  0  0  0  0  0  0  0  0  0  0  0
  154.5555  143.5306  159.8827 H   0  0  0  0  0  0  0  0  0  0  0  0
  153.1872  143.6468  158.7696 H   0  0  0  0  0  0  0  0  0  0  0  0
  152.5127  145.1755  161.4240 H   0  0  0  0  0  0  0  0  0  0  0  0
  151.5550  144.8514  159.9899 H   0  0  0  0  0  0  0  0  0  0  0  0
  151.0411  144.0184  162.6522 H   0  0  0  0  0  0  0  0  0  0  0  0
  1  2  2  0  0  0  0
  2  7  1  0  0  0  0
  2  3  1  0  0  0  0
  3  4  1  0  0  0  0
  4 21  1  0  0  0  0
  4  5  2  0  0  0  0
  5  6  1  0  0  0  0
  6 10  1  0  0  0  0
  6  7  2  0  0  0  0
  7  8  1  0  0  0  0
  8  9  2  0  0  0  0
  8 18  1  0  0  0  0
  9 10  1  0  0  0  0
  9 22  1  0  0  0  0
 10 11  1  0  0  0  0
 11 19  1  0  0  0  0
 11 17  1  0  0  0  0
 11 12  1  0  0  0  0
 12 13  1  0  0  0  0
 12 23  1  0  0  0  0
 12 24  1  0  0  0  0
 13 14  1  0  0  0  0
 13 25  1  0  0  0  0
 13 26  1  0  0  0  0
 14 20  1  0  0  0  0
 14 15  1  0  0  0  0
 14 17  1  0  0  0  0
 15 16  1  0  0  0  0
 15 27  1  0  0  0  0
 15 28  1  0  0  0  0
 16 29  1  0  0  0  0
M  CHG  1   3  -1
M  CHG  1   8   1
M  END
> <s_m_source_file>
AV-unprocessed.smi

> <i_m_source_file_index>
44

> <i_lp_mmshare_version>
43012

> <i_f3d_flags>
0

> <s_epik_input>
bjFbY0hdW25IXWMoPU8pYyhjMTIpbltjSF1uMltDQEhdM1tDSDJdW0NIMl1bQ0BIXShPMylbQ0gyXVtPSF0=

> <s_epik_cmdline>
J2VwaWtfcHl0aG9uJywgJy1waCcsICc3LjAnLCAnLXRuJywgJzgnLCAnLW1hJywgJzIwMCcsICctbWV0YWxfYmluZGluZycsICctaW1hZScsICc8aW5maWxlLm1hZT4nLCAnLW9tYWUnLCAnPG91dGZpbGUubWFlPic=

> <r_lp_tautomer_probability>
0.144281

> <r_epik_Ionization_Penalty>
5.63685

> <r_epik_Ionization_Penalty_Charging>
5.58669

> <r_epik_Ionization_Penalty_Neutral>
0.0501585

> <r_epik_State_Penalty>
1.20809

> <r_epik_Charging_Adjusted_Penalty>
6.79478

> <i_epik_Tot_Q>
0

> <i_epik_Tot_abs_Q>
2

> <r_epik_Metal_State_Penalty>
1.52487

> <b_epik_Metal_Only>
0

> <s_epik_Chemistry_Notes>
This compound contains an acetal/aminal-like group ( X-CH(R)-Y where X, Y are N, S, or O) that may be acid/base labile, releasing an aldehyde.

> <s_lp_Force_Field>
OPLS_2005

> <r_lp_Energy>
45.4458

> <b_lp_Chiralities_Consistent>
1

> <s_lp_Variant>
AV-unprocessed.smi:44-5

> <Gold.Version>
5.8.1

> <Gold.Id.Protein>
6NUR|6NUR_protein|mol2

> <Gold.PLP.Fitness>
45.2943

> <Gold.PLP.PLP>
-36.0644

> <Gold.PLP.part.hbond>
-8.7514

> <Gold.PLP.part.metal>
0.0000

> <Gold.PLP.part.buried>
-1.5295

> <Gold.PLP.part.nonpolar>
-24.7328

> <Gold.PLP.part.repulsive>
0.4888

> <Gold.PLP.ligand.clash>
0.0000

> <Gold.PLP.ligand.torsion>
0.2203

> <Gold.PLP.Chemscore.Hbond>
3.2145

> <Gold.PLP.Chemscore.CHOScore>
0.0000

> <Gold.PLP.Chemscore.Metal>
0.0000

> <Gold.Chemscore.Hbonds>
donor molecule, donor type, donor heavy atom, donor atom, acceptor molecule, acceptor atom, score
      L1  H     8    18       P1  8028  1.63
      P1  H  6933  6945       L1    17  0.02
      P1  H  7997  8009       L1     5  0.79
      P1  H  8011  8017       L1     1  0.67

> <Gold.PLP.Chemscore.Internal.Correction>
0.0271

> <Gold.Rescore>
     Score         DG    S(hbond)    S(metal)    S(lipo)     H(rot)  DE(clash)    DE(int)     intcor
      8.96     -11.13       1.59        0.00      52.68       2.27       1.92       0.26       ----

> <Gold.Chemscore.Fitness>
8.9590

> <Gold.Chemscore.DG>
-11.1329

> <Gold.Chemscore.ZeroCoef>
-5.4800

> <Gold.Chemscore.Hbond>
1.5885

> <Gold.Chemscore.Metal>
0.0000

> <Gold.Chemscore.Lipo>
52.6814

> <Gold.Chemscore.Internal_Hbond>
0.0000

> <Gold.Chemscore.DEClash>
1.9156

> <Gold.Chemscore.DEInternal>
0.2583

> <Gold.Chemscore.Rot>
2.2720

> <Gold.Chemscore.Internal.Correction>
   9.000000E+99

> <Gold.Chemscore.Hbonds>
donor molecule, donor type, donor heavy atom, donor atom, acceptor molecule, acceptor atom, score
      L1  H     8    18       P1  8028  0.78
      P1  H  6933  6945       L1    17  0.02
      P1  H  7997  8009       L1     5  0.16
      P1  H  8011  8017       L1     1  0.66

> <Gold.Chemscore.Hbond.Weighted>
-5.3056

> <Gold.Chemscore.Metal.Weighted>
-0.0000

> <Gold.Chemscore.Lipo.Weighted>
-6.1637

> <Gold.Chemscore.Internal_Hbond.Weighted>
0.0000

> <Gold.Chemscore.DEClash.Weighted>
1.9156

> <Gold.Chemscore.DEInternal.Weighted>
0.2583

> <Gold.Chemscore.Rot.Weighted>
5.8164

> <Gold.Chemscore.Internal.Correction.Weighted>
   9.000000E+99

> <Gold.Protein.RotatedTorsions>
[ 6907 6896 6895 6894 ] final   44.33 input  -60.11 | X-H torsion
[ 7974 7965 7964 7962 ] final -131.19 input  175.53 | X-H torsion
[ 8008 7997 7996 7995 ] final  179.01 input   59.86 | X-H torsion
[ 10167 10162 10161 10158 ] final -156.40 input  -65.29 | X-H torsion
[ 10718 10713 10712 10709 ] final  161.47 input   66.30 | X-H torsion
[ 10763 10752 10751 10750 ] final   19.78 input  -60.55 | X-H torsion
[ 11005 11000 10999 10996 ] final -136.94 input  -57.11 | X-H torsion

> <Gold.Protein.ActiveResidues>
 VAL166  LYS551  ARG553  GLY616  TRP617  ASP618  TYR619  PRO620  LYS621  CYS622 
 ASP623  PHE694  ASN695  SER759  ASP760  ASP761  ALA762  ILE779  LEU786  VAL792 
 PHE793  MET794  SER795  GLU796  ALA797  LYS798  CYS799  TRP800  GLU811  SER814 

> <Gold.Protein.RotatedAtoms>
  152.2312  134.8319  160.0473 H   0  0  0  0  0  0  0  0  0  0  0  0  # atno 6907 bound_to 6896
  151.9068  133.3546  159.3858 H   0  0  0  0  0  0  0  0  0  0  0  0  # atno 6908 bound_to 6896
  150.7026  134.4698  159.5464 H   0  0  0  0  0  0  0  0  0  0  0  0  # atno 6909 bound_to 6896
  144.9403  140.7231  143.4851 H   0  0  0  0  0  0  0  0  0  0  0  0  # atno 7974 bound_to 7965
  156.0482  140.1319  157.0080 H   0  0  0  0  0  0  0  0  0  0  0  0  # atno 8008 bound_to 7997
  154.4422  140.1016  156.6407 H   0  0  0  0  0  0  0  0  0  0  0  0  # atno 8009 bound_to 7997
  155.5564  140.3464  155.4483 H   0  0  0  0  0  0  0  0  0  0  0  0  # atno 8010 bound_to 7997
  139.6853  143.9511  152.2358 H   0  0  0  0  0  0  0  0  0  0  0  0  # atno 10167 bound_to 10162
  157.1360  131.0528  151.2349 H   0  0  0  0  0  0  0  0  0  0  0  0  # atno 10718 bound_to 10713
  153.1133  135.6702  153.9462 H   0  0  0  0  0  0  0  0  0  0  0  0  # atno 10763 bound_to 10752
  153.8999  135.3037  155.3450 H   0  0  0  0  0  0  0  0  0  0  0  0  # atno 10764 bound_to 10752
  154.7551  135.5016  153.9438 H   0  0  0  0  0  0  0  0  0  0  0  0  # atno 10765 bound_to 10752
  140.8758  134.1994  157.4623 H   0  0  0  0  0  0  0  0  0  0  0  0  # atno 11005 bound_to 11000
  145.3002  139.1853  143.4694 LP  0  0  0  0  0  0  0  0  0  0  0  0  # atno 17320 bound_to 7965
  146.3283  140.2992  142.8619 LP  0  0  0  0  0  0  0  0  0  0  0  0  # atno 17321 bound_to 7965
  139.9313  144.6740  150.8360 LP  0  0  0  0  0  0  0  0  0  0  0  0  # atno 17342 bound_to 10162
  140.7666  143.3307  151.2416 LP  0  0  0  0  0  0  0  0  0  0  0  0  # atno 17343 bound_to 10162
  157.4350  130.7511  149.7021 LP  0  0  0  0  0  0  0  0  0  0  0  0  # atno 17370 bound_to 10713
  155.9798  130.4036  150.3566 LP  0  0  0  0  0  0  0  0  0  0  0  0  # atno 17371 bound_to 10713
  139.8715  134.9795  156.5038 LP  0  0  0  0  0  0  0  0  0  0  0  0  # atno 17394 bound_to 11000
  140.8520  133.8125  155.9178 LP  0  0  0  0  0  0  0  0  0  0  0  0  # atno 17395 bound_to 11000

$$$$
