AV-unprocessed.smi:1701|AV-procd|sdf|6827|dock2
  -GOLD-   22720 8 03D 1   1.00000     0.00000
 Structure written by MMmdl.
 55 57  0  0  0  0  0  0  0  0  3 V2000
  149.5347  143.1952  158.4910 C   0  0  0  0  0  0  0  0  0  0  0  0
  149.2488  141.7178  158.1851 C   0  0  0  0  0  0  0  0  0  0  0  0
  150.0510  141.1918  157.0808 N   0  0  0  0  0  0  0  0  0  0  0  0
  151.4979  141.4200  157.0704 C   0  0  0  0  0  0  0  0  0  0  0  0
  152.2013  140.9015  158.3344 C   0  0  0  0  0  0  0  0  0  0  0  0
  149.4710  140.3116  156.1352 C   0  0  0  0  0  0  0  0  0  0  0  0
  150.2216  139.5770  155.1830 C   0  0  0  0  0  0  0  0  0  0  0  0
  149.5642  138.7224  154.2749 C   0  0  0  0  0  0  0  0  0  0  0  0
  148.1611  138.5919  154.3214 C   0  0  0  0  0  0  0  0  0  0  0  0
  147.5452  137.7303  153.3739 N   0  0  0  0  0  0  0  0  0  0  0  0
  146.2452  137.3932  153.2590 C   0  0  0  0  0  0  0  0  0  0  0  0
  145.3521  137.7823  154.0072 O   0  0  0  0  0  0  0  0  0  0  0  0
  145.9843  136.5412  152.2510 N   0  0  0  0  0  0  0  0  0  0  0  0
  144.6914  135.9792  151.8520 C   0  0  2  0  0  0  0  0  0  0  0  0
  143.9022  135.4103  153.0246 C   0  0  0  0  0  0  0  0  0  0  0  0
  142.8805  134.4949  152.3435 C   0  0  0  0  0  0  0  0  0  0  0  0
  143.4897  134.0488  151.0667 N   0  3  2  0  0  0  0  0  0  0  0  0
  143.5747  132.5710  150.9219 C   0  0  0  0  0  0  0  0  0  0  0  0
  144.5346  132.1851  149.7866 C   0  0  0  0  0  0  0  0  0  0  0  0
  145.9682  132.6738  150.0678 C   0  0  0  0  0  0  0  0  0  0  0  0
  146.0049  133.8628  151.0468 C   0  0  0  0  0  0  0  0  0  0  0  0
  144.7729  134.7853  150.8787 C   0  0  2  0  0  0  0  0  0  0  0  0
  147.4525  139.3500  155.2829 C   0  0  0  0  0  0  0  0  0  0  0  0
  148.1235  140.1574  156.1320 N   0  3  0  0  0  0  0  0  0  0  0  0
  148.9571  143.5244  159.3549 H   0  0  0  0  0  0  0  0  0  0  0  0
  149.2597  143.8375  157.6553 H   0  0  0  0  0  0  0  0  0  0  0  0
  150.5882  143.3646  158.7140 H   0  0  0  0  0  0  0  0  0  0  0  0
  149.3905  141.1086  159.0776 H   0  0  0  0  0  0  0  0  0  0  0  0
  148.1936  141.6078  157.9331 H   0  0  0  0  0  0  0  0  0  0  0  0
  151.9400  140.9684  156.1818 H   0  0  0  0  0  0  0  0  0  0  0  0
  151.6857  142.4898  156.9751 H   0  0  0  0  0  0  0  0  0  0  0  0
  153.2742  141.0863  158.2773 H   0  0  0  0  0  0  0  0  0  0  0  0
  152.0608  139.8281  158.4621 H   0  0  0  0  0  0  0  0  0  0  0  0
  151.8339  141.3945  159.2334 H   0  0  0  0  0  0  0  0  0  0  0  0
  151.2960  139.6583  155.1216 H   0  0  0  0  0  0  0  0  0  0  0  0
  150.1411  138.1693  153.5479 H   0  0  0  0  0  0  0  0  0  0  0  0
  148.1754  137.2776  152.7290 H   0  0  0  0  0  0  0  0  0  0  0  0
  146.7819  136.2249  151.7177 H   0  0  0  0  0  0  0  0  0  0  0  0
  144.0814  136.7650  151.4012 H   0  0  0  0  0  0  0  0  0  0  0  0
  144.5543  134.8190  153.6695 H   0  0  0  0  0  0  0  0  0  0  0  0
  143.4340  136.1815  153.6372 H   0  0  0  0  0  0  0  0  0  0  0  0
  142.5839  133.6693  152.9918 H   0  0  0  0  0  0  0  0  0  0  0  0
  141.9781  135.0579  152.1029 H   0  0  0  0  0  0  0  0  0  0  0  0
  143.9213  132.1205  151.8538 H   0  0  0  0  0  0  0  0  0  0  0  0
  142.5768  132.1746  150.7323 H   0  0  0  0  0  0  0  0  0  0  0  0
  144.5320  131.1053  149.6342 H   0  0  0  0  0  0  0  0  0  0  0  0
  144.1755  132.6243  148.8548 H   0  0  0  0  0  0  0  0  0  0  0  0
  146.5679  131.8605  150.4777 H   0  0  0  0  0  0  0  0  0  0  0  0
  146.4403  132.9510  149.1245 H   0  0  0  0  0  0  0  0  0  0  0  0
  146.0366  133.4867  152.0704 H   0  0  0  0  0  0  0  0  0  0  0  0
  146.9342  134.4133  150.8986 H   0  0  0  0  0  0  0  0  0  0  0  0
  144.7891  135.1664  149.8565 H   0  0  0  0  0  0  0  0  0  0  0  0
  146.3799  139.3593  155.4052 H   0  0  0  0  0  0  0  0  0  0  0  0
  142.8750  134.3731  150.3334 H   0  0  0  0  0  0  0  0  0  0  0  0
  147.5794  140.6887  156.8120 H   0  0  0  0  0  0  0  0  0  0  0  0
  1  2  1  0  0  0  0
  1 25  1  0  0  0  0
  1 26  1  0  0  0  0
  1 27  1  0  0  0  0
  2  3  1  0  0  0  0
  2 28  1  0  0  0  0
  2 29  1  0  0  0  0
  3  4  1  0  0  0  0
  3  6  1  0  0  0  0
  4  5  1  0  0  0  0
  4 30  1  0  0  0  0
  4 31  1  0  0  0  0
  5 32  1  0  0  0  0
  5 33  1  0  0  0  0
  5 34  1  0  0  0  0
  6 24  1  0  0  0  0
  6  7  2  0  0  0  0
  7  8  1  0  0  0  0
  7 35  1  0  0  0  0
  8  9  2  0  0  0  0
  8 36  1  0  0  0  0
  9 10  1  0  0  0  0
  9 23  1  0  0  0  0
 10 11  1  0  0  0  0
 10 37  1  0  0  0  0
 11 12  2  0  0  0  0
 11 13  1  0  0  0  0
 13 14  1  0  0  0  0
 13 38  1  0  0  0  0
 14 22  1  0  0  0  0
 14 15  1  0  0  0  0
 14 39  1  0  0  0  0
 15 16  1  0  0  0  0
 15 40  1  0  0  0  0
 15 41  1  0  0  0  0
 16 17  1  0  0  0  0
 16 42  1  0  0  0  0
 16 43  1  0  0  0  0
 17 22  1  0  0  0  0
 17 18  1  0  0  0  0
 17 54  1  0  0  0  0
 18 19  1  0  0  0  0
 18 44  1  0  0  0  0
 18 45  1  0  0  0  0
 19 20  1  0  0  0  0
 19 46  1  0  0  0  0
 19 47  1  0  0  0  0
 20 21  1  0  0  0  0
 20 48  1  0  0  0  0
 20 49  1  0  0  0  0
 21 22  1  0  0  0  0
 21 50  1  0  0  0  0
 21 51  1  0  0  0  0
 22 52  1  0  0  0  0
 23 24  2  0  0  0  0
 23 53  1  0  0  0  0
 24 55  1  0  0  0  0
M  CHG  1  17   1
M  CHG  1  24   1
M  END
> <s_m_source_file>
AV-unprocessed.smi

> <i_m_source_file_index>
1701

> <i_lp_mmshare_version>
43012

> <i_f3d_flags>
0

> <s_epik_input>
W0NIM11bQ0gyXU4oW0NIMl1bQ0gzXSljMVtjSF1bY0hdYyhbY0hdbjEpW05IXUMoPU8pW05IXVtDQEhdKFtDSDJdW0NIMl0yKVtDQEBIXShOMjMpW0NIMl1bQ0gyXVtDSDJdW0NIMl0z

> <s_epik_cmdline>
J2VwaWtfcHl0aG9uJywgJy1waCcsICc3LjAnLCAnLXRuJywgJzgnLCAnLW1hJywgJzIwMCcsICctbWV0YWxfYmluZGluZycsICctaW1hZScsICc8aW5maWxlLm1hZT4nLCAnLW9tYWUnLCAnPG91dGZpbGUubWFlPic=

> <r_lp_tautomer_probability>
0.999994

> <r_epik_Ionization_Penalty>
0.302862

> <r_epik_Ionization_Penalty_Charging>
0.302842

> <r_epik_Ionization_Penalty_Neutral>
1.95166e-05

> <r_epik_State_Penalty>
0.019791

> <r_epik_Charging_Adjusted_Penalty>
0.322633

> <i_epik_Tot_Q>
2

> <i_epik_Tot_abs_Q>
2

> <r_epik_Metal_State_Penalty>
0.0536763

> <b_epik_Metal_Only>
0

> <s_lp_Force_Field>
OPLS_2005

> <r_lp_Energy>
67.6643

> <b_lp_Chiralities_Consistent>
1

> <s_lp_Variant>
AV-unprocessed.smi:1701-7

> <Gold.Version>
5.8.1

> <Gold.Id.Protein>
6NUR|6NUR_protein|mol2

> <Gold.PLP.Fitness>
47.2416

> <Gold.PLP.PLP>
-37.2160

> <Gold.PLP.part.hbond>
-3.0000

> <Gold.PLP.part.metal>
0.0000

> <Gold.PLP.part.buried>
-7.1269

> <Gold.PLP.part.nonpolar>
-28.7943

> <Gold.PLP.part.repulsive>
0.1805

> <Gold.PLP.ligand.clash>
0.0000

> <Gold.PLP.ligand.torsion>
0.3979

> <Gold.PLP.Chemscore.Hbond>
3.5560

> <Gold.PLP.Chemscore.CHOScore>
0.0000

> <Gold.PLP.Chemscore.Metal>
0.0000

> <Gold.Chemscore.Hbonds>
donor molecule, donor type, donor heavy atom, donor atom, acceptor molecule, acceptor atom, score
      L1  H    10    37       P1  7948  1.00
      L1  H    13    38       P1  7948  0.57
      L1  H    17    54       P1 10186  1.92

> <Gold.PLP.Chemscore.Internal.Correction>
0.1535

> <Gold.Rescore>
     Score         DG    S(hbond)    S(metal)    S(lipo)     H(rot)  DE(clash)    DE(int)     intcor
     18.25     -20.91       2.30        0.00      94.84       1.30       0.00       2.67       ----

> <Gold.Chemscore.Fitness>
18.2455

> <Gold.Chemscore.DG>
-20.9128

> <Gold.Chemscore.ZeroCoef>
-5.4800

> <Gold.Chemscore.Hbond>
2.2962

> <Gold.Chemscore.Metal>
0.0000

> <Gold.Chemscore.Lipo>
94.8427

> <Gold.Chemscore.Internal_Hbond>
0.0000

> <Gold.Chemscore.DEClash>
0.0004

> <Gold.Chemscore.DEInternal>
2.6669

> <Gold.Chemscore.Rot>
1.3020

> <Gold.Chemscore.Internal.Correction>
   9.000000E+99

> <Gold.Chemscore.Hbonds>
donor molecule, donor type, donor heavy atom, donor atom, acceptor molecule, acceptor atom, score
      L1  H    10    37       P1  7948  0.96
      L1  H    13    38       P1  7948  0.56
      L1  H    17    54       P1 10186  0.65

> <Gold.Chemscore.Hbond.Weighted>
-7.6693

> <Gold.Chemscore.Metal.Weighted>
-0.0000

> <Gold.Chemscore.Lipo.Weighted>
-11.0966

> <Gold.Chemscore.Internal_Hbond.Weighted>
0.0000

> <Gold.Chemscore.DEClash.Weighted>
0.0004

> <Gold.Chemscore.DEInternal.Weighted>
2.6669

> <Gold.Chemscore.Rot.Weighted>
3.3330

> <Gold.Chemscore.Internal.Correction.Weighted>
   9.000000E+99

> <Gold.Protein.RotatedTorsions>
[ 6907 6896 6895 6894 ] final -154.51 input  -60.11 | X-H torsion
[ 7974 7965 7964 7962 ] final   61.19 input  175.53 | X-H torsion
[ 8008 7997 7996 7995 ] final   82.98 input   59.86 | X-H torsion
[ 10167 10162 10161 10158 ] final   -8.62 input  -65.29 | X-H torsion
[ 10718 10713 10712 10709 ] final  117.18 input   66.30 | X-H torsion
[ 10763 10752 10751 10750 ] final  158.79 input  -60.55 | X-H torsion
[ 11005 11000 10999 10996 ] final   45.33 input  -57.11 | X-H torsion

> <Gold.Protein.ActiveResidues>
 VAL166  LYS551  ARG553  GLY616  TRP617  ASP618  TYR619  PRO620  LYS621  CYS622 
 ASP623  PHE694  ASN695  SER759  ASP760  ASP761  ALA762  ILE779  LEU786  VAL792 
 PHE793  MET794  SER795  GLU796  ALA797  LYS798  CYS799  TRP800  GLU811  SER814 

> <Gold.Protein.RotatedAtoms>
  151.2585  133.4314  159.2614 H   0  0  0  0  0  0  0  0  0  0  0  0  # atno 6907 bound_to 6896
  151.0552  134.9700  159.8242 H   0  0  0  0  0  0  0  0  0  0  0  0  # atno 6908 bound_to 6896
  152.5389  134.2538  159.8962 H   0  0  0  0  0  0  0  0  0  0  0  0  # atno 6909 bound_to 6896
  145.8876  139.3488  143.0669 H   0  0  0  0  0  0  0  0  0  0  0  0  # atno 7974 bound_to 7965
  155.9178  140.3423  155.6149 H   0  0  0  0  0  0  0  0  0  0  0  0  # atno 8008 bound_to 7997
  155.7309  140.0795  157.2308 H   0  0  0  0  0  0  0  0  0  0  0  0  # atno 8009 bound_to 7997
  154.4065  140.1588  156.2495 H   0  0  0  0  0  0  0  0  0  0  0  0  # atno 8010 bound_to 7997
  140.7064  143.5949  150.8856 H   0  0  0  0  0  0  0  0  0  0  0  0  # atno 10167 bound_to 10162
  157.6113  131.1034  150.7578 H   0  0  0  0  0  0  0  0  0  0  0  0  # atno 10718 bound_to 10713
  154.2216  135.2782  155.2923 H   0  0  0  0  0  0  0  0  0  0  0  0  # atno 10763 bound_to 10752
  154.5697  135.5622  153.7087 H   0  0  0  0  0  0  0  0  0  0  0  0  # atno 10764 bound_to 10752
  153.0040  135.6318  154.2356 H   0  0  0  0  0  0  0  0  0  0  0  0  # atno 10765 bound_to 10752
  140.1469  134.4511  155.8409 H   0  0  0  0  0  0  0  0  0  0  0  0  # atno 11005 bound_to 11000
  145.8948  140.9281  143.0533 LP  0  0  0  0  0  0  0  0  0  0  0  0  # atno 17320 bound_to 7965
  144.6729  140.0953  143.7463 LP  0  0  0  0  0  0  0  0  0  0  0  0  # atno 17321 bound_to 7965
  139.9674  143.6095  152.2984 LP  0  0  0  0  0  0  0  0  0  0  0  0  # atno 17342 bound_to 10162
  139.6670  144.7662  151.1855 LP  0  0  0  0  0  0  0  0  0  0  0  0  # atno 17343 bound_to 10162
  156.7955  130.4904  149.5378 LP  0  0  0  0  0  0  0  0  0  0  0  0  # atno 17370 bound_to 10713
  156.1217  130.6115  151.0203 LP  0  0  0  0  0  0  0  0  0  0  0  0  # atno 17371 bound_to 10713
  141.2194  133.6856  156.7350 LP  0  0  0  0  0  0  0  0  0  0  0  0  # atno 17394 bound_to 11000
  140.2652  134.8435  157.3796 LP  0  0  0  0  0  0  0  0  0  0  0  0  # atno 17395 bound_to 11000

$$$$
