AV-unprocessed.smi:445|AV-procd|sdf|2589|dock9
  -GOLD-   2262022583D 1   1.00000     0.00000
 Structure written by MMmdl.
 44 45  0  0  0  0  0  0  0  0  3 V2000
  151.7611  141.7968  157.1952 C   0  0  0  0  0  0  0  0  0  0  0  0
  151.5197  142.5239  158.5306 C   0  0  2  0  0  0  0  0  0  0  0  0
  151.4157  144.0462  158.3060 C   0  0  0  0  0  0  0  0  0  0  0  0
  151.1647  144.8030  159.6187 C   0  0  0  0  0  0  0  0  0  0  0  0
  152.2544  144.4888  160.6523 C   0  0  0  0  0  0  0  0  0  0  0  0
  152.3596  142.9770  160.8988 C   0  0  0  0  0  0  0  0  0  0  0  0
  152.6054  142.2005  159.5876 C   0  0  1  0  0  0  0  0  0  0  0  0
  152.6367  140.7656  159.8619 N   0  0  0  0  0  0  0  0  0  0  0  0
  153.7022  139.9659  159.7035 C   0  0  0  0  0  0  0  0  0  0  0  0
  154.8005  140.3713  159.3207 O   0  0  0  0  0  0  0  0  0  0  0  0
  153.4896  138.4868  160.0554 C   0  0  0  0  0  0  0  0  0  0  0  0
  154.4817  137.9722  161.0168 N   0  0  0  0  0  0  0  0  0  0  0  0
  154.8897  138.8567  162.0308 C   0  0  0  0  0  0  0  0  0  0  0  0
  155.7935  138.5103  162.9640 C   0  0  0  0  0  0  0  0  0  0  0  0
  156.2023  139.4415  163.9938 N   0  3  0  0  0  0  0  0  0  0  0  0
  156.7537  139.0044  164.9988 O   0  0  0  0  0  0  0  0  0  0  0  0
  155.9860  140.6392  163.8342 O   0  5  0  0  0  0  0  0  0  0  0  0
  156.3495  137.1742  162.9044 C   0  0  0  0  0  0  0  0  0  0  0  0
  155.9748  136.3049  161.9312 C   0  0  0  0  0  0  0  0  0  0  0  0
  156.5168  134.9308  161.8325 C   0  0  0  0  0  0  0  0  0  0  0  0
  157.5125  134.6681  162.6885 N   0  0  0  0  0  0  0  0  0  0  0  0
  156.1472  134.0430  161.0640 O   0  0  0  0  0  0  0  0  0  0  0  0
  154.9793  136.7013  160.8980 C   0  0  0  0  0  0  0  0  0  0  0  0
  154.5934  135.9765  159.9766 O   0  0  0  0  0  0  0  0  0  0  0  0
  152.7270  142.0676  156.7675 H   0  0  0  0  0  0  0  0  0  0  0  0
  150.9921  142.0521  156.4658 H   0  0  0  0  0  0  0  0  0  0  0  0
  151.7432  140.7135  157.3155 H   0  0  0  0  0  0  0  0  0  0  0  0
  150.5581  142.1831  158.9184 H   0  0  0  0  0  0  0  0  0  0  0  0
  152.3346  144.4141  157.8469 H   0  0  0  0  0  0  0  0  0  0  0  0
  150.6119  144.2653  157.6024 H   0  0  0  0  0  0  0  0  0  0  0  0
  151.1311  145.8762  159.4286 H   0  0  0  0  0  0  0  0  0  0  0  0
  150.1882  144.5285  160.0199 H   0  0  0  0  0  0  0  0  0  0  0  0
  153.2140  144.8704  160.3015 H   0  0  0  0  0  0  0  0  0  0  0  0
  152.0392  145.0042  161.5888 H   0  0  0  0  0  0  0  0  0  0  0  0
  153.1640  142.7815  161.6090 H   0  0  0  0  0  0  0  0  0  0  0  0
  151.4410  142.6241  161.3701 H   0  0  0  0  0  0  0  0  0  0  0  0
  153.5717  142.5049  159.1800 H   0  0  0  0  0  0  0  0  0  0  0  0
  151.7765  140.3477  160.1858 H   0  0  0  0  0  0  0  0  0  0  0  0
  152.4785  138.3761  160.4496 H   0  0  0  0  0  0  0  0  0  0  0  0
  153.5005  137.8888  159.1419 H   0  0  0  0  0  0  0  0  0  0  0  0
  154.4256  139.8316  161.9890 H   0  0  0  0  0  0  0  0  0  0  0  0
  157.0700  136.8928  163.6574 H   0  0  0  0  0  0  0  0  0  0  0  0
  157.9465  133.7566  162.6971 H   0  0  0  0  0  0  0  0  0  0  0  0
  157.8259  135.3866  163.3252 H   0  0  0  0  0  0  0  0  0  0  0  0
  1  2  1  0  0  0  0
  1 25  1  0  0  0  0
  1 26  1  0  0  0  0
  1 27  1  0  0  0  0
  2  7  1  0  0  0  0
  2  3  1  0  0  0  0
  2 28  1  0  0  0  0
  3  4  1  0  0  0  0
  3 29  1  0  0  0  0
  3 30  1  0  0  0  0
  4  5  1  0  0  0  0
  4 31  1  0  0  0  0
  4 32  1  0  0  0  0
  5  6  1  0  0  0  0
  5 33  1  0  0  0  0
  5 34  1  0  0  0  0
  6  7  1  0  0  0  0
  6 35  1  0  0  0  0
  6 36  1  0  0  0  0
  7  8  1  0  0  0  0
  7 37  1  0  0  0  0
  8  9  1  0  0  0  0
  8 38  1  0  0  0  0
  9 10  2  0  0  0  0
  9 11  1  0  0  0  0
 11 12  1  0  0  0  0
 11 39  1  0  0  0  0
 11 40  1  0  0  0  0
 12 23  1  0  0  0  0
 12 13  1  0  0  0  0
 13 14  2  0  0  0  0
 13 41  1  0  0  0  0
 14 15  1  0  0  0  0
 14 18  1  0  0  0  0
 15 16  2  0  0  0  0
 15 17  1  0  0  0  0
 18 19  2  0  0  0  0
 18 42  1  0  0  0  0
 19 20  1  0  0  0  0
 19 23  1  0  0  0  0
 20 21  1  0  0  0  0
 20 22  2  0  0  0  0
 21 43  1  0  0  0  0
 21 44  1  0  0  0  0
 23 24  2  0  0  0  0
M  CHG  1  15   1
M  CHG  1  17  -1
M  END
> <s_m_source_file>
AV-unprocessed.smi

> <i_m_source_file_index>
445

> <i_lp_mmshare_version>
43012

> <i_f3d_flags>
0

> <s_epik_input>
W0NIM11bQ0BASF0xW0NIMl1bQ0gyXVtDSDJdW0NIMl1bQ0BIXTFbTkhdQyg9TylbQ0gyXW4yW2NIXWMoW04rXSg9TylbTy1dKVtjSF1jKGMyPU8pQyg9TylbTkgyXQ==

> <s_epik_cmdline>
J2VwaWtfcHl0aG9uJywgJy1waCcsICc3LjAnLCAnLXRuJywgJzgnLCAnLW1hJywgJzIwMCcsICctbWV0YWxfYmluZGluZycsICctaW1hZScsICc8aW5maWxlLm1hZT4nLCAnLW9tYWUnLCAnPG91dGZpbGUubWFlPic=

> <r_lp_tautomer_probability>
1

> <r_epik_Ionization_Penalty>
2.81321e-06

> <r_epik_Ionization_Penalty_Charging>
2.43777e-12

> <r_epik_Ionization_Penalty_Neutral>
2.81321e-06

> <r_epik_State_Penalty>
-0

> <r_epik_Charging_Adjusted_Penalty>
2.43777e-12

> <i_epik_Tot_Q>
0

> <i_epik_Tot_abs_Q>
2

> <r_epik_Metal_State_Penalty>
-0

> <b_epik_Metal_Only>
0

> <s_lp_Force_Field>
OPLS_2005

> <r_lp_Energy>
28.5082

> <b_lp_Chiralities_Consistent>
1

> <s_lp_Variant>
AV-unprocessed.smi:445-1

> <Gold.Version>
5.8.1

> <Gold.Id.Protein>
6NUR|6NUR_protein|mol2

> <Gold.PLP.Fitness>
42.1953

> <Gold.PLP.PLP>
-37.7188

> <Gold.PLP.part.hbond>
-2.6597

> <Gold.PLP.part.metal>
0.0000

> <Gold.PLP.part.buried>
-5.0907

> <Gold.PLP.part.nonpolar>
-30.1939

> <Gold.PLP.part.repulsive>
0.1859

> <Gold.PLP.ligand.clash>
0.0000

> <Gold.PLP.ligand.torsion>
0.5502

> <Gold.PLP.Chemscore.Hbond>
1.8480

> <Gold.PLP.Chemscore.CHOScore>
0.0000

> <Gold.PLP.Chemscore.Metal>
0.0000

> <Gold.Chemscore.Hbonds>
donor molecule, donor type, donor heavy atom, donor atom, acceptor molecule, acceptor atom, score
      P1  H  7997  8009       L1    10  0.66

> <Gold.PLP.Chemscore.Internal.Correction>
0.0330

> <Gold.Rescore>
     Score         DG    S(hbond)    S(metal)    S(lipo)     H(rot)  DE(clash)    DE(int)     intcor
     17.50     -19.46       1.88        0.00     103.30       1.71       0.06       1.90       ----

> <Gold.Chemscore.Fitness>
17.5004

> <Gold.Chemscore.DG>
-19.4557

> <Gold.Chemscore.ZeroCoef>
-5.4800

> <Gold.Chemscore.Hbond>
1.8782

> <Gold.Chemscore.Metal>
0.0000

> <Gold.Chemscore.Lipo>
103.2979

> <Gold.Chemscore.Internal_Hbond>
0.0000

> <Gold.Chemscore.DEClash>
0.0580

> <Gold.Chemscore.DEInternal>
1.8973

> <Gold.Chemscore.Rot>
1.7123

> <Gold.Chemscore.Internal.Correction>
   9.000000E+99

> <Gold.Chemscore.Hbonds>
donor molecule, donor type, donor heavy atom, donor atom, acceptor molecule, acceptor atom, score
      P1  H  6896  6907       L1    24  0.01
      P1  H  7997  8009       L1    10  0.42

> <Gold.Chemscore.Hbond.Weighted>
-6.2733

> <Gold.Chemscore.Metal.Weighted>
-0.0000

> <Gold.Chemscore.Lipo.Weighted>
-12.0859

> <Gold.Chemscore.Internal_Hbond.Weighted>
0.0000

> <Gold.Chemscore.DEClash.Weighted>
0.0580

> <Gold.Chemscore.DEInternal.Weighted>
1.8973

> <Gold.Chemscore.Rot.Weighted>
4.3835

> <Gold.Chemscore.Internal.Correction.Weighted>
   9.000000E+99

> <Gold.Protein.RotatedTorsions>
[ 6907 6896 6895 6894 ] final   53.63 input  -60.11 | X-H torsion
[ 7974 7965 7964 7962 ] final  119.95 input  175.53 | X-H torsion
[ 8008 7997 7996 7995 ] final  131.95 input   59.86 | X-H torsion
[ 10167 10162 10161 10158 ] final  136.19 input  -65.29 | X-H torsion
[ 10718 10713 10712 10709 ] final  130.28 input   66.30 | X-H torsion
[ 10763 10752 10751 10750 ] final  150.78 input  -60.55 | X-H torsion
[ 11005 11000 10999 10996 ] final   -3.61 input  -57.11 | X-H torsion

> <Gold.Protein.ActiveResidues>
 VAL166  LYS551  ARG553  GLY616  TRP617  ASP618  TYR619  PRO620  LYS621  CYS622 
 ASP623  PHE694  ASN695  SER759  ASP760  ASP761  ALA762  ILE779  LEU786  VAL792 
 PHE793  MET794  SER795  GLU796  ALA797  LYS798  CYS799  TRP800  GLU811  SER814 

> <Gold.Protein.RotatedAtoms>
  152.3356  134.7202  160.0277 H   0  0  0  0  0  0  0  0  0  0  0  0  # atno 6907 bound_to 6896
  151.7604  133.3328  159.3424 H   0  0  0  0  0  0  0  0  0  0  0  0  # atno 6908 bound_to 6896
  150.7449  134.6043  159.6097 H   0  0  0  0  0  0  0  0  0  0  0  0  # atno 6909 bound_to 6896
  145.1370  139.3291  143.4635 H   0  0  0  0  0  0  0  0  0  0  0  0  # atno 7974 bound_to 7965
  156.2977  140.2558  156.3010 H   0  0  0  0  0  0  0  0  0  0  0  0  # atno 8008 bound_to 7997
  154.9418  140.0396  157.2119 H   0  0  0  0  0  0  0  0  0  0  0  0  # atno 8009 bound_to 7997
  154.8119  140.2846  155.5851 H   0  0  0  0  0  0  0  0  0  0  0  0  # atno 8010 bound_to 7997
  139.5189  144.6477  151.5392 H   0  0  0  0  0  0  0  0  0  0  0  0  # atno 10167 bound_to 10162
  157.5076  131.1096  150.9338 H   0  0  0  0  0  0  0  0  0  0  0  0  # atno 10718 bound_to 10713
  154.0930  135.2851  155.3267 H   0  0  0  0  0  0  0  0  0  0  0  0  # atno 10763 bound_to 10752
  154.6607  135.5335  153.8017 H   0  0  0  0  0  0  0  0  0  0  0  0  # atno 10764 bound_to 10752
  153.0406  135.6533  154.1098 H   0  0  0  0  0  0  0  0  0  0  0  0  # atno 10765 bound_to 10752
  140.6712  133.9234  155.8496 H   0  0  0  0  0  0  0  0  0  0  0  0  # atno 11005 bound_to 11000
  146.3509  140.1392  142.8595 LP  0  0  0  0  0  0  0  0  0  0  0  0  # atno 17320 bound_to 7965
  145.0573  140.9062  143.4959 LP  0  0  0  0  0  0  0  0  0  0  0  0  # atno 17321 bound_to 7965
  140.6269  143.9151  150.6572 LP  0  0  0  0  0  0  0  0  0  0  0  0  # atno 17342 bound_to 10162
  140.2443  143.3640  152.1460 LP  0  0  0  0  0  0  0  0  0  0  0  0  # atno 17343 bound_to 10162
  156.9989  130.5592  149.5309 LP  0  0  0  0  0  0  0  0  0  0  0  0  # atno 17370 bound_to 10713
  156.0268  130.5362  150.8429 LP  0  0  0  0  0  0  0  0  0  0  0  0  # atno 17371 bound_to 10713
  141.0390  134.0648  157.3924 LP  0  0  0  0  0  0  0  0  0  0  0  0  # atno 17394 bound_to 11000
  139.8981  135.0153  156.7131 LP  0  0  0  0  0  0  0  0  0  0  0  0  # atno 17395 bound_to 11000

$$$$
