AV-unprocessed.smi:1176|AV-procd|sdf|4952|dock4
  -GOLD-   22720 3543D 1   1.00000     0.00000
 Structure written by MMmdl.
 50 51  0  0  0  0  0  0  0  0  2 V2000
  146.7659  134.0509  151.9224 C   0  0  0  0  0  0  0  0  0  0  0  0
  145.3098  134.4998  152.1161 C   0  0  0  0  0  0  0  0  0  0  0  0
  144.3432  133.4323  151.5762 C   0  0  0  0  0  0  0  0  0  0  0  0
  145.0752  135.8758  151.4555 C   0  0  0  0  0  0  0  0  0  0  0  0
  145.9173  136.9545  152.0352 N   0  3  2  0  0  0  0  0  0  0  0  0
  145.6482  137.1583  153.4825 C   0  0  0  0  0  0  0  0  0  0  0  0
  146.6196  138.1814  154.0943 C   0  0  0  0  0  0  0  0  0  0  0  0
  146.5592  139.5221  153.3407 C   0  0  1  0  0  0  0  0  0  0  0  0
  147.5422  140.4650  153.8653 N   0  0  0  0  0  0  0  0  0  0  0  0
  147.6018  140.8888  155.1370 C   0  0  0  0  0  0  0  0  0  0  0  0
  146.8345  140.4926  156.0153 O   0  0  0  0  0  0  0  0  0  0  0  0
  148.7126  141.8974  155.4607 C   0  0  0  0  0  0  0  0  0  0  0  0
  149.9149  141.2666  156.0203 N   0  0  0  0  0  0  0  0  0  0  0  0
  150.6229  140.3497  155.2645 C   0  0  0  0  0  0  0  0  0  0  0  0
  151.7248  139.7086  155.7113 C   0  0  0  0  0  0  0  0  0  0  0  0
  152.2446  139.9581  157.0503 C   0  0  0  0  0  0  0  0  0  0  0  0
  153.2312  139.3792  157.5067 O   0  0  0  0  0  0  0  0  0  0  0  0
  151.5133  140.9138  157.7955 N   0  0  0  0  0  0  0  0  0  0  0  0
  151.9484  141.2054  159.1458 C   0  0  0  0  0  0  0  0  0  0  0  0
  150.3499  141.5669  157.3293 C   0  0  0  0  0  0  0  0  0  0  0  0
  149.7218  142.3643  158.0302 O   0  0  0  0  0  0  0  0  0  0  0  0
  146.8141  139.2773  151.8455 C   0  0  0  0  0  0  0  0  0  0  0  0
  145.8359  138.2339  151.2804 C   0  0  0  0  0  0  0  0  0  0  0  0
  147.0086  133.9326  150.8658 H   0  0  0  0  0  0  0  0  0  0  0  0
  146.9526  133.0961  152.4152 H   0  0  0  0  0  0  0  0  0  0  0  0
  147.4616  134.7769  152.3439 H   0  0  0  0  0  0  0  0  0  0  0  0
  145.1496  134.5833  153.1906 H   0  0  0  0  0  0  0  0  0  0  0  0
  144.4590  133.2998  150.5000 H   0  0  0  0  0  0  0  0  0  0  0  0
  143.3038  133.6986  151.7697 H   0  0  0  0  0  0  0  0  0  0  0  0
  144.5229  132.4664  152.0494 H   0  0  0  0  0  0  0  0  0  0  0  0
  145.2529  135.8233  150.3800 H   0  0  0  0  0  0  0  0  0  0  0  0
  144.0211  136.1322  151.5735 H   0  0  0  0  0  0  0  0  0  0  0  0
  144.6172  137.4887  153.6193 H   0  0  0  0  0  0  0  0  0  0  0  0
  145.7509  136.2110  154.0135 H   0  0  0  0  0  0  0  0  0  0  0  0
  146.3781  138.3276  155.1478 H   0  0  0  0  0  0  0  0  0  0  0  0
  147.6347  137.7825  154.0629 H   0  0  0  0  0  0  0  0  0  0  0  0
  145.5612  139.9511  153.4523 H   0  0  0  0  0  0  0  0  0  0  0  0
  148.2150  140.8379  153.2109 H   0  0  0  0  0  0  0  0  0  0  0  0
  148.9646  142.4320  154.5438 H   0  0  0  0  0  0  0  0  0  0  0  0
  148.3349  142.6558  156.1491 H   0  0  0  0  0  0  0  0  0  0  0  0
  150.2748  140.1258  154.2666 H   0  0  0  0  0  0  0  0  0  0  0  0
  152.2265  138.9979  155.0711 H   0  0  0  0  0  0  0  0  0  0  0  0
  151.7618  142.2584  159.3624 H   0  0  0  0  0  0  0  0  0  0  0  0
  153.0206  141.0293  159.2385 H   0  0  0  0  0  0  0  0  0  0  0  0
  151.3790  140.5533  159.8093 H   0  0  0  0  0  0  0  0  0  0  0  0
  146.7155  140.2115  151.2911 H   0  0  0  0  0  0  0  0  0  0  0  0
  147.8384  138.9331  151.6930 H   0  0  0  0  0  0  0  0  0  0  0  0
  146.0676  138.0714  150.2288 H   0  0  0  0  0  0  0  0  0  0  0  0
  144.8153  138.6184  151.3218 H   0  0  0  0  0  0  0  0  0  0  0  0
  146.8728  136.6332  151.9716 H   0  0  0  0  0  0  0  0  0  0  0  0
  1  2  1  0  0  0  0
  1 24  1  0  0  0  0
  1 25  1  0  0  0  0
  1 26  1  0  0  0  0
  2  3  1  0  0  0  0
  2  4  1  0  0  0  0
  2 27  1  0  0  0  0
  3 28  1  0  0  0  0
  3 29  1  0  0  0  0
  3 30  1  0  0  0  0
  4  5  1  0  0  0  0
  4 31  1  0  0  0  0
  4 32  1  0  0  0  0
  5 23  1  0  0  0  0
  5  6  1  0  0  0  0
  5 50  1  0  0  0  0
  6  7  1  0  0  0  0
  6 33  1  0  0  0  0
  6 34  1  0  0  0  0
  7  8  1  0  0  0  0
  7 35  1  0  0  0  0
  7 36  1  0  0  0  0
  8  9  1  0  0  0  0
  8 22  1  0  0  0  0
  8 37  1  0  0  0  0
  9 10  1  0  0  0  0
  9 38  1  0  0  0  0
 10 11  2  0  0  0  0
 10 12  1  0  0  0  0
 12 13  1  0  0  0  0
 12 39  1  0  0  0  0
 12 40  1  0  0  0  0
 13 20  1  0  0  0  0
 13 14  1  0  0  0  0
 14 15  2  0  0  0  0
 14 41  1  0  0  0  0
 15 16  1  0  0  0  0
 15 42  1  0  0  0  0
 16 17  2  0  0  0  0
 16 18  1  0  0  0  0
 18 19  1  0  0  0  0
 18 20  1  0  0  0  0
 19 43  1  0  0  0  0
 19 44  1  0  0  0  0
 19 45  1  0  0  0  0
 20 21  2  0  0  0  0
 22 23  1  0  0  0  0
 22 46  1  0  0  0  0
 22 47  1  0  0  0  0
 23 48  1  0  0  0  0
 23 49  1  0  0  0  0
M  CHG  1   5   1
M  END
> <s_m_source_file>
AV-unprocessed.smi

> <i_m_source_file_index>
1176

> <i_lp_mmshare_version>
43012

> <i_f3d_flags>
0

> <s_epik_input>
W0NIM11bQ0hdKFtDSDNdKVtDSDJdTjFbQ0gyXVtDSDJdW0NIXShbQ0gyXVtDSDJdMSlbTkhdQyg9TylbQ0gyXW4yW2NIXVtjSF1jKD1PKW4oW0NIM10pYzI9Tw==

> <s_epik_cmdline>
J2VwaWtfcHl0aG9uJywgJy1waCcsICc3LjAnLCAnLXRuJywgJzgnLCAnLW1hJywgJzIwMCcsICctbWV0YWxfYmluZGluZycsICctaW1hZScsICc8aW5maWxlLm1hZT4nLCAnLW9tYWUnLCAnPG91dGZpbGUubWFlPic=

> <r_lp_tautomer_probability>
1

> <r_epik_Ionization_Penalty>
0.00401429

> <r_epik_Ionization_Penalty_Charging>
0.00401425

> <r_epik_Ionization_Penalty_Neutral>
4.29561e-08

> <r_epik_State_Penalty>
0.00287487

> <r_epik_Charging_Adjusted_Penalty>
0.00688912

> <i_epik_Tot_Q>
1

> <i_epik_Tot_abs_Q>
1

> <r_epik_Metal_State_Penalty>
-0

> <b_epik_Metal_Only>
0

> <s_lp_Force_Field>
OPLS_2005

> <r_lp_Energy>
26.9025

> <b_lp_Chiralities_Consistent>
1

> <s_lp_Variant>
AV-unprocessed.smi:1176-1

> <Gold.Version>
5.8.1

> <Gold.Id.Protein>
6NUR|6NUR_protein|mol2

> <Gold.PLP.Fitness>
51.4431

> <Gold.PLP.PLP>
-37.0800

> <Gold.PLP.part.hbond>
-3.0000

> <Gold.PLP.part.metal>
0.0000

> <Gold.PLP.part.buried>
9.2483

> <Gold.PLP.part.nonpolar>
-43.8466

> <Gold.PLP.part.repulsive>
0.6353

> <Gold.PLP.ligand.clash>
0.0000

> <Gold.PLP.ligand.torsion>
0.3590

> <Gold.PLP.Chemscore.Hbond>
3.9825

> <Gold.PLP.Chemscore.CHOScore>
1.0000

> <Gold.PLP.Chemscore.Metal>
0.0000

> <Gold.Chemscore.Hbonds>
donor molecule, donor type, donor heavy atom, donor atom, acceptor molecule, acceptor atom, score
      L1  H     5    50       P1  7948  1.66
      P1  H  7997  8009       L1    17  1.00

> <Gold.PLP.Chemscore.Internal.Correction>
0.1335

> <Gold.Rescore>
     Score         DG    S(hbond)    S(metal)    S(lipo)     H(rot)  DE(clash)    DE(int)     intcor
     14.51     -19.38       2.53        0.00      88.51       1.92       3.17       1.70       ----

> <Gold.Chemscore.Fitness>
14.5101

> <Gold.Chemscore.DG>
-19.3839

> <Gold.Chemscore.ZeroCoef>
-5.4800

> <Gold.Chemscore.Hbond>
2.5339

> <Gold.Chemscore.Metal>
0.0000

> <Gold.Chemscore.Lipo>
88.5085

> <Gold.Chemscore.Internal_Hbond>
0.0000

> <Gold.Chemscore.DEClash>
3.1730

> <Gold.Chemscore.DEInternal>
1.7009

> <Gold.Chemscore.Rot>
1.9198

> <Gold.Chemscore.Internal.Correction>
   9.000000E+99

> <Gold.Chemscore.Hbonds>
donor molecule, donor type, donor heavy atom, donor atom, acceptor molecule, acceptor atom, score
      L1  H     5    50       P1  7948  0.80
      P1  H  7997  8009       L1    17  0.48

> <Gold.Chemscore.Hbond.Weighted>
-8.4631

> <Gold.Chemscore.Metal.Weighted>
-0.0000

> <Gold.Chemscore.Lipo.Weighted>
-10.3555

> <Gold.Chemscore.Internal_Hbond.Weighted>
0.0000

> <Gold.Chemscore.DEClash.Weighted>
3.1730

> <Gold.Chemscore.DEInternal.Weighted>
1.7009

> <Gold.Chemscore.Rot.Weighted>
4.9147

> <Gold.Chemscore.Internal.Correction.Weighted>
   9.000000E+99

> <Gold.Protein.RotatedTorsions>
[ 6907 6896 6895 6894 ] final -144.58 input  -60.11 | X-H torsion
[ 7974 7965 7964 7962 ] final -131.36 input  175.53 | X-H torsion
[ 8008 7997 7996 7995 ] final  169.23 input   59.86 | X-H torsion
[ 10167 10162 10161 10158 ] final  -92.76 input  -65.29 | X-H torsion
[ 10718 10713 10712 10709 ] final  -20.32 input   66.30 | X-H torsion
[ 10763 10752 10751 10750 ] final   11.00 input  -60.55 | X-H torsion
[ 11005 11000 10999 10996 ] final -128.68 input  -57.11 | X-H torsion

> <Gold.Protein.ActiveResidues>
 VAL166  LYS551  ARG553  GLY616  TRP617  ASP618  TYR619  PRO620  LYS621  CYS622 
 ASP623  PHE694  ASN695  SER759  ASP760  ASP761  ALA762  ILE779  LEU786  VAL792 
 PHE793  MET794  SER795  GLU796  ALA797  LYS798  CYS799  TRP800  GLU811  SER814 

> <Gold.Protein.RotatedAtoms>
  151.1160  133.5138  159.2603 H   0  0  0  0  0  0  0  0  0  0  0  0  # atno 6907 bound_to 6896
  151.1914  135.0403  159.8844 H   0  0  0  0  0  0  0  0  0  0  0  0  # atno 6908 bound_to 6896
  152.5453  134.1000  159.8367 H   0  0  0  0  0  0  0  0  0  0  0  0  # atno 6909 bound_to 6896
  144.9386  140.7213  143.4860 H   0  0  0  0  0  0  0  0  0  0  0  0  # atno 7974 bound_to 7965
  156.1476  140.1569  156.8822 H   0  0  0  0  0  0  0  0  0  0  0  0  # atno 8008 bound_to 7997
  154.5042  140.0817  156.7897 H   0  0  0  0  0  0  0  0  0  0  0  0  # atno 8009 bound_to 7997
  155.3959  140.3412  155.4256 H   0  0  0  0  0  0  0  0  0  0  0  0  # atno 8010 bound_to 7997
  140.3315  143.2992  151.9936 H   0  0  0  0  0  0  0  0  0  0  0  0  # atno 10167 bound_to 10162
  156.5334  130.4660  149.6535 H   0  0  0  0  0  0  0  0  0  0  0  0  # atno 10718 bound_to 10713
  153.1972  135.6851  153.8277 H   0  0  0  0  0  0  0  0  0  0  0  0  # atno 10763 bound_to 10752
  153.7555  135.3217  155.3329 H   0  0  0  0  0  0  0  0  0  0  0  0  # atno 10764 bound_to 10752
  154.8151  135.4691  154.0722 H   0  0  0  0  0  0  0  0  0  0  0  0  # atno 10765 bound_to 10752
  140.9496  134.1084  157.4075 H   0  0  0  0  0  0  0  0  0  0  0  0  # atno 11005 bound_to 11000
  145.3026  139.1845  143.4681 LP  0  0  0  0  0  0  0  0  0  0  0  0  # atno 17320 bound_to 7965
  146.3277  140.3019  142.8621 LP  0  0  0  0  0  0  0  0  0  0  0  0  # atno 17321 bound_to 7965
  139.4855  144.6231  151.7217 LP  0  0  0  0  0  0  0  0  0  0  0  0  # atno 17342 bound_to 10162
  140.5392  144.0606  150.6082 LP  0  0  0  0  0  0  0  0  0  0  0  0  # atno 17343 bound_to 10162
  156.3038  130.7191  151.2069 LP  0  0  0  0  0  0  0  0  0  0  0  0  # atno 17370 bound_to 10713
  157.7418  131.0499  150.5072 LP  0  0  0  0  0  0  0  0  0  0  0  0  # atno 17371 bound_to 10713
  139.8843  135.0062  156.6362 LP  0  0  0  0  0  0  0  0  0  0  0  0  # atno 17394 bound_to 11000
  140.7621  133.8808  155.8426 LP  0  0  0  0  0  0  0  0  0  0  0  0  # atno 17395 bound_to 11000

$$$$
