AV-unprocessed.smi:2674|AV-procd|sdf|10359|dock4
  -GOLD-   2272014383D 1   1.00000     0.00000
 Structure written by MMmdl.
 45 46  0  0  0  0  0  0  0  0  2 V2000
  148.2055  137.3003  155.0026 C   0  0  0  0  0  0  0  0  0  0  0  0
  148.6355  138.2238  153.9189 N   0  3  1  0  0  0  0  0  0  0  0  0
  147.5860  139.2351  153.5960 C   0  0  0  0  0  0  0  0  0  0  0  0
  146.5119  138.7373  152.6045 C   0  0  0  0  0  0  0  0  0  0  0  0
  146.7191  137.3364  152.2532 N   0  0  0  0  0  0  0  0  0  0  0  0
  145.7418  136.4728  151.9397 C   0  0  0  0  0  0  0  0  0  0  0  0
  144.5495  136.7805  151.9238 O   0  0  0  0  0  0  0  0  0  0  0  0
  146.2367  135.2562  151.6511 N   0  0  0  0  0  0  0  0  0  0  0  0
  145.5285  134.1005  151.2259 C   0  0  0  0  0  0  0  0  0  0  0  0
  146.3393  133.0117  150.8331 C   0  0  0  0  0  0  0  0  0  0  0  0
  145.7326  131.8213  150.3875 C   0  0  0  0  0  0  0  0  0  0  0  0
  144.3288  131.7508  150.3458 C   0  0  0  0  0  0  0  0  0  0  0  0
  143.5956  132.8798  150.7549 C   0  0  0  0  0  0  0  0  0  0  0  0
  144.1750  134.0216  151.1821 N   0  0  0  0  0  0  0  0  0  0  0  0
  150.0053  138.7778  154.1835 C   0  0  0  0  0  0  0  0  0  0  0  0
  151.1016  137.7101  154.4497 C   0  0  0  0  0  0  0  0  0  0  0  0
  152.4727  138.3434  154.7376 C   0  0  0  0  0  0  0  0  0  0  0  0
  152.4012  139.3220  155.9161 C   0  0  0  0  0  0  0  0  0  0  0  0
  151.3316  140.3928  155.6680 C   0  0  0  0  0  0  0  0  0  0  0  0
  149.9615  139.7572  155.3833 C   0  0  0  0  0  0  0  0  0  0  0  0
  147.8869  137.8589  155.8838 H   0  0  0  0  0  0  0  0  0  0  0  0
  149.0002  136.6244  155.3128 H   0  0  0  0  0  0  0  0  0  0  0  0
  147.3807  136.6662  154.6800 H   0  0  0  0  0  0  0  0  0  0  0  0
  147.1206  139.5708  154.5240 H   0  0  0  0  0  0  0  0  0  0  0  0
  148.0468  140.1071  153.1332 H   0  0  0  0  0  0  0  0  0  0  0  0
  145.5196  138.8348  153.0459 H   0  0  0  0  0  0  0  0  0  0  0  0
  146.5088  139.3225  151.6844 H   0  0  0  0  0  0  0  0  0  0  0  0
  147.6719  137.0020  152.2470 H   0  0  0  0  0  0  0  0  0  0  0  0
  147.2372  135.1467  151.7273 H   0  0  0  0  0  0  0  0  0  0  0  0
  147.4168  133.0831  150.8703 H   0  0  0  0  0  0  0  0  0  0  0  0
  146.3345  130.9781  150.0825 H   0  0  0  0  0  0  0  0  0  0  0  0
  143.8268  130.8558  150.0094 H   0  0  0  0  0  0  0  0  0  0  0  0
  142.5158  132.8673  150.7378 H   0  0  0  0  0  0  0  0  0  0  0  0
  150.3141  139.3284  153.2927 H   0  0  0  0  0  0  0  0  0  0  0  0
  150.8149  137.0824  155.2949 H   0  0  0  0  0  0  0  0  0  0  0  0
  151.2204  137.0516  153.5887 H   0  0  0  0  0  0  0  0  0  0  0  0
  153.2047  137.5630  154.9491 H   0  0  0  0  0  0  0  0  0  0  0  0
  152.8284  138.8663  153.8488 H   0  0  0  0  0  0  0  0  0  0  0  0
  152.1717  138.7776  156.8330 H   0  0  0  0  0  0  0  0  0  0  0  0
  153.3726  139.7931  156.0700 H   0  0  0  0  0  0  0  0  0  0  0  0
  151.2617  141.0526  156.5335 H   0  0  0  0  0  0  0  0  0  0  0  0
  151.6273  141.0190  154.8252 H   0  0  0  0  0  0  0  0  0  0  0  0
  149.2437  140.5589  155.2170 H   0  0  0  0  0  0  0  0  0  0  0  0
  149.6191  139.2269  156.2733 H   0  0  0  0  0  0  0  0  0  0  0  0
  148.7310  137.6622  153.0849 H   0  0  0  0  0  0  0  0  0  0  0  0
  1  2  1  0  0  0  0
  1 21  1  0  0  0  0
  1 22  1  0  0  0  0
  1 23  1  0  0  0  0
  2  3  1  0  0  0  0
  2 15  1  0  0  0  0
  2 45  1  0  0  0  0
  3  4  1  0  0  0  0
  3 24  1  0  0  0  0
  3 25  1  0  0  0  0
  4  5  1  0  0  0  0
  4 26  1  0  0  0  0
  4 27  1  0  0  0  0
  5  6  1  0  0  0  0
  5 28  1  0  0  0  0
  6  7  2  0  0  0  0
  6  8  1  0  0  0  0
  8  9  1  0  0  0  0
  8 29  1  0  0  0  0
  9 14  1  0  0  0  0
  9 10  2  0  0  0  0
 10 11  1  0  0  0  0
 10 30  1  0  0  0  0
 11 12  2  0  0  0  0
 11 31  1  0  0  0  0
 12 13  1  0  0  0  0
 12 32  1  0  0  0  0
 13 14  2  0  0  0  0
 13 33  1  0  0  0  0
 15 20  1  0  0  0  0
 15 16  1  0  0  0  0
 15 34  1  0  0  0  0
 16 17  1  0  0  0  0
 16 35  1  0  0  0  0
 16 36  1  0  0  0  0
 17 18  1  0  0  0  0
 17 37  1  0  0  0  0
 17 38  1  0  0  0  0
 18 19  1  0  0  0  0
 18 39  1  0  0  0  0
 18 40  1  0  0  0  0
 19 20  1  0  0  0  0
 19 41  1  0  0  0  0
 19 42  1  0  0  0  0
 20 43  1  0  0  0  0
 20 44  1  0  0  0  0
M  CHG  1   2   1
M  END
> <s_m_source_file>
AV-unprocessed.smi

> <i_m_source_file_index>
2674

> <i_lp_mmshare_version>
43012

> <i_f3d_flags>
0

> <s_epik_input>
W0NIMl0xW0NIMl1bQ0gyXVtDSDJdW0NIMl1bQ0hdMU4oW0NIM10pW0NIMl1bQ0gyXVtOSF1DKD1PKVtOSF1jMltjSF1bY0hdW2NIXVtjSF1uMg==

> <s_epik_cmdline>
J2VwaWtfcHl0aG9uJywgJy1waCcsICc3LjAnLCAnLXRuJywgJzgnLCAnLW1hJywgJzIwMCcsICctbWV0YWxfYmluZGluZycsICctaW1hZScsICc8aW5maWxlLm1hZT4nLCAnLW9tYWUnLCAnPG91dGZpbGUubWFlPic=

> <r_epik_Ionization_Penalty>
0.00206741

> <r_epik_Ionization_Penalty_Charging>
0.00203269

> <r_epik_Ionization_Penalty_Neutral>
3.47205e-05

> <r_epik_State_Penalty>
0.00139005

> <r_epik_Charging_Adjusted_Penalty>
0.00342273

> <i_epik_Tot_Q>
1

> <i_epik_Tot_abs_Q>
1

> <r_epik_Metal_State_Penalty>
-0

> <b_epik_Metal_Only>
0

> <s_lp_Force_Field>
OPLS_2005

> <r_lp_Energy>
21.1862

> <b_lp_Chiralities_Consistent>
1

> <s_lp_Variant>
AV-unprocessed.smi:2674-2

> <Gold.Version>
5.8.1

> <Gold.Id.Protein>
6NUR|6NUR_protein|mol2

> <Gold.PLP.Fitness>
51.6105

> <Gold.PLP.PLP>
-39.0161

> <Gold.PLP.part.hbond>
-2.9068

> <Gold.PLP.part.metal>
0.0000

> <Gold.PLP.part.buried>
-3.3125

> <Gold.PLP.part.nonpolar>
-35.5291

> <Gold.PLP.part.repulsive>
2.0189

> <Gold.PLP.ligand.clash>
0.0000

> <Gold.PLP.ligand.torsion>
0.9548

> <Gold.PLP.Chemscore.Hbond>
3.8393

> <Gold.PLP.Chemscore.CHOScore>
0.9493

> <Gold.PLP.Chemscore.Metal>
0.0000

> <Gold.Chemscore.Hbonds>
donor molecule, donor type, donor heavy atom, donor atom, acceptor molecule, acceptor atom, score
      L1  H     2    45       P1  7948  2.00
      L1  H     5    28       P1  7948  1.00
      L1  H     8    29       P1  7948  0.85
      L1  C    13    33       P1 10186  0.97

> <Gold.PLP.Chemscore.Internal.Correction>
0.1384

> <Gold.Rescore>
     Score         DG    S(hbond)    S(metal)    S(lipo)     H(rot)  DE(clash)    DE(int)     intcor
     19.68     -21.93       2.81        0.00      97.64       1.70       0.05       2.20       ----

> <Gold.Chemscore.Fitness>
19.6788

> <Gold.Chemscore.DG>
-21.9296

> <Gold.Chemscore.ZeroCoef>
-5.4800

> <Gold.Chemscore.Hbond>
2.8100

> <Gold.Chemscore.Metal>
0.0000

> <Gold.Chemscore.Lipo>
97.6388

> <Gold.Chemscore.Internal_Hbond>
0.0000

> <Gold.Chemscore.DEClash>
0.0529

> <Gold.Chemscore.DEInternal>
2.1979

> <Gold.Chemscore.Rot>
1.7030

> <Gold.Chemscore.Internal.Correction>
   9.000000E+99

> <Gold.Chemscore.Hbonds>
donor molecule, donor type, donor heavy atom, donor atom, acceptor molecule, acceptor atom, score
      L1  H     2    45       P1  7948  1.00
      L1  H     5    28       P1  7948  0.93
      L1  H     8    29       P1  7948  0.76

> <Gold.Chemscore.Hbond.Weighted>
-9.3855

> <Gold.Chemscore.Metal.Weighted>
-0.0000

> <Gold.Chemscore.Lipo.Weighted>
-11.4237

> <Gold.Chemscore.Internal_Hbond.Weighted>
0.0000

> <Gold.Chemscore.DEClash.Weighted>
0.0529

> <Gold.Chemscore.DEInternal.Weighted>
2.1979

> <Gold.Chemscore.Rot.Weighted>
4.3597

> <Gold.Chemscore.Internal.Correction.Weighted>
   9.000000E+99

> <Gold.Protein.RotatedTorsions>
[ 6907 6896 6895 6894 ] final   24.65 input  -60.11 | X-H torsion
[ 7974 7965 7964 7962 ] final  158.42 input  175.53 | X-H torsion
[ 8008 7997 7996 7995 ] final -164.47 input   59.86 | X-H torsion
[ 10167 10162 10161 10158 ] final -174.17 input  -65.29 | X-H torsion
[ 10718 10713 10712 10709 ] final  158.09 input   66.30 | X-H torsion
[ 10763 10752 10751 10750 ] final -115.06 input  -60.55 | X-H torsion
[ 11005 11000 10999 10996 ] final   28.95 input  -57.11 | X-H torsion

> <Gold.Protein.ActiveResidues>
 VAL166  LYS551  ARG553  GLY616  TRP617  ASP618  TYR619  PRO620  LYS621  CYS622 
 ASP623  PHE694  ASN695  SER759  ASP760  ASP761  ALA762  ILE779  LEU786  VAL792 
 PHE793  MET794  SER795  GLU796  ALA797  LYS798  CYS799  TRP800  GLU811  SER814 

> <Gold.Protein.RotatedAtoms>
  151.9607  135.0125  160.0547 H   0  0  0  0  0  0  0  0  0  0  0  0  # atno 6907 bound_to 6896
  152.1871  133.4742  159.4996 H   0  0  0  0  0  0  0  0  0  0  0  0  # atno 6908 bound_to 6896
  150.6928  134.1677  159.4243 H   0  0  0  0  0  0  0  0  0  0  0  0  # atno 6909 bound_to 6896
  144.7847  139.7476  143.6246 H   0  0  0  0  0  0  0  0  0  0  0  0  # atno 7974 bound_to 7965
  155.8360  140.0941  157.1763 H   0  0  0  0  0  0  0  0  0  0  0  0  # atno 8008 bound_to 7997
  154.3980  140.1410  156.3732 H   0  0  0  0  0  0  0  0  0  0  0  0  # atno 8009 bound_to 7997
  155.8115  140.3449  155.5463 H   0  0  0  0  0  0  0  0  0  0  0  0  # atno 8010 bound_to 7997
  139.5648  144.1781  152.1296 H   0  0  0  0  0  0  0  0  0  0  0  0  # atno 10167 bound_to 10162
  157.1826  131.0636  151.2123 H   0  0  0  0  0  0  0  0  0  0  0  0  # atno 10718 bound_to 10713
  154.8466  135.4395  154.1603 H   0  0  0  0  0  0  0  0  0  0  0  0  # atno 10763 bound_to 10752
  153.2741  135.6948  153.7456 H   0  0  0  0  0  0  0  0  0  0  0  0  # atno 10764 bound_to 10752
  153.6685  135.3423  155.3122 H   0  0  0  0  0  0  0  0  0  0  0  0  # atno 10765 bound_to 10752
  140.3101  134.2659  155.7736 H   0  0  0  0  0  0  0  0  0  0  0  0  # atno 11005 bound_to 11000
  146.2072  139.5405  142.9704 LP  0  0  0  0  0  0  0  0  0  0  0  0  # atno 17320 bound_to 7965
  145.5955  141.0363  143.2047 LP  0  0  0  0  0  0  0  0  0  0  0  0  # atno 17321 bound_to 7965
  140.1302  144.5295  150.6807 LP  0  0  0  0  0  0  0  0  0  0  0  0  # atno 17342 bound_to 10162
  140.6931  143.2387  151.5076 LP  0  0  0  0  0  0  0  0  0  0  0  0  # atno 17343 bound_to 10162
  157.3938  130.7296  149.6716 LP  0  0  0  0  0  0  0  0  0  0  0  0  # atno 17370 bound_to 10713
  155.9722  130.4139  150.4107 LP  0  0  0  0  0  0  0  0  0  0  0  0  # atno 17371 bound_to 10713
  141.2110  133.7703  156.9895 LP  0  0  0  0  0  0  0  0  0  0  0  0  # atno 17394 bound_to 11000
  140.1032  134.9522  157.1955 LP  0  0  0  0  0  0  0  0  0  0  0  0  # atno 17395 bound_to 11000

$$$$
