AV-unprocessed.smi:305|AV-procd|sdf|2280|dock7
  -GOLD-   2262022183D 1   1.00000     0.00000
 Structure written by MMmdl.
 47 49  0  0  0  0  0  0  0  0  1 V2000
  150.3615  133.5438  155.2849 C   0  0  0  0  0  0  0  0  0  0  0  0
  148.9952  134.1987  155.0716 C   0  0  0  0  0  0  0  0  0  0  0  0
  148.7639  135.1320  156.1130 O   0  0  0  0  0  0  0  0  0  0  0  0
  147.4363  135.6279  156.1157 C   0  0  0  0  0  0  0  0  0  0  0  0
  147.2808  136.6214  157.2742 C   0  0  0  0  0  0  0  0  0  0  0  0
  148.5649  137.1764  157.6865 N   0  0  0  0  0  0  0  0  0  0  0  0
  149.1424  137.1329  158.9148 C   0  0  0  0  0  0  0  0  0  0  0  0
  148.5061  136.5031  160.0059 N   0  0  0  0  0  0  0  0  0  0  0  0
  148.2463  137.1994  161.1320 N   0  0  0  0  0  0  0  0  0  0  0  0
  147.6623  136.3330  161.9421 C   0  0  0  0  0  0  0  0  0  0  0  0
  147.2195  136.7824  163.3049 C   0  0  0  0  0  0  0  0  0  0  0  0
  147.5432  135.0387  161.3572 C   0  0  0  0  0  0  0  0  0  0  0  0
  146.9417  133.8049  161.9716 C   0  0  0  0  0  0  0  0  0  0  0  0
  148.0978  135.1866  160.1146 C   0  0  0  0  0  0  0  0  0  0  0  0
  148.2755  134.1972  159.0078 C   0  0  0  0  0  0  0  0  0  0  0  0
  150.3438  137.7126  158.9928 N   0  0  0  0  0  0  0  0  0  0  0  0
  150.5431  138.1798  157.7011 C   0  0  0  0  0  0  0  0  0  0  0  0
  149.4878  137.8694  156.9049 C   0  0  0  0  0  0  0  0  0  0  0  0
  149.4299  138.2437  155.4869 C   0  0  0  0  0  0  0  0  0  0  0  0
  148.4818  137.9725  154.7534 O   0  0  0  0  0  0  0  0  0  0  0  0
  150.5276  138.9218  155.0723 N   0  0  0  0  0  0  0  0  0  0  0  0
  151.6218  139.2681  155.8177 C   0  0  0  0  0  0  0  0  0  0  0  0
  152.5468  139.8928  155.2986 O   0  0  0  0  0  0  0  0  0  0  0  0
  151.6380  138.8957  157.1380 N   0  0  0  0  0  0  0  0  0  0  0  0
  152.7842  139.2397  157.9811 C   0  0  0  0  0  0  0  0  0  0  0  0
  150.5389  139.2055  154.1035 H   0  0  0  0  0  0  0  0  0  0  0  0
  150.5730  132.8193  154.4981 H   0  0  0  0  0  0  0  0  0  0  0  0
  150.3998  133.0208  156.2407 H   0  0  0  0  0  0  0  0  0  0  0  0
  151.1578  134.2884  155.2770 H   0  0  0  0  0  0  0  0  0  0  0  0
  148.9708  134.7017  154.1037 H   0  0  0  0  0  0  0  0  0  0  0  0
  148.2146  133.4366  155.0685 H   0  0  0  0  0  0  0  0  0  0  0  0
  147.2190  136.1168  155.1652 H   0  0  0  0  0  0  0  0  0  0  0  0
  146.7315  134.8029  156.2273 H   0  0  0  0  0  0  0  0  0  0  0  0
  146.6115  137.4327  156.9870 H   0  0  0  0  0  0  0  0  0  0  0  0
  146.8106  136.1405  158.1316 H   0  0  0  0  0  0  0  0  0  0  0  0
  146.1806  136.5069  163.4869 H   0  0  0  0  0  0  0  0  0  0  0  0
  147.2980  137.8642  163.4202 H   0  0  0  0  0  0  0  0  0  0  0  0
  147.8268  136.3205  164.0833 H   0  0  0  0  0  0  0  0  0  0  0  0
  147.5384  132.9168  161.7623 H   0  0  0  0  0  0  0  0  0  0  0  0
  145.9384  133.6162  161.5893 H   0  0  0  0  0  0  0  0  0  0  0  0
  146.8629  133.8852  163.0558 H   0  0  0  0  0  0  0  0  0  0  0  0
  147.7010  133.2901  159.1945 H   0  0  0  0  0  0  0  0  0  0  0  0
  149.3238  133.9163  158.9064 H   0  0  0  0  0  0  0  0  0  0  0  0
  147.9419  134.6111  158.0561 H   0  0  0  0  0  0  0  0  0  0  0  0
  153.7094  138.8597  157.5461 H   0  0  0  0  0  0  0  0  0  0  0  0
  152.7061  138.8239  158.9856 H   0  0  0  0  0  0  0  0  0  0  0  0
  152.8726  140.3225  158.0794 H   0  0  0  0  0  0  0  0  0  0  0  0
  1  2  1  0  0  0  0
  1 27  1  0  0  0  0
  1 28  1  0  0  0  0
  1 29  1  0  0  0  0
  2  3  1  0  0  0  0
  2 30  1  0  0  0  0
  2 31  1  0  0  0  0
  3  4  1  0  0  0  0
  4  5  1  0  0  0  0
  4 32  1  0  0  0  0
  4 33  1  0  0  0  0
  5  6  1  0  0  0  0
  5 34  1  0  0  0  0
  5 35  1  0  0  0  0
  6 18  1  0  0  0  0
  6  7  1  0  0  0  0
  7  8  1  0  0  0  0
  7 16  2  0  0  0  0
  8 14  1  0  0  0  0
  8  9  1  0  0  0  0
  9 10  2  0  0  0  0
 10 11  1  0  0  0  0
 10 12  1  0  0  0  0
 11 36  1  0  0  0  0
 11 37  1  0  0  0  0
 11 38  1  0  0  0  0
 12 13  1  0  0  0  0
 12 14  2  0  0  0  0
 13 39  1  0  0  0  0
 13 40  1  0  0  0  0
 13 41  1  0  0  0  0
 14 15  1  0  0  0  0
 15 42  1  0  0  0  0
 15 43  1  0  0  0  0
 15 44  1  0  0  0  0
 16 17  1  0  0  0  0
 17 24  1  0  0  0  0
 17 18  2  0  0  0  0
 18 19  1  0  0  0  0
 19 20  2  0  0  0  0
 19 21  1  0  0  0  0
 21 26  1  0  0  0  0
 21 22  1  0  0  0  0
 22 23  2  0  0  0  0
 22 24  1  0  0  0  0
 24 25  1  0  0  0  0
 25 45  1  0  0  0  0
 25 46  1  0  0  0  0
 25 47  1  0  0  0  0
M  END
> <s_m_source_file>
AV-unprocessed.smi

> <i_m_source_file_index>
305

> <i_lp_mmshare_version>
43012

> <i_f3d_flags>
0

> <s_epik_input>
W0NIM11uMWMoPU8pW25IXWMoPU8pYyhjMTIpbihbQ0gyXVtDSDJdT1tDSDJdW0NIM10pYyhuMiktbjNuYyhbQ0gzXSljKFtDSDNdKWMzW0NIM10=

> <s_epik_cmdline>
J2VwaWtfcHl0aG9uJywgJy1waCcsICc3LjAnLCAnLXRuJywgJzgnLCAnLW1hJywgJzIwMCcsICctbWV0YWxfYmluZGluZycsICctaW1hZScsICc8aW5maWxlLm1hZT4nLCAnLW9tYWUnLCAnPG91dGZpbGUubWFlPic=

> <r_lp_tautomer_probability>
1

> <r_epik_Ionization_Penalty>
0.00243297

> <r_epik_Ionization_Penalty_Charging>
0.000715499

> <r_epik_Ionization_Penalty_Neutral>
0.00171747

> <r_epik_State_Penalty>
-0

> <r_epik_Charging_Adjusted_Penalty>
0.000715499

> <i_epik_Tot_Q>
0

> <i_epik_Tot_abs_Q>
0

> <r_epik_Metal_State_Penalty>
0.258225

> <b_epik_Metal_Only>
0

> <s_lp_Force_Field>
OPLS_2005

> <r_lp_Energy>
25.4323

> <b_lp_Chiralities_Consistent>
1

> <s_lp_Variant>
AV-unprocessed.smi:305-1

> <Gold.Version>
5.8.1

> <Gold.Id.Protein>
6NUR|6NUR_protein|mol2

> <Gold.PLP.Fitness>
38.7643

> <Gold.PLP.PLP>
-32.5644

> <Gold.PLP.part.hbond>
-3.7660

> <Gold.PLP.part.metal>
0.0000

> <Gold.PLP.part.buried>
-3.2914

> <Gold.PLP.part.nonpolar>
-24.6770

> <Gold.PLP.part.repulsive>
0.2378

> <Gold.PLP.ligand.clash>
0.0000

> <Gold.PLP.ligand.torsion>
1.3777

> <Gold.PLP.Chemscore.Hbond>
2.8223

> <Gold.PLP.Chemscore.CHOScore>
0.0000

> <Gold.PLP.Chemscore.Metal>
0.0000

> <Gold.Chemscore.Hbonds>
donor molecule, donor type, donor heavy atom, donor atom, acceptor molecule, acceptor atom, score
      P1  H  6931  6943       L1     9  0.98
      P1  H  6934  6947       L1     9  0.48
      P1  H  7989  7998       L1    23  0.33
      P1  H  7997  8008       L1    23  1.00

> <Gold.PLP.Chemscore.Internal.Correction>
0.4884

> <Gold.Rescore>
     Score         DG    S(hbond)    S(metal)    S(lipo)     H(rot)  DE(clash)    DE(int)     intcor
     12.26     -16.31       2.62        0.00      53.81       1.65       0.19       3.87       ----

> <Gold.Chemscore.Fitness>
12.2586

> <Gold.Chemscore.DG>
-16.3149

> <Gold.Chemscore.ZeroCoef>
-5.4800

> <Gold.Chemscore.Hbond>
2.6216

> <Gold.Chemscore.Metal>
0.0000

> <Gold.Chemscore.Lipo>
53.8074

> <Gold.Chemscore.Internal_Hbond>
0.0000

> <Gold.Chemscore.DEClash>
0.1889

> <Gold.Chemscore.DEInternal>
3.8674

> <Gold.Chemscore.Rot>
1.6471

> <Gold.Chemscore.Internal.Correction>
   9.000000E+99

> <Gold.Chemscore.Hbonds>
donor molecule, donor type, donor heavy atom, donor atom, acceptor molecule, acceptor atom, score
      P1  H  6931  6943       L1     9  0.73
      P1  H  6934  6947       L1     9  0.40
      P1  H  7989  7998       L1    23  0.18
      P1  H  7997  8008       L1    23  0.92

> <Gold.Chemscore.Hbond.Weighted>
-8.7561

> <Gold.Chemscore.Metal.Weighted>
-0.0000

> <Gold.Chemscore.Lipo.Weighted>
-6.2955

> <Gold.Chemscore.Internal_Hbond.Weighted>
0.0000

> <Gold.Chemscore.DEClash.Weighted>
0.1889

> <Gold.Chemscore.DEInternal.Weighted>
3.8674

> <Gold.Chemscore.Rot.Weighted>
4.2167

> <Gold.Chemscore.Internal.Correction.Weighted>
   9.000000E+99

> <Gold.Protein.RotatedTorsions>
[ 6907 6896 6895 6894 ] final -111.98 input  -60.11 | X-H torsion
[ 7974 7965 7964 7962 ] final   96.62 input  175.53 | X-H torsion
[ 8008 7997 7996 7995 ] final  -36.05 input   59.86 | X-H torsion
[ 10167 10162 10161 10158 ] final  -47.27 input  -65.29 | X-H torsion
[ 10718 10713 10712 10709 ] final  -46.58 input   66.30 | X-H torsion
[ 10763 10752 10751 10750 ] final -126.11 input  -60.55 | X-H torsion
[ 11005 11000 10999 10996 ] final  157.78 input  -57.11 | X-H torsion

> <Gold.Protein.ActiveResidues>
 VAL166  LYS551  ARG553  GLY616  TRP617  ASP618  TYR619  PRO620  LYS621  CYS622 
 ASP623  PHE694  ASN695  SER759  ASP760  ASP761  ALA762  ILE779  LEU786  VAL792 
 PHE793  MET794  SER795  GLU796  ALA797  LYS798  CYS799  TRP800  GLU811  SER814 

> <Gold.Protein.RotatedAtoms>
  150.7727  133.9156  159.3382 H   0  0  0  0  0  0  0  0  0  0  0  0  # atno 6907 bound_to 6896
  151.7038  135.0923  160.0265 H   0  0  0  0  0  0  0  0  0  0  0  0  # atno 6908 bound_to 6896
  152.3751  133.6432  159.6153 H   0  0  0  0  0  0  0  0  0  0  0  0  # atno 6909 bound_to 6896
  145.4364  139.2305  143.3116 H   0  0  0  0  0  0  0  0  0  0  0  0  # atno 7974 bound_to 7965
  154.4081  140.1641  156.2312 H   0  0  0  0  0  0  0  0  0  0  0  0  # atno 8008 bound_to 7997
  155.9281  140.3416  155.6204 H   0  0  0  0  0  0  0  0  0  0  0  0  # atno 8009 bound_to 7997
  155.7140  140.0760  157.2350 H   0  0  0  0  0  0  0  0  0  0  0  0  # atno 8010 bound_to 7997
  140.6782  143.2792  151.3903 H   0  0  0  0  0  0  0  0  0  0  0  0  # atno 10167 bound_to 10162
  156.2169  130.4164  149.9042 H   0  0  0  0  0  0  0  0  0  0  0  0  # atno 10718 bound_to 10713
  154.8742  135.4007  154.3377 H   0  0  0  0  0  0  0  0  0  0  0  0  # atno 10763 bound_to 10752
  153.4181  135.7022  153.6318 H   0  0  0  0  0  0  0  0  0  0  0  0  # atno 10764 bound_to 10752
  153.4992  135.3731  155.2501 H   0  0  0  0  0  0  0  0  0  0  0  0  # atno 10765 bound_to 10752
  140.1802  134.8481  157.2793 H   0  0  0  0  0  0  0  0  0  0  0  0  # atno 11005 bound_to 11000
  146.2579  140.5108  142.8865 LP  0  0  0  0  0  0  0  0  0  0  0  0  # atno 17320 bound_to 7965
  144.8149  140.6451  143.6391 LP  0  0  0  0  0  0  0  0  0  0  0  0  # atno 17321 bound_to 7965
  139.6087  144.1143  152.2276 LP  0  0  0  0  0  0  0  0  0  0  0  0  # atno 17342 bound_to 10162
  140.0550  144.5902  150.7307 LP  0  0  0  0  0  0  0  0  0  0  0  0  # atno 17343 bound_to 10162
  156.6702  130.8817  151.3561 LP  0  0  0  0  0  0  0  0  0  0  0  0  # atno 17370 bound_to 10713
  157.7068  130.9394  150.0956 LP  0  0  0  0  0  0  0  0  0  0  0  0  # atno 17371 bound_to 10713
  140.2276  134.3947  155.7536 LP  0  0  0  0  0  0  0  0  0  0  0  0  # atno 17394 bound_to 11000
  141.2222  133.7198  156.8590 LP  0  0  0  0  0  0  0  0  0  0  0  0  # atno 17395 bound_to 11000

$$$$
