AV-unprocessed.smi:2030|AV-procd|sdf|8224|dock2
  -GOLD-   2272010493D 1   1.00000     0.00000
 Structure written by MMmdl.
 35 36  0  0  0  0  0  0  0  0  1 V2000
  145.8287  142.3006  157.5527 C   0  0  0  0  0  0  0  0  0  0  0  0
  146.5775  142.2118  156.3007 N   0  0  0  0  0  0  0  0  0  0  0  0
  147.8732  141.7570  156.4328 N   0  0  0  0  0  0  0  0  0  0  0  0
  148.5874  141.4074  155.4091 C   0  0  0  0  0  0  0  0  0  0  0  0
  149.9720  140.9048  155.6074 C   0  0  0  0  0  0  0  0  0  0  0  0
  150.5861  140.3527  154.6943 O   0  0  0  0  0  0  0  0  0  0  0  0
  150.4881  141.0813  156.8367 N   0  0  0  0  0  0  0  0  0  0  0  0
  151.7864  140.5883  157.2850 C   0  0  0  0  0  0  0  0  0  0  0  0
  152.0955  140.9903  158.7408 C   0  0  0  0  0  0  0  0  0  0  0  0
  151.9420  142.4798  159.0006 C   0  0  0  0  0  0  0  0  0  0  0  0
  152.2821  143.0316  160.2547 C   0  0  0  0  0  0  0  0  0  0  0  0
  152.0990  144.4136  160.4521 C   0  0  0  0  0  0  0  0  0  0  0  0
  151.5882  145.1877  159.3924 C   0  0  0  0  0  0  0  0  0  0  0  0
  151.2814  144.5421  158.1779 C   0  0  0  0  0  0  0  0  0  0  0  0
  151.4506  143.2169  157.9791 N   0  0  0  0  0  0  0  0  0  0  0  0
  148.0136  141.4762  154.0084 C   0  0  0  0  0  0  0  0  0  0  0  0
  146.9059  142.5421  153.8882 C   0  0  0  0  0  0  0  0  0  0  0  0
  146.0085  142.5893  155.1285 C   0  0  0  0  0  0  0  0  0  0  0  0
  144.8459  142.9806  155.0271 O   0  0  0  0  0  0  0  0  0  0  0  0
  144.9303  141.6839  157.5084 H   0  0  0  0  0  0  0  0  0  0  0  0
  145.5274  143.3306  157.7474 H   0  0  0  0  0  0  0  0  0  0  0  0
  146.4175  141.9627  158.4072 H   0  0  0  0  0  0  0  0  0  0  0  0
  149.9161  141.5490  157.5255 H   0  0  0  0  0  0  0  0  0  0  0  0
  151.8469  139.5056  157.1654 H   0  0  0  0  0  0  0  0  0  0  0  0
  152.5414  141.0138  156.6235 H   0  0  0  0  0  0  0  0  0  0  0  0
  151.4391  140.4442  159.4194 H   0  0  0  0  0  0  0  0  0  0  0  0
  153.1110  140.6863  158.9976 H   0  0  0  0  0  0  0  0  0  0  0  0
  152.6655  142.4092  161.0502 H   0  0  0  0  0  0  0  0  0  0  0  0
  152.3443  144.8706  161.3993 H   0  0  0  0  0  0  0  0  0  0  0  0
  151.4348  146.2505  159.5071 H   0  0  0  0  0  0  0  0  0  0  0  0
  150.8881  145.1049  157.3443 H   0  0  0  0  0  0  0  0  0  0  0  0
  148.7965  141.7068  153.2847 H   0  0  0  0  0  0  0  0  0  0  0  0
  147.6193  140.4974  153.7334 H   0  0  0  0  0  0  0  0  0  0  0  0
  147.3566  143.5287  153.7733 H   0  0  0  0  0  0  0  0  0  0  0  0
  146.3047  142.3657  152.9957 H   0  0  0  0  0  0  0  0  0  0  0  0
  1  2  1  0  0  0  0
  1 20  1  0  0  0  0
  1 21  1  0  0  0  0
  1 22  1  0  0  0  0
  2 18  1  0  0  0  0
  2  3  1  0  0  0  0
  3  4  2  0  0  0  0
  4  5  1  0  0  0  0
  4 16  1  0  0  0  0
  5  6  2  0  0  0  0
  5  7  1  0  0  0  0
  7  8  1  0  0  0  0
  7 23  1  0  0  0  0
  8  9  1  0  0  0  0
  8 24  1  0  0  0  0
  8 25  1  0  0  0  0
  9 10  1  0  0  0  0
  9 26  1  0  0  0  0
  9 27  1  0  0  0  0
 10 15  1  0  0  0  0
 10 11  2  0  0  0  0
 11 12  1  0  0  0  0
 11 28  1  0  0  0  0
 12 13  2  0  0  0  0
 12 29  1  0  0  0  0
 13 14  1  0  0  0  0
 13 30  1  0  0  0  0
 14 15  2  0  0  0  0
 14 31  1  0  0  0  0
 16 17  1  0  0  0  0
 16 32  1  0  0  0  0
 16 33  1  0  0  0  0
 17 18  1  0  0  0  0
 17 34  1  0  0  0  0
 17 35  1  0  0  0  0
 18 19  2  0  0  0  0
M  END
> <s_m_source_file>
AV-unprocessed.smi

> <i_m_source_file_index>
2030

> <i_lp_mmshare_version>
43012

> <i_f3d_flags>
0

> <s_epik_input>
Tz1DMVtDSDJdW0NIMl1DKD1OTjFbQ0gzXSlDKD1PKVtOSF1bQ0gyXVtDSDJdYzJbY0hdW2NIXVtjSF1bY0hdbjI=

> <s_epik_cmdline>
J2VwaWtfcHl0aG9uJywgJy1waCcsICc3LjAnLCAnLXRuJywgJzgnLCAnLW1hJywgJzIwMCcsICctbWV0YWxfYmluZGluZycsICctaW1hZScsICc8aW5maWxlLm1hZT4nLCAnLW9tYWUnLCAnPG91dGZpbGUubWFlPic=

> <r_epik_Ionization_Penalty>
0.0175455

> <r_epik_Ionization_Penalty_Charging>
0

> <r_epik_Ionization_Penalty_Neutral>
0.0175455

> <r_epik_State_Penalty>
0.0138544

> <r_epik_Charging_Adjusted_Penalty>
0.0138544

> <i_epik_Tot_Q>
0

> <i_epik_Tot_abs_Q>
0

> <r_epik_Metal_State_Penalty>
0.0690211

> <b_epik_Metal_Only>
0

> <s_epik_Chemistry_Notes>
This compound has an imine and may undergo hydrolysis.

> <s_lp_Force_Field>
OPLS_2005

> <r_lp_Energy>
15.1803

> <b_lp_Chiralities_Consistent>
1

> <s_lp_Variant>
AV-unprocessed.smi:2030-1

> <Gold.Version>
5.8.1

> <Gold.Id.Protein>
6NUR|6NUR_protein|mol2

> <Gold.PLP.Fitness>
45.5526

> <Gold.PLP.PLP>
-39.7537

> <Gold.PLP.part.hbond>
-1.0000

> <Gold.PLP.part.metal>
0.0000

> <Gold.PLP.part.buried>
-7.9328

> <Gold.PLP.part.nonpolar>
-32.0180

> <Gold.PLP.part.repulsive>
0.5445

> <Gold.PLP.ligand.clash>
0.0000

> <Gold.PLP.ligand.torsion>
0.1038

> <Gold.PLP.Chemscore.Hbond>
1.0000

> <Gold.PLP.Chemscore.CHOScore>
0.9992

> <Gold.PLP.Chemscore.Metal>
0.0000

> <Gold.Chemscore.Hbonds>
donor molecule, donor type, donor heavy atom, donor atom, acceptor molecule, acceptor atom, score
      P1  H  7989  7998       L1     6  1.00
      L1  C    14    31       P1  8028  0.84

> <Gold.PLP.Chemscore.Internal.Correction>
0.0091

> <Gold.Rescore>
     Score         DG    S(hbond)    S(metal)    S(lipo)     H(rot)  DE(clash)    DE(int)     intcor
     14.63     -16.28       0.99        0.00      95.64       1.45       0.02       1.63       ----

> <Gold.Chemscore.Fitness>
14.6273

> <Gold.Chemscore.DG>
-16.2789

> <Gold.Chemscore.ZeroCoef>
-5.4800

> <Gold.Chemscore.Hbond>
0.9929

> <Gold.Chemscore.Metal>
0.0000

> <Gold.Chemscore.Lipo>
95.6362

> <Gold.Chemscore.Internal_Hbond>
0.0000

> <Gold.Chemscore.DEClash>
0.0211

> <Gold.Chemscore.DEInternal>
1.6304

> <Gold.Chemscore.Rot>
1.4480

> <Gold.Chemscore.Internal.Correction>
   9.000000E+99

> <Gold.Chemscore.Hbonds>
donor molecule, donor type, donor heavy atom, donor atom, acceptor molecule, acceptor atom, score
      P1  H  7989  7998       L1     6  0.98

> <Gold.Chemscore.Hbond.Weighted>
-3.3164

> <Gold.Chemscore.Metal.Weighted>
-0.0000

> <Gold.Chemscore.Lipo.Weighted>
-11.1894

> <Gold.Chemscore.Internal_Hbond.Weighted>
0.0000

> <Gold.Chemscore.DEClash.Weighted>
0.0211

> <Gold.Chemscore.DEInternal.Weighted>
1.6304

> <Gold.Chemscore.Rot.Weighted>
3.7070

> <Gold.Chemscore.Internal.Correction.Weighted>
   9.000000E+99

> <Gold.Protein.RotatedTorsions>
[ 6907 6896 6895 6894 ] final -168.11 input  -60.11 | X-H torsion
[ 7974 7965 7964 7962 ] final -118.88 input  175.53 | X-H torsion
[ 8008 7997 7996 7995 ] final -163.36 input   59.86 | X-H torsion
[ 10167 10162 10161 10158 ] final   71.79 input  -65.29 | X-H torsion
[ 10718 10713 10712 10709 ] final   39.10 input   66.30 | X-H torsion
[ 10763 10752 10751 10750 ] final  107.38 input  -60.55 | X-H torsion
[ 11005 11000 10999 10996 ] final -133.40 input  -57.11 | X-H torsion

> <Gold.Protein.ActiveResidues>
 VAL166  LYS551  ARG553  GLY616  TRP617  ASP618  TYR619  PRO620  LYS621  CYS622 
 ASP623  PHE694  ASN695  SER759  ASP760  ASP761  ALA762  ILE779  LEU786  VAL792 
 PHE793  MET794  SER795  GLU796  ALA797  LYS798  CYS799  TRP800  GLU811  SER814 

> <Gold.Protein.RotatedAtoms>
  151.4703  133.3571  159.2822 H   0  0  0  0  0  0  0  0  0  0  0  0  # atno 6907 bound_to 6896
  150.8966  134.8376  159.7341 H   0  0  0  0  0  0  0  0  0  0  0  0  # atno 6908 bound_to 6896
  152.4855  134.4618  159.9659 H   0  0  0  0  0  0  0  0  0  0  0  0  # atno 6909 bound_to 6896
  145.0688  140.8344  143.4108 H   0  0  0  0  0  0  0  0  0  0  0  0  # atno 7974 bound_to 7965
  155.8201  140.0918  157.1854 H   0  0  0  0  0  0  0  0  0  0  0  0  # atno 8008 bound_to 7997
  154.3979  140.1438  156.3550 H   0  0  0  0  0  0  0  0  0  0  0  0  # atno 8009 bound_to 7997
  155.8275  140.3444  155.5554 H   0  0  0  0  0  0  0  0  0  0  0  0  # atno 8010 bound_to 7997
  140.0423  144.5380  150.7425 H   0  0  0  0  0  0  0  0  0  0  0  0  # atno 10167 bound_to 10162
  157.3666  130.7678  149.7087 H   0  0  0  0  0  0  0  0  0  0  0  0  # atno 10718 bound_to 10713
  153.4060  135.3846  155.2019 H   0  0  0  0  0  0  0  0  0  0  0  0  # atno 10763 bound_to 10752
  154.8733  135.3782  154.4560 H   0  0  0  0  0  0  0  0  0  0  0  0  # atno 10764 bound_to 10752
  153.5063  135.7088  153.5867 H   0  0  0  0  0  0  0  0  0  0  0  0  # atno 10765 bound_to 10752
  140.9084  134.1599  157.4408 H   0  0  0  0  0  0  0  0  0  0  0  0  # atno 11005 bound_to 11000
  145.1318  139.2627  143.5535 LP  0  0  0  0  0  0  0  0  0  0  0  0  # atno 17320 bound_to 7965
  146.3528  140.0971  142.8610 LP  0  0  0  0  0  0  0  0  0  0  0  0  # atno 17321 bound_to 7965
  140.7255  143.2631  151.4136 LP  0  0  0  0  0  0  0  0  0  0  0  0  # atno 17342 bound_to 10162
  139.6006  144.1303  152.2194 LP  0  0  0  0  0  0  0  0  0  0  0  0  # atno 17343 bound_to 10162
  155.9747  130.4099  150.3902 LP  0  0  0  0  0  0  0  0  0  0  0  0  # atno 17370 bound_to 10713
  157.1986  131.0432  151.2662 LP  0  0  0  0  0  0  0  0  0  0  0  0  # atno 17371 bound_to 10713
  139.8753  134.9926  156.5604 LP  0  0  0  0  0  0  0  0  0  0  0  0  # atno 17394 bound_to 11000
  140.8141  133.8405  155.8836 LP  0  0  0  0  0  0  0  0  0  0  0  0  # atno 17395 bound_to 11000

$$$$
