#       Name:                AV-unprocessed.smi:1172
#       Creating user name   scv26
#       Creation time:       Fri Mar 27 03:53:05 2020


#       File generated by GOLD software.
#

@<TRIPOS>MOLECULE
AV-unprocessed.smi:1172
    43    44     1
SMALL
NO_CHARGES


@<TRIPOS>ATOM
      1 ****        -5.4070  -1.6042  -0.2648 N.am           1 S1                 0.0000
      2 ****        -5.7183  -0.3053  -0.2395 C.2            1 S1                 0.0000
      3 ****        -6.6235   0.1663  -0.9243 O.2            1 S1                 0.0000
      4 ****        -4.9032   0.5923   0.6938 C.3            1 S1                 0.0000
      5 ****        -3.6013   0.9008   0.1291 N.pl3          1 S1                 0.0000
      6 ****        -2.4257   0.1868   0.2555 C.2            1 S1                 0.0000
      7 ****        -1.4913   0.8823  -0.4583 C.2            1 S1                 0.0000
      8 ****        -0.1167   0.5991  -0.6597 N.am           1 S1                 0.0000
      9 ****         0.5847  -0.4552  -0.2011 C.2            1 S1                 0.0000
     10 ****         0.0661  -1.3969   0.4002 O.2            1 S1                 0.0000
     11 ****         1.9049  -0.4252  -0.5162 N.am           1 S1                 0.0000
     12 ****         2.6659   0.7633  -0.9423 C.3            1 S1                 0.0000
     13 ****         3.5044   1.2681   0.2469 C.3            1 S1                 0.0000
     14 ****         4.4280   0.1561   0.7790 C.3            1 S1                 0.0000
     15 ****         3.6494  -1.1488   1.0421 C.3            1 S1                 0.0000
     16 ****         4.5568  -2.1865   1.3461 O.3            1 S1                 0.0000
     17 ****         2.8040  -1.5393  -0.1861 C.3            1 S1                 0.0000
     18 ****        -2.1699   2.0099  -0.9887 C.2            1 S1                 0.0000
     19 ****        -3.4446   2.0143  -0.6304 N.2            1 S1                 0.0000
     20 ****        -5.9192  -2.2292  -0.8704 H              1 S1                 0.0000
     21 ****        -4.6608  -1.9573   0.3165 H              1 S1                 0.0000
     22 ****        -5.4432   1.5212   0.8849 H              1 S1                 0.0000
     23 ****        -4.7629   0.1007   1.6573 H              1 S1                 0.0000
     24 ****        -2.3697  -0.7266   0.8288 H              1 S1                 0.0000
     25 ****         0.4004   1.2867  -1.1879 H              1 S1                 0.0000
     26 ****         3.3225   0.4896  -1.7694 H              1 S1                 0.0000
     27 ****         2.0461   1.5741  -1.3246 H              1 S1                 0.0000
     28 ****         4.0968   2.1337  -0.0503 H              1 S1                 0.0000
     29 ****         2.8405   1.6057   1.0440 H              1 S1                 0.0000
     30 ****         5.2105  -0.0300   0.0419 H              1 S1                 0.0000
     31 ****         4.9321   0.4881   1.6872 H              1 S1                 0.0000
     32 ****         2.9936  -1.0120   1.9032 H              1 S1                 0.0000
     33 ****         5.1250  -2.3170   0.6023 H              1 S1                 0.0000
     34 ****         2.2654  -2.4692   0.0037 H              1 S1                 0.0000
     35 ****         3.4493  -1.7439  -1.0419 H              1 S1                 0.0000
     36 ****        -1.7891   2.8084  -1.6081 H              1 S1                 0.0000
     37 ****        -7.1560  -0.4279  -1.5271 LP             1 S1                 0.0000
     38 ****        -6.8275   1.1442  -0.8786 LP             1 S1                 0.0000
     39 ****        -0.9198  -1.4012   0.5676 LP             1 S1                 0.0000
     40 ****         0.6310  -2.1572   0.7211 LP             1 S1                 0.0000
     41 ****         4.0534  -3.0291   1.5376 LP             1 S1                 0.0000
     42 ****         5.1013  -1.9345   2.1461 LP             1 S1                 0.0000
     43 ****        -4.1410   2.6915  -0.8680 LP             1 S1                 0.0000
@<TRIPOS>BOND
    1    1    2 am    
    2    1   20 1     
    3    1   21 1     
    4    2    3 2     
    5    2    4 1     
    6    4    5 1     
    7    4   22 1     
    8    4   23 1     
    9    5   19 1     
   10    5    6 1     
   11    6    7 2     
   12    6   24 1     
   13    7    8 1     
   14    7   18 1     
   15    8    9 am    
   16    8   25 1     
   17    9   10 2     
   18    9   11 am    
   19   11   17 1     
   20   11   12 1     
   21   12   13 1     
   22   12   26 1     
   23   12   27 1     
   24   13   14 1     
   25   13   28 1     
   26   13   29 1     
   27   14   15 1     
   28   14   30 1     
   29   14   31 1     
   30   15   16 1     
   31   15   17 1     
   32   15   32 1     
   33   16   33 1     
   34   17   34 1     
   35   17   35 1     
   36   18   19 2     
   37   18   36 1     
   38    3   37 1     
   39    3   38 1     
   40   10   39 1     
   41   10   40 1     
   42   16   41 1     
   43   16   42 1     
   44   19   43 1     
@<TRIPOS>SUBSTRUCTURE
      1 S1             1
@<TRIPOS>SET
LONE_PAIRS      STATIC     ATOMS    <user>   **** ""
7 37 38 39 40 41 42 43
DONOR_HYDROGENS      STATIC     ATOMS    <user>   **** ""
4 20 21 25 33
ATOM$BLUE        STATIC     ATOMS    COLORGROUP SYSTEM
7 37 38 39 40 41 42 43
ATOM$RED        STATIC     ATOMS    COLORGROUP SYSTEM
4 20 21 25 33
