AV-unprocessed.smi:2336|AV-procd|sdf|9329|dock5
  -GOLD-   2272012553D 1   1.00000     0.00000
 Structure written by MMmdl.
 50 51  0  0  0  0  0  0  0  0  2 V2000
  147.1957  140.2496  155.6931 C   0  0  0  0  0  0  0  0  0  0  0  0
  147.7582  140.4220  154.2691 C   0  0  0  0  0  0  0  0  0  0  0  0
  146.8622  141.4127  153.4988 C   0  0  0  0  0  0  0  0  0  0  0  0
  147.9204  139.0731  153.5079 C   0  0  2  0  0  0  0  0  0  0  0  0
  146.5733  138.3112  153.3409 C   0  0  0  0  0  0  0  0  0  0  0  0
  146.6927  137.0975  152.5369 N   0  0  0  0  0  0  0  0  0  0  0  0
  145.7289  136.1847  152.3474 C   0  0  0  0  0  0  0  0  0  0  0  0
  144.6040  136.2720  152.8385 O   0  0  0  0  0  0  0  0  0  0  0  0
  146.1711  135.1664  151.5904 N   0  0  0  0  0  0  0  0  0  0  0  0
  145.4728  134.0011  151.1714 C   0  0  0  0  0  0  0  0  0  0  0  0
  144.1195  133.9923  150.7548 C   0  0  0  0  0  0  0  0  0  0  0  0
  143.5493  132.7714  150.3413 C   0  0  0  0  0  0  0  0  0  0  0  0
  144.2278  131.6048  150.3134 N   0  0  0  0  0  0  0  0  0  0  0  0
  145.5212  131.6195  150.6995 C   0  0  0  0  0  0  0  0  0  0  0  0
  146.1868  132.7850  151.1302 C   0  0  0  0  0  0  0  0  0  0  0  0
  147.4890  132.7321  151.5017 F   0  0  0  0  0  0  0  0  0  0  0  0
  149.0063  138.2607  154.1435 N   0  3  0  0  0  0  0  0  0  0  0  0
  148.6344  137.5733  155.4061 C   0  0  0  0  0  0  0  0  0  0  0  0
  149.7348  136.5709  155.8109 C   0  0  0  0  0  0  0  0  0  0  0  0
  151.0450  137.2117  155.9408 N   0  0  0  0  0  0  0  0  0  0  0  0
  151.1446  138.0840  157.1066 C   0  0  0  0  0  0  0  0  0  0  0  0
  151.3994  137.8827  154.6883 C   0  0  0  0  0  0  0  0  0  0  0  0
  150.3354  138.9139  154.2607 C   0  0  0  0  0  0  0  0  0  0  0  0
  146.2553  139.6973  155.6857 H   0  0  0  0  0  0  0  0  0  0  0  0
  147.0055  141.2168  156.1593 H   0  0  0  0  0  0  0  0  0  0  0  0
  147.8921  139.7258  156.3474 H   0  0  0  0  0  0  0  0  0  0  0  0
  148.7405  140.8840  154.3724 H   0  0  0  0  0  0  0  0  0  0  0  0
  145.8671  140.9989  153.3313 H   0  0  0  0  0  0  0  0  0  0  0  0
  147.2821  141.6779  152.5286 H   0  0  0  0  0  0  0  0  0  0  0  0
  146.7415  142.3444  154.0523 H   0  0  0  0  0  0  0  0  0  0  0  0
  148.2628  139.3347  152.5054 H   0  0  0  0  0  0  0  0  0  0  0  0
  146.1318  138.1086  154.3178 H   0  0  0  0  0  0  0  0  0  0  0  0
  145.8520  138.9332  152.8134 H   0  0  0  0  0  0  0  0  0  0  0  0
  147.5825  136.9412  152.0858 H   0  0  0  0  0  0  0  0  0  0  0  0
  147.1456  135.1961  151.3288 H   0  0  0  0  0  0  0  0  0  0  0  0
  143.5167  134.8868  150.7296 H   0  0  0  0  0  0  0  0  0  0  0  0
  142.5198  132.7331  150.0169 H   0  0  0  0  0  0  0  0  0  0  0  0
  146.0420  130.6740  150.6620 H   0  0  0  0  0  0  0  0  0  0  0  0
  148.4596  138.2844  156.2109 H   0  0  0  0  0  0  0  0  0  0  0  0
  147.6998  137.0303  155.2631 H   0  0  0  0  0  0  0  0  0  0  0  0
  149.4739  136.0770  156.7477 H   0  0  0  0  0  0  0  0  0  0  0  0
  149.8067  135.7848  155.0577 H   0  0  0  0  0  0  0  0  0  0  0  0
  152.1562  138.4821  157.1937 H   0  0  0  0  0  0  0  0  0  0  0  0
  150.9317  137.5227  158.0170 H   0  0  0  0  0  0  0  0  0  0  0  0
  150.4554  138.9266  157.0630 H   0  0  0  0  0  0  0  0  0  0  0  0
  152.3734  138.3622  154.7926 H   0  0  0  0  0  0  0  0  0  0  0  0
  151.5088  137.1273  153.9088 H   0  0  0  0  0  0  0  0  0  0  0  0
  150.6223  139.3425  153.3009 H   0  0  0  0  0  0  0  0  0  0  0  0
  150.3066  139.7380  154.9700 H   0  0  0  0  0  0  0  0  0  0  0  0
  149.1491  137.5020  153.4923 H   0  0  0  0  0  0  0  0  0  0  0  0
  1  2  1  0  0  0  0
  1 24  1  0  0  0  0
  1 25  1  0  0  0  0
  1 26  1  0  0  0  0
  2  3  1  0  0  0  0
  2  4  1  0  0  0  0
  2 27  1  0  0  0  0
  3 28  1  0  0  0  0
  3 29  1  0  0  0  0
  3 30  1  0  0  0  0
  4  5  1  0  0  0  0
  4 17  1  0  0  0  0
  4 31  1  0  0  0  0
  5  6  1  0  0  0  0
  5 32  1  0  0  0  0
  5 33  1  0  0  0  0
  6  7  1  0  0  0  0
  6 34  1  0  0  0  0
  7  8  2  0  0  0  0
  7  9  1  0  0  0  0
  9 10  1  0  0  0  0
  9 35  1  0  0  0  0
 10 15  1  0  0  0  0
 10 11  2  0  0  0  0
 11 12  1  0  0  0  0
 11 36  1  0  0  0  0
 12 13  2  0  0  0  0
 12 37  1  0  0  0  0
 13 14  1  0  0  0  0
 14 15  2  0  0  0  0
 14 38  1  0  0  0  0
 15 16  1  0  0  0  0
 17 23  1  0  0  0  0
 17 18  1  0  0  0  0
 17 50  1  0  0  0  0
 18 19  1  0  0  0  0
 18 39  1  0  0  0  0
 18 40  1  0  0  0  0
 19 20  1  0  0  0  0
 19 41  1  0  0  0  0
 19 42  1  0  0  0  0
 20 21  1  0  0  0  0
 20 22  1  0  0  0  0
 21 43  1  0  0  0  0
 21 44  1  0  0  0  0
 21 45  1  0  0  0  0
 22 23  1  0  0  0  0
 22 46  1  0  0  0  0
 22 47  1  0  0  0  0
 23 48  1  0  0  0  0
 23 49  1  0  0  0  0
M  CHG  1  17   1
M  END
> <s_m_source_file>
AV-unprocessed.smi

> <i_m_source_file_index>
2336

> <i_lp_mmshare_version>
43012

> <i_f3d_flags>
0

> <s_epik_input>
W0NIMl0xW0NIMl1OKFtDSDNdKVtDSDJdW0NIMl1OMVtDQEhdKFtDSF0oW0NIM10pW0NIM10pW0NIMl1bTkhdQyg9TylbTkhdYzJbY0hdW2NIXW5bY0hdYzJG

> <s_epik_cmdline>
J2VwaWtfcHl0aG9uJywgJy1waCcsICc3LjAnLCAnLXRuJywgJzgnLCAnLW1hJywgJzIwMCcsICctbWV0YWxfYmluZGluZycsICctaW1hZScsICc8aW5maWxlLm1hZT4nLCAnLW9tYWUnLCAnPG91dGZpbGUubWFlPic=

> <r_epik_Ionization_Penalty>
0.204575

> <r_epik_Ionization_Penalty_Charging>
0.20006

> <r_epik_Ionization_Penalty_Neutral>
0.00451444

> <r_epik_State_Penalty>
1.43207

> <r_epik_Charging_Adjusted_Penalty>
1.63213

> <i_epik_Tot_Q>
1

> <i_epik_Tot_abs_Q>
1

> <r_epik_Metal_State_Penalty>
1.43277

> <b_epik_Metal_Only>
0

> <s_lp_Force_Field>
OPLS_2005

> <r_lp_Energy>
38.6222

> <b_lp_Chiralities_Consistent>
1

> <s_lp_Variant>
AV-unprocessed.smi:2336-3

> <Gold.Version>
5.8.1

> <Gold.Id.Protein>
6NUR|6NUR_protein|mol2

> <Gold.PLP.Fitness>
46.2137

> <Gold.PLP.PLP>
-32.2226

> <Gold.PLP.part.hbond>
-3.2466

> <Gold.PLP.part.metal>
0.0000

> <Gold.PLP.part.buried>
-1.0951

> <Gold.PLP.part.nonpolar>
-27.4883

> <Gold.PLP.part.repulsive>
0.4094

> <Gold.PLP.ligand.clash>
0.0000

> <Gold.PLP.ligand.torsion>
0.4816

> <Gold.PLP.Chemscore.Hbond>
3.7293

> <Gold.PLP.Chemscore.CHOScore>
1.1825

> <Gold.PLP.Chemscore.Metal>
0.0000

> <Gold.Chemscore.Hbonds>
donor molecule, donor type, donor heavy atom, donor atom, acceptor molecule, acceptor atom, score
      L1  H     6    34       P1  7948  1.00
      L1  H     9    35       P1  7948  0.69
      L1  H    17    50       P1  7948  1.89
      P1  H 10785 10796       L1    13  0.09
      L1  C    12    37       P1 10186  1.00

> <Gold.PLP.Chemscore.Internal.Correction>
0.2186

> <Gold.Rescore>
     Score         DG    S(hbond)    S(metal)    S(lipo)     H(rot)  DE(clash)    DE(int)     intcor
     18.58     -19.85       2.50        0.00      88.00       1.67       0.74       0.53       ----

> <Gold.Chemscore.Fitness>
18.5791

> <Gold.Chemscore.DG>
-19.8461

> <Gold.Chemscore.ZeroCoef>
-5.4800

> <Gold.Chemscore.Hbond>
2.5017

> <Gold.Chemscore.Metal>
0.0000

> <Gold.Chemscore.Lipo>
87.9963

> <Gold.Chemscore.Internal_Hbond>
0.0000

> <Gold.Chemscore.DEClash>
0.7417

> <Gold.Chemscore.DEInternal>
0.5253

> <Gold.Chemscore.Rot>
1.6739

> <Gold.Chemscore.Internal.Correction>
   9.000000E+99

> <Gold.Chemscore.Hbonds>
donor molecule, donor type, donor heavy atom, donor atom, acceptor molecule, acceptor atom, score
      L1  H     6    34       P1  7948  0.93
      L1  H     9    35       P1  7948  0.55
      L1  H    17    50       P1  7948  0.90
      P1  H 10785 10796       L1    13  0.08

> <Gold.Chemscore.Hbond.Weighted>
-8.3556

> <Gold.Chemscore.Metal.Weighted>
-0.0000

> <Gold.Chemscore.Lipo.Weighted>
-10.2956

> <Gold.Chemscore.Internal_Hbond.Weighted>
0.0000

> <Gold.Chemscore.DEClash.Weighted>
0.7417

> <Gold.Chemscore.DEInternal.Weighted>
0.5253

> <Gold.Chemscore.Rot.Weighted>
4.2851

> <Gold.Chemscore.Internal.Correction.Weighted>
   9.000000E+99

> <Gold.Protein.RotatedTorsions>
[ 6907 6896 6895 6894 ] final  -11.25 input  -60.11 | X-H torsion
[ 7974 7965 7964 7962 ] final  -32.47 input  175.53 | X-H torsion
[ 8008 7997 7996 7995 ] final  -71.91 input   59.86 | X-H torsion
[ 10167 10162 10161 10158 ] final   16.73 input  -65.29 | X-H torsion
[ 10718 10713 10712 10709 ] final    7.23 input   66.30 | X-H torsion
[ 10763 10752 10751 10750 ] final  134.14 input  -60.55 | X-H torsion
[ 11005 11000 10999 10996 ] final  -90.54 input  -57.11 | X-H torsion

> <Gold.Protein.ActiveResidues>
 VAL166  LYS551  ARG553  GLY616  TRP617  ASP618  TYR619  PRO620  LYS621  CYS622 
 ASP623  PHE694  ASN695  SER759  ASP760  ASP761  ALA762  ILE779  LEU786  VAL792 
 PHE793  MET794  SER795  GLU796  ALA797  LYS798  CYS799  TRP800  GLU811  SER814 

> <Gold.Protein.RotatedAtoms>
  151.3892  135.0953  159.9520 H   0  0  0  0  0  0  0  0  0  0  0  0  # atno 6907 bound_to 6896
  152.5085  133.8997  159.7445 H   0  0  0  0  0  0  0  0  0  0  0  0  # atno 6908 bound_to 6896
  150.9446  133.6561  159.2812 H   0  0  0  0  0  0  0  0  0  0  0  0  # atno 6909 bound_to 6896
  146.0987  140.5796  142.8831 H   0  0  0  0  0  0  0  0  0  0  0  0  # atno 7974 bound_to 7965
  154.5124  140.0807  156.8016 H   0  0  0  0  0  0  0  0  0  0  0  0  # atno 8008 bound_to 7997
  155.3754  140.3425  155.4226 H   0  0  0  0  0  0  0  0  0  0  0  0  # atno 8009 bound_to 7997
  156.1589  140.1582  156.8633 H   0  0  0  0  0  0  0  0  0  0  0  0  # atno 8010 bound_to 7997
  140.5776  143.9042  150.6763 H   0  0  0  0  0  0  0  0  0  0  0  0  # atno 10167 bound_to 10162
  156.9339  130.5836  149.5650 H   0  0  0  0  0  0  0  0  0  0  0  0  # atno 10718 bound_to 10713
  153.8187  135.3119  155.3408 H   0  0  0  0  0  0  0  0  0  0  0  0  # atno 10763 bound_to 10752
  154.8022  135.4720  154.0306 H   0  0  0  0  0  0  0  0  0  0  0  0  # atno 10764 bound_to 10752
  153.1707  135.6877  153.8701 H   0  0  0  0  0  0  0  0  0  0  0  0  # atno 10765 bound_to 10752
  141.1563  133.7698  156.9752 H   0  0  0  0  0  0  0  0  0  0  0  0  # atno 11005 bound_to 11000
  144.7416  140.4956  143.6865 LP  0  0  0  0  0  0  0  0  0  0  0  0  # atno 17320 bound_to 7965
  145.5897  139.1494  143.3189 LP  0  0  0  0  0  0  0  0  0  0  0  0  # atno 17321 bound_to 7965
  140.2533  143.3577  152.1386 LP  0  0  0  0  0  0  0  0  0  0  0  0  # atno 17342 bound_to 10162
  139.5151  144.6959  151.5633 LP  0  0  0  0  0  0  0  0  0  0  0  0  # atno 17343 bound_to 10162
  156.0435  130.5514  150.8826 LP  0  0  0  0  0  0  0  0  0  0  0  0  # atno 17370 bound_to 10713
  157.5829  131.0946  150.9242 LP  0  0  0  0  0  0  0  0  0  0  0  0  # atno 17371 bound_to 10713
  140.1103  134.9481  157.2055 LP  0  0  0  0  0  0  0  0  0  0  0  0  # atno 17394 bound_to 11000
  140.3203  134.2924  155.7248 LP  0  0  0  0  0  0  0  0  0  0  0  0  # atno 17395 bound_to 11000

$$$$
