AV-unprocessed.smi:2009|AV-procd|sdf|8146|dock3
  -GOLD-   2272010383D 1   1.00000     0.00000
 Structure written by MMmdl.
 38 39  0  0  0  0  0  0  0  0  1 V2000
  150.2615  137.1483  156.7770 C   0  0  0  0  0  0  0  0  0  0  0  0
  151.2827  138.0552  156.0738 C   0  0  1  0  0  0  0  0  0  0  0  0
  150.9713  138.2881  154.5773 C   0  0  0  0  0  0  0  0  0  0  0  0
  149.9209  139.2655  154.3401 N   0  0  0  0  0  0  0  0  0  0  0  0
  148.6954  139.0786  153.7351 C   0  0  0  0  0  0  0  0  0  0  0  0
  148.0538  140.2839  153.7340 C   0  0  0  0  0  0  0  0  0  0  0  0
  148.9804  141.1605  154.3643 C   0  0  0  0  0  0  0  0  0  0  0  0
  150.0976  140.5494  154.7225 N   0  0  0  0  0  0  0  0  0  0  0  0
  151.3676  139.3277  156.7952 N   0  0  0  0  0  0  0  0  0  0  0  0
  152.1877  139.4200  158.3099 S   0  0  0  0  0  0  0  0  0  0  0  0
  151.3195  138.8149  159.3318 O   0  0  0  0  0  0  0  0  0  0  0  0
  153.5752  138.9658  158.1328 O   0  0  0  0  0  0  0  0  0  0  0  0
  152.1953  141.1392  158.5203 N   0  0  0  0  0  0  0  0  0  0  0  0
  151.0084  141.8731  158.0387 C   0  0  0  0  0  0  0  0  0  0  0  0
  151.2857  143.3819  157.9271 C   0  0  0  0  0  0  0  0  0  0  0  0
  151.8027  143.9521  159.2511 C   0  0  0  0  0  0  0  0  0  0  0  0
  153.0455  143.1710  159.6871 C   0  0  0  0  0  0  0  0  0  0  0  0
  152.7493  141.6656  159.7865 C   0  0  0  0  0  0  0  0  0  0  0  0
  150.1719  136.1904  156.2641 H   0  0  0  0  0  0  0  0  0  0  0  0
  149.2711  137.6035  156.8101 H   0  0  0  0  0  0  0  0  0  0  0  0
  150.5634  136.9432  157.8046 H   0  0  0  0  0  0  0  0  0  0  0  0
  152.2562  137.5683  156.1431 H   0  0  0  0  0  0  0  0  0  0  0  0
  151.8655  138.5968  154.0355 H   0  0  0  0  0  0  0  0  0  0  0  0
  150.6602  137.3470  154.1223 H   0  0  0  0  0  0  0  0  0  0  0  0
  148.3853  138.1135  153.3625 H   0  0  0  0  0  0  0  0  0  0  0  0
  147.0731  140.5063  153.3410 H   0  0  0  0  0  0  0  0  0  0  0  0
  148.8765  142.2159  154.5687 H   0  0  0  0  0  0  0  0  0  0  0  0
  150.5028  139.8676  156.7797 H   0  0  0  0  0  0  0  0  0  0  0  0
  150.7089  141.4887  157.0638 H   0  0  0  0  0  0  0  0  0  0  0  0
  150.1774  141.6875  158.7205 H   0  0  0  0  0  0  0  0  0  0  0  0
  152.0196  143.5595  157.1401 H   0  0  0  0  0  0  0  0  0  0  0  0
  150.3776  143.9047  157.6264 H   0  0  0  0  0  0  0  0  0  0  0  0
  152.0408  145.0101  159.1405 H   0  0  0  0  0  0  0  0  0  0  0  0
  151.0287  143.8793  160.0160 H   0  0  0  0  0  0  0  0  0  0  0  0
  153.8534  143.3373  158.9731 H   0  0  0  0  0  0  0  0  0  0  0  0
  153.4011  143.5435  160.6479 H   0  0  0  0  0  0  0  0  0  0  0  0
  152.0382  141.4717  160.5905 H   0  0  0  0  0  0  0  0  0  0  0  0
  153.6649  141.1354  160.0462 H   0  0  0  0  0  0  0  0  0  0  0  0
  1  2  1  0  0  0  0
  1 19  1  0  0  0  0
  1 20  1  0  0  0  0
  1 21  1  0  0  0  0
  2  3  1  0  0  0  0
  2  9  1  0  0  0  0
  2 22  1  0  0  0  0
  3  4  1  0  0  0  0
  3 23  1  0  0  0  0
  3 24  1  0  0  0  0
  4  8  1  0  0  0  0
  4  5  1  0  0  0  0
  5  6  2  0  0  0  0
  5 25  1  0  0  0  0
  6  7  1  0  0  0  0
  6 26  1  0  0  0  0
  7  8  2  0  0  0  0
  7 27  1  0  0  0  0
  9 10  1  0  0  0  0
  9 28  1  0  0  0  0
 10 11  2  0  0  0  0
 10 12  2  0  0  0  0
 10 13  1  0  0  0  0
 13 18  1  0  0  0  0
 13 14  1  0  0  0  0
 14 15  1  0  0  0  0
 14 29  1  0  0  0  0
 14 30  1  0  0  0  0
 15 16  1  0  0  0  0
 15 31  1  0  0  0  0
 15 32  1  0  0  0  0
 16 17  1  0  0  0  0
 16 33  1  0  0  0  0
 16 34  1  0  0  0  0
 17 18  1  0  0  0  0
 17 35  1  0  0  0  0
 17 36  1  0  0  0  0
 18 37  1  0  0  0  0
 18 38  1  0  0  0  0
M  END
> <s_m_source_file>
AV-unprocessed.smi

> <i_m_source_file_index>
2009

> <i_lp_mmshare_version>
43012

> <i_f3d_flags>
0

> <s_epik_input>
bjFbY0hdW2NIXVtjSF1uMVtDSDJdW0NAQEhdKFtDSDNdKVtOSF1TKD1PKSg9TylOMltDSDJdW0NIMl1bQ0gyXVtDSDJdW0NIMl0y

> <s_epik_cmdline>
J2VwaWtfcHl0aG9uJywgJy1waCcsICc3LjAnLCAnLXRuJywgJzgnLCAnLW1hJywgJzIwMCcsICctbWV0YWxfYmluZGluZycsICctaW1hZScsICc8aW5maWxlLm1hZT4nLCAnLW9tYWUnLCAnPG91dGZpbGUubWFlPic=

> <r_lp_tautomer_probability>
1

> <r_epik_Ionization_Penalty>
0.0313937

> <r_epik_Ionization_Penalty_Charging>
0

> <r_epik_Ionization_Penalty_Neutral>
0.0313937

> <r_epik_State_Penalty>
0.0259441

> <r_epik_Charging_Adjusted_Penalty>
0.0259441

> <i_epik_Tot_Q>
0

> <i_epik_Tot_abs_Q>
0

> <r_epik_Metal_State_Penalty>
0.365037

> <b_epik_Metal_Only>
0

> <s_lp_Force_Field>
OPLS_2005

> <r_lp_Energy>
8.11637

> <b_lp_Chiralities_Consistent>
1

> <s_lp_Variant>
AV-unprocessed.smi:2009-2

> <Gold.Version>
5.8.1

> <Gold.Id.Protein>
6NUR|6NUR_protein|mol2

> <Gold.PLP.Fitness>
42.6020

> <Gold.PLP.PLP>
-33.6921

> <Gold.PLP.part.hbond>
-2.0000

> <Gold.PLP.part.metal>
0.0000

> <Gold.PLP.part.buried>
-2.5301

> <Gold.PLP.part.nonpolar>
-29.8598

> <Gold.PLP.part.repulsive>
0.0997

> <Gold.PLP.ligand.clash>
0.0000

> <Gold.PLP.ligand.torsion>
0.9656

> <Gold.PLP.Chemscore.Hbond>
1.8208

> <Gold.PLP.Chemscore.CHOScore>
1.5254

> <Gold.PLP.Chemscore.Metal>
0.0000

> <Gold.Chemscore.Hbonds>
donor molecule, donor type, donor heavy atom, donor atom, acceptor molecule, acceptor atom, score
      P1  H  7989  7998       L1     8  0.67
      P1  H  7997  8009       L1    12  1.00
      L1  C     5    25       P1  7948  1.00
      L1  C     7    27       P1  8028  0.54

> <Gold.PLP.Chemscore.Internal.Correction>
0.8023

> <Gold.Rescore>
     Score         DG    S(hbond)    S(metal)    S(lipo)     H(rot)  DE(clash)    DE(int)     intcor
     15.97     -16.93       1.75        0.00      87.84       1.82       0.01       0.95       ----

> <Gold.Chemscore.Fitness>
15.9742

> <Gold.Chemscore.DG>
-16.9336

> <Gold.Chemscore.ZeroCoef>
-5.4800

> <Gold.Chemscore.Hbond>
1.7499

> <Gold.Chemscore.Metal>
0.0000

> <Gold.Chemscore.Lipo>
87.8426

> <Gold.Chemscore.Internal_Hbond>
0.0000

> <Gold.Chemscore.DEClash>
0.0060

> <Gold.Chemscore.DEInternal>
0.9534

> <Gold.Chemscore.Rot>
1.8237

> <Gold.Chemscore.Internal.Correction>
   9.000000E+99

> <Gold.Chemscore.Hbonds>
donor molecule, donor type, donor heavy atom, donor atom, acceptor molecule, acceptor atom, score
      P1  H  7989  7998       L1     8  0.07
      P1  H  7997  8009       L1    12  0.88

> <Gold.Chemscore.Hbond.Weighted>
-5.8446

> <Gold.Chemscore.Metal.Weighted>
-0.0000

> <Gold.Chemscore.Lipo.Weighted>
-10.2776

> <Gold.Chemscore.Internal_Hbond.Weighted>
0.0000

> <Gold.Chemscore.DEClash.Weighted>
0.0060

> <Gold.Chemscore.DEInternal.Weighted>
0.9534

> <Gold.Chemscore.Rot.Weighted>
4.6686

> <Gold.Chemscore.Internal.Correction.Weighted>
   9.000000E+99

> <Gold.Protein.RotatedTorsions>
[ 6907 6896 6895 6894 ] final  156.29 input  -60.11 | X-H torsion
[ 7974 7965 7964 7962 ] final  -75.03 input  175.53 | X-H torsion
[ 8008 7997 7996 7995 ] final  157.43 input   59.86 | X-H torsion
[ 10167 10162 10161 10158 ] final  156.47 input  -65.29 | X-H torsion
[ 10718 10713 10712 10709 ] final  -83.10 input   66.30 | X-H torsion
[ 10763 10752 10751 10750 ] final -149.68 input  -60.55 | X-H torsion
[ 11005 11000 10999 10996 ] final   29.79 input  -57.11 | X-H torsion

> <Gold.Protein.ActiveResidues>
 VAL166  LYS551  ARG553  GLY616  TRP617  ASP618  TYR619  PRO620  LYS621  CYS622 
 ASP623  PHE694  ASN695  SER759  ASP760  ASP761  ALA762  ILE779  LEU786  VAL792 
 PHE793  MET794  SER795  GLU796  ALA797  LYS798  CYS799  TRP800  GLU811  SER814 

> <Gold.Protein.RotatedAtoms>
  152.0319  133.3941  159.4300 H   0  0  0  0  0  0  0  0  0  0  0  0  # atno 6907 bound_to 6896
  150.6881  134.3511  159.4919 H   0  0  0  0  0  0  0  0  0  0  0  0  # atno 6908 bound_to 6896
  152.1299  134.9142  160.0610 H   0  0  0  0  0  0  0  0  0  0  0  0  # atno 6909 bound_to 6896
  145.6314  140.9337  143.1085 H   0  0  0  0  0  0  0  0  0  0  0  0  # atno 7974 bound_to 7965
  156.2364  140.1885  156.7108 H   0  0  0  0  0  0  0  0  0  0  0  0  # atno 8008 bound_to 7997
  154.6114  140.0621  156.9526 H   0  0  0  0  0  0  0  0  0  0  0  0  # atno 8009 bound_to 7997
  155.2010  140.3292  155.4346 H   0  0  0  0  0  0  0  0  0  0  0  0  # atno 8010 bound_to 7997
  139.4821  144.5006  151.8174 H   0  0  0  0  0  0  0  0  0  0  0  0  # atno 10167 bound_to 10162
  156.0023  130.4655  150.4205 H   0  0  0  0  0  0  0  0  0  0  0  0  # atno 10718 bound_to 10713
  154.8163  135.3303  154.7165 H   0  0  0  0  0  0  0  0  0  0  0  0  # atno 10763 bound_to 10752
  153.7805  135.6919  153.4893 H   0  0  0  0  0  0  0  0  0  0  0  0  # atno 10764 bound_to 10752
  153.1983  135.4525  155.0183 H   0  0  0  0  0  0  0  0  0  0  0  0  # atno 10765 bound_to 10752
  140.3013  134.2754  155.7753 H   0  0  0  0  0  0  0  0  0  0  0  0  # atno 11005 bound_to 11000
  144.7192  139.8088  143.7388 LP  0  0  0  0  0  0  0  0  0  0  0  0  # atno 17320 bound_to 7965
  146.1354  139.4398  143.0142 LP  0  0  0  0  0  0  0  0  0  0  0  0  # atno 17321 bound_to 7965
  140.4498  144.1870  150.5896 LP  0  0  0  0  0  0  0  0  0  0  0  0  # atno 17342 bound_to 10162
  140.4596  143.2454  151.9238 LP  0  0  0  0  0  0  0  0  0  0  0  0  # atno 17343 bound_to 10162
  157.2262  131.0493  151.2519 LP  0  0  0  0  0  0  0  0  0  0  0  0  # atno 17370 bound_to 10713
  157.3754  130.7203  149.6593 LP  0  0  0  0  0  0  0  0  0  0  0  0  # atno 17371 bound_to 10713
  141.2127  133.7648  156.9770 LP  0  0  0  0  0  0  0  0  0  0  0  0  # atno 17394 bound_to 11000
  140.1107  134.9478  157.2061 LP  0  0  0  0  0  0  0  0  0  0  0  0  # atno 17395 bound_to 11000

$$$$
