#       Name:                AV-unprocessed.smi:1448
#       Creating user name   scv26
#       Creation time:       Fri Mar 27 05:57:54 2020


#       File generated by GOLD software.
#

@<TRIPOS>MOLECULE
AV-unprocessed.smi:1448
    52    53     1
SMALL
NO_CHARGES


@<TRIPOS>ATOM
      1 ****        -5.1468   4.4199   0.0555 C.3            1 S1                 0.0000
      2 ****        -4.4845   3.1233   0.4181 C.2            1 S1                 0.0000
      3 ****        -3.0912   2.8237   0.4344 C.2            1 S1                 0.0000
      4 ****        -3.0689   1.5161   0.8364 C.2            1 S1                 0.0000
      5 ****        -1.9995   0.6995   1.0321 N.am           1 S1                 0.0000
      6 ****        -0.6982   0.9543   0.8113 C.2            1 S1                 0.0000
      7 ****        -0.2396   2.0159   0.3904 O.2            1 S1                 0.0000
      8 ****         0.0601  -0.1147   1.0944 N.am           1 S1                 0.0000
      9 ****         1.5170  -0.1915   0.9745 C.3            1 S1                 0.0000
     10 ****         2.0003  -0.8257  -0.3705 C.3            1 S1                 0.0000
     11 ****         1.4892   0.0321  -1.5063 N.4            1 S1                 1.0000
     12 ****         1.3311  -0.6320  -2.8255 C.3            1 S1                 0.0000
     13 ****         2.1731   1.3417  -1.6728 C.3            1 S1                 0.0000
     14 ****         3.5576  -0.9041  -0.3950 C.3            1 S1                 0.0000
     15 ****         4.1556  -1.8787   0.6391 C.3            1 S1                 0.0000
     16 ****         3.5591  -3.2866   0.5121 C.3            1 S1                 0.0000
     17 ****         2.0274  -3.2500   0.5846 C.3            1 S1                 0.0000
     18 ****         1.4542  -2.2897  -0.4733 C.3            1 S1                 0.0000
     19 ****        -4.3628   1.0912   1.0403 N.pl3          1 S1                 0.0000
     20 ****        -4.8498  -0.2052   1.4699 C.3            1 S1                 0.0000
     21 ****        -5.2350   2.0884   0.7784 N.2            1 S1                 0.0000
     22 ****        -4.4091   5.1872  -0.1795 H              1 S1                 0.0000
     23 ****        -5.7604   4.7911   0.8768 H              1 S1                 0.0000
     24 ****        -5.7908   4.3013  -0.8162 H              1 S1                 0.0000
     25 ****        -2.2658   3.4752   0.1906 H              1 S1                 0.0000
     26 ****        -2.2227  -0.2239   1.3733 H              1 S1                 0.0000
     27 ****        -0.4054  -0.9430   1.4367 H              1 S1                 0.0000
     28 ****         1.9580   0.7928   1.1309 H              1 S1                 0.0000
     29 ****         1.8613  -0.7701   1.8291 H              1 S1                 0.0000
     30 ****         2.2679  -1.0775  -3.1617 H              1 S1                 0.0000
     31 ****         1.0133   0.0850  -3.5835 H              1 S1                 0.0000
     32 ****         0.5604  -1.4019  -2.7991 H              1 S1                 0.0000
     33 ****         3.1627   1.2207  -2.1147 H              1 S1                 0.0000
     34 ****         2.2839   1.8816  -0.7343 H              1 S1                 0.0000
     35 ****         1.5939   1.9840  -2.3370 H              1 S1                 0.0000
     36 ****         3.8913  -1.2137  -1.3861 H              1 S1                 0.0000
     37 ****         3.9981   0.0777  -0.2212 H              1 S1                 0.0000
     38 ****         5.2370  -1.9297   0.5080 H              1 S1                 0.0000
     39 ****         3.9972  -1.5014   1.6493 H              1 S1                 0.0000
     40 ****         3.8687  -3.7277  -0.4363 H              1 S1                 0.0000
     41 ****         3.9560  -3.9323   1.2961 H              1 S1                 0.0000
     42 ****         1.6341  -4.2532   0.4172 H              1 S1                 0.0000
     43 ****         1.7025  -2.9682   1.5857 H              1 S1                 0.0000
     44 ****         0.3647  -2.3035  -0.4305 H              1 S1                 0.0000
     45 ****         1.7215  -2.7307  -1.4332 H              1 S1                 0.0000
     46 ****        -4.4642  -0.9800   0.8071 H              1 S1                 0.0000
     47 ****        -5.9400  -0.2332   1.4478 H              1 S1                 0.0000
     48 ****        -4.5112  -0.4043   2.4869 H              1 S1                 0.0000
     49 ****         0.5464   0.2693  -1.2317 H              1 S1                 0.0000
     50 ****        -0.8527   2.7782   0.1830 LP             1 S1                 0.0000
     51 ****         0.7463   2.1163   0.2559 LP             1 S1                 0.0000
     52 ****        -6.2324   2.0548   0.8421 LP             1 S1                 0.0000
@<TRIPOS>BOND
    1    1    2 1     
    2    1   22 1     
    3    1   23 1     
    4    1   24 1     
    5    2   21 2     
    6    2    3 1     
    7    3    4 2     
    8    3   25 1     
    9    4    5 1     
   10    4   19 1     
   11    5    6 am    
   12    5   26 1     
   13    6    7 2     
   14    6    8 am    
   15    8    9 1     
   16    8   27 1     
   17    9   10 1     
   18    9   28 1     
   19    9   29 1     
   20   10   18 1     
   21   10   11 1     
   22   10   14 1     
   23   11   12 1     
   24   11   13 1     
   25   11   49 1     
   26   12   30 1     
   27   12   31 1     
   28   12   32 1     
   29   13   33 1     
   30   13   34 1     
   31   13   35 1     
   32   14   15 1     
   33   14   36 1     
   34   14   37 1     
   35   15   16 1     
   36   15   38 1     
   37   15   39 1     
   38   16   17 1     
   39   16   40 1     
   40   16   41 1     
   41   17   18 1     
   42   17   42 1     
   43   17   43 1     
   44   18   44 1     
   45   18   45 1     
   46   19   20 1     
   47   19   21 1     
   48   20   46 1     
   49   20   47 1     
   50   20   48 1     
   51    7   50 1     
   52    7   51 1     
   53   21   52 1     
@<TRIPOS>SUBSTRUCTURE
      1 S1             1
@<TRIPOS>SET
LONE_PAIRS      STATIC     ATOMS    <user>   **** ""
3 50 51 52
DONOR_HYDROGENS      STATIC     ATOMS    <user>   **** ""
3 26 27 49
ATOM$BLUE        STATIC     ATOMS    COLORGROUP SYSTEM
3 50 51 52
ATOM$RED        STATIC     ATOMS    COLORGROUP SYSTEM
3 26 27 49
