#       Name:                AV-unprocessed.smi:2206
#       Creating user name   scv26
#       Creation time:       Fri Mar 27 12:16:07 2020


#       File generated by GOLD software.
#

@<TRIPOS>MOLECULE
AV-unprocessed.smi:2206
    33    34     1
SMALL
NO_CHARGES


@<TRIPOS>ATOM
      1 ****        -3.1065  -1.0791   1.1681 O.co2          1 S1                 0.0000
      2 ****        -2.7105  -1.1978   2.3487 C.2            1 S1                 0.0000
      3 ****        -3.2653  -0.7001   3.3536 O.co2          1 S1                -1.0000
      4 ****        -1.4503  -2.0335   2.5891 C.3            1 S1                 0.0000
      5 ****        -0.2474  -1.1975   2.2500 C.2            1 S1                 0.0000
      6 ****         0.1990  -0.0799   2.9091 C.2            1 S1                 0.0000
      7 ****         1.6388   0.5697   2.1794 S.3            1 S1                 0.0000
      8 ****         1.6015  -0.7239   0.9808 C.2            1 S1                 0.0000
      9 ****         2.5001  -0.8775  -0.0099 N.pl3          1 S1                -1.0000
     10 ****         2.3462  -0.3016  -1.2319 C.2            1 S1                 0.0000
     11 ****         3.1734  -0.4124  -2.1362 O.2            1 S1                 0.0000
     12 ****         1.2300   0.4209  -1.4489 N.am           1 S1                 0.0000
     13 ****         0.8732   1.0941  -2.6561 C.3            1 S1                 0.0000
     14 ****         0.1530   2.4192  -2.5332 C.3            1 S1                 0.0000
     15 ****        -0.6002   1.1988  -2.9851 C.3            1 S1                 0.0000
     16 ****         0.5698  -1.5543   1.1723 N.2            1 S1                 0.0000
     17 ****        -1.4133  -2.3592   3.6292 H              1 S1                 0.0000
     18 ****        -1.4939  -2.9353   1.9770 H              1 S1                 0.0000
     19 ****        -0.2369   0.4009   3.7718 H              1 S1                 0.0000
     20 ****         0.5694   0.4824  -0.6875 H              1 S1                 0.0000
     21 ****         1.5441   0.9908  -3.5075 H              1 S1                 0.0000
     22 ****        -0.0533   2.7944  -1.5325 H              1 S1                 0.0000
     23 ****         0.3726   3.1797  -3.2796 H              1 S1                 0.0000
     24 ****        -0.8845   1.1423  -4.0337 H              1 S1                 0.0000
     25 ****        -1.3096   0.7597  -2.2859 H              1 S1                 0.0000
     26 ****        -3.9313  -0.5503   0.9681 LP             1 S1                 0.0000
     27 ****        -2.5982  -1.5131   0.4242 LP             1 S1                 0.0000
     28 ****        -4.0969  -0.1551   3.2470 LP             1 S1                 0.0000
     29 ****        -2.8771  -0.8473   4.2633 LP             1 S1                 0.0000
     30 ****         3.3118  -1.4366   0.1594 LP             1 S1                 0.0000
     31 ****         4.0062  -0.9462  -1.9895 LP             1 S1                 0.0000
     32 ****         3.0129   0.0313  -3.0179 LP             1 S1                 0.0000
     33 ****         0.3990  -2.3553   0.5984 LP             1 S1                 0.0000
@<TRIPOS>BOND
    1    1    2 ar    
    2    2    3 ar    
    3    2    4 1     
    4    4    5 1     
    5    4   17 1     
    6    4   18 1     
    7    5   16 1     
    8    5    6 2     
    9    6    7 1     
   10    6   19 1     
   11    7    8 1     
   12    8    9 1     
   13    8   16 2     
   14    9   10 1     
   15   10   11 2     
   16   10   12 am    
   17   12   13 1     
   18   12   20 1     
   19   13   15 1     
   20   13   14 1     
   21   13   21 1     
   22   14   15 1     
   23   14   22 1     
   24   14   23 1     
   25   15   24 1     
   26   15   25 1     
   27    1   26 1     
   28    1   27 1     
   29    3   28 1     
   30    3   29 1     
   31    9   30 1     
   32   11   31 1     
   33   11   32 1     
   34   16   33 1     
@<TRIPOS>SUBSTRUCTURE
      1 S1             1
@<TRIPOS>SET
LONE_PAIRS      STATIC     ATOMS    <user>   **** ""
8 26 27 28 29 30 31 32 33
DONOR_HYDROGENS      STATIC     ATOMS    <user>   **** ""
1 20
ATOM$BLUE        STATIC     ATOMS    COLORGROUP SYSTEM
8 26 27 28 29 30 31 32 33
ATOM$RED        STATIC     ATOMS    COLORGROUP SYSTEM
1 20
