AV-unprocessed.smi:35|AV-procd|sdf|262|dock2
  -GOLD-   2262016 23D 1   1.00000     0.00000
 Structure written by MMmdl.
 29 30  0  0  0  0  0  0  0  0  1 V2000
  146.9987  139.3279  152.4706 O   0  0  0  0  0  0  0  0  0  0  0  0
  147.9186  139.7031  153.1940 C   0  0  0  0  0  0  0  0  0  0  0  0
  149.0188  138.8731  153.4241 N   0  0  0  0  0  0  0  0  0  0  0  0
  150.1165  139.1864  154.2277 C   0  0  0  0  0  0  0  0  0  0  0  0
  151.0403  138.3823  154.3459 O   0  0  0  0  0  0  0  0  0  0  0  0
  150.1094  140.4408  154.8795 N   0  0  0  0  0  0  0  0  0  0  0  0
  151.3048  140.8037  155.7442 C   0  0  1  0  0  0  0  0  0  0  0  0
  151.0463  141.9984  156.4213 O   0  0  0  0  0  0  0  0  0  0  0  0
  150.5732  141.7122  157.7336 C   0  0  2  0  0  0  0  0  0  0  0  0
  150.6515  142.9523  158.6402 C   0  0  0  0  0  0  0  0  0  0  0  0
  149.6387  143.8700  158.2862 O   0  0  0  0  0  0  0  0  0  0  0  0
  151.4651  140.5336  158.1341 C   0  0  2  0  0  0  0  0  0  0  0  0
  152.7327  140.9963  158.5724 O   0  0  0  0  0  0  0  0  0  0  0  0
  151.5451  139.7328  156.8342 C   0  0  2  0  0  0  0  0  0  0  0  0
  152.7753  139.0462  156.6924 O   0  0  0  0  0  0  0  0  0  0  0  0
  149.0465  141.3112  154.6563 C   0  0  0  0  0  0  0  0  0  0  0  0
  147.9913  140.9933  153.8696 C   0  0  0  0  0  0  0  0  0  0  0  0
  146.5772  142.3688  153.6859 Br  0  0  0  0  0  0  0  0  0  0  0  0
  149.0218  137.9732  152.9664 H   0  0  0  0  0  0  0  0  0  0  0  0
  152.1341  140.9471  155.0487 H   0  0  0  0  0  0  0  0  0  0  0  0
  149.5433  141.3541  157.6810 H   0  0  0  0  0  0  0  0  0  0  0  0
  150.4868  142.6686  159.6799 H   0  0  0  0  0  0  0  0  0  0  0  0
  151.6305  143.4290  158.5823 H   0  0  0  0  0  0  0  0  0  0  0  0
  149.5848  143.9084  157.3436 H   0  0  0  0  0  0  0  0  0  0  0  0
  151.0213  139.9474  158.9396 H   0  0  0  0  0  0  0  0  0  0  0  0
  153.2722  140.2442  158.7653 H   0  0  0  0  0  0  0  0  0  0  0  0
  150.7299  139.0078  156.8160 H   0  0  0  0  0  0  0  0  0  0  0  0
  152.6557  138.1576  156.9924 H   0  0  0  0  0  0  0  0  0  0  0  0
  149.0349  142.2894  155.1123 H   0  0  0  0  0  0  0  0  0  0  0  0
  1  2  2  0  0  0  0
  2 17  1  0  0  0  0
  2  3  1  0  0  0  0
  3 19  1  0  0  0  0
  3  4  1  0  0  0  0
  4  5  2  0  0  0  0
  4  6  1  0  0  0  0
  6  7  1  0  0  0  0
  6 16  1  0  0  0  0
  7 14  1  0  0  0  0
  7  8  1  0  0  0  0
  7 20  1  0  0  0  0
  8  9  1  0  0  0  0
  9 10  1  0  0  0  0
  9 12  1  0  0  0  0
  9 21  1  0  0  0  0
 10 11  1  0  0  0  0
 10 22  1  0  0  0  0
 10 23  1  0  0  0  0
 11 24  1  0  0  0  0
 12 13  1  0  0  0  0
 12 14  1  0  0  0  0
 12 25  1  0  0  0  0
 13 26  1  0  0  0  0
 14 15  1  0  0  0  0
 14 27  1  0  0  0  0
 15 28  1  0  0  0  0
 16 17  2  0  0  0  0
 16 29  1  0  0  0  0
 17 18  1  0  0  0  0
M  END
> <s_m_source_file>
AV-unprocessed.smi

> <i_m_source_file_index>
35

> <i_lp_mmshare_version>
43012

> <i_f3d_flags>
0

> <s_epik_input>
Tz1jMVtuSF1jKD1PKW4oW2NIXWMxQnIpW0NAQEhdMk9bQ0BASF0oW0NIMl1bT0hdKVtDQEBIXShbT0hdKVtDQEhdMltPSF0=

> <s_epik_cmdline>
J2VwaWtfcHl0aG9uJywgJy1waCcsICc3LjAnLCAnLXRuJywgJzgnLCAnLW1hJywgJzIwMCcsICctbWV0YWxfYmluZGluZycsICctaW1hZScsICc8aW5maWxlLm1hZT4nLCAnLW9tYWUnLCAnPG91dGZpbGUubWFlPic=

> <r_lp_tautomer_probability>
0.999537

> <r_epik_Ionization_Penalty>
0.10812

> <r_epik_Ionization_Penalty_Charging>
0.108119

> <r_epik_Ionization_Penalty_Neutral>
4.93006e-07

> <r_epik_State_Penalty>
0.0979238

> <r_epik_Charging_Adjusted_Penalty>
0.206043

> <i_epik_Tot_Q>
0

> <i_epik_Tot_abs_Q>
0

> <r_epik_Metal_State_Penalty>
3.07911

> <b_epik_Metal_Only>
0

> <s_epik_Chemistry_Notes>
This compound contains an acetal/aminal-like group ( X-CH(R)-Y where X, Y are N, S, or O) that may be acid/base labile, releasing an aldehyde.

> <s_lp_Force_Field>
OPLS_2005

> <r_lp_Energy>
32.933

> <b_lp_Chiralities_Consistent>
1

> <s_lp_Variant>
AV-unprocessed.smi:35-16

> <Gold.Version>
5.8.1

> <Gold.Id.Protein>
6NUR|6NUR_protein|mol2

> <Gold.PLP.Fitness>
42.8117

> <Gold.PLP.PLP>
-31.2451

> <Gold.PLP.part.hbond>
-4.9656

> <Gold.PLP.part.metal>
0.0000

> <Gold.PLP.part.buried>
-1.0583

> <Gold.PLP.part.nonpolar>
-24.3199

> <Gold.PLP.part.repulsive>
0.6050

> <Gold.PLP.ligand.clash>
0.0000

> <Gold.PLP.ligand.torsion>
0.1669

> <Gold.PLP.Chemscore.Hbond>
2.9588

> <Gold.PLP.Chemscore.CHOScore>
1.0000

> <Gold.PLP.Chemscore.Metal>
0.0000

> <Gold.Chemscore.Hbonds>
donor molecule, donor type, donor heavy atom, donor atom, acceptor molecule, acceptor atom, score
      L1  H     3    19       P1  7948  0.99
      L1  H    11    24       P1  8028  1.00
      P1  H  7997  8010       L1    15  1.00
      L1  C    16    29       P1  8028  1.00

> <Gold.PLP.Chemscore.Internal.Correction>
0.0242

> <Gold.Rescore>
     Score         DG    S(hbond)    S(metal)    S(lipo)     H(rot)  DE(clash)    DE(int)     intcor
      8.41      -9.75       2.53        0.00      44.42       3.67       0.20       1.14       ----

> <Gold.Chemscore.Fitness>
8.4090

> <Gold.Chemscore.DG>
-9.7477

> <Gold.Chemscore.ZeroCoef>
-5.4800

> <Gold.Chemscore.Hbond>
2.5349

> <Gold.Chemscore.Metal>
0.0000

> <Gold.Chemscore.Lipo>
44.4169

> <Gold.Chemscore.Internal_Hbond>
0.0000

> <Gold.Chemscore.DEClash>
0.1953

> <Gold.Chemscore.DEInternal>
1.1434

> <Gold.Chemscore.Rot>
3.6701

> <Gold.Chemscore.Internal.Correction>
   9.000000E+99

> <Gold.Chemscore.Hbonds>
donor molecule, donor type, donor heavy atom, donor atom, acceptor molecule, acceptor atom, score
      L1  H     3    19       P1  7948  0.92
      L1  H    11    24       P1  8028  0.51
      P1  H  7997  8010       L1    15  0.96

> <Gold.Chemscore.Hbond.Weighted>
-8.4664

> <Gold.Chemscore.Metal.Weighted>
-0.0000

> <Gold.Chemscore.Lipo.Weighted>
-5.1968

> <Gold.Chemscore.Internal_Hbond.Weighted>
0.0000

> <Gold.Chemscore.DEClash.Weighted>
0.1953

> <Gold.Chemscore.DEInternal.Weighted>
1.1434

> <Gold.Chemscore.Rot.Weighted>
9.3955

> <Gold.Chemscore.Internal.Correction.Weighted>
   9.000000E+99

> <Gold.Protein.RotatedTorsions>
[ 6907 6896 6895 6894 ] final   29.85 input  -60.11 | X-H torsion
[ 7974 7965 7964 7962 ] final  -63.66 input  175.53 | X-H torsion
[ 8008 7997 7996 7995 ] final   54.29 input   59.86 | X-H torsion
[ 10167 10162 10161 10158 ] final  -22.49 input  -65.29 | X-H torsion
[ 10718 10713 10712 10709 ] final  135.32 input   66.30 | X-H torsion
[ 10763 10752 10751 10750 ] final -119.44 input  -60.55 | X-H torsion
[ 11005 11000 10999 10996 ] final  106.75 input  -57.11 | X-H torsion

> <Gold.Protein.ActiveResidues>
 VAL166  LYS551  ARG553  GLY616  TRP617  ASP618  TYR619  PRO620  LYS621  CYS622 
 ASP623  PHE694  ASN695  SER759  ASP760  ASP761  ALA762  ILE779  LEU786  VAL792 
 PHE793  MET794  SER795  GLU796  ALA797  LYS798  CYS799  TRP800  GLU811  SER814 

> <Gold.Protein.RotatedAtoms>
  152.0375  134.9731  160.0573 H   0  0  0  0  0  0  0  0  0  0  0  0  # atno 6907 bound_to 6896
  152.1183  133.4334  159.4672 H   0  0  0  0  0  0  0  0  0  0  0  0  # atno 6908 bound_to 6896
  150.6847  134.2484  159.4544 H   0  0  0  0  0  0  0  0  0  0  0  0  # atno 6909 bound_to 6896
  145.7763  140.8786  143.0354 H   0  0  0  0  0  0  0  0  0  0  0  0  # atno 7974 bound_to 7965
  155.4822  140.3469  155.4341 H   0  0  0  0  0  0  0  0  0  0  0  0  # atno 8008 bound_to 7997
  156.1031  140.1441  156.9469 H   0  0  0  0  0  0  0  0  0  0  0  0  # atno 8009 bound_to 7997
  154.4707  140.0902  156.7114 H   0  0  0  0  0  0  0  0  0  0  0  0  # atno 8010 bound_to 7997
  140.7286  143.4530  151.0489 H   0  0  0  0  0  0  0  0  0  0  0  0  # atno 10167 bound_to 10162
  157.4583  131.1071  150.9951 H   0  0  0  0  0  0  0  0  0  0  0  0  # atno 10718 bound_to 10713
  154.8617  135.4238  154.2299 H   0  0  0  0  0  0  0  0  0  0  0  0  # atno 10763 bound_to 10752
  153.3286  135.6986  153.6973 H   0  0  0  0  0  0  0  0  0  0  0  0  # atno 10764 bound_to 10752
  153.5999  135.3539  155.2915 H   0  0  0  0  0  0  0  0  0  0  0  0  # atno 10765 bound_to 10752
  139.8818  134.9379  156.5714 H   0  0  0  0  0  0  0  0  0  0  0  0  # atno 11005 bound_to 11000
  144.6804  139.9926  143.7484 LP  0  0  0  0  0  0  0  0  0  0  0  0  # atno 17320 bound_to 7965
  146.0119  139.3177  143.0865 LP  0  0  0  0  0  0  0  0  0  0  0  0  # atno 17321 bound_to 7965
  139.8208  143.7823  152.3176 LP  0  0  0  0  0  0  0  0  0  0  0  0  # atno 17342 bound_to 10162
  139.7905  144.7412  150.9962 LP  0  0  0  0  0  0  0  0  0  0  0  0  # atno 17343 bound_to 10162
  157.0757  130.5882  149.5411 LP  0  0  0  0  0  0  0  0  0  0  0  0  # atno 17370 bound_to 10713
  156.0017  130.5097  150.7686 LP  0  0  0  0  0  0  0  0  0  0  0  0  # atno 17371 bound_to 10713
  140.8095  133.8440  155.8797 LP  0  0  0  0  0  0  0  0  0  0  0  0  # atno 17394 bound_to 11000
  140.9519  134.1768  157.4721 LP  0  0  0  0  0  0  0  0  0  0  0  0  # atno 17395 bound_to 11000

$$$$
