AV-unprocessed.smi:2445|AV-procd|sdf|9640|dock9
  -GOLD-   2272013273D 1   1.00000     0.00000
 Structure written by MMmdl.
 40 41  0  0  0  0  0  0  0  0  1 V2000
  146.9521  141.2413  154.2008 C   0  0  0  0  0  0  0  0  0  0  0  0
  148.3132  140.6715  154.4137 C   0  0  0  0  0  0  0  0  0  0  0  0
  149.4180  141.3048  154.9261 C   0  0  0  0  0  0  0  0  0  0  0  0
  150.5511  140.4921  154.9990 N   0  0  0  0  0  0  0  0  0  0  0  0
  150.3233  139.2537  154.5533 C   0  0  0  0  0  0  0  0  0  0  0  0
  151.3791  138.1898  154.4976 C   0  0  1  0  0  0  0  0  0  0  0  0
  152.7415  138.7079  154.9790 C   0  0  0  0  0  0  0  0  0  0  0  0
  150.9596  136.8879  155.2178 C   0  0  0  0  0  0  0  0  0  0  0  0
  150.0194  136.0865  154.4393 N   0  0  0  0  0  0  0  0  0  0  0  0
  149.4411  134.9552  154.8636 C   0  0  0  0  0  0  0  0  0  0  0  0
  149.5814  134.4911  155.9951 O   0  0  0  0  0  0  0  0  0  0  0  0
  148.7178  134.3757  153.8967 N   0  0  0  0  0  0  0  0  0  0  0  0
  148.0505  133.0835  154.0151 C   0  0  1  0  0  0  0  0  0  0  0  0
  147.1066  132.8311  152.8579 C   0  0  0  0  0  0  0  0  0  0  0  0
  147.0158  131.3077  152.8424 C   0  0  0  0  0  0  0  0  0  0  0  0
  148.2480  130.8288  153.3727 O   0  0  0  0  0  0  0  0  0  0  0  0
  149.0301  131.9125  153.8656 C   0  0  2  0  0  0  0  0  0  0  0  0
  149.7429  131.5066  155.1615 C   0  0  0  0  0  0  0  0  0  0  0  0
  148.6687  139.0155  153.9981 S   0  0  0  0  0  0  0  0  0  0  0  0
  146.8638  142.2289  154.6546 H   0  0  0  0  0  0  0  0  0  0  0  0
  146.1900  140.5997  154.6434 H   0  0  0  0  0  0  0  0  0  0  0  0
  146.7366  141.3382  153.1367 H   0  0  0  0  0  0  0  0  0  0  0  0
  149.4875  142.3288  155.2622 H   0  0  0  0  0  0  0  0  0  0  0  0
  151.5088  137.9394  153.4435 H   0  0  0  0  0  0  0  0  0  0  0  0
  153.0573  139.5762  154.3997 H   0  0  0  0  0  0  0  0  0  0  0  0
  153.5113  137.9432  154.8732 H   0  0  0  0  0  0  0  0  0  0  0  0
  152.7087  139.0011  156.0286 H   0  0  0  0  0  0  0  0  0  0  0  0
  151.8362  136.2916  155.4750 H   0  0  0  0  0  0  0  0  0  0  0  0
  150.4681  137.1336  156.1595 H   0  0  0  0  0  0  0  0  0  0  0  0
  149.8407  136.3862  153.4920 H   0  0  0  0  0  0  0  0  0  0  0  0
  148.6642  134.8359  152.9997 H   0  0  0  0  0  0  0  0  0  0  0  0
  147.4942  133.0008  154.9512 H   0  0  0  0  0  0  0  0  0  0  0  0
  146.1369  133.3143  152.9810 H   0  0  0  0  0  0  0  0  0  0  0  0
  147.5451  133.1812  151.9220 H   0  0  0  0  0  0  0  0  0  0  0  0
  146.2079  130.9687  153.4919 H   0  0  0  0  0  0  0  0  0  0  0  0
  146.8328  130.9141  151.8424 H   0  0  0  0  0  0  0  0  0  0  0  0
  149.7706  132.1469  153.0989 H   0  0  0  0  0  0  0  0  0  0  0  0
  150.3760  132.3132  155.5318 H   0  0  0  0  0  0  0  0  0  0  0  0
  150.3793  130.6368  154.9984 H   0  0  0  0  0  0  0  0  0  0  0  0
  149.0272  131.2545  155.9443 H   0  0  0  0  0  0  0  0  0  0  0  0
  1  2  1  0  0  0  0
  1 20  1  0  0  0  0
  1 21  1  0  0  0  0
  1 22  1  0  0  0  0
  2 19  1  0  0  0  0
  2  3  2  0  0  0  0
  3  4  1  0  0  0  0
  3 23  1  0  0  0  0
  4  5  2  0  0  0  0
  5  6  1  0  0  0  0
  5 19  1  0  0  0  0
  6  7  1  0  0  0  0
  6  8  1  0  0  0  0
  6 24  1  0  0  0  0
  7 25  1  0  0  0  0
  7 26  1  0  0  0  0
  7 27  1  0  0  0  0
  8  9  1  0  0  0  0
  8 28  1  0  0  0  0
  8 29  1  0  0  0  0
  9 10  1  0  0  0  0
  9 30  1  0  0  0  0
 10 11  2  0  0  0  0
 10 12  1  0  0  0  0
 12 13  1  0  0  0  0
 12 31  1  0  0  0  0
 13 17  1  0  0  0  0
 13 14  1  0  0  0  0
 13 32  1  0  0  0  0
 14 15  1  0  0  0  0
 14 33  1  0  0  0  0
 14 34  1  0  0  0  0
 15 16  1  0  0  0  0
 15 35  1  0  0  0  0
 15 36  1  0  0  0  0
 16 17  1  0  0  0  0
 17 18  1  0  0  0  0
 17 37  1  0  0  0  0
 18 38  1  0  0  0  0
 18 39  1  0  0  0  0
 18 40  1  0  0  0  0
M  END
> <s_m_source_file>
AV-unprocessed.smi

> <i_m_source_file_index>
2445

> <i_lp_mmshare_version>
43012

> <i_f3d_flags>
0

> <s_epik_input>
W0NIM11jMVtjSF1uYyhzMSlbQ0BIXShbQ0gzXSlbQ0gyXVtOSF1DKD1PKVtOSF1bQ0BASF0yW0NIMl1bQ0gyXU9bQ0BIXTJbQ0gzXQ==

> <s_epik_cmdline>
J2VwaWtfcHl0aG9uJywgJy1waCcsICc3LjAnLCAnLXRuJywgJzgnLCAnLW1hJywgJzIwMCcsICctbWV0YWxfYmluZGluZycsICctaW1hZScsICc8aW5maWxlLm1hZT4nLCAnLW9tYWUnLCAnPG91dGZpbGUubWFlPic=

> <r_epik_Ionization_Penalty>
0.000649483

> <r_epik_Ionization_Penalty_Charging>
0

> <r_epik_Ionization_Penalty_Neutral>
0.000649483

> <r_epik_State_Penalty>
0.000379895

> <r_epik_Charging_Adjusted_Penalty>
0.000379895

> <i_epik_Tot_Q>
0

> <i_epik_Tot_abs_Q>
0

> <r_epik_Metal_State_Penalty>
-0

> <b_epik_Metal_Only>
0

> <s_lp_Force_Field>
OPLS_2005

> <r_lp_Energy>
5.35471

> <b_lp_Chiralities_Consistent>
1

> <s_lp_Variant>
AV-unprocessed.smi:2445-8

> <Gold.Version>
5.8.1

> <Gold.Id.Protein>
6NUR|6NUR_protein|mol2

> <Gold.PLP.Fitness>
46.8139

> <Gold.PLP.PLP>
-36.5986

> <Gold.PLP.part.hbond>
-3.7005

> <Gold.PLP.part.metal>
0.0000

> <Gold.PLP.part.buried>
-0.4317

> <Gold.PLP.part.nonpolar>
-32.0556

> <Gold.PLP.part.repulsive>
0.2577

> <Gold.PLP.ligand.clash>
0.0000

> <Gold.PLP.ligand.torsion>
0.4246

> <Gold.PLP.Chemscore.Hbond>
2.6500

> <Gold.PLP.Chemscore.CHOScore>
1.0000

> <Gold.PLP.Chemscore.Metal>
0.0000

> <Gold.Chemscore.Hbonds>
donor molecule, donor type, donor heavy atom, donor atom, acceptor molecule, acceptor atom, score
      L1  H     9    30       P1  7948  0.95
      L1  H    12    31       P1  7948  1.00
      P1  H  7989  7998       L1     4  0.60
      L1  C     3    23       P1  8028  1.00

> <Gold.PLP.Chemscore.Internal.Correction>
0.1145

> <Gold.Rescore>
     Score         DG    S(hbond)    S(metal)    S(lipo)     H(rot)  DE(clash)    DE(int)     intcor
     15.52     -15.93       1.52        0.00      79.51       1.53       0.01       0.40       ----

> <Gold.Chemscore.Fitness>
15.5249

> <Gold.Chemscore.DG>
-15.9302

> <Gold.Chemscore.ZeroCoef>
-5.4800

> <Gold.Chemscore.Hbond>
1.5182

> <Gold.Chemscore.Metal>
0.0000

> <Gold.Chemscore.Lipo>
79.5114

> <Gold.Chemscore.Internal_Hbond>
0.0000

> <Gold.Chemscore.DEClash>
0.0067

> <Gold.Chemscore.DEInternal>
0.3986

> <Gold.Chemscore.Rot>
1.5325

> <Gold.Chemscore.Internal.Correction>
   9.000000E+99

> <Gold.Chemscore.Hbonds>
donor molecule, donor type, donor heavy atom, donor atom, acceptor molecule, acceptor atom, score
      L1  H     9    30       P1  7948  0.21
      L1  H    12    31       P1  7948  0.34
      P1  H  7989  7998       L1     4  0.02

> <Gold.Chemscore.Hbond.Weighted>
-5.0707

> <Gold.Chemscore.Metal.Weighted>
-0.0000

> <Gold.Chemscore.Lipo.Weighted>
-9.3028

> <Gold.Chemscore.Internal_Hbond.Weighted>
0.0000

> <Gold.Chemscore.DEClash.Weighted>
0.0067

> <Gold.Chemscore.DEInternal.Weighted>
0.3986

> <Gold.Chemscore.Rot.Weighted>
3.9233

> <Gold.Chemscore.Internal.Correction.Weighted>
   9.000000E+99

> <Gold.Protein.RotatedTorsions>
[ 6907 6896 6895 6894 ] final  111.13 input  -60.11 | X-H torsion
[ 7974 7965 7964 7962 ] final  -61.09 input  175.53 | X-H torsion
[ 8008 7997 7996 7995 ] final -107.97 input   59.86 | X-H torsion
[ 10167 10162 10161 10158 ] final  156.55 input  -65.29 | X-H torsion
[ 10718 10713 10712 10709 ] final -125.13 input   66.30 | X-H torsion
[ 10763 10752 10751 10750 ] final -142.17 input  -60.55 | X-H torsion
[ 11005 11000 10999 10996 ] final  -68.47 input  -57.11 | X-H torsion

> <Gold.Protein.ActiveResidues>
 VAL166  LYS551  ARG553  GLY616  TRP617  ASP618  TYR619  PRO620  LYS621  CYS622 
 ASP623  PHE694  ASN695  SER759  ASP760  ASP761  ALA762  ILE779  LEU786  VAL792 
 PHE793  MET794  SER795  GLU796  ALA797  LYS798  CYS799  TRP800  GLU811  SER814 

> <Gold.Protein.RotatedAtoms>
  152.4985  133.8701  159.7293 H   0  0  0  0  0  0  0  0  0  0  0  0  # atno 6907 bound_to 6896
  150.9190  133.6895  159.2843 H   0  0  0  0  0  0  0  0  0  0  0  0  # atno 6908 bound_to 6896
  151.4278  135.1010  159.9686 H   0  0  0  0  0  0  0  0  0  0  0  0  # atno 6909 bound_to 6896
  145.8076  140.8618  143.0199 H   0  0  0  0  0  0  0  0  0  0  0  0  # atno 7974 bound_to 7965
  154.9373  140.0403  157.2079 H   0  0  0  0  0  0  0  0  0  0  0  0  # atno 8008 bound_to 7997
  154.8103  140.2866  155.5836 H   0  0  0  0  0  0  0  0  0  0  0  0  # atno 8009 bound_to 7997
  156.2971  140.2538  156.2989 H   0  0  0  0  0  0  0  0  0  0  0  0  # atno 8010 bound_to 7997
  139.4821  144.4999  151.8184 H   0  0  0  0  0  0  0  0  0  0  0  0  # atno 10167 bound_to 10162
  156.1649  130.6627  151.0100 H   0  0  0  0  0  0  0  0  0  0  0  0  # atno 10718 bound_to 10713
  154.8519  135.3503  154.5984 H   0  0  0  0  0  0  0  0  0  0  0  0  # atno 10763 bound_to 10752
  153.6593  135.6990  153.5187 H   0  0  0  0  0  0  0  0  0  0  0  0  # atno 10764 bound_to 10752
  153.2830  135.4258  155.1054 H   0  0  0  0  0  0  0  0  0  0  0  0  # atno 10765 bound_to 10752
  141.1533  133.6741  156.6451 H   0  0  0  0  0  0  0  0  0  0  0  0  # atno 11005 bound_to 11000
  144.6761  140.0349  143.7482 LP  0  0  0  0  0  0  0  0  0  0  0  0  # atno 17320 bound_to 7965
  145.9811  139.2942  143.1041 LP  0  0  0  0  0  0  0  0  0  0  0  0  # atno 17321 bound_to 7965
  140.4491  144.1880  150.5896 LP  0  0  0  0  0  0  0  0  0  0  0  0  # atno 17342 bound_to 10162
  140.4604  143.2451  151.9228 LP  0  0  0  0  0  0  0  0  0  0  0  0  # atno 17343 bound_to 10162
  157.6760  131.0850  150.7493 LP  0  0  0  0  0  0  0  0  0  0  0  0  # atno 17370 bound_to 10713
  156.7554  130.4782  149.5448 LP  0  0  0  0  0  0  0  0  0  0  0  0  # atno 17371 bound_to 10713
  140.3363  134.7886  157.4364 LP  0  0  0  0  0  0  0  0  0  0  0  0  # atno 17394 bound_to 11000
  140.0975  134.5518  155.8385 LP  0  0  0  0  0  0  0  0  0  0  0  0  # atno 17395 bound_to 11000

$$$$
