AV-unprocessed.smi:2457|AV-procd|sdf|9706|dock4
  -GOLD-   2272013343D 1   1.00000     0.00000
 Structure written by MMmdl.
 40 41  0  0  0  0  0  0  0  0  1 V2000
  145.6507  136.4256  152.8790 C   0  0  0  0  0  0  0  0  0  0  0  0
  146.2138  137.7956  152.6693 C   0  0  0  0  0  0  0  0  0  0  0  0
  146.4343  138.4238  151.4691 C   0  0  0  0  0  0  0  0  0  0  0  0
  147.1080  140.0159  151.6836 S   0  0  0  0  0  0  0  0  0  0  0  0
  147.0674  139.7655  153.4259 C   0  0  0  0  0  0  0  0  0  0  0  0
  147.5167  140.8006  154.4125 C   0  0  2  0  0  0  0  0  0  0  0  0
  146.6714  142.0798  154.3356 C   0  0  0  0  0  0  0  0  0  0  0  0
  149.0359  141.0783  154.3537 C   0  0  0  0  0  0  0  0  0  0  0  0
  149.4629  142.1140  155.2910 N   0  0  0  0  0  0  0  0  0  0  0  0
  150.3915  141.9523  156.2429 C   0  0  0  0  0  0  0  0  0  0  0  0
  150.9696  140.8892  156.4685 O   0  0  0  0  0  0  0  0  0  0  0  0
  150.6309  143.0939  156.9023 N   0  0  0  0  0  0  0  0  0  0  0  0
  151.6271  143.2628  157.9560 C   0  0  1  0  0  0  0  0  0  0  0  0
  151.3706  144.5775  158.7222 C   0  0  0  0  0  0  0  0  0  0  0  0
  152.4238  144.8408  159.8103 C   0  0  0  0  0  0  0  0  0  0  0  0
  152.4489  143.7386  160.8785 C   0  0  0  0  0  0  0  0  0  0  0  0
  152.8873  142.1341  160.1562 S   0  0  0  0  0  0  0  0  0  0  0  0
  151.5914  142.0409  158.8898 C   0  0  0  0  0  0  0  0  0  0  0  0
  146.5735  138.5731  153.7734 N   0  0  0  0  0  0  0  0  0  0  0  0
  145.4535  135.9254  151.9305 H   0  0  0  0  0  0  0  0  0  0  0  0
  144.7118  136.4666  153.4316 H   0  0  0  0  0  0  0  0  0  0  0  0
  146.3408  135.7984  153.4440 H   0  0  0  0  0  0  0  0  0  0  0  0
  146.2433  138.0481  150.4749 H   0  0  0  0  0  0  0  0  0  0  0  0
  147.3172  140.3773  155.3976 H   0  0  0  0  0  0  0  0  0  0  0  0
  145.6135  141.8600  154.4811 H   0  0  0  0  0  0  0  0  0  0  0  0
  146.7807  142.5700  153.3677 H   0  0  0  0  0  0  0  0  0  0  0  0
  146.9693  142.7930  155.1044 H   0  0  0  0  0  0  0  0  0  0  0  0
  149.5814  140.1693  154.6088 H   0  0  0  0  0  0  0  0  0  0  0  0
  149.3384  141.3452  153.3398 H   0  0  0  0  0  0  0  0  0  0  0  0
  149.0454  143.0266  155.1815 H   0  0  0  0  0  0  0  0  0  0  0  0
  150.1030  143.9136  156.6409 H   0  0  0  0  0  0  0  0  0  0  0  0
  152.6170  143.3071  157.4975 H   0  0  0  0  0  0  0  0  0  0  0  0
  151.3715  145.4161  158.0247 H   0  0  0  0  0  0  0  0  0  0  0  0
  150.3768  144.5581  159.1717 H   0  0  0  0  0  0  0  0  0  0  0  0
  153.4102  144.9353  159.3545 H   0  0  0  0  0  0  0  0  0  0  0  0
  152.2150  145.7987  160.2876 H   0  0  0  0  0  0  0  0  0  0  0  0
  153.1749  143.9821  161.6545 H   0  0  0  0  0  0  0  0  0  0  0  0
  151.4761  143.6568  161.3645 H   0  0  0  0  0  0  0  0  0  0  0  0
  150.6214  141.9614  159.3822 H   0  0  0  0  0  0  0  0  0  0  0  0
  151.7374  141.1228  158.3198 H   0  0  0  0  0  0  0  0  0  0  0  0
  1  2  1  0  0  0  0
  1 20  1  0  0  0  0
  1 21  1  0  0  0  0
  1 22  1  0  0  0  0
  2 19  1  0  0  0  0
  2  3  2  0  0  0  0
  3  4  1  0  0  0  0
  3 23  1  0  0  0  0
  4  5  1  0  0  0  0
  5  6  1  0  0  0  0
  5 19  2  0  0  0  0
  6  7  1  0  0  0  0
  6  8  1  0  0  0  0
  6 24  1  0  0  0  0
  7 25  1  0  0  0  0
  7 26  1  0  0  0  0
  7 27  1  0  0  0  0
  8  9  1  0  0  0  0
  8 28  1  0  0  0  0
  8 29  1  0  0  0  0
  9 10  1  0  0  0  0
  9 30  1  0  0  0  0
 10 11  2  0  0  0  0
 10 12  1  0  0  0  0
 12 13  1  0  0  0  0
 12 31  1  0  0  0  0
 13 18  1  0  0  0  0
 13 14  1  0  0  0  0
 13 32  1  0  0  0  0
 14 15  1  0  0  0  0
 14 33  1  0  0  0  0
 14 34  1  0  0  0  0
 15 16  1  0  0  0  0
 15 35  1  0  0  0  0
 15 36  1  0  0  0  0
 16 17  1  0  0  0  0
 16 37  1  0  0  0  0
 16 38  1  0  0  0  0
 17 18  1  0  0  0  0
 18 39  1  0  0  0  0
 18 40  1  0  0  0  0
M  END
> <s_m_source_file>
AV-unprocessed.smi

> <i_m_source_file_index>
2457

> <i_lp_mmshare_version>
43012

> <i_f3d_flags>
0

> <s_epik_input>
W0NIM11jMVtjSF1zYyhuMSlbQ0BIXShbQ0gzXSlbQ0gyXVtOSF1DKD1PKVtOSF1bQ0BASF0yW0NIMl1bQ0gyXVtDSDJdU1tDSDJdMg==

> <s_epik_cmdline>
J2VwaWtfcHl0aG9uJywgJy1waCcsICc3LjAnLCAnLXRuJywgJzgnLCAnLW1hJywgJzIwMCcsICctbWV0YWxfYmluZGluZycsICctaW1hZScsICc8aW5maWxlLm1hZT4nLCAnLW9tYWUnLCAnPG91dGZpbGUubWFlPic=

> <r_epik_Ionization_Penalty>
0.00154805

> <r_epik_Ionization_Penalty_Charging>
0

> <r_epik_Ionization_Penalty_Neutral>
0.00154805

> <r_epik_State_Penalty>
0.00100357

> <r_epik_Charging_Adjusted_Penalty>
0.00100357

> <i_epik_Tot_Q>
0

> <i_epik_Tot_abs_Q>
0

> <r_epik_Metal_State_Penalty>
-0

> <b_epik_Metal_Only>
0

> <s_lp_Force_Field>
OPLS_2005

> <r_lp_Energy>
-7.39809

> <b_lp_Chiralities_Consistent>
1

> <s_lp_Variant>
AV-unprocessed.smi:2457-3

> <Gold.Version>
5.8.1

> <Gold.Id.Protein>
6NUR|6NUR_protein|mol2

> <Gold.PLP.Fitness>
48.5587

> <Gold.PLP.PLP>
-41.2080

> <Gold.PLP.part.hbond>
-2.0000

> <Gold.PLP.part.metal>
0.0000

> <Gold.PLP.part.buried>
-0.6552

> <Gold.PLP.part.nonpolar>
-39.3005

> <Gold.PLP.part.repulsive>
0.4246

> <Gold.PLP.ligand.clash>
0.0000

> <Gold.PLP.ligand.torsion>
0.2911

> <Gold.PLP.Chemscore.Hbond>
2.0000

> <Gold.PLP.Chemscore.CHOScore>
0.6013

> <Gold.PLP.Chemscore.Metal>
0.0000

> <Gold.Chemscore.Hbonds>
donor molecule, donor type, donor heavy atom, donor atom, acceptor molecule, acceptor atom, score
      L1  H     9    30       P1  8028  1.00
      L1  H    12    31       P1  8028  1.00
      L1  C     3    23       P1 10171  0.60

> <Gold.PLP.Chemscore.Internal.Correction>
0.1291

> <Gold.Rescore>
     Score         DG    S(hbond)    S(metal)    S(lipo)     H(rot)  DE(clash)    DE(int)     intcor
     19.60     -23.28       1.90        0.00     129.87       1.46       2.03       1.65       ----

> <Gold.Chemscore.Fitness>
19.5976

> <Gold.Chemscore.DG>
-23.2800

> <Gold.Chemscore.ZeroCoef>
-5.4800

> <Gold.Chemscore.Hbond>
1.9003

> <Gold.Chemscore.Metal>
0.0000

> <Gold.Chemscore.Lipo>
129.8685

> <Gold.Chemscore.Internal_Hbond>
0.0000

> <Gold.Chemscore.DEClash>
2.0282

> <Gold.Chemscore.DEInternal>
1.6542

> <Gold.Chemscore.Rot>
1.4616

> <Gold.Chemscore.Internal.Correction>
   9.000000E+99

> <Gold.Chemscore.Hbonds>
donor molecule, donor type, donor heavy atom, donor atom, acceptor molecule, acceptor atom, score
      L1  H     9    30       P1  8028  0.96
      L1  H    12    31       P1  8028  0.97

> <Gold.Chemscore.Hbond.Weighted>
-6.3470

> <Gold.Chemscore.Metal.Weighted>
-0.0000

> <Gold.Chemscore.Lipo.Weighted>
-15.1946

> <Gold.Chemscore.Internal_Hbond.Weighted>
0.0000

> <Gold.Chemscore.DEClash.Weighted>
2.0282

> <Gold.Chemscore.DEInternal.Weighted>
1.6542

> <Gold.Chemscore.Rot.Weighted>
3.7416

> <Gold.Chemscore.Internal.Correction.Weighted>
   9.000000E+99

> <Gold.Protein.RotatedTorsions>
[ 6907 6896 6895 6894 ] final   56.35 input  -60.11 | X-H torsion
[ 7974 7965 7964 7962 ] final  179.26 input  175.53 | X-H torsion
[ 8008 7997 7996 7995 ] final  -79.99 input   59.86 | X-H torsion
[ 10167 10162 10161 10158 ] final  132.67 input  -65.29 | X-H torsion
[ 10718 10713 10712 10709 ] final   34.98 input   66.30 | X-H torsion
[ 10763 10752 10751 10750 ] final -136.80 input  -60.55 | X-H torsion
[ 11005 11000 10999 10996 ] final   56.93 input  -57.11 | X-H torsion

> <Gold.Protein.ActiveResidues>
 VAL166  LYS551  ARG553  GLY616  TRP617  ASP618  TYR619  PRO620  LYS621  CYS622 
 ASP623  PHE694  ASN695  SER759  ASP760  ASP761  ALA762  ILE779  LEU786  VAL792 
 PHE793  MET794  SER795  GLU796  ALA797  LYS798  CYS799  TRP800  GLU811  SER814 

> <Gold.Protein.RotatedAtoms>
  152.3628  134.6848  160.0201 H   0  0  0  0  0  0  0  0  0  0  0  0  # atno 6907 bound_to 6896
  151.7166  133.3308  159.3312 H   0  0  0  0  0  0  0  0  0  0  0  0  # atno 6908 bound_to 6896
  150.7616  134.6420  159.6286 H   0  0  0  0  0  0  0  0  0  0  0  0  # atno 6909 bound_to 6896
  144.7147  140.0521  143.6435 H   0  0  0  0  0  0  0  0  0  0  0  0  # atno 7974 bound_to 7965
  154.5839  140.0670  156.9143 H   0  0  0  0  0  0  0  0  0  0  0  0  # atno 8008 bound_to 7997
  155.2414  140.3345  155.4273 H   0  0  0  0  0  0  0  0  0  0  0  0  # atno 8009 bound_to 7997
  156.2209  140.1798  156.7464 H   0  0  0  0  0  0  0  0  0  0  0  0  # atno 8010 bound_to 7997
  139.5329  144.6651  151.4885 H   0  0  0  0  0  0  0  0  0  0  0  0  # atno 10167 bound_to 10162
  157.3170  130.7429  149.6761 H   0  0  0  0  0  0  0  0  0  0  0  0  # atno 10718 bound_to 10713
  154.8676  135.3661  154.5120 H   0  0  0  0  0  0  0  0  0  0  0  0  # atno 10763 bound_to 10752
  153.5755  135.7019  153.5491 H   0  0  0  0  0  0  0  0  0  0  0  0  # atno 10764 bound_to 10752
  153.3504  135.4073  155.1604 H   0  0  0  0  0  0  0  0  0  0  0  0  # atno 10765 bound_to 10752
  140.0491  134.5762  155.9285 H   0  0  0  0  0  0  0  0  0  0  0  0  # atno 11005 bound_to 11000
  145.9935  139.3034  143.0971 LP  0  0  0  0  0  0  0  0  0  0  0  0  # atno 17320 bound_to 7965
  145.8876  140.9324  143.0569 LP  0  0  0  0  0  0  0  0  0  0  0  0  # atno 17321 bound_to 7965
  140.6519  143.8679  150.6794 LP  0  0  0  0  0  0  0  0  0  0  0  0  # atno 17342 bound_to 10162
  140.2046  143.3932  152.1765 LP  0  0  0  0  0  0  0  0  0  0  0  0  # atno 17343 bound_to 10162
  155.9682  130.4234  150.4561 LP  0  0  0  0  0  0  0  0  0  0  0  0  # atno 17370 bound_to 10713
  157.2570  131.0559  151.2344 LP  0  0  0  0  0  0  0  0  0  0  0  0  # atno 17371 bound_to 10713
  141.1922  133.6574  156.5489 LP  0  0  0  0  0  0  0  0  0  0  0  0  # atno 17394 bound_to 11000
  140.3945  134.7411  157.4742 LP  0  0  0  0  0  0  0  0  0  0  0  0  # atno 17395 bound_to 11000

$$$$
