AV-unprocessed.smi:1143|AV-procd|sdf|4875|dock7
  -GOLD-   22720 3443D 1   1.00000     0.00000
 Structure written by MMmdl.
 35 36  0  0  0  0  0  0  0  0  1 V2000
  154.9377  140.2145  162.0918 C   0  0  0  0  0  0  0  0  0  0  0  0
  153.9914  141.2811  161.7540 N   0  0  0  0  0  0  0  0  0  0  0  0
  153.3173  141.1951  160.5202 C   0  0  0  0  0  0  0  0  0  0  0  0
  152.4260  142.1279  160.1191 C   0  0  0  0  0  0  0  0  0  0  0  0
  151.7052  142.1002  158.9169 N   0  0  0  0  0  0  0  0  0  0  0  0
  151.8220  141.2631  157.8646 C   0  0  0  0  0  0  0  0  0  0  0  0
  152.6658  140.3761  157.7540 O   0  0  0  0  0  0  0  0  0  0  0  0
  150.9312  141.4943  156.8826 N   0  0  0  0  0  0  0  0  0  0  0  0
  150.7756  140.7834  155.6112 C   0  0  0  0  0  0  0  0  0  0  0  0
  149.3455  140.9718  155.0843 C   0  0  0  0  0  0  0  0  0  0  0  0
  149.1146  140.1238  153.8226 C   0  0  0  0  0  0  0  0  0  0  0  0
  149.3858  138.7538  154.0994 O   0  0  0  0  0  0  0  0  0  0  0  0
  150.7379  138.5210  154.4786 C   0  0  0  0  0  0  0  0  0  0  0  0
  151.0587  139.2792  155.7768 C   0  0  0  0  0  0  0  0  0  0  0  0
  152.1785  143.2296  161.0246 C   0  0  0  0  0  0  0  0  0  0  0  0
  152.8185  143.3191  162.2065 C   0  0  0  0  0  0  0  0  0  0  0  0
  153.7896  142.3076  162.6301 C   0  0  0  0  0  0  0  0  0  0  0  0
  154.3839  142.3776  163.7062 O   0  0  0  0  0  0  0  0  0  0  0  0
  154.9947  139.4396  161.3269 H   0  0  0  0  0  0  0  0  0  0  0  0
  154.6487  139.7272  163.0242 H   0  0  0  0  0  0  0  0  0  0  0  0
  155.9421  140.6213  162.2183 H   0  0  0  0  0  0  0  0  0  0  0  0
  153.5732  140.3170  159.9491 H   0  0  0  0  0  0  0  0  0  0  0  0
  150.9999  142.8173  158.8324 H   0  0  0  0  0  0  0  0  0  0  0  0
  150.3197  142.2872  157.0144 H   0  0  0  0  0  0  0  0  0  0  0  0
  151.4604  141.1996  154.8698 H   0  0  0  0  0  0  0  0  0  0  0  0
  148.6253  140.6773  155.8490 H   0  0  0  0  0  0  0  0  0  0  0  0
  149.1577  142.0237  154.8659 H   0  0  0  0  0  0  0  0  0  0  0  0
  148.0797  140.2179  153.4935 H   0  0  0  0  0  0  0  0  0  0  0  0
  149.7421  140.4707  153.0001 H   0  0  0  0  0  0  0  0  0  0  0  0
  150.8835  137.4507  154.6253 H   0  0  0  0  0  0  0  0  0  0  0  0
  151.4102  138.8253  153.6749 H   0  0  0  0  0  0  0  0  0  0  0  0
  152.0994  139.1103  156.0548 H   0  0  0  0  0  0  0  0  0  0  0  0
  150.4506  138.8748  156.5873 H   0  0  0  0  0  0  0  0  0  0  0  0
  151.4702  143.9981  160.7508 H   0  0  0  0  0  0  0  0  0  0  0  0
  152.6116  144.1552  162.8579 H   0  0  0  0  0  0  0  0  0  0  0  0
  1  2  1  0  0  0  0
  1 19  1  0  0  0  0
  1 20  1  0  0  0  0
  1 21  1  0  0  0  0
  2 17  1  0  0  0  0
  2  3  1  0  0  0  0
  3  4  2  0  0  0  0
  3 22  1  0  0  0  0
  4  5  1  0  0  0  0
  4 15  1  0  0  0  0
  5  6  1  0  0  0  0
  5 23  1  0  0  0  0
  6  7  2  0  0  0  0
  6  8  1  0  0  0  0
  8  9  1  0  0  0  0
  8 24  1  0  0  0  0
  9 14  1  0  0  0  0
  9 10  1  0  0  0  0
  9 25  1  0  0  0  0
 10 11  1  0  0  0  0
 10 26  1  0  0  0  0
 10 27  1  0  0  0  0
 11 12  1  0  0  0  0
 11 28  1  0  0  0  0
 11 29  1  0  0  0  0
 12 13  1  0  0  0  0
 13 14  1  0  0  0  0
 13 30  1  0  0  0  0
 13 31  1  0  0  0  0
 14 32  1  0  0  0  0
 14 33  1  0  0  0  0
 15 16  2  0  0  0  0
 15 34  1  0  0  0  0
 16 17  1  0  0  0  0
 16 35  1  0  0  0  0
 17 18  2  0  0  0  0
M  END
> <s_m_source_file>
AV-unprocessed.smi

> <i_m_source_file_index>
1143

> <i_lp_mmshare_version>
43012

> <i_f3d_flags>
0

> <s_epik_input>
Tz1jMVtjSF1bY0hdYyhbY0hdbjFbQ0gzXSlbTkhdQyg9TylbTkhdW0NIXTJbQ0gyXVtDSDJdT1tDSDJdW0NIMl0y

> <s_epik_cmdline>
J2VwaWtfcHl0aG9uJywgJy1waCcsICc3LjAnLCAnLXRuJywgJzgnLCAnLW1hJywgJzIwMCcsICctbWV0YWxfYmluZGluZycsICctaW1hZScsICc8aW5maWxlLm1hZT4nLCAnLW9tYWUnLCAnPG91dGZpbGUubWFlPic=

> <r_lp_tautomer_probability>
1

> <r_epik_Ionization_Penalty>
2.54991e-05

> <r_epik_Ionization_Penalty_Charging>
5.93057e-06

> <r_epik_Ionization_Penalty_Neutral>
1.95685e-05

> <r_epik_State_Penalty>
-0

> <r_epik_Charging_Adjusted_Penalty>
5.93057e-06

> <i_epik_Tot_Q>
0

> <i_epik_Tot_abs_Q>
0

> <r_epik_Metal_State_Penalty>
-0

> <b_epik_Metal_Only>
0

> <s_lp_Force_Field>
OPLS_2005

> <r_lp_Energy>
32.4408

> <b_lp_Chiralities_Consistent>
1

> <s_lp_Variant>
AV-unprocessed.smi:1143-1

> <Gold.Version>
5.8.1

> <Gold.Id.Protein>
6NUR|6NUR_protein|mol2

> <Gold.PLP.Fitness>
40.9482

> <Gold.PLP.PLP>
-38.9998

> <Gold.PLP.part.hbond>
-2.0000

> <Gold.PLP.part.metal>
0.0000

> <Gold.PLP.part.buried>
0.8744

> <Gold.PLP.part.nonpolar>
-36.3425

> <Gold.PLP.part.repulsive>
0.4113

> <Gold.PLP.ligand.clash>
0.0000

> <Gold.PLP.ligand.torsion>
0.3462

> <Gold.PLP.Chemscore.Hbond>
0.8800

> <Gold.PLP.Chemscore.CHOScore>
0.0000

> <Gold.PLP.Chemscore.Metal>
0.0000

> <Gold.Chemscore.Hbonds>
donor molecule, donor type, donor heavy atom, donor atom, acceptor molecule, acceptor atom, score
      P1  H  7997  8008       L1     7  0.89

> <Gold.PLP.Chemscore.Internal.Correction>
0.0009

> <Gold.Rescore>
     Score         DG    S(hbond)    S(metal)    S(lipo)     H(rot)  DE(clash)    DE(int)     intcor
     12.56     -15.48       0.92        0.00      81.12       1.00       0.31       2.61       ----

> <Gold.Chemscore.Fitness>
12.5593

> <Gold.Chemscore.DG>
-15.4805

> <Gold.Chemscore.ZeroCoef>
-5.4800

> <Gold.Chemscore.Hbond>
0.9192

> <Gold.Chemscore.Metal>
0.0000

> <Gold.Chemscore.Lipo>
81.1153

> <Gold.Chemscore.Internal_Hbond>
0.0000

> <Gold.Chemscore.DEClash>
0.3089

> <Gold.Chemscore.DEInternal>
2.6123

> <Gold.Chemscore.Rot>
1.0000

> <Gold.Chemscore.Internal.Correction>
   9.000000E+99

> <Gold.Chemscore.Hbonds>
donor molecule, donor type, donor heavy atom, donor atom, acceptor molecule, acceptor atom, score
      P1  H  7997  8008       L1     7  0.81

> <Gold.Chemscore.Hbond.Weighted>
-3.0700

> <Gold.Chemscore.Metal.Weighted>
-0.0000

> <Gold.Chemscore.Lipo.Weighted>
-9.4905

> <Gold.Chemscore.Internal_Hbond.Weighted>
0.0000

> <Gold.Chemscore.DEClash.Weighted>
0.3089

> <Gold.Chemscore.DEInternal.Weighted>
2.6123

> <Gold.Chemscore.Rot.Weighted>
2.5600

> <Gold.Chemscore.Internal.Correction.Weighted>
   9.000000E+99

> <Gold.Protein.RotatedTorsions>
[ 6907 6896 6895 6894 ] final  143.94 input  -60.11 | X-H torsion
[ 7974 7965 7964 7962 ] final  -66.72 input  175.53 | X-H torsion
[ 8008 7997 7996 7995 ] final  -76.36 input   59.86 | X-H torsion
[ 10167 10162 10161 10158 ] final -113.73 input  -65.29 | X-H torsion
[ 10718 10713 10712 10709 ] final -161.86 input   66.30 | X-H torsion
[ 10763 10752 10751 10750 ] final  124.46 input  -60.55 | X-H torsion
[ 11005 11000 10999 10996 ] final  -23.47 input  -57.11 | X-H torsion

> <Gold.Protein.ActiveResidues>
 VAL166  LYS551  ARG553  GLY616  TRP617  ASP618  TYR619  PRO620  LYS621  CYS622 
 ASP623  PHE694  ASN695  SER759  ASP760  ASP761  ALA762  ILE779  LEU786  VAL792 
 PHE793  MET794  SER795  GLU796  ALA797  LYS798  CYS799  TRP800  GLU811  SER814 

> <Gold.Protein.RotatedAtoms>
  152.1999  133.4834  159.5052 H   0  0  0  0  0  0  0  0  0  0  0  0  # atno 6907 bound_to 6896
  150.6967  134.1603  159.4183 H   0  0  0  0  0  0  0  0  0  0  0  0  # atno 6908 bound_to 6896
  151.9520  135.0164  160.0593 H   0  0  0  0  0  0  0  0  0  0  0  0  # atno 6909 bound_to 6896
  145.7382  140.8966  143.0544 H   0  0  0  0  0  0  0  0  0  0  0  0  # atno 7974 bound_to 7965
  154.5498  140.0728  156.8649 H   0  0  0  0  0  0  0  0  0  0  0  0  # atno 8008 bound_to 7997
  155.3015  140.3384  155.4229 H   0  0  0  0  0  0  0  0  0  0  0  0  # atno 8009 bound_to 7997
  156.1951  140.1700  156.8000 H   0  0  0  0  0  0  0  0  0  0  0  0  # atno 8010 bound_to 7997
  140.1087  143.4547  152.1766 H   0  0  0  0  0  0  0  0  0  0  0  0  # atno 10167 bound_to 10162
  156.6022  130.8815  151.2916 H   0  0  0  0  0  0  0  0  0  0  0  0  # atno 10718 bound_to 10713
  153.6618  135.3345  155.3129 H   0  0  0  0  0  0  0  0  0  0  0  0  # atno 10763 bound_to 10752
  154.8513  135.4365  154.1797 H   0  0  0  0  0  0  0  0  0  0  0  0  # atno 10764 bound_to 10752
  153.2765  135.7005  153.7503 H   0  0  0  0  0  0  0  0  0  0  0  0  # atno 10765 bound_to 10752
  140.8755  133.7690  156.0238 H   0  0  0  0  0  0  0  0  0  0  0  0  # atno 11005 bound_to 11000
  144.6877  139.9424  143.7475 LP  0  0  0  0  0  0  0  0  0  0  0  0  # atno 17320 bound_to 7965
  146.0473  139.3478  143.0661 LP  0  0  0  0  0  0  0  0  0  0  0  0  # atno 17321 bound_to 7965
  139.5631  144.7418  151.4098 LP  0  0  0  0  0  0  0  0  0  0  0  0  # atno 17342 bound_to 10162
  140.6938  143.7799  150.7295 LP  0  0  0  0  0  0  0  0  0  0  0  0  # atno 17343 bound_to 10162
  157.7276  130.9646  150.1708 LP  0  0  0  0  0  0  0  0  0  0  0  0  # atno 17370 bound_to 10713
  156.2460  130.3695  149.8285 LP  0  0  0  0  0  0  0  0  0  0  0  0  # atno 17371 bound_to 10713
  140.8523  134.2939  157.5270 LP  0  0  0  0  0  0  0  0  0  0  0  0  # atno 17394 bound_to 11000
  139.8715  134.9474  156.3967 LP  0  0  0  0  0  0  0  0  0  0  0  0  # atno 17395 bound_to 11000

$$$$
