AV-unprocessed.smi:2063|AV-procd|sdf|8411|dock10
  -GOLD-   2272011103D 1   1.00000     0.00000
 Structure written by MMmdl.
 39 40  0  0  0  0  0  0  0  0  1 V2000
  152.1736  139.9656  158.4152 C   0  0  0  0  0  0  0  0  0  0  0  0
  151.8465  140.6401  157.0750 C   0  0  0  0  0  0  0  0  0  0  0  0
  151.0021  141.9131  157.2311 C   0  0  0  0  0  0  0  0  0  0  0  0
  151.2471  139.6824  156.0930 C   0  0  0  0  0  0  0  0  0  0  0  0
  150.9058  140.0339  154.8457 N   0  0  0  0  0  0  0  0  0  0  0  0
  150.3688  138.9757  154.1269 N   0  0  0  0  0  0  0  0  0  0  0  0
  150.3194  137.8518  154.8546 C   0  0  0  0  0  0  0  0  0  0  0  0
  149.8095  136.6188  154.3694 N   0  0  0  0  0  0  0  0  0  0  0  0
  149.6918  135.4501  155.0233 C   0  0  0  0  0  0  0  0  0  0  0  0
  149.9941  135.2595  156.2016 O   0  0  0  0  0  0  0  0  0  0  0  0
  149.1925  134.4979  154.2224 N   0  0  0  0  0  0  0  0  0  0  0  0
  148.9426  133.1101  154.6062 C   0  0  1  0  0  0  0  0  0  0  0  0
  148.0690  133.0734  155.8701 C   0  0  0  0  0  0  0  0  0  0  0  0
  148.2903  132.3549  153.4327 C   0  0  1  0  0  0  0  0  0  0  0  0
  147.7770  130.9560  153.7794 C   0  0  0  0  0  0  0  0  0  0  0  0
  146.6907  130.7085  152.7452 C   0  0  0  0  0  0  0  0  0  0  0  0
  146.3861  132.1000  152.1828 C   0  0  0  0  0  0  0  0  0  0  0  0
  147.1020  133.0057  153.0113 O   0  0  0  0  0  0  0  0  0  0  0  0
  150.9316  137.9972  156.4927 S   0  0  0  0  0  0  0  0  0  0  0  0
  152.8412  139.1151  158.2735 H   0  0  0  0  0  0  0  0  0  0  0  0
  151.2707  139.6028  158.9073 H   0  0  0  0  0  0  0  0  0  0  0  0
  152.6651  140.6613  159.0956 H   0  0  0  0  0  0  0  0  0  0  0  0
  152.8005  140.9568  156.6516 H   0  0  0  0  0  0  0  0  0  0  0  0
  150.8590  142.4089  156.2704 H   0  0  0  0  0  0  0  0  0  0  0  0
  151.4848  142.6244  157.9015 H   0  0  0  0  0  0  0  0  0  0  0  0
  150.0167  141.6881  157.6404 H   0  0  0  0  0  0  0  0  0  0  0  0
  149.5059  136.6258  153.4070 H   0  0  0  0  0  0  0  0  0  0  0  0
  148.9712  134.7482  153.2699 H   0  0  0  0  0  0  0  0  0  0  0  0
  149.8923  132.6208  154.8302 H   0  0  0  0  0  0  0  0  0  0  0  0
  147.8863  132.0481  156.1925 H   0  0  0  0  0  0  0  0  0  0  0  0
  147.1008  133.5452  155.6977 H   0  0  0  0  0  0  0  0  0  0  0  0
  148.5514  133.5946  156.6976 H   0  0  0  0  0  0  0  0  0  0  0  0
  148.9786  132.2955  152.5871 H   0  0  0  0  0  0  0  0  0  0  0  0
  148.5626  130.2003  153.7574 H   0  0  0  0  0  0  0  0  0  0  0  0
  147.3367  130.9539  154.7776 H   0  0  0  0  0  0  0  0  0  0  0  0
  147.0399  130.0442  151.9541 H   0  0  0  0  0  0  0  0  0  0  0  0
  145.8114  130.2537  153.2024 H   0  0  0  0  0  0  0  0  0  0  0  0
  146.7494  132.1873  151.1579 H   0  0  0  0  0  0  0  0  0  0  0  0
  145.3200  132.3284  152.1862 H   0  0  0  0  0  0  0  0  0  0  0  0
  1  2  1  0  0  0  0
  1 20  1  0  0  0  0
  1 21  1  0  0  0  0
  1 22  1  0  0  0  0
  2  3  1  0  0  0  0
  2  4  1  0  0  0  0
  2 23  1  0  0  0  0
  3 24  1  0  0  0  0
  3 25  1  0  0  0  0
  3 26  1  0  0  0  0
  4 19  1  0  0  0  0
  4  5  2  0  0  0  0
  5  6  1  0  0  0  0
  6  7  2  0  0  0  0
  7  8  1  0  0  0  0
  7 19  1  0  0  0  0
  8  9  1  0  0  0  0
  8 27  1  0  0  0  0
  9 10  2  0  0  0  0
  9 11  1  0  0  0  0
 11 12  1  0  0  0  0
 11 28  1  0  0  0  0
 12 13  1  0  0  0  0
 12 14  1  0  0  0  0
 12 29  1  0  0  0  0
 13 30  1  0  0  0  0
 13 31  1  0  0  0  0
 13 32  1  0  0  0  0
 14 18  1  0  0  0  0
 14 15  1  0  0  0  0
 14 33  1  0  0  0  0
 15 16  1  0  0  0  0
 15 34  1  0  0  0  0
 15 35  1  0  0  0  0
 16 17  1  0  0  0  0
 16 36  1  0  0  0  0
 16 37  1  0  0  0  0
 17 18  1  0  0  0  0
 17 38  1  0  0  0  0
 17 39  1  0  0  0  0
M  END
> <s_m_source_file>
AV-unprocessed.smi

> <i_m_source_file_index>
2063

> <i_lp_mmshare_version>
43012

> <i_f3d_flags>
0

> <s_epik_input>
W0NIM11bQ0hdKFtDSDNdKWMxbm5jKHMxKVtOSF1DKD1PKVtOSF1bQ0BIXShbQ0gzXSlbQ0BASF0yW0NIMl1bQ0gyXVtDSDJdTzI=

> <s_epik_cmdline>
J2VwaWtfcHl0aG9uJywgJy1waCcsICc3LjAnLCAnLXRuJywgJzgnLCAnLW1hJywgJzIwMCcsICctbWV0YWxfYmluZGluZycsICctaW1hZScsICc8aW5maWxlLm1hZT4nLCAnLW9tYWUnLCAnPG91dGZpbGUubWFlPic=

> <r_lp_tautomer_probability>
1

> <r_epik_Ionization_Penalty>
0.00050567

> <r_epik_Ionization_Penalty_Charging>
0

> <r_epik_Ionization_Penalty_Neutral>
0.00050567

> <r_epik_State_Penalty>
-0

> <r_epik_Charging_Adjusted_Penalty>
0

> <i_epik_Tot_Q>
0

> <i_epik_Tot_abs_Q>
0

> <r_epik_Metal_State_Penalty>
0.219912

> <b_epik_Metal_Only>
0

> <s_lp_Force_Field>
OPLS_2005

> <r_lp_Energy>
10.6247

> <b_lp_Chiralities_Consistent>
1

> <s_lp_Variant>
AV-unprocessed.smi:2063-4

> <Gold.Version>
5.8.1

> <Gold.Id.Protein>
6NUR|6NUR_protein|mol2

> <Gold.PLP.Fitness>
34.9393

> <Gold.PLP.PLP>
-27.3042

> <Gold.PLP.part.hbond>
-3.7288

> <Gold.PLP.part.metal>
0.0000

> <Gold.PLP.part.buried>
-4.2643

> <Gold.PLP.part.nonpolar>
-20.0551

> <Gold.PLP.part.repulsive>
0.4833

> <Gold.PLP.ligand.clash>
0.0000

> <Gold.PLP.ligand.torsion>
0.1434

> <Gold.PLP.Chemscore.Hbond>
2.6080

> <Gold.PLP.Chemscore.CHOScore>
0.0000

> <Gold.PLP.Chemscore.Metal>
0.0000

> <Gold.Chemscore.Hbonds>
donor molecule, donor type, donor heavy atom, donor atom, acceptor molecule, acceptor atom, score
      L1  H     8    27       P1  7948  1.00
      L1  H    11    28       P1  7948  0.80
      P1  H  7989  7998       L1     5  0.85

> <Gold.PLP.Chemscore.Internal.Correction>
0.0980

> <Gold.Rescore>
     Score         DG    S(hbond)    S(metal)    S(lipo)     H(rot)  DE(clash)    DE(int)     intcor
     11.65     -14.50       1.70        0.00      59.53       1.42       0.21       2.65       ----

> <Gold.Chemscore.Fitness>
11.6483

> <Gold.Chemscore.DG>
-14.5024

> <Gold.Chemscore.ZeroCoef>
-5.4800

> <Gold.Chemscore.Hbond>
1.7007

> <Gold.Chemscore.Metal>
0.0000

> <Gold.Chemscore.Lipo>
59.5298

> <Gold.Chemscore.Internal_Hbond>
0.0000

> <Gold.Chemscore.DEClash>
0.2061

> <Gold.Chemscore.DEInternal>
2.6480

> <Gold.Chemscore.Rot>
1.4152

> <Gold.Chemscore.Internal.Correction>
   9.000000E+99

> <Gold.Chemscore.Hbonds>
donor molecule, donor type, donor heavy atom, donor atom, acceptor molecule, acceptor atom, score
      L1  H     8    27       P1  7948  0.74
      L1  H    11    28       P1  7948  0.13
      P1  H  7989  7998       L1     5  0.15

> <Gold.Chemscore.Hbond.Weighted>
-5.6804

> <Gold.Chemscore.Metal.Weighted>
-0.0000

> <Gold.Chemscore.Lipo.Weighted>
-6.9650

> <Gold.Chemscore.Internal_Hbond.Weighted>
0.0000

> <Gold.Chemscore.DEClash.Weighted>
0.2061

> <Gold.Chemscore.DEInternal.Weighted>
2.6480

> <Gold.Chemscore.Rot.Weighted>
3.6229

> <Gold.Chemscore.Internal.Correction.Weighted>
   9.000000E+99

> <Gold.Protein.RotatedTorsions>
[ 6907 6896 6895 6894 ] final   62.01 input  -60.11 | X-H torsion
[ 7974 7965 7964 7962 ] final   79.79 input  175.53 | X-H torsion
[ 8008 7997 7996 7995 ] final   31.42 input   59.86 | X-H torsion
[ 10167 10162 10161 10158 ] final -104.67 input  -65.29 | X-H torsion
[ 10718 10713 10712 10709 ] final -100.30 input   66.30 | X-H torsion
[ 10763 10752 10751 10750 ] final   51.63 input  -60.55 | X-H torsion
[ 11005 11000 10999 10996 ] final   15.91 input  -57.11 | X-H torsion

> <Gold.Protein.ActiveResidues>
 VAL166  LYS551  ARG553  GLY616  TRP617  ASP618  TYR619  PRO620  LYS621  CYS622 
 ASP623  PHE694  ASN695  SER759  ASP760  ASP761  ALA762  ILE779  LEU786  VAL792 
 PHE793  MET794  SER795  GLU796  ALA797  LYS798  CYS799  TRP800  GLU811  SER814 

> <Gold.Protein.RotatedAtoms>
  152.4137  134.6079  160.0017 H   0  0  0  0  0  0  0  0  0  0  0  0  # atno 6907 bound_to 6896
  151.6249  133.3330  159.3104 H   0  0  0  0  0  0  0  0  0  0  0  0  # atno 6908 bound_to 6896
  150.8026  134.7170  159.6681 H   0  0  0  0  0  0  0  0  0  0  0  0  # atno 6909 bound_to 6896
  145.6596  139.2468  143.1930 H   0  0  0  0  0  0  0  0  0  0  0  0  # atno 7974 bound_to 7965
  155.1062  140.3234  155.4534 H   0  0  0  0  0  0  0  0  0  0  0  0  # atno 8008 bound_to 7997
  156.2703  140.2052  156.6134 H   0  0  0  0  0  0  0  0  0  0  0  0  # atno 8009 bound_to 7997
  154.6791  140.0528  157.0234 H   0  0  0  0  0  0  0  0  0  0  0  0  # atno 8010 bound_to 7997
  140.2068  143.3776  152.1084 H   0  0  0  0  0  0  0  0  0  0  0  0  # atno 10167 bound_to 10162
  156.0159  130.5321  150.6796 H   0  0  0  0  0  0  0  0  0  0  0  0  # atno 10718 bound_to 10713
  152.9786  135.5839  154.4447 H   0  0  0  0  0  0  0  0  0  0  0  0  # atno 10763 bound_to 10752
  154.4043  135.2769  155.2078 H   0  0  0  0  0  0  0  0  0  0  0  0  # atno 10764 bound_to 10752
  154.3896  135.6128  153.5890 H   0  0  0  0  0  0  0  0  0  0  0  0  # atno 10765 bound_to 10752
  140.4530  134.1205  155.7705 H   0  0  0  0  0  0  0  0  0  0  0  0  # atno 11005 bound_to 11000
  146.1136  140.7397  142.9491 LP  0  0  0  0  0  0  0  0  0  0  0  0  # atno 17320 bound_to 7965
  144.7094  140.3979  143.7093 LP  0  0  0  0  0  0  0  0  0  0  0  0  # atno 17321 bound_to 7965
  139.5195  144.7021  151.5464 LP  0  0  0  0  0  0  0  0  0  0  0  0  # atno 17342 bound_to 10162
  140.6351  143.8999  150.6640 LP  0  0  0  0  0  0  0  0  0  0  0  0  # atno 17343 bound_to 10162
  157.4501  131.0871  151.0854 LP  0  0  0  0  0  0  0  0  0  0  0  0  # atno 17370 bound_to 10713
  157.1373  130.6128  149.5545 LP  0  0  0  0  0  0  0  0  0  0  0  0  # atno 17371 bound_to 10713
  141.1655  133.8710  157.1725 LP  0  0  0  0  0  0  0  0  0  0  0  0  # atno 17394 bound_to 11000
  139.9994  135.0033  157.0157 LP  0  0  0  0  0  0  0  0  0  0  0  0  # atno 17395 bound_to 11000

$$$$
