#       Name:                AV-unprocessed.smi:3278
#       Creating user name   scv26
#       Creation time:       Fri Mar 27 18:46:03 2020


#       File generated by GOLD software.
#

@<TRIPOS>MOLECULE
AV-unprocessed.smi:3278
    42    43     1
SMALL
NO_CHARGES


@<TRIPOS>ATOM
      1 ****        -2.9956   0.3146  -3.8777 C.3            1 S1                 0.0000
      2 ****        -2.8796   0.1386  -2.4458 N.pl3          1 S1                 0.0000
      3 ****        -2.2167   0.9289  -1.5325 C.2            1 S1                 0.0000
      4 ****        -2.3833   0.3659  -0.2971 C.2            1 S1                 0.0000
      5 ****        -1.8496   0.8447   1.0369 C.3            1 S1                 0.0000
      6 ****        -2.4790   2.2030   1.3904 C.3            1 S1                 0.0000
      7 ****        -2.2014  -0.0236   2.0982 O.3            1 S1                 0.0000
      8 ****        -0.3090   0.9626   1.0327 C.3            1 S1                 0.0000
      9 ****         0.3378  -0.2721   0.5786 N.3            1 S1                 0.0000
     10 ****         1.7989  -0.2301   0.4742 C.3            1 S1                 0.0000
     11 ****         2.2837  -1.5169  -0.2221 C.3            1 S1                 0.0000
     12 ****         3.7980  -1.5259  -0.4817 C.3            1 S1                 0.0000
     13 ****         4.6110  -1.4517   0.8166 C.3            1 S1                 0.0000
     14 ****         4.2753   0.0905   1.7057 S.3            1 S1                 0.0000
     15 ****         2.4732  -0.0604   1.8539 C.3            1 S1                 0.0000
     16 ****        -3.1776  -0.7862  -0.5729 C.2            1 S1                 0.0000
     17 ****        -3.4721  -0.9187  -1.8560 N.2            1 S1                 0.0000
     18 ****        -2.5613   1.2699  -4.1736 H              1 S1                 0.0000
     19 ****        -4.0461   0.2979  -4.1695 H              1 S1                 0.0000
     20 ****        -2.4679  -0.4895  -4.3912 H              1 S1                 0.0000
     21 ****        -1.6833   1.8189  -1.8322 H              1 S1                 0.0000
     22 ****        -2.2372   2.9596   0.6431 H              1 S1                 0.0000
     23 ****        -2.1225   2.5710   2.3534 H              1 S1                 0.0000
     24 ****        -3.5662   2.1334   1.4460 H              1 S1                 0.0000
     25 ****        -1.8561   0.3310   2.9031 H              1 S1                 0.0000
     26 ****        -0.0145   1.7803   0.3736 H              1 S1                 0.0000
     27 ****         0.0293   1.2366   2.0315 H              1 S1                 0.0000
     28 ****         0.0553  -1.0415   1.1774 H              1 S1                 0.0000
     29 ****         2.0778   0.6179  -0.1529 H              1 S1                 0.0000
     30 ****         2.0106  -2.3894   0.3734 H              1 S1                 0.0000
     31 ****         1.7670  -1.6279  -1.1765 H              1 S1                 0.0000
     32 ****         4.0638  -2.4362  -1.0193 H              1 S1                 0.0000
     33 ****         4.0670  -0.6951  -1.1349 H              1 S1                 0.0000
     34 ****         4.3734  -2.2964   1.4641 H              1 S1                 0.0000
     35 ****         5.6777  -1.5048   0.5985 H              1 S1                 0.0000
     36 ****         2.1249   0.8372   2.3624 H              1 S1                 0.0000
     37 ****         2.2402  -0.9064   2.5017 H              1 S1                 0.0000
     38 ****        -3.5465  -1.5281   0.1199 H              1 S1                 0.0000
     39 ****        -1.8127  -0.9304   1.9350 LP             1 S1                 0.0000
     40 ****        -3.1970  -0.0941   2.1604 LP             1 S1                 0.0000
     41 ****         0.0228  -0.4003  -0.3618 LP             1 S1                 0.0000
     42 ****        -4.0120  -1.6400  -2.2899 LP             1 S1                 0.0000
@<TRIPOS>BOND
    1    1    2 1     
    2    1   18 1     
    3    1   19 1     
    4    1   20 1     
    5    2   17 1     
    6    2    3 1     
    7    3    4 2     
    8    3   21 1     
    9    4    5 1     
   10    4   16 1     
   11    5    6 1     
   12    5    7 1     
   13    5    8 1     
   14    6   22 1     
   15    6   23 1     
   16    6   24 1     
   17    7   25 1     
   18    8    9 1     
   19    8   26 1     
   20    8   27 1     
   21    9   10 1     
   22    9   28 1     
   23   10   15 1     
   24   10   11 1     
   25   10   29 1     
   26   11   12 1     
   27   11   30 1     
   28   11   31 1     
   29   12   13 1     
   30   12   32 1     
   31   12   33 1     
   32   13   14 1     
   33   13   34 1     
   34   13   35 1     
   35   14   15 1     
   36   15   36 1     
   37   15   37 1     
   38   16   17 2     
   39   16   38 1     
   40    7   39 1     
   41    7   40 1     
   42    9   41 1     
   43   17   42 1     
@<TRIPOS>SUBSTRUCTURE
      1 S1             1
@<TRIPOS>SET
LONE_PAIRS      STATIC     ATOMS    <user>   **** ""
4 39 40 41 42
DONOR_HYDROGENS      STATIC     ATOMS    <user>   **** ""
2 25 28
ATOM$BLUE        STATIC     ATOMS    COLORGROUP SYSTEM
4 39 40 41 42
ATOM$RED        STATIC     ATOMS    COLORGROUP SYSTEM
2 25 28
