AV-unprocessed.smi:1360|AV-procd|sdf|5552|dock4
  -GOLD-   22720 5143D 1   1.00000     0.00000
 Structure written by MMmdl.
 36 37  0  0  0  0  0  0  0  0  1 V2000
  150.9410  138.3361  158.0469 C   0  0  0  0  0  0  0  0  0  0  0  0
  152.2508  139.0540  157.6823 C   0  0  1  0  0  0  0  0  0  0  0  0
  152.3639  139.3887  156.1789 C   0  0  0  0  0  0  0  0  0  0  0  0
  151.2195  140.1316  155.6823 N   0  0  0  0  0  0  0  0  0  0  0  0
  150.6804  141.3003  156.1772 C   0  0  0  0  0  0  0  0  0  0  0  0
  149.6154  141.6234  155.3861 C   0  0  0  0  0  0  0  0  0  0  0  0
  149.5796  140.5762  154.4233 C   0  0  0  0  0  0  0  0  0  0  0  0
  150.5404  139.6843  154.6034 N   0  0  0  0  0  0  0  0  0  0  0  0
  152.3648  140.2725  158.4786 N   0  0  0  0  0  0  0  0  0  0  0  0
  153.4474  140.6497  159.1770 C   0  0  0  0  0  0  0  0  0  0  0  0
  154.4877  139.9918  159.2180 O   0  0  0  0  0  0  0  0  0  0  0  0
  153.3370  141.9732  159.9460 C   0  0  2  0  0  0  0  0  0  0  0  0
  153.1381  141.7297  161.4602 C   0  0  0  0  0  0  0  0  0  0  0  0
  152.7745  143.0041  162.2020 C   0  0  0  0  0  0  0  0  0  0  0  0
  152.3451  144.1200  161.5880 C   0  0  0  0  0  0  0  0  0  0  0  0
  152.1691  144.2313  160.0838 C   0  0  0  0  0  0  0  0  0  0  0  0
  152.2025  142.8565  159.3892 C   0  0  0  0  0  0  0  0  0  0  0  0
  150.8595  137.3724  157.5441 H   0  0  0  0  0  0  0  0  0  0  0  0
  150.0716  138.9322  157.7676 H   0  0  0  0  0  0  0  0  0  0  0  0
  150.8841  138.1460  159.1192 H   0  0  0  0  0  0  0  0  0  0  0  0
  153.0716  138.3861  157.9513 H   0  0  0  0  0  0  0  0  0  0  0  0
  153.2707  139.9648  155.9863 H   0  0  0  0  0  0  0  0  0  0  0  0
  152.4481  138.4737  155.5910 H   0  0  0  0  0  0  0  0  0  0  0  0
  151.0973  141.7994  157.0397 H   0  0  0  0  0  0  0  0  0  0  0  0
  148.9609  142.4771  155.4809 H   0  0  0  0  0  0  0  0  0  0  0  0
  148.8885  140.4385  153.6047 H   0  0  0  0  0  0  0  0  0  0  0  0
  151.5553  140.8754  158.5030 H   0  0  0  0  0  0  0  0  0  0  0  0
  154.2727  142.5203  159.8149 H   0  0  0  0  0  0  0  0  0  0  0  0
  152.3507  140.9977  161.6461 H   0  0  0  0  0  0  0  0  0  0  0  0
  154.0545  141.3258  161.8918 H   0  0  0  0  0  0  0  0  0  0  0  0
  152.8621  142.9831  163.2783 H   0  0  0  0  0  0  0  0  0  0  0  0
  152.1153  144.9994  162.1715 H   0  0  0  0  0  0  0  0  0  0  0  0
  151.2262  144.7340  159.8675 H   0  0  0  0  0  0  0  0  0  0  0  0
  152.9649  144.8686  159.6971 H   0  0  0  0  0  0  0  0  0  0  0  0
  152.3106  142.9935  158.3124 H   0  0  0  0  0  0  0  0  0  0  0  0
  151.2442  142.3569  159.5409 H   0  0  0  0  0  0  0  0  0  0  0  0
  1  2  1  0  0  0  0
  1 18  1  0  0  0  0
  1 19  1  0  0  0  0
  1 20  1  0  0  0  0
  2  3  1  0  0  0  0
  2  9  1  0  0  0  0
  2 21  1  0  0  0  0
  3  4  1  0  0  0  0
  3 22  1  0  0  0  0
  3 23  1  0  0  0  0
  4  8  1  0  0  0  0
  4  5  1  0  0  0  0
  5  6  2  0  0  0  0
  5 24  1  0  0  0  0
  6  7  1  0  0  0  0
  6 25  1  0  0  0  0
  7  8  2  0  0  0  0
  7 26  1  0  0  0  0
  9 10  1  0  0  0  0
  9 27  1  0  0  0  0
 10 11  2  0  0  0  0
 10 12  1  0  0  0  0
 12 17  1  0  0  0  0
 12 13  1  0  0  0  0
 12 28  1  0  0  0  0
 13 14  1  0  0  0  0
 13 29  1  0  0  0  0
 13 30  1  0  0  0  0
 14 15  2  0  0  0  0
 14 31  1  0  0  0  0
 15 16  1  0  0  0  0
 15 32  1  0  0  0  0
 16 17  1  0  0  0  0
 16 33  1  0  0  0  0
 16 34  1  0  0  0  0
 17 35  1  0  0  0  0
 17 36  1  0  0  0  0
M  END
> <s_m_source_file>
AV-unprocessed.smi

> <i_m_source_file_index>
1360

> <i_lp_mmshare_version>
43012

> <i_f3d_flags>
0

> <s_epik_input>
bjFbY0hdW2NIXVtjSF1uMVtDSDJdW0NAQEhdKFtDSDNdKVtOSF1DKD1PKVtDQEBIXTJbQ0gyXVtDSF09W0NIXVtDSDJdW0NIMl0y

> <s_epik_cmdline>
J2VwaWtfcHl0aG9uJywgJy1waCcsICc3LjAnLCAnLXRuJywgJzgnLCAnLW1hJywgJzIwMCcsICctbWV0YWxfYmluZGluZycsICctaW1hZScsICc8aW5maWxlLm1hZT4nLCAnLW9tYWUnLCAnPG91dGZpbGUubWFlPic=

> <r_lp_tautomer_probability>
1

> <r_epik_Ionization_Penalty>
0.000315076

> <r_epik_Ionization_Penalty_Charging>
0

> <r_epik_Ionization_Penalty_Neutral>
0.000315076

> <r_epik_State_Penalty>
-0

> <r_epik_Charging_Adjusted_Penalty>
0

> <i_epik_Tot_Q>
0

> <i_epik_Tot_abs_Q>
0

> <r_epik_Metal_State_Penalty>
-0

> <b_epik_Metal_Only>
0

> <s_lp_Force_Field>
OPLS_2005

> <r_lp_Energy>
7.97441

> <b_lp_Chiralities_Consistent>
1

> <s_lp_Variant>
AV-unprocessed.smi:1360-2

> <Gold.Version>
5.8.1

> <Gold.Id.Protein>
6NUR|6NUR_protein|mol2

> <Gold.PLP.Fitness>
45.6214

> <Gold.PLP.PLP>
-41.1603

> <Gold.PLP.part.hbond>
-2.0000

> <Gold.PLP.part.metal>
0.0000

> <Gold.PLP.part.buried>
-0.0186

> <Gold.PLP.part.nonpolar>
-37.7558

> <Gold.PLP.part.repulsive>
0.1976

> <Gold.PLP.ligand.clash>
0.1950

> <Gold.PLP.ligand.torsion>
0.7275

> <Gold.PLP.Chemscore.Hbond>
1.1250

> <Gold.PLP.Chemscore.CHOScore>
0.8991

> <Gold.PLP.Chemscore.Metal>
0.0000

> <Gold.Chemscore.Hbonds>
donor molecule, donor type, donor heavy atom, donor atom, acceptor molecule, acceptor atom, score
      P1  H  7989  7998       L1     8  0.11
      P1  H  7997  8009       L1    11  1.00
      L1  C     7    26       P1  7957  0.78

> <Gold.PLP.Chemscore.Internal.Correction>
0.0389

> <Gold.Rescore>
     Score         DG    S(hbond)    S(metal)    S(lipo)     H(rot)  DE(clash)    DE(int)     intcor
     15.80     -16.46       0.72        0.00     106.17       1.51       0.07       0.59       ----

> <Gold.Chemscore.Fitness>
15.7987

> <Gold.Chemscore.DG>
-16.4572

> <Gold.Chemscore.ZeroCoef>
-5.4800

> <Gold.Chemscore.Hbond>
0.7216

> <Gold.Chemscore.Metal>
0.0000

> <Gold.Chemscore.Lipo>
106.1691

> <Gold.Chemscore.Internal_Hbond>
0.0000

> <Gold.Chemscore.DEClash>
0.0728

> <Gold.Chemscore.DEInternal>
0.5857

> <Gold.Chemscore.Rot>
1.5057

> <Gold.Chemscore.Internal.Correction>
   9.000000E+99

> <Gold.Chemscore.Hbonds>
donor molecule, donor type, donor heavy atom, donor atom, acceptor molecule, acceptor atom, score
      P1  H  7997  8009       L1    11  0.37

> <Gold.Chemscore.Hbond.Weighted>
-2.4100

> <Gold.Chemscore.Metal.Weighted>
-0.0000

> <Gold.Chemscore.Lipo.Weighted>
-12.4218

> <Gold.Chemscore.Internal_Hbond.Weighted>
0.0000

> <Gold.Chemscore.DEClash.Weighted>
0.0728

> <Gold.Chemscore.DEInternal.Weighted>
0.5857

> <Gold.Chemscore.Rot.Weighted>
3.8546

> <Gold.Chemscore.Internal.Correction.Weighted>
   9.000000E+99

> <Gold.Protein.RotatedTorsions>
[ 6907 6896 6895 6894 ] final  -88.41 input  -60.11 | X-H torsion
[ 7974 7965 7964 7962 ] final -140.24 input  175.53 | X-H torsion
[ 8008 7997 7996 7995 ] final  120.11 input   59.86 | X-H torsion
[ 10167 10162 10161 10158 ] final  -77.15 input  -65.29 | X-H torsion
[ 10718 10713 10712 10709 ] final  120.10 input   66.30 | X-H torsion
[ 10763 10752 10751 10750 ] final  -23.24 input  -60.55 | X-H torsion
[ 11005 11000 10999 10996 ] final -173.25 input  -57.11 | X-H torsion

> <Gold.Protein.ActiveResidues>
 VAL166  LYS551  ARG553  GLY616  TRP617  ASP618  TYR619  PRO620  LYS621  CYS622 
 ASP623  PHE694  ASN695  SER759  ASP760  ASP761  ALA762  ILE779  LEU786  VAL792 
 PHE793  MET794  SER795  GLU796  ALA797  LYS798  CYS799  TRP800  GLU811  SER814 

> <Gold.Protein.RotatedAtoms>
  150.6868  134.2747  159.4602 H   0  0  0  0  0  0  0  0  0  0  0  0  # atno 6907 bound_to 6896
  152.0666  134.9558  160.0584 H   0  0  0  0  0  0  0  0  0  0  0  0  # atno 6908 bound_to 6896
  152.0964  133.4192  159.4604 H   0  0  0  0  0  0  0  0  0  0  0  0  # atno 6909 bound_to 6896
  144.8612  140.6223  143.5327 H   0  0  0  0  0  0  0  0  0  0  0  0  # atno 7974 bound_to 7965
  156.2627  140.2838  156.1097 H   0  0  0  0  0  0  0  0  0  0  0  0  # atno 8008 bound_to 7997
  155.1270  140.0393  157.2782 H   0  0  0  0  0  0  0  0  0  0  0  0  # atno 8009 bound_to 7997
  154.6628  140.2570  155.7097 H   0  0  0  0  0  0  0  0  0  0  0  0  # atno 8010 bound_to 7997
  140.4795  143.2406  151.8080 H   0  0  0  0  0  0  0  0  0  0  0  0  # atno 10167 bound_to 10162
  157.5915  131.1063  150.7988 H   0  0  0  0  0  0  0  0  0  0  0  0  # atno 10718 bound_to 10713
  153.6647  135.6974  153.5166 H   0  0  0  0  0  0  0  0  0  0  0  0  # atno 10763 bound_to 10752
  153.2604  135.4246  155.0887 H   0  0  0  0  0  0  0  0  0  0  0  0  # atno 10764 bound_to 10752
  154.8442  135.3553  154.6192 H   0  0  0  0  0  0  0  0  0  0  0  0  # atno 10765 bound_to 10752
  140.4879  134.6013  157.4944 H   0  0  0  0  0  0  0  0  0  0  0  0  # atno 11005 bound_to 11000
  145.4308  139.1549  143.4023 LP  0  0  0  0  0  0  0  0  0  0  0  0  # atno 17320 bound_to 7965
  146.2862  140.4424  142.8757 LP  0  0  0  0  0  0  0  0  0  0  0  0  # atno 17321 bound_to 7965
  139.4831  144.4791  151.9330 LP  0  0  0  0  0  0  0  0  0  0  0  0  # atno 17342 bound_to 10162
  140.3876  144.2657  150.5902 LP  0  0  0  0  0  0  0  0  0  0  0  0  # atno 17343 bound_to 10162
  156.8409  130.5047  149.5321 LP  0  0  0  0  0  0  0  0  0  0  0  0  # atno 17370 bound_to 10713
  156.0970  130.5940  150.9831 LP  0  0  0  0  0  0  0  0  0  0  0  0  # atno 17371 bound_to 10713
  139.9787  134.7173  155.9901 LP  0  0  0  0  0  0  0  0  0  0  0  0  # atno 17394 bound_to 11000
  141.1499  133.6550  156.3980 LP  0  0  0  0  0  0  0  0  0  0  0  0  # atno 17395 bound_to 11000

$$$$
