#       Name:                AV-unprocessed.smi:960
#       Creating user name   scv26
#       Creation time:       Fri Mar 27 02:18:13 2020


#       File generated by GOLD software.
#

@<TRIPOS>MOLECULE
AV-unprocessed.smi:960
    51    52     1
SMALL
NO_CHARGES


@<TRIPOS>ATOM
      1 ****        -5.7291  -2.6240   0.8491 C.2            1 S1                 0.0000
      2 ****        -4.6650  -2.8106   0.0511 C.2            1 S1                 0.0000
      3 ****        -3.9809  -4.1591  -0.0744 C.3            1 S1                 0.0000
      4 ****        -4.0905  -1.6863  -0.7986 C.3            1 S1                 0.0000
      5 ****        -2.6890  -1.3886  -0.5022 N.3            1 S1                 0.0000
      6 ****        -2.5187  -0.9201   0.8777 C.3            1 S1                 0.0000
      7 ****        -1.0295  -0.6825   1.1833 C.3            1 S1                 0.0000
      8 ****        -0.4153   0.3345   0.2099 C.3            1 S1                 0.0000
      9 ****         1.0233   0.4314   0.4383 N.am           1 S1                 0.0000
     10 ****         1.7951   1.4661   0.0776 C.2            1 S1                 0.0000
     11 ****         1.3657   2.4787  -0.4744 O.2            1 S1                 0.0000
     12 ****         3.0774   1.2597   0.4137 N.am           1 S1                 0.0000
     13 ****         4.1752   2.1191   0.1579 C.2            1 S1                 0.0000
     14 ****         4.4549   2.9193  -0.9891 C.2            1 S1                 0.0000
     15 ****         3.6956   3.1082  -2.2728 C.3            1 S1                 0.0000
     16 ****         5.6142   3.5413  -0.8318 N.2            1 S1                 0.0000
     17 ****         6.1281   3.1305   0.4075 O.3            1 S1                 0.0000
     18 ****         5.2552   2.2602   0.9785 C.2            1 S1                 0.0000
     19 ****         5.6367   1.6885   2.3020 C.3            1 S1                 0.0000
     20 ****        -0.7126  -0.1073  -1.2334 C.3            1 S1                 0.0000
     21 ****        -2.2154  -0.3653  -1.4357 C.3            1 S1                 0.0000
     22 ****        -6.1345  -3.4310   1.4417 H              1 S1                 0.0000
     23 ****        -6.2111  -1.6601   0.9225 H              1 S1                 0.0000
     24 ****        -3.9983  -4.4962  -1.1107 H              1 S1                 0.0000
     25 ****        -4.4759  -4.9148   0.5361 H              1 S1                 0.0000
     26 ****        -2.9413  -4.0940   0.2478 H              1 S1                 0.0000
     27 ****        -4.1832  -1.9814  -1.8446 H              1 S1                 0.0000
     28 ****        -4.6925  -0.7851  -0.6704 H              1 S1                 0.0000
     29 ****        -3.0898  -0.0036   1.0345 H              1 S1                 0.0000
     30 ****        -2.9032  -1.6590   1.5807 H              1 S1                 0.0000
     31 ****        -0.9169  -0.3313   2.2097 H              1 S1                 0.0000
     32 ****        -0.4942  -1.6313   1.1204 H              1 S1                 0.0000
     33 ****        -0.8777   1.3071   0.3902 H              1 S1                 0.0000
     34 ****         1.4640  -0.3545   0.8935 H              1 S1                 0.0000
     35 ****         3.2745   0.4451   0.9766 H              1 S1                 0.0000
     36 ****         3.1797   2.1936  -2.5649 H              1 S1                 0.0000
     37 ****         4.3598   3.3812  -3.0935 H              1 S1                 0.0000
     38 ****         2.9516   3.8986  -2.1748 H              1 S1                 0.0000
     39 ****         4.9245   0.9276   2.6215 H              1 S1                 0.0000
     40 ****         5.6635   2.4669   3.0644 H              1 S1                 0.0000
     41 ****         6.6233   1.2276   2.2536 H              1 S1                 0.0000
     42 ****        -0.3750   0.6538  -1.9375 H              1 S1                 0.0000
     43 ****        -0.1555  -1.0154  -1.4690 H              1 S1                 0.0000
     44 ****        -2.3859  -0.6982  -2.4604 H              1 S1                 0.0000
     45 ****        -2.7804   0.5586  -1.3011 H              1 S1                 0.0000
     46 ****        -2.1552  -2.2278  -0.6054 LP             1 S1                 0.0000
     47 ****         0.3901   2.5619  -0.6777 LP             1 S1                 0.0000
     48 ****         1.9923   3.2184  -0.7197 LP             1 S1                 0.0000
     49 ****         6.0404   4.1800  -1.4724 LP             1 S1                 0.0000
     50 ****         6.2467   3.9258   1.0021 LP             1 S1                 0.0000
     51 ****         7.0109   2.6806   0.2725 LP             1 S1                 0.0000
@<TRIPOS>BOND
    1    1    2 2     
    2    1   22 1     
    3    1   23 1     
    4    2    3 1     
    5    2    4 1     
    6    3   24 1     
    7    3   25 1     
    8    3   26 1     
    9    4    5 1     
   10    4   27 1     
   11    4   28 1     
   12    5   21 1     
   13    5    6 1     
   14    6    7 1     
   15    6   29 1     
   16    6   30 1     
   17    7    8 1     
   18    7   31 1     
   19    7   32 1     
   20    8    9 1     
   21    8   20 1     
   22    8   33 1     
   23    9   10 am    
   24    9   34 1     
   25   10   11 2     
   26   10   12 am    
   27   12   13 1     
   28   12   35 1     
   29   13   18 2     
   30   13   14 1     
   31   14   15 1     
   32   14   16 2     
   33   15   36 1     
   34   15   37 1     
   35   15   38 1     
   36   16   17 1     
   37   17   18 1     
   38   18   19 1     
   39   19   39 1     
   40   19   40 1     
   41   19   41 1     
   42   20   21 1     
   43   20   42 1     
   44   20   43 1     
   45   21   44 1     
   46   21   45 1     
   47    5   46 1     
   48   11   47 1     
   49   11   48 1     
   50   16   49 1     
   51   17   50 1     
   52   17   51 1     
@<TRIPOS>SUBSTRUCTURE
      1 S1             1
@<TRIPOS>SET
LONE_PAIRS      STATIC     ATOMS    <user>   **** ""
6 46 47 48 49 50 51
DONOR_HYDROGENS      STATIC     ATOMS    <user>   **** ""
2 34 35
ATOM$BLUE        STATIC     ATOMS    COLORGROUP SYSTEM
6 46 47 48 49 50 51
ATOM$RED        STATIC     ATOMS    COLORGROUP SYSTEM
2 34 35
