AV-unprocessed.smi:2575|AV-procd|sdf|10117|dock3
  -GOLD-   2272014133D 1   1.00000     0.00000
 Structure written by MMmdl.
 31 32  0  0  0  0  0  0  0  0  1 V2000
  146.2031  143.1504  153.7514 C   0  0  0  0  0  0  0  0  0  0  0  0
  146.2105  141.8538  154.5642 C   0  0  0  0  0  0  0  0  0  0  0  0
  147.5100  141.6524  155.0934 O   0  0  0  0  0  0  0  0  0  0  0  0
  148.3332  140.8639  154.2475 C   0  0  0  0  0  0  0  0  0  0  0  0
  149.5941  140.4105  155.0014 C   0  0  1  0  0  0  0  0  0  0  0  0
  150.4050  139.6409  154.1349 O   0  0  0  0  0  0  0  0  0  0  0  0
  150.3869  141.5719  155.6335 C   0  0  0  0  0  0  0  0  0  0  0  0
  151.2603  141.1290  156.7055 N   0  0  0  0  0  0  0  0  0  0  0  0
  151.9310  139.9494  156.5766 N   0  0  0  0  0  0  0  0  0  0  0  0
  152.6451  139.7578  157.6454 N   0  0  0  0  0  0  0  0  0  0  0  0
  152.4410  140.8319  158.4954 C   0  0  0  0  0  0  0  0  0  0  0  0
  152.9595  141.1329  159.7746 C   0  0  0  0  0  0  0  0  0  0  0  0
  152.5821  142.3221  160.4364 C   0  0  0  0  0  0  0  0  0  0  0  0
  153.2361  142.6541  162.0009 Cl  0  0  0  0  0  0  0  0  0  0  0  0
  151.6808  143.2259  159.8234 C   0  0  0  0  0  0  0  0  0  0  0  0
  151.2114  144.6864  160.6182 Cl  0  0  0  0  0  0  0  0  0  0  0  0
  151.1552  142.9381  158.5479 C   0  0  0  0  0  0  0  0  0  0  0  0
  151.5417  141.7482  157.9078 C   0  0  0  0  0  0  0  0  0  0  0  0
  145.2170  143.3379  153.3260 H   0  0  0  0  0  0  0  0  0  0  0  0
  146.9182  143.1009  152.9299 H   0  0  0  0  0  0  0  0  0  0  0  0
  146.4670  144.0049  154.3751 H   0  0  0  0  0  0  0  0  0  0  0  0
  145.4802  141.9172  155.3722 H   0  0  0  0  0  0  0  0  0  0  0  0
  145.9286  141.0142  153.9273 H   0  0  0  0  0  0  0  0  0  0  0  0
  147.7707  139.9833  153.9332 H   0  0  0  0  0  0  0  0  0  0  0  0
  148.6008  141.4126  153.3426 H   0  0  0  0  0  0  0  0  0  0  0  0
  149.2756  139.7337  155.7953 H   0  0  0  0  0  0  0  0  0  0  0  0
  149.9035  138.8982  153.8342 H   0  0  0  0  0  0  0  0  0  0  0  0
  150.9951  142.0774  154.8825 H   0  0  0  0  0  0  0  0  0  0  0  0
  149.7019  142.3215  156.0327 H   0  0  0  0  0  0  0  0  0  0  0  0
  153.6481  140.4480  160.2472 H   0  0  0  0  0  0  0  0  0  0  0  0
  150.4673  143.6194  158.0688 H   0  0  0  0  0  0  0  0  0  0  0  0
  1  2  1  0  0  0  0
  1 19  1  0  0  0  0
  1 20  1  0  0  0  0
  1 21  1  0  0  0  0
  2  3  1  0  0  0  0
  2 22  1  0  0  0  0
  2 23  1  0  0  0  0
  3  4  1  0  0  0  0
  4  5  1  0  0  0  0
  4 24  1  0  0  0  0
  4 25  1  0  0  0  0
  5  6  1  0  0  0  0
  5  7  1  0  0  0  0
  5 26  1  0  0  0  0
  6 27  1  0  0  0  0
  7  8  1  0  0  0  0
  7 28  1  0  0  0  0
  7 29  1  0  0  0  0
  8 18  1  0  0  0  0
  8  9  1  0  0  0  0
  9 10  2  0  0  0  0
 10 11  1  0  0  0  0
 11 18  2  0  0  0  0
 11 12  1  0  0  0  0
 12 13  2  0  0  0  0
 12 30  1  0  0  0  0
 13 14  1  0  0  0  0
 13 15  1  0  0  0  0
 15 16  1  0  0  0  0
 15 17  2  0  0  0  0
 17 18  1  0  0  0  0
 17 31  1  0  0  0  0
M  END
> <s_m_source_file>
AV-unprocessed.smi

> <i_m_source_file_index>
2575

> <i_lp_mmshare_version>
43012

> <i_f3d_flags>
0

> <s_epik_input>
W0NIM11bQ0gyXU9bQ0gyXVtDQEhdKFtPSF0pW0NIMl1uKG5uMSljKGMxMilbY0hdYyhDbCljKENsKVtjSF0y

> <s_epik_cmdline>
J2VwaWtfcHl0aG9uJywgJy1waCcsICc3LjAnLCAnLXRuJywgJzgnLCAnLW1hJywgJzIwMCcsICctbWV0YWxfYmluZGluZycsICctaW1hZScsICc8aW5maWxlLm1hZT4nLCAnLW9tYWUnLCAnPG91dGZpbGUubWFlPic=

> <r_lp_tautomer_probability>
1

> <r_epik_Ionization_Penalty>
2.39516e-06

> <r_epik_Ionization_Penalty_Charging>
0

> <r_epik_Ionization_Penalty_Neutral>
2.39516e-06

> <r_epik_State_Penalty>
-0

> <r_epik_Charging_Adjusted_Penalty>
0

> <i_epik_Tot_Q>
0

> <i_epik_Tot_abs_Q>
0

> <r_epik_Metal_State_Penalty>
-0

> <b_epik_Metal_Only>
0

> <s_lp_Force_Field>
OPLS_2005

> <r_lp_Energy>
8.42798

> <b_lp_Chiralities_Consistent>
1

> <s_lp_Variant>
AV-unprocessed.smi:2575-2

> <Gold.Version>
5.8.1

> <Gold.Id.Protein>
6NUR|6NUR_protein|mol2

> <Gold.PLP.Fitness>
46.8200

> <Gold.PLP.PLP>
-42.2217

> <Gold.PLP.part.hbond>
-2.9645

> <Gold.PLP.part.metal>
0.0000

> <Gold.PLP.part.buried>
-5.9877

> <Gold.PLP.part.nonpolar>
-32.1159

> <Gold.PLP.part.repulsive>
0.1149

> <Gold.PLP.ligand.clash>
0.0000

> <Gold.PLP.ligand.torsion>
0.7243

> <Gold.PLP.Chemscore.Hbond>
2.0000

> <Gold.PLP.Chemscore.CHOScore>
0.0000

> <Gold.PLP.Chemscore.Metal>
0.0000

> <Gold.Chemscore.Hbonds>
donor molecule, donor type, donor heavy atom, donor atom, acceptor molecule, acceptor atom, score
      P1  H  7989  7998       L1     6  1.00
      P1  H  7997  8010       L1    10  0.94

> <Gold.PLP.Chemscore.Internal.Correction>
0.0470

> <Gold.Rescore>
     Score         DG    S(hbond)    S(metal)    S(lipo)     H(rot)  DE(clash)    DE(int)     intcor
     15.60     -17.61       1.48        0.00     109.37       2.19       0.09       1.91       ----

> <Gold.Chemscore.Fitness>
15.6008

> <Gold.Chemscore.DG>
-17.6062

> <Gold.Chemscore.ZeroCoef>
-5.4800

> <Gold.Chemscore.Hbond>
1.4779

> <Gold.Chemscore.Metal>
0.0000

> <Gold.Chemscore.Lipo>
109.3727

> <Gold.Chemscore.Internal_Hbond>
0.0000

> <Gold.Chemscore.DEClash>
0.0924

> <Gold.Chemscore.DEInternal>
1.9130

> <Gold.Chemscore.Rot>
2.1901

> <Gold.Chemscore.Internal.Correction>
   9.000000E+99

> <Gold.Chemscore.Hbonds>
donor molecule, donor type, donor heavy atom, donor atom, acceptor molecule, acceptor atom, score
      P1  H  7989  7998       L1     6  0.45
      P1  H  7997  8010       L1    10  0.15

> <Gold.Chemscore.Hbond.Weighted>
-4.9361

> <Gold.Chemscore.Metal.Weighted>
-0.0000

> <Gold.Chemscore.Lipo.Weighted>
-12.7966

> <Gold.Chemscore.Internal_Hbond.Weighted>
0.0000

> <Gold.Chemscore.DEClash.Weighted>
0.0924

> <Gold.Chemscore.DEInternal.Weighted>
1.9130

> <Gold.Chemscore.Rot.Weighted>
5.6066

> <Gold.Chemscore.Internal.Correction.Weighted>
   9.000000E+99

> <Gold.Protein.RotatedTorsions>
[ 6907 6896 6895 6894 ] final -115.23 input  -60.11 | X-H torsion
[ 7974 7965 7964 7962 ] final  -49.93 input  175.53 | X-H torsion
[ 8008 7997 7996 7995 ] final   34.60 input   59.86 | X-H torsion
[ 10167 10162 10161 10158 ] final  139.46 input  -65.29 | X-H torsion
[ 10718 10713 10712 10709 ] final -158.18 input   66.30 | X-H torsion
[ 10763 10752 10751 10750 ] final  -47.30 input  -60.55 | X-H torsion
[ 11005 11000 10999 10996 ] final  -19.23 input  -57.11 | X-H torsion

> <Gold.Protein.ActiveResidues>
 VAL166  LYS551  ARG553  GLY616  TRP617  ASP618  TYR619  PRO620  LYS621  CYS622 
 ASP623  PHE694  ASN695  SER759  ASP760  ASP761  ALA762  ILE779  LEU786  VAL792 
 PHE793  MET794  SER795  GLU796  ALA797  LYS798  CYS799  TRP800  GLU811  SER814 

> <Gold.Protein.RotatedAtoms>
  150.7962  133.8688  159.3252 H   0  0  0  0  0  0  0  0  0  0  0  0  # atno 6907 bound_to 6896
  151.6513  135.0999  160.0170 H   0  0  0  0  0  0  0  0  0  0  0  0  # atno 6908 bound_to 6896
  152.4044  133.6827  159.6378 H   0  0  0  0  0  0  0  0  0  0  0  0  # atno 6909 bound_to 6896
  145.9353  140.7712  142.9579 H   0  0  0  0  0  0  0  0  0  0  0  0  # atno 7974 bound_to 7965
  155.1574  140.3280  155.4418 H   0  0  0  0  0  0  0  0  0  0  0  0  # atno 8008 bound_to 7997
  156.2554  140.1966  156.6634 H   0  0  0  0  0  0  0  0  0  0  0  0  # atno 8009 bound_to 7997
  154.6429  140.0568  156.9853 H   0  0  0  0  0  0  0  0  0  0  0  0  # atno 8010 bound_to 7997
  139.5078  144.6293  151.5858 H   0  0  0  0  0  0  0  0  0  0  0  0  # atno 10167 bound_to 10162
  156.5506  130.8603  151.2778 H   0  0  0  0  0  0  0  0  0  0  0  0  # atno 10718 bound_to 10713
  154.0591  135.6620  153.4809 H   0  0  0  0  0  0  0  0  0  0  0  0  # atno 10763 bound_to 10752
  153.0434  135.5130  154.7677 H   0  0  0  0  0  0  0  0  0  0  0  0  # atno 10764 bound_to 10752
  154.6707  135.3029  154.9712 H   0  0  0  0  0  0  0  0  0  0  0  0  # atno 10765 bound_to 10752
  140.8347  133.7971  155.9795 H   0  0  0  0  0  0  0  0  0  0  0  0  # atno 11005 bound_to 11000
  144.6771  140.2193  143.7368 LP  0  0  0  0  0  0  0  0  0  0  0  0  # atno 17320 bound_to 7965
  145.8372  139.2113  143.1849 LP  0  0  0  0  0  0  0  0  0  0  0  0  # atno 17321 bound_to 7965
  140.6020  143.9592  150.6393 LP  0  0  0  0  0  0  0  0  0  0  0  0  # atno 17342 bound_to 10162
  140.2807  143.3391  152.1154 LP  0  0  0  0  0  0  0  0  0  0  0  0  # atno 17343 bound_to 10162
  157.7388  130.9820  150.2275 LP  0  0  0  0  0  0  0  0  0  0  0  0  # atno 17370 bound_to 10713
  156.2888  130.3743  149.7862 LP  0  0  0  0  0  0  0  0  0  0  0  0  # atno 17371 bound_to 10713
  140.8961  134.2436  157.5068 LP  0  0  0  0  0  0  0  0  0  0  0  0  # atno 17394 bound_to 11000
  139.8704  134.9684  156.4631 LP  0  0  0  0  0  0  0  0  0  0  0  0  # atno 17395 bound_to 11000

$$$$
