AV-unprocessed.smi:3157|AV-procd|sdf|12037|dock3
  -GOLD-   2272017453D 1   1.00000     0.00000
 Structure written by MMmdl.
 40 41  0  0  0  0  0  0  0  0  2 V2000
  148.2586  141.0471  157.3170 C   0  0  0  0  0  0  0  0  0  0  0  0
  149.7258  141.3486  156.9552 C   0  0  2  0  0  0  0  0  0  0  0  0
  150.0874  142.7083  157.4211 N   0  3  0  0  0  0  0  0  0  0  0  0
  151.4512  143.1568  157.0719 C   0  0  0  0  0  0  0  0  0  0  0  0
  152.1944  143.6796  158.3115 C   0  0  0  0  0  0  0  0  0  0  0  0
  152.3305  142.6382  159.4245 C   0  0  0  0  0  0  0  0  0  0  0  0
  152.6239  143.4476  160.6922 C   0  0  0  0  0  0  0  0  0  0  0  0
  152.0749  144.8596  160.4368 C   0  0  0  0  0  0  0  0  0  0  0  0
  151.4950  144.8455  159.0179 C   0  0  0  0  0  0  0  0  0  0  0  0
  150.0028  141.2248  155.4340 C   0  0  2  0  0  0  0  0  0  0  0  0
  148.8235  141.6776  154.5527 C   0  0  0  0  0  0  0  0  0  0  0  0
  150.3800  139.8581  155.0887 N   0  0  0  0  0  0  0  0  0  0  0  0
  149.6379  138.6986  155.2024 C   0  0  0  0  0  0  0  0  0  0  0  0
  150.4282  137.6651  154.7887 C   0  0  0  0  0  0  0  0  0  0  0  0
  151.6564  138.2952  154.4452 C   0  0  0  0  0  0  0  0  0  0  0  0
  151.6276  139.6042  154.6359 N   0  0  0  0  0  0  0  0  0  0  0  0
  147.9862  140.0210  157.0714 H   0  0  0  0  0  0  0  0  0  0  0  0
  147.5753  141.7103  156.7855 H   0  0  0  0  0  0  0  0  0  0  0  0
  148.0727  141.1685  158.3838 H   0  0  0  0  0  0  0  0  0  0  0  0
  150.3644  140.6297  157.4713 H   0  0  0  0  0  0  0  0  0  0  0  0
  149.4420  143.3565  156.9915 H   0  0  0  0  0  0  0  0  0  0  0  0
  152.0120  142.3433  156.6117 H   0  0  0  0  0  0  0  0  0  0  0  0
  151.3773  143.9534  156.3302 H   0  0  0  0  0  0  0  0  0  0  0  0
  153.1982  143.9973  158.0231 H   0  0  0  0  0  0  0  0  0  0  0  0
  151.3889  142.1010  159.5490 H   0  0  0  0  0  0  0  0  0  0  0  0
  153.1050  141.9000  159.2143 H   0  0  0  0  0  0  0  0  0  0  0  0
  152.1745  142.9865  161.5723 H   0  0  0  0  0  0  0  0  0  0  0  0
  153.6997  143.4979  160.8646 H   0  0  0  0  0  0  0  0  0  0  0  0
  151.3192  145.1417  161.1708 H   0  0  0  0  0  0  0  0  0  0  0  0
  152.8841  145.5876  160.5062 H   0  0  0  0  0  0  0  0  0  0  0  0
  151.6398  145.7957  158.5027 H   0  0  0  0  0  0  0  0  0  0  0  0
  150.4211  144.6600  159.0695 H   0  0  0  0  0  0  0  0  0  0  0  0
  150.8491  141.8701  155.1890 H   0  0  0  0  0  0  0  0  0  0  0  0
  148.6357  142.7465  154.6496 H   0  0  0  0  0  0  0  0  0  0  0  0
  147.9036  141.1521  154.8103 H   0  0  0  0  0  0  0  0  0  0  0  0
  149.0297  141.4887  153.4984 H   0  0  0  0  0  0  0  0  0  0  0  0
  148.6202  138.7035  155.5642 H   0  0  0  0  0  0  0  0  0  0  0  0
  150.1693  136.6178  154.7405 H   0  0  0  0  0  0  0  0  0  0  0  0
  152.5631  137.8432  154.0708 H   0  0  0  0  0  0  0  0  0  0  0  0
  149.9630  142.7555  158.4223 H   0  0  0  0  0  0  0  0  0  0  0  0
  1  2  1  0  0  0  0
  1 17  1  0  0  0  0
  1 18  1  0  0  0  0
  1 19  1  0  0  0  0
  2  3  1  0  0  0  0
  2 10  1  0  0  0  0
  2 20  1  0  0  0  0
  3  4  1  0  0  0  0
  3 21  1  0  0  0  0
  3 40  1  0  0  0  0
  4  5  1  0  0  0  0
  4 22  1  0  0  0  0
  4 23  1  0  0  0  0
  5  9  1  0  0  0  0
  5  6  1  0  0  0  0
  5 24  1  0  0  0  0
  6  7  1  0  0  0  0
  6 25  1  0  0  0  0
  6 26  1  0  0  0  0
  7  8  1  0  0  0  0
  7 27  1  0  0  0  0
  7 28  1  0  0  0  0
  8  9  1  0  0  0  0
  8 29  1  0  0  0  0
  8 30  1  0  0  0  0
  9 31  1  0  0  0  0
  9 32  1  0  0  0  0
 10 11  1  0  0  0  0
 10 12  1  0  0  0  0
 10 33  1  0  0  0  0
 11 34  1  0  0  0  0
 11 35  1  0  0  0  0
 11 36  1  0  0  0  0
 12 16  1  0  0  0  0
 12 13  1  0  0  0  0
 13 14  2  0  0  0  0
 13 37  1  0  0  0  0
 14 15  1  0  0  0  0
 14 38  1  0  0  0  0
 15 16  2  0  0  0  0
 15 39  1  0  0  0  0
M  CHG  1   3   1
M  END
> <s_m_source_file>
AV-unprocessed.smi

> <i_m_source_file_index>
3157

> <i_lp_mmshare_version>
43012

> <i_f3d_flags>
0

> <s_epik_input>
bjFbY0hdW2NIXVtjSF1uMVtDQEBIXShbQ0gzXSlbQ0BIXShbQ0gzXSlbTkhdW0NIMl1bQ0hdMltDSDJdW0NIMl1bQ0gyXVtDSDJdMg==

> <s_epik_cmdline>
J2VwaWtfcHl0aG9uJywgJy1waCcsICc3LjAnLCAnLXRuJywgJzgnLCAnLW1hJywgJzIwMCcsICctbWV0YWxfYmluZGluZycsICctaW1hZScsICc8aW5maWxlLm1hZT4nLCAnLW9tYWUnLCAnPG91dGZpbGUubWFlPic=

> <r_lp_tautomer_probability>
1

> <r_epik_Ionization_Penalty>
0.00132192

> <r_epik_Ionization_Penalty_Charging>
0.0013111

> <r_epik_Ionization_Penalty_Neutral>
1.08112e-05

> <r_epik_State_Penalty>
-0

> <r_epik_Charging_Adjusted_Penalty>
0.0013111

> <i_epik_Tot_Q>
1

> <i_epik_Tot_abs_Q>
1

> <r_epik_Metal_State_Penalty>
-0

> <b_epik_Metal_Only>
0

> <s_lp_Force_Field>
OPLS_2005

> <r_lp_Energy>
31.0944

> <b_lp_Chiralities_Consistent>
1

> <s_lp_Variant>
AV-unprocessed.smi:3157-1

> <Gold.Version>
5.8.1

> <Gold.Id.Protein>
6NUR|6NUR_protein|mol2

> <Gold.PLP.Fitness>
47.9698

> <Gold.PLP.PLP>
-41.2530

> <Gold.PLP.part.hbond>
-2.0000

> <Gold.PLP.part.metal>
0.0000

> <Gold.PLP.part.buried>
-4.1246

> <Gold.PLP.part.nonpolar>
-35.5741

> <Gold.PLP.part.repulsive>
0.0875

> <Gold.PLP.ligand.clash>
0.0000

> <Gold.PLP.ligand.torsion>
1.0778

> <Gold.PLP.Chemscore.Hbond>
2.9000

> <Gold.PLP.Chemscore.CHOScore>
0.0000

> <Gold.PLP.Chemscore.Metal>
0.0000

> <Gold.Chemscore.Hbonds>
donor molecule, donor type, donor heavy atom, donor atom, acceptor molecule, acceptor atom, score
      L1  H     3    21       P1  8028  2.00
      P1  H  7989  7998       L1    16  0.80

> <Gold.PLP.Chemscore.Internal.Correction>
0.1723

> <Gold.Rescore>
     Score         DG    S(hbond)    S(metal)    S(lipo)     H(rot)  DE(clash)    DE(int)     intcor
     16.71     -18.15       0.99        0.00     112.86       1.50       0.45       0.99       ----

> <Gold.Chemscore.Fitness>
16.7126

> <Gold.Chemscore.DG>
-18.1515

> <Gold.Chemscore.ZeroCoef>
-5.4800

> <Gold.Chemscore.Hbond>
0.9938

> <Gold.Chemscore.Metal>
0.0000

> <Gold.Chemscore.Lipo>
112.8575

> <Gold.Chemscore.Internal_Hbond>
0.0000

> <Gold.Chemscore.DEClash>
0.4455

> <Gold.Chemscore.DEInternal>
0.9934

> <Gold.Chemscore.Rot>
1.5047

> <Gold.Chemscore.Internal.Correction>
   9.000000E+99

> <Gold.Chemscore.Hbonds>
donor molecule, donor type, donor heavy atom, donor atom, acceptor molecule, acceptor atom, score
      L1  H     3    21       P1  8028  0.92
      P1  H  7989  7998       L1    16  0.12

> <Gold.Chemscore.Hbond.Weighted>
-3.3191

> <Gold.Chemscore.Metal.Weighted>
-0.0000

> <Gold.Chemscore.Lipo.Weighted>
-13.2043

> <Gold.Chemscore.Internal_Hbond.Weighted>
0.0000

> <Gold.Chemscore.DEClash.Weighted>
0.4455

> <Gold.Chemscore.DEInternal.Weighted>
0.9934

> <Gold.Chemscore.Rot.Weighted>
3.8520

> <Gold.Chemscore.Internal.Correction.Weighted>
   9.000000E+99

> <Gold.Protein.RotatedTorsions>
[ 6907 6896 6895 6894 ] final -165.67 input  -60.11 | X-H torsion
[ 7974 7965 7964 7962 ] final   -1.47 input  175.53 | X-H torsion
[ 8008 7997 7996 7995 ] final -167.90 input   59.86 | X-H torsion
[ 10167 10162 10161 10158 ] final   45.40 input  -65.29 | X-H torsion
[ 10718 10713 10712 10709 ] final  -65.49 input   66.30 | X-H torsion
[ 10763 10752 10751 10750 ] final  -13.57 input  -60.55 | X-H torsion
[ 11005 11000 10999 10996 ] final  143.03 input  -57.11 | X-H torsion

> <Gold.Protein.ActiveResidues>
 VAL166  LYS551  ARG553  GLY616  TRP617  ASP618  TYR619  PRO620  LYS621  CYS622 
 ASP623  PHE694  ASN695  SER759  ASP760  ASP761  ALA762  ILE779  LEU786  VAL792 
 PHE793  MET794  SER795  GLU796  ALA797  LYS798  CYS799  TRP800  GLU811  SER814 

> <Gold.Protein.RotatedAtoms>
  151.4313  133.3669  159.2768 H   0  0  0  0  0  0  0  0  0  0  0  0  # atno 6907 bound_to 6896
  150.9223  134.8642  159.7508 H   0  0  0  0  0  0  0  0  0  0  0  0  # atno 6908 bound_to 6896
  152.4988  134.4252  159.9546 H   0  0  0  0  0  0  0  0  0  0  0  0  # atno 6909 bound_to 6896
  146.2416  140.1426  142.8335 H   0  0  0  0  0  0  0  0  0  0  0  0  # atno 7974 bound_to 7965
  155.8841  140.1014  157.1465 H   0  0  0  0  0  0  0  0  0  0  0  0  # atno 8008 bound_to 7997
  154.4008  140.1323  156.4297 H   0  0  0  0  0  0  0  0  0  0  0  0  # atno 8009 bound_to 7997
  155.7609  140.3463  155.5200 H   0  0  0  0  0  0  0  0  0  0  0  0  # atno 8010 bound_to 7997
  140.3245  144.2665  150.6177 H   0  0  0  0  0  0  0  0  0  0  0  0  # atno 10167 bound_to 10162
  156.0667  130.4248  150.1571 H   0  0  0  0  0  0  0  0  0  0  0  0  # atno 10718 bound_to 10713
  153.5153  135.7016  153.5759 H   0  0  0  0  0  0  0  0  0  0  0  0  # atno 10763 bound_to 10752
  153.3832  135.3915  155.1871 H   0  0  0  0  0  0  0  0  0  0  0  0  # atno 10764 bound_to 10752
  154.8699  135.3840  154.4637 H   0  0  0  0  0  0  0  0  0  0  0  0  # atno 10765 bound_to 10752
  140.0523  134.9249  157.1038 H   0  0  0  0  0  0  0  0  0  0  0  0  # atno 11005 bound_to 11000
  145.0234  140.8812  143.5153 LP  0  0  0  0  0  0  0  0  0  0  0  0  # atno 17320 bound_to 7965
  145.1478  139.2533  143.5456 LP  0  0  0  0  0  0  0  0  0  0  0  0  # atno 17321 bound_to 7965
  140.5453  143.2216  151.8016 LP  0  0  0  0  0  0  0  0  0  0  0  0  # atno 17342 bound_to 10162
  139.4868  144.4547  151.9613 LP  0  0  0  0  0  0  0  0  0  0  0  0  # atno 17343 bound_to 10162
  156.9630  130.9811  151.3475 LP  0  0  0  0  0  0  0  0  0  0  0  0  # atno 17370 bound_to 10713
  157.5712  130.8312  149.8395 LP  0  0  0  0  0  0  0  0  0  0  0  0  # atno 17371 bound_to 10713
  140.3899  134.2196  155.7166 LP  0  0  0  0  0  0  0  0  0  0  0  0  # atno 17394 bound_to 11000
  141.1936  133.8148  157.0793 LP  0  0  0  0  0  0  0  0  0  0  0  0  # atno 17395 bound_to 11000

$$$$
