#       Name:                AV-unprocessed.smi:1288
#       Creating user name   scv26
#       Creation time:       Fri Mar 27 04:53:07 2020


#       File generated by GOLD software.
#

@<TRIPOS>MOLECULE
AV-unprocessed.smi:1288
    47    49     1
SMALL
NO_CHARGES


@<TRIPOS>ATOM
      1 ****        -2.2065   1.3993   2.7207 C.3            1 S1                 0.0000
      2 ****        -2.8353   1.7111   1.3996 C.2            1 S1                 0.0000
      3 ****        -4.1566   1.7949   1.2432 N.2            1 S1                 0.0000
      4 ****        -4.2841   2.1002  -0.0982 C.ar           1 S1                 0.0000
      5 ****        -5.4379   2.3190  -0.8847 C.ar           1 S1                 0.0000
      6 ****        -5.3195   2.6206  -2.2573 C.ar           1 S1                 0.0000
      7 ****        -4.0488   2.7078  -2.8620 C.ar           1 S1                 0.0000
      8 ****        -2.8863   2.4940  -2.0966 C.ar           1 S1                 0.0000
      9 ****        -3.0097   2.1930  -0.7268 C.ar           1 S1                 0.0000
     10 ****        -2.0925   1.9294   0.2865 N.pl3          1 S1                 0.0000
     11 ****        -0.6413   1.9021   0.1592 C.3            1 S1                 0.0000
     12 ****        -0.0915   0.4862  -0.1076 C.3            1 S1                 0.0000
     13 ****        -0.6212   0.0079  -1.3286 O.3            1 S1                 0.0000
     14 ****         1.4425   0.4761  -0.2036 C.3            1 S1                 0.0000
     15 ****         1.9148  -0.8347   0.0613 O.3            1 S1                 0.0000
     16 ****         3.3276  -0.9338   0.0040 C.3            1 S1                 0.0000
     17 ****         3.7895  -2.3507   0.2822 C.ar           1 S1                 0.0000
     18 ****         4.1112  -2.7388   1.6000 C.ar           1 S1                 0.0000
     19 ****         4.5338  -4.0555   1.8679 C.ar           1 S1                 0.0000
     20 ****         4.6366  -4.9892   0.8190 C.ar           1 S1                 0.0000
     21 ****         4.3150  -4.6062  -0.4974 C.ar           1 S1                 0.0000
     22 ****         3.8900  -3.2904  -0.7672 C.ar           1 S1                 0.0000
     23 ****         3.5772  -2.9359  -2.0367 F              1 S1                 0.0000
     24 ****        -2.9724   1.2426   3.4809 H              1 S1                 0.0000
     25 ****        -1.5711   2.2250   3.0413 H              1 S1                 0.0000
     26 ****        -1.6037   0.4941   2.6515 H              1 S1                 0.0000
     27 ****        -6.4158   2.2539  -0.4311 H              1 S1                 0.0000
     28 ****        -6.2080   2.7854  -2.8491 H              1 S1                 0.0000
     29 ****        -3.9669   2.9380  -3.9142 H              1 S1                 0.0000
     30 ****        -1.9119   2.5576  -2.5578 H              1 S1                 0.0000
     31 ****        -0.3496   2.5789  -0.6451 H              1 S1                 0.0000
     32 ****        -0.2037   2.3132   1.0691 H              1 S1                 0.0000
     33 ****        -0.4086  -0.1783   0.6966 H              1 S1                 0.0000
     34 ****        -1.5633  -0.0165  -1.2575 H              1 S1                 0.0000
     35 ****         1.7799   0.8339  -1.1782 H              1 S1                 0.0000
     36 ****         1.8615   1.1462   0.5488 H              1 S1                 0.0000
     37 ****         3.6869  -0.6216  -0.9779 H              1 S1                 0.0000
     38 ****         3.7780  -0.2599   0.7347 H              1 S1                 0.0000
     39 ****         4.0325  -2.0283   2.4098 H              1 S1                 0.0000
     40 ****         4.7780  -4.3488   2.8783 H              1 S1                 0.0000
     41 ****         4.9605  -5.9989   1.0238 H              1 S1                 0.0000
     42 ****         4.3925  -5.3230  -1.3017 H              1 S1                 0.0000
     43 ****        -4.8759   1.6684   1.9263 LP             1 S1                 0.0000
     44 ****        -0.2727  -0.9116  -1.5104 LP             1 S1                 0.0000
     45 ****        -0.3549   0.6188  -2.0742 LP             1 S1                 0.0000
     46 ****         1.5234  -1.4578  -0.6158 LP             1 S1                 0.0000
     47 ****         1.6128  -1.1040   0.9758 LP             1 S1                 0.0000
@<TRIPOS>BOND
    1    1    2 1     
    2    1   24 1     
    3    1   25 1     
    4    1   26 1     
    5    2   10 1     
    6    2    3 2     
    7    3    4 1     
    8    4    9 ar    
    9    4    5 ar    
   10    5    6 ar    
   11    5   27 1     
   12    6    7 ar    
   13    6   28 1     
   14    7    8 ar    
   15    7   29 1     
   16    8    9 ar    
   17    8   30 1     
   18    9   10 1     
   19   10   11 1     
   20   11   12 1     
   21   11   31 1     
   22   11   32 1     
   23   12   13 1     
   24   12   14 1     
   25   12   33 1     
   26   13   34 1     
   27   14   15 1     
   28   14   35 1     
   29   14   36 1     
   30   15   16 1     
   31   16   17 1     
   32   16   37 1     
   33   16   38 1     
   34   17   22 ar    
   35   17   18 ar    
   36   18   19 ar    
   37   18   39 1     
   38   19   20 ar    
   39   19   40 1     
   40   20   21 ar    
   41   20   41 1     
   42   21   22 ar    
   43   21   42 1     
   44   22   23 1     
   45    3   43 1     
   46   13   44 1     
   47   13   45 1     
   48   15   46 1     
   49   15   47 1     
@<TRIPOS>SUBSTRUCTURE
      1 S1             1
@<TRIPOS>SET
LONE_PAIRS      STATIC     ATOMS    <user>   **** ""
5 43 44 45 46 47
DONOR_HYDROGENS      STATIC     ATOMS    <user>   **** ""
1 34
ATOM$BLUE        STATIC     ATOMS    COLORGROUP SYSTEM
5 43 44 45 46 47
ATOM$RED        STATIC     ATOMS    COLORGROUP SYSTEM
1 34
