AV-unprocessed.smi:3029|AV-procd|sdf|11526|dock5
  -GOLD-   2272016473D 1   1.00000     0.00000
 Structure written by MMmdl.
 42 43  0  0  0  0  0  0  0  0  4 V2000
  148.4200  141.9319  155.2595 O   0  0  0  0  0  0  0  0  0  0  0  0
  149.3308  141.1118  155.1439 C   0  0  0  0  0  0  0  0  0  0  0  0
  149.1747  139.8763  154.3695 C   0  0  0  0  0  0  0  0  0  0  0  0
  150.1854  138.9955  154.2303 C   0  0  0  0  0  0  0  0  0  0  0  0
  151.4722  139.2489  154.8492 C   0  0  0  0  0  0  0  0  0  0  0  0
  152.5688  138.3188  154.6938 N   0  3  0  0  0  0  0  0  0  0  0  0
  153.7078  138.6933  154.9562 O   0  0  0  0  0  0  0  0  0  0  0  0
  152.3251  137.1822  154.3025 O   0  5  0  0  0  0  0  0  0  0  0  0
  151.6094  140.3802  155.5684 C   0  0  0  0  0  0  0  0  0  0  0  0
  150.5537  141.2982  155.7265 N   0  0  0  0  0  0  0  0  0  0  0  0
  150.8245  142.4939  156.5359 C   0  0  0  0  0  0  0  0  0  0  0  0
  150.0932  142.4366  157.8865 C   0  0  0  0  0  0  0  0  0  0  0  0
  151.0447  142.1728  158.9854 N   0  3  0  0  0  0  0  0  0  0  0  0
  152.2585  143.0248  158.9991 C   0  0  1  0  0  0  0  0  0  0  0  0
  151.8964  144.5251  158.9182 C   0  0  0  0  0  0  0  0  0  0  0  0
  151.2019  145.0218  160.1979 C   0  0  0  0  0  0  0  0  0  0  0  0
  152.0564  144.7354  161.4415 C   0  0  0  0  0  0  0  0  0  0  0  0
  152.4291  143.2473  161.5388 C   0  0  0  0  0  0  0  0  0  0  0  0
  153.1303  142.7519  160.2543 C   0  0  1  0  0  0  0  0  0  0  0  0
  153.6195  141.2895  160.3699 C   0  0  0  0  0  0  0  0  0  0  0  0
  154.0384  141.0093  161.6043 F   0  0  0  0  0  0  0  0  0  0  0  0
  152.6327  140.4526  160.0498 F   0  0  0  0  0  0  0  0  0  0  0  0
  154.6284  141.0849  159.5237 F   0  0  0  0  0  0  0  0  0  0  0  0
  148.2243  139.6677  153.9001 H   0  0  0  0  0  0  0  0  0  0  0  0
  150.0229  138.0986  153.6506 H   0  0  0  0  0  0  0  0  0  0  0  0
  152.5272  140.6621  156.0644 H   0  0  0  0  0  0  0  0  0  0  0  0
  151.8983  142.6094  156.6954 H   0  0  0  0  0  0  0  0  0  0  0  0
  150.5226  143.3908  155.9922 H   0  0  0  0  0  0  0  0  0  0  0  0
  149.5821  143.3827  158.0714 H   0  0  0  0  0  0  0  0  0  0  0  0
  149.3318  141.6571  157.8644 H   0  0  0  0  0  0  0  0  0  0  0  0
  150.5686  142.2702  159.8710 H   0  0  0  0  0  0  0  0  0  0  0  0
  152.8506  142.7688  158.1194 H   0  0  0  0  0  0  0  0  0  0  0  0
  152.8098  145.1024  158.7683 H   0  0  0  0  0  0  0  0  0  0  0  0
  151.2730  144.7355  158.0497 H   0  0  0  0  0  0  0  0  0  0  0  0
  151.0083  146.0922  160.1216 H   0  0  0  0  0  0  0  0  0  0  0  0
  150.2282  144.5418  160.3022 H   0  0  0  0  0  0  0  0  0  0  0  0
  152.9658  145.3362  161.4036 H   0  0  0  0  0  0  0  0  0  0  0  0
  151.5215  145.0445  162.3401 H   0  0  0  0  0  0  0  0  0  0  0  0
  153.0789  143.0983  162.4015 H   0  0  0  0  0  0  0  0  0  0  0  0
  151.5326  142.6563  161.7286 H   0  0  0  0  0  0  0  0  0  0  0  0
  154.0310  143.3579  160.1393 H   0  0  0  0  0  0  0  0  0  0  0  0
  151.3486  141.2139  158.8919 H   0  0  0  0  0  0  0  0  0  0  0  0
  1  2  2  0  0  0  0
  2 10  1  0  0  0  0
  2  3  1  0  0  0  0
  3  4  2  0  0  0  0
  3 24  1  0  0  0  0
  4  5  1  0  0  0  0
  4 25  1  0  0  0  0
  5  6  1  0  0  0  0
  5  9  2  0  0  0  0
  6  7  2  0  0  0  0
  6  8  1  0  0  0  0
  9 10  1  0  0  0  0
  9 26  1  0  0  0  0
 10 11  1  0  0  0  0
 11 12  1  0  0  0  0
 11 27  1  0  0  0  0
 11 28  1  0  0  0  0
 12 13  1  0  0  0  0
 12 29  1  0  0  0  0
 12 30  1  0  0  0  0
 13 14  1  0  0  0  0
 13 31  1  0  0  0  0
 13 42  1  0  0  0  0
 14 19  1  0  0  0  0
 14 15  1  0  0  0  0
 14 32  1  0  0  0  0
 15 16  1  0  0  0  0
 15 33  1  0  0  0  0
 15 34  1  0  0  0  0
 16 17  1  0  0  0  0
 16 35  1  0  0  0  0
 16 36  1  0  0  0  0
 17 18  1  0  0  0  0
 17 37  1  0  0  0  0
 17 38  1  0  0  0  0
 18 19  1  0  0  0  0
 18 39  1  0  0  0  0
 18 40  1  0  0  0  0
 19 20  1  0  0  0  0
 19 41  1  0  0  0  0
 20 21  1  0  0  0  0
 20 22  1  0  0  0  0
 20 23  1  0  0  0  0
M  CHG  1   6   1
M  CHG  1   8  -1
M  CHG  1  13   1
M  END
> <s_m_source_file>
AV-unprocessed.smi

> <i_m_source_file_index>
3029

> <i_lp_mmshare_version>
43012

> <i_f3d_flags>
0

> <s_epik_input>
Tz1jMVtjSF1bY0hdYyhbTitdKD1PKVtPLV0pW2NIXW4xW0NIMl1bQ0gyXVtOSF1bQ0BASF0yW0NIMl1bQ0gyXVtDSDJdW0NIMl1bQ0BIXTJDKEYpKEYpRg==

> <s_epik_cmdline>
J2VwaWtfcHl0aG9uJywgJy1waCcsICc3LjAnLCAnLXRuJywgJzgnLCAnLW1hJywgJzIwMCcsICctbWV0YWxfYmluZGluZycsICctaW1hZScsICc8aW5maWxlLm1hZT4nLCAnLW9tYWUnLCAnPG91dGZpbGUubWFlPic=

> <r_lp_tautomer_probability>
1

> <r_epik_Ionization_Penalty>
0.037386

> <r_epik_Ionization_Penalty_Charging>
0.037386

> <r_epik_Ionization_Penalty_Neutral>
0

> <r_epik_State_Penalty>
0.0312892

> <r_epik_Charging_Adjusted_Penalty>
0.0686752

> <i_epik_Tot_Q>
1

> <i_epik_Tot_abs_Q>
3

> <r_epik_Metal_State_Penalty>
0.0312892

> <b_epik_Metal_Only>
0

> <s_lp_Force_Field>
OPLS_2005

> <r_lp_Energy>
34.3569

> <b_lp_Chiralities_Consistent>
1

> <s_lp_Variant>
AV-unprocessed.smi:3029-2

> <Gold.Version>
5.8.1

> <Gold.Id.Protein>
6NUR|6NUR_protein|mol2

> <Gold.PLP.Fitness>
56.9933

> <Gold.PLP.PLP>
-54.3055

> <Gold.PLP.part.hbond>
-1.7026

> <Gold.PLP.part.metal>
0.0000

> <Gold.PLP.part.buried>
-2.5125

> <Gold.PLP.part.nonpolar>
-52.4789

> <Gold.PLP.part.repulsive>
1.9541

> <Gold.PLP.ligand.clash>
0.0000

> <Gold.PLP.ligand.torsion>
1.2626

> <Gold.PLP.Chemscore.Hbond>
1.6800

> <Gold.PLP.Chemscore.CHOScore>
0.0000

> <Gold.PLP.Chemscore.Metal>
0.0000

> <Gold.Chemscore.Hbonds>
donor molecule, donor type, donor heavy atom, donor atom, acceptor molecule, acceptor atom, score
      P1  H  7997  8009       L1     7  0.80
      P1  H 10752 10764       L1     8  0.78

> <Gold.PLP.Chemscore.Internal.Correction>
0.1731

> <Gold.Rescore>
     Score         DG    S(hbond)    S(metal)    S(lipo)     H(rot)  DE(clash)    DE(int)     intcor
     15.88     -19.92       1.68        0.00     117.02       1.90       1.34       2.70       ----

> <Gold.Chemscore.Fitness>
15.8778

> <Gold.Chemscore.DG>
-19.9191

> <Gold.Chemscore.ZeroCoef>
-5.4800

> <Gold.Chemscore.Hbond>
1.6831

> <Gold.Chemscore.Metal>
0.0000

> <Gold.Chemscore.Lipo>
117.0187

> <Gold.Chemscore.Internal_Hbond>
0.0000

> <Gold.Chemscore.DEClash>
1.3391

> <Gold.Chemscore.DEInternal>
2.7022

> <Gold.Chemscore.Rot>
1.9037

> <Gold.Chemscore.Internal.Correction>
   9.000000E+99

> <Gold.Chemscore.Hbonds>
donor molecule, donor type, donor heavy atom, donor atom, acceptor molecule, acceptor atom, score
      P1  H  7997  8009       L1     7  0.79
      P1  H 10752 10764       L1     8  0.77

> <Gold.Chemscore.Hbond.Weighted>
-5.6215

> <Gold.Chemscore.Metal.Weighted>
-0.0000

> <Gold.Chemscore.Lipo.Weighted>
-13.6912

> <Gold.Chemscore.Internal_Hbond.Weighted>
0.0000

> <Gold.Chemscore.DEClash.Weighted>
1.3391

> <Gold.Chemscore.DEInternal.Weighted>
2.7022

> <Gold.Chemscore.Rot.Weighted>
4.8736

> <Gold.Chemscore.Internal.Correction.Weighted>
   9.000000E+99

> <Gold.Protein.RotatedTorsions>
[ 6907 6896 6895 6894 ] final -154.95 input  -60.11 | X-H torsion
[ 7974 7965 7964 7962 ] final  -32.87 input  175.53 | X-H torsion
[ 8008 7997 7996 7995 ] final -144.47 input   59.86 | X-H torsion
[ 10167 10162 10161 10158 ] final  116.41 input  -65.29 | X-H torsion
[ 10718 10713 10712 10709 ] final  138.17 input   66.30 | X-H torsion
[ 10763 10752 10751 10750 ] final  -76.99 input  -60.55 | X-H torsion
[ 11005 11000 10999 10996 ] final -155.86 input  -57.11 | X-H torsion

> <Gold.Protein.ActiveResidues>
 VAL166  LYS551  ARG553  GLY616  TRP617  ASP618  TYR619  PRO620  LYS621  CYS622 
 ASP623  PHE694  ASN695  SER759  ASP760  ASP761  ALA762  ILE779  LEU786  VAL792 
 PHE793  MET794  SER795  GLU796  ALA797  LYS798  CYS799  TRP800  GLU811  SER814 

> <Gold.Protein.RotatedAtoms>
  151.2652  133.4282  159.2617 H   0  0  0  0  0  0  0  0  0  0  0  0  # atno 6907 bound_to 6896
  151.0494  134.9663  159.8214 H   0  0  0  0  0  0  0  0  0  0  0  0  # atno 6908 bound_to 6896
  152.5380  134.2607  159.8987 H   0  0  0  0  0  0  0  0  0  0  0  0  # atno 6909 bound_to 6896
  146.0955  140.5846  142.8844 H   0  0  0  0  0  0  0  0  0  0  0  0  # atno 7974 bound_to 7965
  155.5275  140.0597  157.2895 H   0  0  0  0  0  0  0  0  0  0  0  0  # atno 8008 bound_to 7997
  154.4496  140.1942  156.0505 H   0  0  0  0  0  0  0  0  0  0  0  0  # atno 8009 bound_to 7997
  156.0676  140.3264  155.7540 H   0  0  0  0  0  0  0  0  0  0  0  0  # atno 8010 bound_to 7997
  139.6249  144.7107  151.2555 H   0  0  0  0  0  0  0  0  0  0  0  0  # atno 10167 bound_to 10162
  157.4282  131.1046  151.0279 H   0  0  0  0  0  0  0  0  0  0  0  0  # atno 10718 bound_to 10713
  154.5071  135.5779  153.6576 H   0  0  0  0  0  0  0  0  0  0  0  0  # atno 10763 bound_to 10752
  152.9890  135.6150  154.2927 H   0  0  0  0  0  0  0  0  0  0  0  0  # atno 10764 bound_to 10752
  154.2839  135.2850  155.2664 H   0  0  0  0  0  0  0  0  0  0  0  0  # atno 10765 bound_to 10752
  140.6819  134.4136  157.5226 H   0  0  0  0  0  0  0  0  0  0  0  0  # atno 11005 bound_to 11000
  144.7392  140.4896  143.6881 LP  0  0  0  0  0  0  0  0  0  0  0  0  # atno 17320 bound_to 7965
  145.5956  139.1499  143.3158 LP  0  0  0  0  0  0  0  0  0  0  0  0  # atno 17321 bound_to 7965
  140.7405  143.6586  150.8184 LP  0  0  0  0  0  0  0  0  0  0  0  0  # atno 17342 bound_to 10162
  140.0203  143.5550  152.2803 LP  0  0  0  0  0  0  0  0  0  0  0  0  # atno 17343 bound_to 10162
  157.1185  130.6052  149.5499 LP  0  0  0  0  0  0  0  0  0  0  0  0  # atno 17370 bound_to 10713
  155.9904  130.4955  150.7254 LP  0  0  0  0  0  0  0  0  0  0  0  0  # atno 17371 bound_to 10713
  139.8949  134.8695  156.2155 LP  0  0  0  0  0  0  0  0  0  0  0  0  # atno 17394 bound_to 11000
  141.0311  133.6988  156.1432 LP  0  0  0  0  0  0  0  0  0  0  0  0  # atno 17395 bound_to 11000

$$$$
