AV-unprocessed.smi:3344|AV-procd|sdf|12898|dock5
  -GOLD-   2272019303D 1   1.00000     0.00000
 Structure written by MMmdl.
 43 44  0  0  0  0  0  0  0  0  2 V2000
  150.3998  136.4020  155.2653 C   0  0  0  0  0  0  0  0  0  0  0  0
  151.3929  137.4645  155.7781 C   0  0  1  0  0  0  0  0  0  0  0  0
  151.0149  138.8869  155.3355 C   0  0  0  0  0  0  0  0  0  0  0  0
  150.8301  139.1474  154.1462 O   0  0  0  0  0  0  0  0  0  0  0  0
  150.9021  139.8051  156.3086 N   0  0  0  0  0  0  0  0  0  0  0  0
  150.5331  141.2003  156.1001 C   0  0  0  0  0  0  0  0  0  0  0  0
  151.5024  142.1578  156.8219 C   0  0  0  0  0  0  0  0  0  0  0  0
  150.8451  143.4101  157.2841 N   0  3  0  0  0  0  0  0  0  0  0  0
  151.7671  144.5801  157.2492 C   0  0  0  0  0  0  0  0  0  0  0  0
  152.6290  144.7560  158.5141 C   0  0  0  0  0  0  0  0  0  0  0  0
  151.9594  145.6555  159.5647 C   0  0  0  0  0  0  0  0  0  0  0  0
  150.7378  145.0239  160.2450 C   0  0  0  0  0  0  0  0  0  0  0  0
  149.6593  144.5208  159.2705 C   0  0  0  0  0  0  0  0  0  0  0  0
  150.0658  143.2246  158.5421 C   0  0  0  0  0  0  0  0  0  0  0  0
  151.5541  137.4130  157.2262 N   0  0  0  0  0  0  0  0  0  0  0  0
  152.6071  137.0459  157.9600 C   0  0  0  0  0  0  0  0  0  0  0  0
  152.4209  137.1641  159.2672 N   0  0  0  0  0  0  0  0  0  0  0  0
  151.1450  137.6527  159.2725 C   0  0  0  0  0  0  0  0  0  0  0  0
  150.5836  137.8312  158.0768 N   0  0  0  0  0  0  0  0  0  0  0  0
  150.3289  136.4232  154.1772 H   0  0  0  0  0  0  0  0  0  0  0  0
  149.3952  136.5509  155.6639 H   0  0  0  0  0  0  0  0  0  0  0  0
  150.7216  135.4003  155.5515 H   0  0  0  0  0  0  0  0  0  0  0  0
  152.3652  137.2328  155.3397 H   0  0  0  0  0  0  0  0  0  0  0  0
  151.0691  139.5121  157.2606 H   0  0  0  0  0  0  0  0  0  0  0  0
  150.4988  141.4206  155.0317 H   0  0  0  0  0  0  0  0  0  0  0  0
  149.5177  141.3208  156.4770 H   0  0  0  0  0  0  0  0  0  0  0  0
  151.9731  141.6557  157.6682 H   0  0  0  0  0  0  0  0  0  0  0  0
  152.3063  142.4133  156.1306 H   0  0  0  0  0  0  0  0  0  0  0  0
  152.4188  144.5019  156.3781 H   0  0  0  0  0  0  0  0  0  0  0  0
  151.1823  145.4826  157.0679 H   0  0  0  0  0  0  0  0  0  0  0  0
  152.9171  143.7948  158.9412 H   0  0  0  0  0  0  0  0  0  0  0  0
  153.5618  145.2388  158.2199 H   0  0  0  0  0  0  0  0  0  0  0  0
  152.6912  145.9080  160.3329 H   0  0  0  0  0  0  0  0  0  0  0  0
  151.6734  146.6031  159.1065 H   0  0  0  0  0  0  0  0  0  0  0  0
  151.0594  144.2063  160.8915 H   0  0  0  0  0  0  0  0  0  0  0  0
  150.2935  145.7665  160.9089 H   0  0  0  0  0  0  0  0  0  0  0  0
  148.7707  144.2997  159.8630 H   0  0  0  0  0  0  0  0  0  0  0  0
  149.3539  145.2995  158.5708 H   0  0  0  0  0  0  0  0  0  0  0  0
  149.1541  142.6877  158.2799 H   0  0  0  0  0  0  0  0  0  0  0  0
  150.6103  142.5744  159.2285 H   0  0  0  0  0  0  0  0  0  0  0  0
  153.5310  136.6874  157.5298 H   0  0  0  0  0  0  0  0  0  0  0  0
  150.6167  137.8905  160.1841 H   0  0  0  0  0  0  0  0  0  0  0  0
  150.1600  143.6215  156.5724 H   0  0  0  0  0  0  0  0  0  0  0  0
  1  2  1  0  0  0  0
  1 20  1  0  0  0  0
  1 21  1  0  0  0  0
  1 22  1  0  0  0  0
  2  3  1  0  0  0  0
  2 15  1  0  0  0  0
  2 23  1  0  0  0  0
  3  4  2  0  0  0  0
  3  5  1  0  0  0  0
  5  6  1  0  0  0  0
  5 24  1  0  0  0  0
  6  7  1  0  0  0  0
  6 25  1  0  0  0  0
  6 26  1  0  0  0  0
  7  8  1  0  0  0  0
  7 27  1  0  0  0  0
  7 28  1  0  0  0  0
  8 14  1  0  0  0  0
  8  9  1  0  0  0  0
  8 43  1  0  0  0  0
  9 10  1  0  0  0  0
  9 29  1  0  0  0  0
  9 30  1  0  0  0  0
 10 11  1  0  0  0  0
 10 31  1  0  0  0  0
 10 32  1  0  0  0  0
 11 12  1  0  0  0  0
 11 33  1  0  0  0  0
 11 34  1  0  0  0  0
 12 13  1  0  0  0  0
 12 35  1  0  0  0  0
 12 36  1  0  0  0  0
 13 14  1  0  0  0  0
 13 37  1  0  0  0  0
 13 38  1  0  0  0  0
 14 39  1  0  0  0  0
 14 40  1  0  0  0  0
 15 19  1  0  0  0  0
 15 16  1  0  0  0  0
 16 17  2  0  0  0  0
 16 41  1  0  0  0  0
 17 18  1  0  0  0  0
 18 19  2  0  0  0  0
 18 42  1  0  0  0  0
M  CHG  1   8   1
M  END
> <s_m_source_file>
AV-unprocessed.smi

> <i_m_source_file_index>
3344

> <i_lp_mmshare_version>
43012

> <i_f3d_flags>
0

> <s_epik_input>
bjFbY0hdbltjSF1uMVtDQEhdKFtDSDNdKUMoPU8pW05IXVtDSDJdW0NIMl1OMltDSDJdW0NIMl1bQ0gyXVtDSDJdW0NIMl1bQ0gyXTI=

> <s_epik_cmdline>
J2VwaWtfcHl0aG9uJywgJy1waCcsICc3LjAnLCAnLXRuJywgJzgnLCAnLW1hJywgJzIwMCcsICctbWV0YWxfYmluZGluZycsICctaW1hZScsICc8aW5maWxlLm1hZT4nLCAnLW9tYWUnLCAnPG91dGZpbGUubWFlPic=

> <r_lp_tautomer_probability>
1

> <r_epik_Ionization_Penalty>
0.00266407

> <r_epik_Ionization_Penalty_Charging>
0.00265606

> <r_epik_Ionization_Penalty_Neutral>
8.01095e-06

> <r_epik_State_Penalty>
0.00184955

> <r_epik_Charging_Adjusted_Penalty>
0.00450561

> <i_epik_Tot_Q>
1

> <i_epik_Tot_abs_Q>
1

> <r_epik_Metal_State_Penalty>
-0

> <b_epik_Metal_Only>
0

> <s_lp_Force_Field>
OPLS_2005

> <r_lp_Energy>
28.0166

> <b_lp_Chiralities_Consistent>
1

> <s_lp_Variant>
AV-unprocessed.smi:3344-2

> <Gold.Version>
5.8.1

> <Gold.Id.Protein>
6NUR|6NUR_protein|mol2

> <Gold.PLP.Fitness>
44.0328

> <Gold.PLP.PLP>
-33.3220

> <Gold.PLP.part.hbond>
-3.0000

> <Gold.PLP.part.metal>
0.0000

> <Gold.PLP.part.buried>
-5.1710

> <Gold.PLP.part.nonpolar>
-26.1223

> <Gold.PLP.part.repulsive>
0.2662

> <Gold.PLP.ligand.clash>
0.0000

> <Gold.PLP.ligand.torsion>
0.7162

> <Gold.PLP.Chemscore.Hbond>
4.0000

> <Gold.PLP.Chemscore.CHOScore>
0.0000

> <Gold.PLP.Chemscore.Metal>
0.0000

> <Gold.Chemscore.Hbonds>
donor molecule, donor type, donor heavy atom, donor atom, acceptor molecule, acceptor atom, score
      L1  H     8    43       P1  8028  2.00
      P1  H  6896  6908       L1    17  0.32
      P1  H  7989  7998       L1     4  1.00

> <Gold.PLP.Chemscore.Internal.Correction>
0.1432

> <Gold.Rescore>
     Score         DG    S(hbond)    S(metal)    S(lipo)     H(rot)  DE(clash)    DE(int)     intcor
     15.62     -17.95       2.65        0.00      86.50       2.54       0.03       2.30       ----

> <Gold.Chemscore.Fitness>
15.6215

> <Gold.Chemscore.DG>
-17.9466

> <Gold.Chemscore.ZeroCoef>
-5.4800

> <Gold.Chemscore.Hbond>
2.6475

> <Gold.Chemscore.Metal>
0.0000

> <Gold.Chemscore.Lipo>
86.5016

> <Gold.Chemscore.Internal_Hbond>
0.0000

> <Gold.Chemscore.DEClash>
0.0293

> <Gold.Chemscore.DEInternal>
2.2959

> <Gold.Chemscore.Rot>
2.5377

> <Gold.Chemscore.Internal.Correction>
   9.000000E+99

> <Gold.Chemscore.Hbonds>
donor molecule, donor type, donor heavy atom, donor atom, acceptor molecule, acceptor atom, score
      L1  H     8    43       P1  8028  0.97
      P1  H  6896  6908       L1    17  0.02
      P1  H  7989  7998       L1     4  0.89

> <Gold.Chemscore.Hbond.Weighted>
-8.8425

> <Gold.Chemscore.Metal.Weighted>
-0.0000

> <Gold.Chemscore.Lipo.Weighted>
-10.1207

> <Gold.Chemscore.Internal_Hbond.Weighted>
0.0000

> <Gold.Chemscore.DEClash.Weighted>
0.0293

> <Gold.Chemscore.DEInternal.Weighted>
2.2959

> <Gold.Chemscore.Rot.Weighted>
6.4966

> <Gold.Chemscore.Internal.Correction.Weighted>
   9.000000E+99

> <Gold.Protein.RotatedTorsions>
[ 6907 6896 6895 6894 ] final -107.29 input  -60.11 | X-H torsion
[ 7974 7965 7964 7962 ] final  -29.72 input  175.53 | X-H torsion
[ 8008 7997 7996 7995 ] final  152.39 input   59.86 | X-H torsion
[ 10167 10162 10161 10158 ] final  -16.26 input  -65.29 | X-H torsion
[ 10718 10713 10712 10709 ] final  152.57 input   66.30 | X-H torsion
[ 10763 10752 10751 10750 ] final -158.99 input  -60.55 | X-H torsion
[ 11005 11000 10999 10996 ] final  164.86 input  -57.11 | X-H torsion

> <Gold.Protein.ActiveResidues>
 VAL166  LYS551  ARG553  GLY616  TRP617  ASP618  TYR619  PRO620  LYS621  CYS622 
 ASP623  PHE694  ASN695  SER759  ASP760  ASP761  ALA762  ILE779  LEU786  VAL792 
 PHE793  MET794  SER795  GLU796  ALA797  LYS798  CYS799  TRP800  GLU811  SER814 

> <Gold.Protein.RotatedAtoms>
  150.7436  133.9849  159.3587 H   0  0  0  0  0  0  0  0  0  0  0  0  # atno 6907 bound_to 6896
  151.7792  135.0764  160.0380 H   0  0  0  0  0  0  0  0  0  0  0  0  # atno 6908 bound_to 6896
  152.3285  133.5895  159.5830 H   0  0  0  0  0  0  0  0  0  0  0  0  # atno 6909 bound_to 6896
  146.1195  140.5449  142.8741 H   0  0  0  0  0  0  0  0  0  0  0  0  # atno 7974 bound_to 7965
  156.2631  140.2022  156.6326 H   0  0  0  0  0  0  0  0  0  0  0  0  # atno 8008 bound_to 7997
  154.6671  140.0554  157.0150 H   0  0  0  0  0  0  0  0  0  0  0  0  # atno 8009 bound_to 7997
  155.1191  140.3223  155.4505 H   0  0  0  0  0  0  0  0  0  0  0  0  # atno 8010 bound_to 7997
  140.7231  143.5134  150.9721 H   0  0  0  0  0  0  0  0  0  0  0  0  # atno 10167 bound_to 10162
  157.2560  131.0788  151.1698 H   0  0  0  0  0  0  0  0  0  0  0  0  # atno 10718 bound_to 10713
  154.7512  135.3093  154.8554 H   0  0  0  0  0  0  0  0  0  0  0  0  # atno 10763 bound_to 10752
  153.9341  135.6782  153.4749 H   0  0  0  0  0  0  0  0  0  0  0  0  # atno 10764 bound_to 10752
  153.1108  135.4867  154.8960 H   0  0  0  0  0  0  0  0  0  0  0  0  # atno 10765 bound_to 10752
  140.2502  134.7983  157.3494 H   0  0  0  0  0  0  0  0  0  0  0  0  # atno 11005 bound_to 11000
  144.7584  140.5364  143.6752 LP  0  0  0  0  0  0  0  0  0  0  0  0  # atno 17320 bound_to 7965
  145.5495  139.1476  143.3402 LP  0  0  0  0  0  0  0  0  0  0  0  0  # atno 17321 bound_to 7965
  139.8849  143.7026  152.3152 LP  0  0  0  0  0  0  0  0  0  0  0  0  # atno 17342 bound_to 10162
  139.7321  144.7580  151.0786 LP  0  0  0  0  0  0  0  0  0  0  0  0  # atno 17343 bound_to 10162
  157.3226  130.6945  149.6278 LP  0  0  0  0  0  0  0  0  0  0  0  0  # atno 17370 bound_to 10713
  155.9665  130.4331  150.4991 LP  0  0  0  0  0  0  0  0  0  0  0  0  # atno 17371 bound_to 10713
  140.1566  134.4782  155.7924 LP  0  0  0  0  0  0  0  0  0  0  0  0  # atno 17394 bound_to 11000
  141.2202  133.6884  156.7471 LP  0  0  0  0  0  0  0  0  0  0  0  0  # atno 17395 bound_to 11000

$$$$
