AV-unprocessed.smi:123|AV-procd|sdf|1143|dock6
  -GOLD-   2262018273D 1   1.00000     0.00000
 Structure written by MMmdl.
 43 45  0  0  0  0  0  0  0  0  1 V2000
  148.0945  135.1798  155.7195 C   0  0  0  0  0  0  0  0  0  0  0  0
  148.9617  134.9284  154.4722 C   0  0  2  0  0  0  0  0  0  0  0  0
  149.6585  136.1473  154.0582 N   0  0  0  0  0  0  0  0  0  0  0  0
  150.3657  136.9768  154.8442 C   0  0  0  0  0  0  0  0  0  0  0  0
  150.5032  136.8093  156.0569 O   0  0  0  0  0  0  0  0  0  0  0  0
  151.0039  138.1821  154.1370 C   0  0  0  0  0  0  0  0  0  0  0  0
  150.5375  139.4843  154.6623 N   0  0  0  0  0  0  0  0  0  0  0  0
  149.2736  139.9681  154.2404 C   0  0  0  0  0  0  0  0  0  0  0  0
  148.5699  139.3218  153.4625 O   0  0  0  0  0  0  0  0  0  0  0  0
  148.8811  141.2637  154.7832 C   0  0  0  0  0  0  0  0  0  0  0  0
  147.6922  141.7936  154.4492 F   0  0  0  0  0  0  0  0  0  0  0  0
  149.6948  141.9402  155.6189 C   0  0  0  0  0  0  0  0  0  0  0  0
  150.9325  141.4646  156.0077 N   0  0  0  0  0  0  0  0  0  0  0  0
  151.8014  142.2733  156.9415 C   0  0  2  0  0  0  0  0  0  0  0  0
  152.0455  141.5068  158.2481 C   0  0  0  0  0  0  0  0  0  0  0  0
  151.1294  142.2211  159.2208 C   0  0  0  0  0  0  0  0  0  0  0  0
  151.1284  143.6389  158.6639 C   0  0  0  0  0  0  0  0  0  0  0  0
  151.1318  143.4601  157.2531 O   0  0  0  0  0  0  0  0  0  0  0  0
  151.3809  140.2107  155.5374 C   0  0  0  0  0  0  0  0  0  0  0  0
  152.4751  139.7592  155.8815 O   0  0  0  0  0  0  0  0  0  0  0  0
  148.2208  134.2760  153.3413 C   0  0  0  0  0  0  0  0  0  0  0  0
  148.6077  133.6564  152.1836 C   0  0  0  0  0  0  0  0  0  0  0  0
  147.4152  133.2482  151.5254 C   0  0  0  0  0  0  0  0  0  0  0  0
  146.3862  133.6550  152.3255 C   0  0  0  0  0  0  0  0  0  0  0  0
  146.8597  134.2855  153.4341 O   0  0  0  0  0  0  0  0  0  0  0  0
  147.6902  134.2449  156.1084 H   0  0  0  0  0  0  0  0  0  0  0  0
  147.2518  135.8369  155.5022 H   0  0  0  0  0  0  0  0  0  0  0  0
  148.6784  135.6404  156.5171 H   0  0  0  0  0  0  0  0  0  0  0  0
  149.7515  134.2402  154.7749 H   0  0  0  0  0  0  0  0  0  0  0  0
  149.6017  136.3781  153.0770 H   0  0  0  0  0  0  0  0  0  0  0  0
  152.0895  138.1040  154.2168 H   0  0  0  0  0  0  0  0  0  0  0  0
  150.8116  138.0901  153.0671 H   0  0  0  0  0  0  0  0  0  0  0  0
  149.3577  142.8945  155.9948 H   0  0  0  0  0  0  0  0  0  0  0  0
  152.7202  142.5167  156.4070 H   0  0  0  0  0  0  0  0  0  0  0  0
  151.8393  140.4401  158.1490 H   0  0  0  0  0  0  0  0  0  0  0  0
  153.0887  141.6391  158.5371 H   0  0  0  0  0  0  0  0  0  0  0  0
  150.1257  141.7969  159.1772 H   0  0  0  0  0  0  0  0  0  0  0  0
  151.4772  142.1690  160.2526 H   0  0  0  0  0  0  0  0  0  0  0  0
  150.2682  144.2224  158.9925 H   0  0  0  0  0  0  0  0  0  0  0  0
  152.0356  144.1677  158.9599 H   0  0  0  0  0  0  0  0  0  0  0  0
  149.6252  133.5097  151.8529 H   0  0  0  0  0  0  0  0  0  0  0  0
  147.3216  132.7241  150.5858 H   0  0  0  0  0  0  0  0  0  0  0  0
  145.3108  133.5817  152.2599 H   0  0  0  0  0  0  0  0  0  0  0  0
  1  2  1  0  0  0  0
  1 26  1  0  0  0  0
  1 27  1  0  0  0  0
  1 28  1  0  0  0  0
  2  3  1  0  0  0  0
  2 21  1  0  0  0  0
  2 29  1  0  0  0  0
  3  4  1  0  0  0  0
  3 30  1  0  0  0  0
  4  5  2  0  0  0  0
  4  6  1  0  0  0  0
  6  7  1  0  0  0  0
  6 31  1  0  0  0  0
  6 32  1  0  0  0  0
  7 19  1  0  0  0  0
  7  8  1  0  0  0  0
  8  9  2  0  0  0  0
  8 10  1  0  0  0  0
 10 11  1  0  0  0  0
 10 12  2  0  0  0  0
 12 13  1  0  0  0  0
 12 33  1  0  0  0  0
 13 14  1  0  0  0  0
 13 19  1  0  0  0  0
 14 18  1  0  0  0  0
 14 15  1  0  0  0  0
 14 34  1  0  0  0  0
 15 16  1  0  0  0  0
 15 35  1  0  0  0  0
 15 36  1  0  0  0  0
 16 17  1  0  0  0  0
 16 37  1  0  0  0  0
 16 38  1  0  0  0  0
 17 18  1  0  0  0  0
 17 39  1  0  0  0  0
 17 40  1  0  0  0  0
 19 20  2  0  0  0  0
 21 25  1  0  0  0  0
 21 22  2  0  0  0  0
 22 23  1  0  0  0  0
 22 41  1  0  0  0  0
 23 24  2  0  0  0  0
 23 42  1  0  0  0  0
 24 25  1  0  0  0  0
 24 43  1  0  0  0  0
M  END
> <s_m_source_file>
AV-unprocessed.smi

> <i_m_source_file_index>
123

> <i_lp_mmshare_version>
43012

> <i_f3d_flags>
0

> <s_epik_input>
bzFbY0hdW2NIXVtjSF1jMVtDQEhdKFtDSDNdKVtOSF1DKD1PKVtDSDJdbjJjKD1PKWMoRilbY0hdbihjMj1PKVtDQEBIXTNbQ0gyXVtDSDJdW0NIMl1PMw==

> <s_epik_cmdline>
J2VwaWtfcHl0aG9uJywgJy1waCcsICc3LjAnLCAnLXRuJywgJzgnLCAnLW1hJywgJzIwMCcsICctbWV0YWxfYmluZGluZycsICctaW1hZScsICc8aW5maWxlLm1hZT4nLCAnLW9tYWUnLCAnPG91dGZpbGUubWFlPic=

> <r_lp_tautomer_probability>
1

> <r_epik_Ionization_Penalty>
2.31906e-08

> <r_epik_Ionization_Penalty_Charging>
3.85846e-09

> <r_epik_Ionization_Penalty_Neutral>
1.93321e-08

> <r_epik_State_Penalty>
-0

> <r_epik_Charging_Adjusted_Penalty>
3.85846e-09

> <i_epik_Tot_Q>
0

> <i_epik_Tot_abs_Q>
0

> <r_epik_Metal_State_Penalty>
-0

> <b_epik_Metal_Only>
0

> <s_epik_Chemistry_Notes>
This compound contains an acetal/aminal-like group ( X-CH(R)-Y where X, Y are N, S, or O) that may be acid/base labile, releasing an aldehyde.

> <s_lp_Force_Field>
OPLS_2005

> <r_lp_Energy>
21.3093

> <b_lp_Chiralities_Consistent>
1

> <s_lp_Variant>
AV-unprocessed.smi:123-1

> <Gold.Version>
5.8.1

> <Gold.Id.Protein>
6NUR|6NUR_protein|mol2

> <Gold.PLP.Fitness>
45.0461

> <Gold.PLP.PLP>
-37.0173

> <Gold.PLP.part.hbond>
-2.0000

> <Gold.PLP.part.metal>
0.0000

> <Gold.PLP.part.buried>
-4.8337

> <Gold.PLP.part.nonpolar>
-33.2415

> <Gold.PLP.part.repulsive>
2.4709

> <Gold.PLP.ligand.clash>
0.0000

> <Gold.PLP.ligand.torsion>
0.5432

> <Gold.PLP.Chemscore.Hbond>
2.0000

> <Gold.PLP.Chemscore.CHOScore>
1.0000

> <Gold.PLP.Chemscore.Metal>
0.0000

> <Gold.Chemscore.Hbonds>
donor molecule, donor type, donor heavy atom, donor atom, acceptor molecule, acceptor atom, score
      L1  H     3    30       P1  7948  0.54
      P1  H  7997  8010       L1    20  1.00
      L1  C    12    33       P1  8028  0.71

> <Gold.PLP.Chemscore.Internal.Correction>
0.1151

> <Gold.Rescore>
     Score         DG    S(hbond)    S(metal)    S(lipo)     H(rot)  DE(clash)    DE(int)     intcor
     10.30     -14.67       1.92        0.00      72.70       2.23       1.75       2.62       ----

> <Gold.Chemscore.Fitness>
10.2974

> <Gold.Chemscore.DG>
-14.6712

> <Gold.Chemscore.ZeroCoef>
-5.4800

> <Gold.Chemscore.Hbond>
1.9178

> <Gold.Chemscore.Metal>
0.0000

> <Gold.Chemscore.Lipo>
72.7050

> <Gold.Chemscore.Internal_Hbond>
0.0000

> <Gold.Chemscore.DEClash>
1.7501

> <Gold.Chemscore.DEInternal>
2.6238

> <Gold.Chemscore.Rot>
2.2347

> <Gold.Chemscore.Internal.Correction>
   9.000000E+99

> <Gold.Chemscore.Hbonds>
donor molecule, donor type, donor heavy atom, donor atom, acceptor molecule, acceptor atom, score
      L1  H     3    30       P1  7948  0.13
      P1  H  7997  8010       L1    20  0.96

> <Gold.Chemscore.Hbond.Weighted>
-6.4055

> <Gold.Chemscore.Metal.Weighted>
-0.0000

> <Gold.Chemscore.Lipo.Weighted>
-8.5065

> <Gold.Chemscore.Internal_Hbond.Weighted>
0.0000

> <Gold.Chemscore.DEClash.Weighted>
1.7501

> <Gold.Chemscore.DEInternal.Weighted>
2.6238

> <Gold.Chemscore.Rot.Weighted>
5.7208

> <Gold.Chemscore.Internal.Correction.Weighted>
   9.000000E+99

> <Gold.Protein.RotatedTorsions>
[ 6907 6896 6895 6894 ] final  -39.01 input  -60.11 | X-H torsion
[ 7974 7965 7964 7962 ] final  -26.67 input  175.53 | X-H torsion
[ 8008 7997 7996 7995 ] final   69.02 input   59.86 | X-H torsion
[ 10167 10162 10161 10158 ] final  100.69 input  -65.29 | X-H torsion
[ 10718 10713 10712 10709 ] final  -60.93 input   66.30 | X-H torsion
[ 10763 10752 10751 10750 ] final  -51.66 input  -60.55 | X-H torsion
[ 11005 11000 10999 10996 ] final -178.90 input  -57.11 | X-H torsion

> <Gold.Protein.ActiveResidues>
 VAL166  LYS551  ARG553  GLY616  TRP617  ASP618  TYR619  PRO620  LYS621  CYS622 
 ASP623  PHE694  ASN695  SER759  ASP760  ASP761  ALA762  ILE779  LEU786  VAL792 
 PHE793  MET794  SER795  GLU796  ALA797  LYS798  CYS799  TRP800  GLU811  SER814 

> <Gold.Protein.RotatedAtoms>
  150.9955  134.9279  159.7923 H   0  0  0  0  0  0  0  0  0  0  0  0  # atno 6907 bound_to 6896
  152.5263  134.3225  159.9163 H   0  0  0  0  0  0  0  0  0  0  0  0  # atno 6908 bound_to 6896
  151.3230  133.3990  159.2690 H   0  0  0  0  0  0  0  0  0  0  0  0  # atno 6909 bound_to 6896
  146.1409  140.5051  142.8652 H   0  0  0  0  0  0  0  0  0  0  0  0  # atno 7974 bound_to 7965
  155.7172  140.3493  155.5000 H   0  0  0  0  0  0  0  0  0  0  0  0  # atno 8008 bound_to 7997
  155.9302  140.1083  157.1160 H   0  0  0  0  0  0  0  0  0  0  0  0  # atno 8009 bound_to 7997
  154.4084  140.1232  156.4780 H   0  0  0  0  0  0  0  0  0  0  0  0  # atno 8010 bound_to 7997
  139.7504  144.6985  151.0440 H   0  0  0  0  0  0  0  0  0  0  0  0  # atno 10167 bound_to 10162
  156.0956  130.4193  150.0923 H   0  0  0  0  0  0  0  0  0  0  0  0  # atno 10718 bound_to 10713
  154.1302  135.6521  153.4920 H   0  0  0  0  0  0  0  0  0  0  0  0  # atno 10763 bound_to 10752
  153.0197  135.5291  154.7009 H   0  0  0  0  0  0  0  0  0  0  0  0  # atno 10764 bound_to 10752
  154.6241  135.2968  155.0263 H   0  0  0  0  0  0  0  0  0  0  0  0  # atno 10765 bound_to 10752
  140.4247  134.6574  157.4681 H   0  0  0  0  0  0  0  0  0  0  0  0  # atno 11005 bound_to 11000
  144.7792  140.5804  143.6617 LP  0  0  0  0  0  0  0  0  0  0  0  0  # atno 17320 bound_to 7965
  145.5048  139.1481  143.3637 LP  0  0  0  0  0  0  0  0  0  0  0  0  # atno 17321 bound_to 7965
  140.7797  143.4816  151.0011 LP  0  0  0  0  0  0  0  0  0  0  0  0  # atno 17342 bound_to 10162
  139.8503  143.7447  152.3178 LP  0  0  0  0  0  0  0  0  0  0  0  0  # atno 17343 bound_to 10162
  156.8922  130.9592  151.3587 LP  0  0  0  0  0  0  0  0  0  0  0  0  # atno 17370 bound_to 10713
  157.6117  130.8587  149.8962 LP  0  0  0  0  0  0  0  0  0  0  0  0  # atno 17371 bound_to 10713
  140.0176  134.6596  155.9287 LP  0  0  0  0  0  0  0  0  0  0  0  0  # atno 17394 bound_to 11000
  141.1770  133.6541  156.4868 LP  0  0  0  0  0  0  0  0  0  0  0  0  # atno 17395 bound_to 11000

$$$$
