AV-unprocessed.smi:557|AV-procd|sdf|2920|dock2
  -GOLD-   2262023413D 1   1.00000     0.00000
 Structure written by MMmdl.
 47 49  0  0  0  0  0  0  0  0  2 V2000
  144.9704  132.1216  149.5485 C   0  0  0  0  0  0  0  0  0  0  0  0
  145.6405  133.2433  150.1707 N   0  0  0  0  0  0  0  0  0  0  0  0
  145.0848  134.3443  150.7862 C   0  0  0  0  0  0  0  0  0  0  0  0
  146.1122  135.1326  151.2226 C   0  0  0  0  0  0  0  0  0  0  0  0
  146.0468  136.4459  151.9509 C   0  0  0  0  0  0  0  0  0  0  0  0
  146.6587  137.5815  151.1200 C   0  0  0  0  0  0  0  0  0  0  0  0
  146.4111  138.8735  151.7546 N   0  0  0  0  0  0  0  0  0  0  0  0
  147.3170  139.6890  152.3202 C   0  0  0  0  0  0  0  0  0  0  0  0
  148.5133  139.4081  152.3558 O   0  0  0  0  0  0  0  0  0  0  0  0
  146.8067  140.8223  152.8314 N   0  0  0  0  0  0  0  0  0  0  0  0
  147.5772  141.8655  153.5013 C   0  0  2  0  0  0  0  0  0  0  0  0
  148.9773  142.0590  152.8922 C   0  0  0  0  0  0  0  0  0  0  0  0
  149.9096  142.3347  154.0880 C   0  0  0  0  0  0  0  0  0  0  0  0
  149.0247  142.3981  155.2666 N   0  3  2  0  0  0  0  0  0  0  0  0
  149.6346  142.1133  156.5836 C   0  0  0  0  0  0  0  0  0  0  0  0
  148.5778  142.3176  157.6870 C   0  0  0  0  0  0  0  0  0  0  0  0
  147.2990  141.5006  157.4112 C   0  0  0  0  0  0  0  0  0  0  0  0
  146.7639  141.7652  155.9902 C   0  0  0  0  0  0  0  0  0  0  0  0
  147.8826  141.5225  154.9621 C   0  0  1  0  0  0  0  0  0  0  0  0
  147.2738  134.4132  150.8211 C   0  0  0  0  0  0  0  0  0  0  0  0
  146.9887  133.2844  150.1927 N   0  0  0  0  0  0  0  0  0  0  0  0
  143.9071  132.3367  149.4375 H   0  0  0  0  0  0  0  0  0  0  0  0
  145.0903  131.2325  150.1680 H   0  0  0  0  0  0  0  0  0  0  0  0
  145.3971  131.9321  148.5631 H   0  0  0  0  0  0  0  0  0  0  0  0
  144.0153  134.4754  150.8615 H   0  0  0  0  0  0  0  0  0  0  0  0
  145.0129  136.6938  152.1947 H   0  0  0  0  0  0  0  0  0  0  0  0
  146.5681  136.3768  152.9066 H   0  0  0  0  0  0  0  0  0  0  0  0
  147.7343  137.4287  151.0165 H   0  0  0  0  0  0  0  0  0  0  0  0
  146.2293  137.5786  150.1167 H   0  0  0  0  0  0  0  0  0  0  0  0
  145.4505  139.1856  151.7625 H   0  0  0  0  0  0  0  0  0  0  0  0
  145.8102  140.9668  152.7550 H   0  0  0  0  0  0  0  0  0  0  0  0
  147.0494  142.8207  153.4545 H   0  0  0  0  0  0  0  0  0  0  0  0
  149.3106  141.1644  152.3640 H   0  0  0  0  0  0  0  0  0  0  0  0
  148.9821  142.8816  152.1764 H   0  0  0  0  0  0  0  0  0  0  0  0
  150.6252  141.5186  154.1994 H   0  0  0  0  0  0  0  0  0  0  0  0
  150.4697  143.2631  153.9741 H   0  0  0  0  0  0  0  0  0  0  0  0
  150.0160  141.0913  156.6044 H   0  0  0  0  0  0  0  0  0  0  0  0
  150.4829  142.7790  156.7463 H   0  0  0  0  0  0  0  0  0  0  0  0
  148.9932  142.0461  158.6579 H   0  0  0  0  0  0  0  0  0  0  0  0
  148.3208  143.3760  157.7483 H   0  0  0  0  0  0  0  0  0  0  0  0
  147.5180  140.4379  157.5238 H   0  0  0  0  0  0  0  0  0  0  0  0
  146.5340  141.7383  158.1511 H   0  0  0  0  0  0  0  0  0  0  0  0
  145.9135  141.1138  155.7890 H   0  0  0  0  0  0  0  0  0  0  0  0
  146.3990  142.7905  155.9150 H   0  0  0  0  0  0  0  0  0  0  0  0
  148.2144  140.4833  155.0246 H   0  0  0  0  0  0  0  0  0  0  0  0
  148.3107  134.6781  150.9662 H   0  0  0  0  0  0  0  0  0  0  0  0
  148.6600  143.3395  155.3013 H   0  0  0  0  0  0  0  0  0  0  0  0
  1  2  1  0  0  0  0
  1 22  1  0  0  0  0
  1 23  1  0  0  0  0
  1 24  1  0  0  0  0
  2 21  1  0  0  0  0
  2  3  1  0  0  0  0
  3  4  2  0  0  0  0
  3 25  1  0  0  0  0
  4  5  1  0  0  0  0
  4 20  1  0  0  0  0
  5  6  1  0  0  0  0
  5 26  1  0  0  0  0
  5 27  1  0  0  0  0
  6  7  1  0  0  0  0
  6 28  1  0  0  0  0
  6 29  1  0  0  0  0
  7  8  1  0  0  0  0
  7 30  1  0  0  0  0
  8  9  2  0  0  0  0
  8 10  1  0  0  0  0
 10 11  1  0  0  0  0
 10 31  1  0  0  0  0
 11 19  1  0  0  0  0
 11 12  1  0  0  0  0
 11 32  1  0  0  0  0
 12 13  1  0  0  0  0
 12 33  1  0  0  0  0
 12 34  1  0  0  0  0
 13 14  1  0  0  0  0
 13 35  1  0  0  0  0
 13 36  1  0  0  0  0
 14 19  1  0  0  0  0
 14 15  1  0  0  0  0
 14 47  1  0  0  0  0
 15 16  1  0  0  0  0
 15 37  1  0  0  0  0
 15 38  1  0  0  0  0
 16 17  1  0  0  0  0
 16 39  1  0  0  0  0
 16 40  1  0  0  0  0
 17 18  1  0  0  0  0
 17 41  1  0  0  0  0
 17 42  1  0  0  0  0
 18 19  1  0  0  0  0
 18 43  1  0  0  0  0
 18 44  1  0  0  0  0
 19 45  1  0  0  0  0
 20 21  2  0  0  0  0
 20 46  1  0  0  0  0
M  CHG  1  14   1
M  END
> <s_m_source_file>
AV-unprocessed.smi

> <i_m_source_file_index>
557

> <i_lp_mmshare_version>
43012

> <i_f3d_flags>
0

> <s_epik_input>
W0NIM11uMVtjSF1jKFtjSF1uMSlbQ0gyXVtDSDJdW05IXUMoPU8pW05IXVtDQEhdKFtDSDJdW0NIMl0yKVtDQEhdKE4yMylbQ0gyXVtDSDJdW0NIMl1bQ0gyXTM=

> <s_epik_cmdline>
J2VwaWtfcHl0aG9uJywgJy1waCcsICc3LjAnLCAnLXRuJywgJzgnLCAnLW1hJywgJzIwMCcsICctbWV0YWxfYmluZGluZycsICctaW1hZScsICc8aW5maWxlLm1hZT4nLCAnLW9tYWUnLCAnPG91dGZpbGUubWFlPic=

> <r_lp_tautomer_probability>
1

> <r_epik_Ionization_Penalty>
0.000956547

> <r_epik_Ionization_Penalty_Charging>
0.000435796

> <r_epik_Ionization_Penalty_Neutral>
0.000520752

> <r_epik_State_Penalty>
-0

> <r_epik_Charging_Adjusted_Penalty>
0.000435796

> <i_epik_Tot_Q>
1

> <i_epik_Tot_abs_Q>
1

> <r_epik_Metal_State_Penalty>
-0

> <b_epik_Metal_Only>
0

> <s_lp_Force_Field>
OPLS_2005

> <r_lp_Energy>
39.998

> <b_lp_Chiralities_Consistent>
1

> <s_lp_Variant>
AV-unprocessed.smi:557-7

> <Gold.Version>
5.8.1

> <Gold.Id.Protein>
6NUR|6NUR_protein|mol2

> <Gold.PLP.Fitness>
48.8300

> <Gold.PLP.PLP>
-32.7642

> <Gold.PLP.part.hbond>
-3.6930

> <Gold.PLP.part.metal>
0.0000

> <Gold.PLP.part.buried>
0.4517

> <Gold.PLP.part.nonpolar>
-32.8498

> <Gold.PLP.part.repulsive>
2.8197

> <Gold.PLP.ligand.clash>
0.2136

> <Gold.PLP.ligand.torsion>
0.3812

> <Gold.PLP.Chemscore.Hbond>
3.7136

> <Gold.PLP.Chemscore.CHOScore>
1.9592

> <Gold.PLP.Chemscore.Metal>
0.0000

> <Gold.Chemscore.Hbonds>
donor molecule, donor type, donor heavy atom, donor atom, acceptor molecule, acceptor atom, score
      L1  H     7    30       P1 10175  0.37
      L1  H    10    31       P1 10175  0.59
      L1  H    14    47       P1  8028  1.46

> <Gold.PLP.Chemscore.Internal.Correction>
0.0233

> <Gold.Rescore>
     Score         DG    S(hbond)    S(metal)    S(lipo)     H(rot)  DE(clash)    DE(int)     intcor
     14.44     -16.71       2.21        0.00      68.04       1.60       0.19       2.08       ----

> <Gold.Chemscore.Fitness>
14.4396

> <Gold.Chemscore.DG>
-16.7114

> <Gold.Chemscore.ZeroCoef>
-5.4800

> <Gold.Chemscore.Hbond>
2.2071

> <Gold.Chemscore.Metal>
0.0000

> <Gold.Chemscore.Lipo>
68.0372

> <Gold.Chemscore.Internal_Hbond>
0.0000

> <Gold.Chemscore.DEClash>
0.1907

> <Gold.Chemscore.DEInternal>
2.0811

> <Gold.Chemscore.Rot>
1.6018

> <Gold.Chemscore.Internal.Correction>
   9.000000E+99

> <Gold.Chemscore.Hbonds>
donor molecule, donor type, donor heavy atom, donor atom, acceptor molecule, acceptor atom, score
      L1  H     7    30       P1 10175  0.35
      L1  H    10    31       P1 10175  0.13
      L1  H    14    47       P1  8028  0.70

> <Gold.Chemscore.Hbond.Weighted>
-7.3716

> <Gold.Chemscore.Metal.Weighted>
-0.0000

> <Gold.Chemscore.Lipo.Weighted>
-7.9604

> <Gold.Chemscore.Internal_Hbond.Weighted>
0.0000

> <Gold.Chemscore.DEClash.Weighted>
0.1907

> <Gold.Chemscore.DEInternal.Weighted>
2.0811

> <Gold.Chemscore.Rot.Weighted>
4.1006

> <Gold.Chemscore.Internal.Correction.Weighted>
   9.000000E+99

> <Gold.Protein.RotatedTorsions>
[ 6907 6896 6895 6894 ] final   34.30 input  -60.11 | X-H torsion
[ 7974 7965 7964 7962 ] final   27.92 input  175.53 | X-H torsion
[ 8008 7997 7996 7995 ] final -151.54 input   59.86 | X-H torsion
[ 10167 10162 10161 10158 ] final -113.57 input  -65.29 | X-H torsion
[ 10718 10713 10712 10709 ] final  163.59 input   66.30 | X-H torsion
[ 10763 10752 10751 10750 ] final    9.72 input  -60.55 | X-H torsion
[ 11005 11000 10999 10996 ] final -157.71 input  -57.11 | X-H torsion

> <Gold.Protein.ActiveResidues>
 VAL166  LYS551  ARG553  GLY616  TRP617  ASP618  TYR619  PRO620  LYS621  CYS622 
 ASP623  PHE694  ASN695  SER759  ASP760  ASP761  ALA762  ILE779  LEU786  VAL792 
 PHE793  MET794  SER795  GLU796  ALA797  LYS798  CYS799  TRP800  GLU811  SER814 

> <Gold.Protein.RotatedAtoms>
  152.1005  134.9345  160.0569 H   0  0  0  0  0  0  0  0  0  0  0  0  # atno 6907 bound_to 6896
  152.0561  133.4036  159.4406 H   0  0  0  0  0  0  0  0  0  0  0  0  # atno 6908 bound_to 6896
  150.6839  134.3174  159.4815 H   0  0  0  0  0  0  0  0  0  0  0  0  # atno 6909 bound_to 6896
  146.1757  139.7125  142.8936 H   0  0  0  0  0  0  0  0  0  0  0  0  # atno 7974 bound_to 7965
  155.6411  140.0701  157.2618 H   0  0  0  0  0  0  0  0  0  0  0  0  # atno 8008 bound_to 7997
  154.4183  140.1750  156.1623 H   0  0  0  0  0  0  0  0  0  0  0  0  # atno 8009 bound_to 7997
  155.9855  140.3350  155.6706 H   0  0  0  0  0  0  0  0  0  0  0  0  # atno 8010 bound_to 7997
  140.1104  143.4533  152.1756 H   0  0  0  0  0  0  0  0  0  0  0  0  # atno 10167 bound_to 10162
  157.1063  131.0456  151.2476 H   0  0  0  0  0  0  0  0  0  0  0  0  # atno 10718 bound_to 10713
  153.2109  135.6869  153.8115 H   0  0  0  0  0  0  0  0  0  0  0  0  # atno 10763 bound_to 10752
  153.7348  135.3247  155.3294 H   0  0  0  0  0  0  0  0  0  0  0  0  # atno 10764 bound_to 10752
  154.8221  135.4644  154.0917 H   0  0  0  0  0  0  0  0  0  0  0  0  # atno 10765 bound_to 10752
  140.6616  134.4343  157.5234 H   0  0  0  0  0  0  0  0  0  0  0  0  # atno 11005 bound_to 11000
  145.4217  141.0407  143.2960 LP  0  0  0  0  0  0  0  0  0  0  0  0  # atno 17320 bound_to 7965
  144.8233  139.5754  143.6977 LP  0  0  0  0  0  0  0  0  0  0  0  0  # atno 17321 bound_to 7965
  139.5622  144.7413  151.4122 LP  0  0  0  0  0  0  0  0  0  0  0  0  # atno 17342 bound_to 10162
  140.6929  143.7819  150.7282 LP  0  0  0  0  0  0  0  0  0  0  0  0  # atno 17343 bound_to 10162
  157.4598  130.7646  149.7225 LP  0  0  0  0  0  0  0  0  0  0  0  0  # atno 17370 bound_to 10713
  155.9861  130.3977  150.3228 LP  0  0  0  0  0  0  0  0  0  0  0  0  # atno 17371 bound_to 10713
  139.9011  134.8554  156.1892 LP  0  0  0  0  0  0  0  0  0  0  0  0  # atno 17394 bound_to 11000
  141.0461  133.6912  156.1686 LP  0  0  0  0  0  0  0  0  0  0  0  0  # atno 17395 bound_to 11000

$$$$
