AV-unprocessed.smi:456|AV-procd|sdf|2616|dock9
  -GOLD-   2262023 13D 1   1.00000     0.00000
 Structure written by MMmdl.
 32 34  0  0  0  0  0  0  0  0  1 V2000
  151.9125  139.8731  154.7478 O   0  0  0  0  0  0  0  0  0  0  0  0
  150.8074  140.2249  155.5547 C   0  0  1  0  0  0  0  0  0  0  0  0
  151.1511  141.5263  156.3061 C   0  0  0  0  0  0  0  0  0  0  0  0
  151.8051  141.2705  157.5775 N   0  0  0  0  0  0  0  0  0  0  0  0
  152.4049  140.1273  157.9614 C   0  0  0  0  0  0  0  0  0  0  0  0
  152.9362  140.0972  159.1802 N   0  0  0  0  0  0  0  0  0  0  0  0
  152.6480  141.3697  159.6423 C   0  0  0  0  0  0  0  0  0  0  0  0
  152.9375  141.9814  160.8829 C   0  0  0  0  0  0  0  0  0  0  0  0
  152.5348  143.3090  161.1367 C   0  0  0  0  0  0  0  0  0  0  0  0
  152.8195  143.8795  162.3315 F   0  0  0  0  0  0  0  0  0  0  0  0
  151.8385  144.0444  160.1546 C   0  0  0  0  0  0  0  0  0  0  0  0
  151.4534  145.3179  160.4068 F   0  0  0  0  0  0  0  0  0  0  0  0
  151.5418  143.4571  158.9098 C   0  0  0  0  0  0  0  0  0  0  0  0
  151.9435  142.1314  158.6618 C   0  0  0  0  0  0  0  0  0  0  0  0
  149.5214  140.3459  154.7488 C   0  0  0  0  0  0  0  0  0  0  0  0
  148.9709  139.2052  154.1254 C   0  0  0  0  0  0  0  0  0  0  0  0
  147.7649  139.3019  153.4046 C   0  0  0  0  0  0  0  0  0  0  0  0
  147.1025  140.5400  153.3019 C   0  0  0  0  0  0  0  0  0  0  0  0
  147.6475  141.6818  153.9196 C   0  0  0  0  0  0  0  0  0  0  0  0
  148.8530  141.5858  154.6412 C   0  0  0  0  0  0  0  0  0  0  0  0
  152.0964  138.9551  154.8773 H   0  0  0  0  0  0  0  0  0  0  0  0
  150.6899  139.4186  156.2803 H   0  0  0  0  0  0  0  0  0  0  0  0
  151.8234  142.1396  155.7043 H   0  0  0  0  0  0  0  0  0  0  0  0
  150.2560  142.1252  156.4795 H   0  0  0  0  0  0  0  0  0  0  0  0
  152.4506  139.2669  157.3097 H   0  0  0  0  0  0  0  0  0  0  0  0
  153.4691  141.4281  161.6427 H   0  0  0  0  0  0  0  0  0  0  0  0
  151.0065  144.0177  158.1583 H   0  0  0  0  0  0  0  0  0  0  0  0
  149.4660  138.2487  154.2081 H   0  0  0  0  0  0  0  0  0  0  0  0
  147.3461  138.4249  152.9336 H   0  0  0  0  0  0  0  0  0  0  0  0
  146.1763  140.6137  152.7513 H   0  0  0  0  0  0  0  0  0  0  0  0
  147.1386  142.6313  153.8432 H   0  0  0  0  0  0  0  0  0  0  0  0
  149.2573  142.4657  155.1202 H   0  0  0  0  0  0  0  0  0  0  0  0
  1  2  1  0  0  0  0
  1 21  1  0  0  0  0
  2  3  1  0  0  0  0
  2 15  1  0  0  0  0
  2 22  1  0  0  0  0
  3  4  1  0  0  0  0
  3 23  1  0  0  0  0
  3 24  1  0  0  0  0
  4 14  1  0  0  0  0
  4  5  1  0  0  0  0
  5  6  2  0  0  0  0
  5 25  1  0  0  0  0
  6  7  1  0  0  0  0
  7 14  2  0  0  0  0
  7  8  1  0  0  0  0
  8  9  2  0  0  0  0
  8 26  1  0  0  0  0
  9 10  1  0  0  0  0
  9 11  1  0  0  0  0
 11 12  1  0  0  0  0
 11 13  2  0  0  0  0
 13 14  1  0  0  0  0
 13 27  1  0  0  0  0
 15 20  1  0  0  0  0
 15 16  2  0  0  0  0
 16 17  1  0  0  0  0
 16 28  1  0  0  0  0
 17 18  2  0  0  0  0
 17 29  1  0  0  0  0
 18 19  1  0  0  0  0
 18 30  1  0  0  0  0
 19 20  2  0  0  0  0
 19 31  1  0  0  0  0
 20 32  1  0  0  0  0
M  END
> <s_m_source_file>
AV-unprocessed.smi

> <i_m_source_file_index>
456

> <i_lp_mmshare_version>
43012

> <i_f3d_flags>
0

> <s_epik_input>
W2NIXTFbY0hdW2NIXVtjSF1bY0hdYzFbQ0BIXShbT0hdKVtDSDJdbihbY0hdbjIpYyhjMjMpW2NIXWMoRiljKEYpW2NIXTM=

> <s_epik_cmdline>
J2VwaWtfcHl0aG9uJywgJy1waCcsICc3LjAnLCAnLXRuJywgJzgnLCAnLW1hJywgJzIwMCcsICctbWV0YWxfYmluZGluZycsICctaW1hZScsICc8aW5maWxlLm1hZT4nLCAnLW9tYWUnLCAnPG91dGZpbGUubWFlPic=

> <r_epik_Ionization_Penalty>
0.0156354

> <r_epik_Ionization_Penalty_Charging>
0

> <r_epik_Ionization_Penalty_Neutral>
0.0156354

> <r_epik_State_Penalty>
0.0122974

> <r_epik_Charging_Adjusted_Penalty>
0.0122974

> <i_epik_Tot_Q>
0

> <i_epik_Tot_abs_Q>
0

> <r_epik_Metal_State_Penalty>
1.24258e-05

> <b_epik_Metal_Only>
0

> <s_lp_Force_Field>
OPLS_2005

> <r_lp_Energy>
11.2187

> <b_lp_Chiralities_Consistent>
1

> <s_lp_Variant>
AV-unprocessed.smi:456-2

> <Gold.Version>
5.8.1

> <Gold.Id.Protein>
6NUR|6NUR_protein|mol2

> <Gold.PLP.Fitness>
52.1477

> <Gold.PLP.PLP>
-50.5499

> <Gold.PLP.part.hbond>
-1.0000

> <Gold.PLP.part.metal>
0.0000

> <Gold.PLP.part.buried>
-4.7919

> <Gold.PLP.part.nonpolar>
-43.2906

> <Gold.PLP.part.repulsive>
0.0000

> <Gold.PLP.ligand.clash>
0.0000

> <Gold.PLP.ligand.torsion>
0.7096

> <Gold.PLP.Chemscore.Hbond>
1.0000

> <Gold.PLP.Chemscore.CHOScore>
0.0000

> <Gold.PLP.Chemscore.Metal>
0.0000

> <Gold.Chemscore.Hbonds>
donor molecule, donor type, donor heavy atom, donor atom, acceptor molecule, acceptor atom, score
      P1  H  7989  7998       L1     1  0.93

> <Gold.PLP.Chemscore.Internal.Correction>
0.0170

> <Gold.Rescore>
     Score         DG    S(hbond)    S(metal)    S(lipo)     H(rot)  DE(clash)    DE(int)     intcor
     15.46     -16.25       0.79        0.00     112.77       1.98       0.02       0.76       ----

> <Gold.Chemscore.Fitness>
15.4643

> <Gold.Chemscore.DG>
-16.2508

> <Gold.Chemscore.ZeroCoef>
-5.4800

> <Gold.Chemscore.Hbond>
0.7902

> <Gold.Chemscore.Metal>
0.0000

> <Gold.Chemscore.Lipo>
112.7716

> <Gold.Chemscore.Internal_Hbond>
0.0000

> <Gold.Chemscore.DEClash>
0.0246

> <Gold.Chemscore.DEInternal>
0.7620

> <Gold.Chemscore.Rot>
1.9776

> <Gold.Chemscore.Internal.Correction>
   9.000000E+99

> <Gold.Chemscore.Hbonds>
donor molecule, donor type, donor heavy atom, donor atom, acceptor molecule, acceptor atom, score
      P1  H  7989  7998       L1     1  0.23

> <Gold.Chemscore.Hbond.Weighted>
-2.6392

> <Gold.Chemscore.Metal.Weighted>
-0.0000

> <Gold.Chemscore.Lipo.Weighted>
-13.1943

> <Gold.Chemscore.Internal_Hbond.Weighted>
0.0000

> <Gold.Chemscore.DEClash.Weighted>
0.0246

> <Gold.Chemscore.DEInternal.Weighted>
0.7620

> <Gold.Chemscore.Rot.Weighted>
5.0626

> <Gold.Chemscore.Internal.Correction.Weighted>
   9.000000E+99

> <Gold.Protein.RotatedTorsions>
[ 6907 6896 6895 6894 ] final -128.13 input  -60.11 | X-H torsion
[ 7974 7965 7964 7962 ] final  141.02 input  175.53 | X-H torsion
[ 8008 7997 7996 7995 ] final  128.14 input   59.86 | X-H torsion
[ 10167 10162 10161 10158 ] final  171.93 input  -65.29 | X-H torsion
[ 10718 10713 10712 10709 ] final  -53.00 input   66.30 | X-H torsion
[ 10763 10752 10751 10750 ] final   33.14 input  -60.55 | X-H torsion
[ 11005 11000 10999 10996 ] final -151.09 input  -57.11 | X-H torsion

> <Gold.Protein.ActiveResidues>
 VAL166  LYS551  ARG553  GLY616  TRP617  ASP618  TYR619  PRO620  LYS621  CYS622 
 ASP623  PHE694  ASN695  SER759  ASP760  ASP761  ALA762  ILE779  LEU786  VAL792 
 PHE793  MET794  SER795  GLU796  ALA797  LYS798  CYS799  TRP800  GLU811  SER814 

> <Gold.Protein.RotatedAtoms>
  150.9146  133.6955  159.2846 H   0  0  0  0  0  0  0  0  0  0  0  0  # atno 6907 bound_to 6896
  151.4430  135.1021  159.9685 H   0  0  0  0  0  0  0  0  0  0  0  0  # atno 6908 bound_to 6896
  152.4948  133.8550  159.7276 H   0  0  0  0  0  0  0  0  0  0  0  0  # atno 6909 bound_to 6896
  144.9134  139.5263  143.5698 H   0  0  0  0  0  0  0  0  0  0  0  0  # atno 7974 bound_to 7965
  156.2908  140.2652  156.2387 H   0  0  0  0  0  0  0  0  0  0  0  0  # atno 8008 bound_to 7997
  154.9999  140.0388  157.2374 H   0  0  0  0  0  0  0  0  0  0  0  0  # atno 8009 bound_to 7997
  154.7610  140.2761  155.6219 H   0  0  0  0  0  0  0  0  0  0  0  0  # atno 8010 bound_to 7997
  139.5061  144.3431  151.9998 H   0  0  0  0  0  0  0  0  0  0  0  0  # atno 10167 bound_to 10162
  156.1573  130.4150  149.9849 H   0  0  0  0  0  0  0  0  0  0  0  0  # atno 10718 bound_to 10713
  153.0226  135.6395  154.1465 H   0  0  0  0  0  0  0  0  0  0  0  0  # atno 10763 bound_to 10752
  154.1198  135.2847  155.3213 H   0  0  0  0  0  0  0  0  0  0  0  0  # atno 10764 bound_to 10752
  154.6272  135.5505  153.7702 H   0  0  0  0  0  0  0  0  0  0  0  0  # atno 10765 bound_to 10752
  140.7333  134.3596  157.5162 H   0  0  0  0  0  0  0  0  0  0  0  0  # atno 11005 bound_to 11000
  146.3170  139.7957  142.8976 LP  0  0  0  0  0  0  0  0  0  0  0  0  # atno 17320 bound_to 7965
  145.3417  141.0289  143.3389 LP  0  0  0  0  0  0  0  0  0  0  0  0  # atno 17321 bound_to 7965
  140.2868  144.3798  150.6101 LP  0  0  0  0  0  0  0  0  0  0  0  0  # atno 17342 bound_to 10162
  140.5976  143.2167  151.7133 LP  0  0  0  0  0  0  0  0  0  0  0  0  # atno 17343 bound_to 10162
  156.7689  130.9179  151.3644 LP  0  0  0  0  0  0  0  0  0  0  0  0  # atno 17370 bound_to 10713
  157.6705  130.9046  150.0029 LP  0  0  0  0  0  0  0  0  0  0  0  0  # atno 17371 bound_to 10713
  139.8821  134.9033  156.2851 LP  0  0  0  0  0  0  0  0  0  0  0  0  # atno 17394 bound_to 11000
  140.9902  133.7213  156.0802 LP  0  0  0  0  0  0  0  0  0  0  0  0  # atno 17395 bound_to 11000

$$$$
