AV-unprocessed.smi:36|AV-procd|sdf|282|dock7
  -GOLD-   2262016 53D 1   1.00000     0.00000
 Structure written by MMmdl.
 64 67  0  0  0  0  0  0  0  0  1 V2000
  152.7203  129.1011  154.9521 C   0  0  0  0  0  0  0  0  0  0  0  0
  151.4189  128.4478  155.4475 C   0  0  0  0  0  0  0  0  0  0  0  0
  150.3354  128.5887  154.3648 C   0  0  0  0  0  0  0  0  0  0  0  0
  151.6633  126.9582  155.7415 C   0  0  0  0  0  0  0  0  0  0  0  0
  150.8593  129.3172  157.0609 Si  0  0  0  0  0  0  0  0  0  0  0  0
  149.1950  128.6100  157.6431 C   0  0  0  0  0  0  0  0  0  0  0  0
  152.1573  129.1204  158.4356 C   0  0  0  0  0  0  0  0  0  0  0  0
  150.6261  130.9673  156.7586 O   0  0  0  0  0  0  0  0  0  0  0  0
  149.8455  131.8199  157.5716 C   0  0  0  0  0  0  0  0  0  0  0  0
  149.7510  133.2049  156.9144 C   0  0  1  0  0  0  0  0  0  0  0  0
  151.0109  133.8674  156.9276 O   0  0  0  0  0  0  0  0  0  0  0  0
  151.1019  134.7536  155.8508 C   0  0  2  0  0  0  0  0  0  0  0  0
  151.1837  136.1428  156.3900 N   0  0  0  0  0  0  0  0  0  0  0  0
  151.3422  136.5598  157.6942 C   0  0  0  0  0  0  0  0  0  0  0  0
  151.3777  137.8546  157.8651 N   0  0  0  0  0  0  0  0  0  0  0  0
  151.2293  138.3680  156.5825 C   0  0  0  0  0  0  0  0  0  0  0  0
  151.1834  139.6814  156.0460 C   0  0  0  0  0  0  0  0  0  0  0  0
  151.2940  140.7555  156.8625 N   0  0  0  0  0  0  0  0  0  0  0  0
  152.2409  140.9651  157.9439 C   0  0  0  0  0  0  0  0  0  0  0  0
  153.1284  140.1521  158.2038 O   0  0  0  0  0  0  0  0  0  0  0  0
  152.1229  142.2662  158.6839 C   0  0  0  0  0  0  0  0  0  0  0  0
  151.3512  143.3189  158.1422 C   0  0  0  0  0  0  0  0  0  0  0  0
  151.2487  144.5500  158.8185 C   0  0  0  0  0  0  0  0  0  0  0  0
  151.9225  144.7419  160.0394 C   0  0  0  0  0  0  0  0  0  0  0  0
  152.7022  143.7029  160.5814 C   0  0  0  0  0  0  0  0  0  0  0  0
  152.8059  142.4712  159.9056 C   0  0  0  0  0  0  0  0  0  0  0  0
  151.0144  139.8019  154.7026 N   0  0  0  0  0  0  0  0  0  0  0  0
  150.9028  138.7123  153.9369 C   0  0  0  0  0  0  0  0  0  0  0  0
  150.9327  137.4289  154.3027 N   0  0  0  0  0  0  0  0  0  0  0  0
  151.1016  137.3013  155.6503 C   0  0  0  0  0  0  0  0  0  0  0  0
  149.8345  134.5937  155.0035 C   0  0  0  0  0  0  0  0  0  0  0  0
  149.3180  133.2390  155.4436 C   0  0  1  0  0  0  0  0  0  0  0  0
  149.9093  132.2024  154.6834 O   0  0  0  0  0  0  0  0  0  0  0  0
  153.0746  128.6324  154.0333 H   0  0  0  0  0  0  0  0  0  0  0  0
  153.5175  129.0132  155.6906 H   0  0  0  0  0  0  0  0  0  0  0  0
  152.5780  130.1623  154.7456 H   0  0  0  0  0  0  0  0  0  0  0  0
  150.0995  129.6349  154.1692 H   0  0  0  0  0  0  0  0  0  0  0  0
  149.4127  128.0875  154.6516 H   0  0  0  0  0  0  0  0  0  0  0  0
  150.6604  128.1462  153.4224 H   0  0  0  0  0  0  0  0  0  0  0  0
  151.9771  126.4231  154.8445 H   0  0  0  0  0  0  0  0  0  0  0  0
  150.7598  126.4748  156.1142 H   0  0  0  0  0  0  0  0  0  0  0  0
  152.4415  126.8231  156.4929 H   0  0  0  0  0  0  0  0  0  0  0  0
  149.2708  127.5502  157.8855 H   0  0  0  0  0  0  0  0  0  0  0  0
  148.4246  128.7156  156.8796 H   0  0  0  0  0  0  0  0  0  0  0  0
  148.8369  129.1208  158.5366 H   0  0  0  0  0  0  0  0  0  0  0  0
  152.3316  128.0715  158.6740 H   0  0  0  0  0  0  0  0  0  0  0  0
  151.8417  129.6138  159.3547 H   0  0  0  0  0  0  0  0  0  0  0  0
  153.1164  129.5521  158.1501 H   0  0  0  0  0  0  0  0  0  0  0  0
  148.8485  131.3909  157.6734 H   0  0  0  0  0  0  0  0  0  0  0  0
  150.2620  131.8872  158.5757 H   0  0  0  0  0  0  0  0  0  0  0  0
  149.0600  133.8228  157.4901 H   0  0  0  0  0  0  0  0  0  0  0  0
  152.0299  134.5916  155.3011 H   0  0  0  0  0  0  0  0  0  0  0  0
  151.4335  135.8706  158.5207 H   0  0  0  0  0  0  0  0  0  0  0  0
  150.6154  141.4897  156.7220 H   0  0  0  0  0  0  0  0  0  0  0  0
  150.8294  143.1888  157.2050 H   0  0  0  0  0  0  0  0  0  0  0  0
  150.6537  145.3478  158.3991 H   0  0  0  0  0  0  0  0  0  0  0  0
  151.8444  145.6862  160.5574 H   0  0  0  0  0  0  0  0  0  0  0  0
  153.2239  143.8517  161.5153 H   0  0  0  0  0  0  0  0  0  0  0  0
  153.4176  141.6916  160.3359 H   0  0  0  0  0  0  0  0  0  0  0  0
  150.7715  138.8956  152.8808 H   0  0  0  0  0  0  0  0  0  0  0  0
  149.1132  135.3693  155.2670 H   0  0  0  0  0  0  0  0  0  0  0  0
  150.0555  134.6690  153.9382 H   0  0  0  0  0  0  0  0  0  0  0  0
  148.2350  133.1651  155.3406 H   0  0  0  0  0  0  0  0  0  0  0  0
  150.7941  132.4563  154.4688 H   0  0  0  0  0  0  0  0  0  0  0  0
  1  2  1  0  0  0  0
  1 34  1  0  0  0  0
  1 35  1  0  0  0  0
  1 36  1  0  0  0  0
  2  3  1  0  0  0  0
  2  4  1  0  0  0  0
  2  5  1  0  0  0  0
  3 37  1  0  0  0  0
  3 38  1  0  0  0  0
  3 39  1  0  0  0  0
  4 40  1  0  0  0  0
  4 41  1  0  0  0  0
  4 42  1  0  0  0  0
  5  6  1  0  0  0  0
  5  7  1  0  0  0  0
  5  8  1  0  0  0  0
  6 43  1  0  0  0  0
  6 44  1  0  0  0  0
  6 45  1  0  0  0  0
  7 46  1  0  0  0  0
  7 47  1  0  0  0  0
  7 48  1  0  0  0  0
  8  9  1  0  0  0  0
  9 10  1  0  0  0  0
  9 49  1  0  0  0  0
  9 50  1  0  0  0  0
 10 32  1  0  0  0  0
 10 11  1  0  0  0  0
 10 51  1  0  0  0  0
 11 12  1  0  0  0  0
 12 13  1  0  0  0  0
 12 31  1  0  0  0  0
 12 52  1  0  0  0  0
 13 30  1  0  0  0  0
 13 14  1  0  0  0  0
 14 15  2  0  0  0  0
 14 53  1  0  0  0  0
 15 16  1  0  0  0  0
 16 30  2  0  0  0  0
 16 17  1  0  0  0  0
 17 18  1  0  0  0  0
 17 27  2  0  0  0  0
 18 19  1  0  0  0  0
 18 54  1  0  0  0  0
 19 20  2  0  0  0  0
 19 21  1  0  0  0  0
 21 26  1  0  0  0  0
 21 22  2  0  0  0  0
 22 23  1  0  0  0  0
 22 55  1  0  0  0  0
 23 24  2  0  0  0  0
 23 56  1  0  0  0  0
 24 25  1  0  0  0  0
 24 57  1  0  0  0  0
 25 26  2  0  0  0  0
 25 58  1  0  0  0  0
 26 59  1  0  0  0  0
 27 28  1  0  0  0  0
 28 29  2  0  0  0  0
 28 60  1  0  0  0  0
 29 30  1  0  0  0  0
 31 32  1  0  0  0  0
 31 61  1  0  0  0  0
 31 62  1  0  0  0  0
 32 33  1  0  0  0  0
 32 63  1  0  0  0  0
 33 64  1  0  0  0  0
M  END
> <s_m_source_file>
AV-unprocessed.smi

> <i_m_source_file_index>
36

> <i_lp_mmshare_version>
43012

> <i_f3d_flags>
0

> <s_epik_input>
W0NIM11DKFtDSDNdKShbQ0gzXSlbU2ldKFtDSDNdKShbQ0gzXSlPW0NIMl1bQ0BASF0xT1tDQEhdKFtDSDJdW0NASF0xW09IXSluKFtjSF1uMiljKGMyMyluW2NIXW5jM1tOSF1DKD1PKWM0W2NIXVtjSF1bY0hdW2NIXVtjSF00

> <s_epik_cmdline>
J2VwaWtfcHl0aG9uJywgJy1waCcsICc3LjAnLCAnLXRuJywgJzgnLCAnLW1hJywgJzIwMCcsICctbWV0YWxfYmluZGluZycsICctaW1hZScsICc8aW5maWxlLm1hZT4nLCAnLW9tYWUnLCAnPG91dGZpbGUubWFlPic=

> <r_lp_tautomer_probability>
1

> <r_epik_Ionization_Penalty>
0.00150433

> <r_epik_Ionization_Penalty_Charging>
0

> <r_epik_Ionization_Penalty_Neutral>
0.00150433

> <r_epik_State_Penalty>
0.00724046

> <r_epik_Charging_Adjusted_Penalty>
0.00724046

> <i_epik_Tot_Q>
0

> <i_epik_Tot_abs_Q>
0

> <r_epik_Metal_State_Penalty>
0.323355

> <b_epik_Metal_Only>
0

> <s_epik_Chemistry_Notes>
This compound contains an acetal/aminal-like group ( X-CH(R)-Y where X, Y are N, S, or O) that may be acid/base labile, releasing an aldehyde.

> <s_lp_Force_Field>
OPLS_2005

> <r_lp_Energy>
37.9666

> <b_lp_Chiralities_Consistent>
1

> <s_lp_Variant>
AV-unprocessed.smi:36-4

> <Gold.Version>
5.8.1

> <Gold.Id.Protein>
6NUR|6NUR_protein|mol2

> <Gold.PLP.Fitness>
51.1524

> <Gold.PLP.PLP>
-43.8502

> <Gold.PLP.part.hbond>
-3.0000

> <Gold.PLP.part.metal>
0.0000

> <Gold.PLP.part.buried>
-6.9279

> <Gold.PLP.part.nonpolar>
-34.9069

> <Gold.PLP.part.repulsive>
0.3879

> <Gold.PLP.ligand.clash>
0.0000

> <Gold.PLP.ligand.torsion>
0.9189

> <Gold.PLP.Chemscore.Hbond>
2.0236

> <Gold.PLP.Chemscore.CHOScore>
0.9862

> <Gold.PLP.Chemscore.Metal>
0.0000

> <Gold.Chemscore.Hbonds>
donor molecule, donor type, donor heavy atom, donor atom, acceptor molecule, acceptor atom, score
      P1  H  6896  6907       L1    11  0.08
      P1  H  7989  7998       L1    27  0.85
      P1  H  7997  8008       L1    20  0.99
      L1  C    28    60       P1  7957  0.94

> <Gold.PLP.Chemscore.Internal.Correction>
0.1106

> <Gold.Rescore>
     Score         DG    S(hbond)    S(metal)    S(lipo)     H(rot)  DE(clash)    DE(int)     intcor
     12.58     -15.65       1.68        0.00      98.06       2.70       0.32       2.75       ----

> <Gold.Chemscore.Fitness>
12.5789

> <Gold.Chemscore.DG>
-15.6502

> <Gold.Chemscore.ZeroCoef>
-5.4800

> <Gold.Chemscore.Hbond>
1.6826

> <Gold.Chemscore.Metal>
0.0000

> <Gold.Chemscore.Lipo>
98.0582

> <Gold.Chemscore.Internal_Hbond>
0.0000

> <Gold.Chemscore.DEClash>
0.3168

> <Gold.Chemscore.DEInternal>
2.7546

> <Gold.Chemscore.Rot>
2.7041

> <Gold.Chemscore.Internal.Correction>
   9.000000E+99

> <Gold.Chemscore.Hbonds>
donor molecule, donor type, donor heavy atom, donor atom, acceptor molecule, acceptor atom, score
      P1  H  7989  7998       L1    27  0.15
      P1  H  7997  8008       L1    20  0.90

> <Gold.Chemscore.Hbond.Weighted>
-5.6199

> <Gold.Chemscore.Metal.Weighted>
-0.0000

> <Gold.Chemscore.Lipo.Weighted>
-11.4728

> <Gold.Chemscore.Internal_Hbond.Weighted>
0.0000

> <Gold.Chemscore.DEClash.Weighted>
0.3168

> <Gold.Chemscore.DEInternal.Weighted>
2.7546

> <Gold.Chemscore.Rot.Weighted>
6.9225

> <Gold.Chemscore.Internal.Correction.Weighted>
   9.000000E+99

> <Gold.Protein.RotatedTorsions>
[ 6907 6896 6895 6894 ] final -147.88 input  -60.11 | X-H torsion
[ 7974 7965 7964 7962 ] final -113.51 input  175.53 | X-H torsion
[ 8008 7997 7996 7995 ] final  -86.18 input   59.86 | X-H torsion
[ 10167 10162 10161 10158 ] final  131.06 input  -65.29 | X-H torsion
[ 10718 10713 10712 10709 ] final -158.08 input   66.30 | X-H torsion
[ 10763 10752 10751 10750 ] final  102.05 input  -60.55 | X-H torsion
[ 11005 11000 10999 10996 ] final   66.11 input  -57.11 | X-H torsion

> <Gold.Protein.ActiveResidues>
 VAL166  LYS551  ARG553  GLY616  TRP617  ASP618  TYR619  PRO620  LYS621  CYS622 
 ASP623  PHE694  ASN695  SER759  ASP760  ASP761  ALA762  ILE779  LEU786  VAL792 
 PHE793  MET794  SER795  GLU796  ALA797  LYS798  CYS799  TRP800  GLU811  SER814 

> <Gold.Protein.RotatedAtoms>
  151.1619  133.4839  159.2594 H   0  0  0  0  0  0  0  0  0  0  0  0  # atno 6907 bound_to 6896
  151.1445  135.0196  159.8650 H   0  0  0  0  0  0  0  0  0  0  0  0  # atno 6908 bound_to 6896
  152.5463  134.1510  159.8571 H   0  0  0  0  0  0  0  0  0  0  0  0  # atno 6909 bound_to 6896
  145.1312  140.8725  143.3757 H   0  0  0  0  0  0  0  0  0  0  0  0  # atno 7974 bound_to 7965
  154.6490  140.0582  156.9933 H   0  0  0  0  0  0  0  0  0  0  0  0  # atno 8008 bound_to 7997
  155.1401  140.3264  155.4435 H   0  0  0  0  0  0  0  0  0  0  0  0  # atno 8009 bound_to 7997
  156.2567  140.1965  156.6517 H   0  0  0  0  0  0  0  0  0  0  0  0  # atno 8010 bound_to 7997
  139.5401  144.6722  151.4653 H   0  0  0  0  0  0  0  0  0  0  0  0  # atno 10167 bound_to 10162
  156.5492  130.8598  151.2774 H   0  0  0  0  0  0  0  0  0  0  0  0  # atno 10718 bound_to 10713
  153.3345  135.4024  155.1522 H   0  0  0  0  0  0  0  0  0  0  0  0  # atno 10763 bound_to 10752
  154.8630  135.3618  154.5427 H   0  0  0  0  0  0  0  0  0  0  0  0  # atno 10764 bound_to 10752
  153.5867  135.7075  153.5499 H   0  0  0  0  0  0  0  0  0  0  0  0  # atno 10765 bound_to 10752
  139.9852  134.6679  156.0189 H   0  0  0  0  0  0  0  0  0  0  0  0  # atno 11005 bound_to 11000
  145.0633  139.3088  143.5869 LP  0  0  0  0  0  0  0  0  0  0  0  0  # atno 17320 bound_to 7965
  146.3513  140.0083  142.8669 LP  0  0  0  0  0  0  0  0  0  0  0  0  # atno 17321 bound_to 7965
  140.6627  143.8464  150.6906 LP  0  0  0  0  0  0  0  0  0  0  0  0  # atno 17342 bound_to 10162
  140.1863  143.4073  152.1896 LP  0  0  0  0  0  0  0  0  0  0  0  0  # atno 17343 bound_to 10162
  157.7391  130.9825  150.2290 LP  0  0  0  0  0  0  0  0  0  0  0  0  # atno 17370 bound_to 10713
  156.2900  130.3744  149.7851 LP  0  0  0  0  0  0  0  0  0  0  0  0  # atno 17371 bound_to 10713
  141.1518  133.6547  156.4037 LP  0  0  0  0  0  0  0  0  0  0  0  0  # atno 17394 bound_to 11000
  140.5017  134.6479  157.5251 LP  0  0  0  0  0  0  0  0  0  0  0  0  # atno 17395 bound_to 11000

$$$$
