AV-unprocessed.smi:579|AV-procd|sdf|2988|dock3
  -GOLD-   2262023493D 1   1.00000     0.00000
 Structure written by MMmdl.
 27 28  0  0  0  0  0  0  0  0  2 V2000
  149.7196  139.2614  153.5146 N   0  0  0  0  0  0  0  0  0  0  0  0
  150.1333  140.0252  154.6041 C   0  0  0  0  0  0  0  0  0  0  0  0
  151.2439  139.6288  155.3787 C   0  0  0  0  0  0  0  0  0  0  0  0
  151.6390  140.4221  156.4760 C   0  0  0  0  0  0  0  0  0  0  0  0
  150.9136  141.5988  156.7774 C   0  0  0  0  0  0  0  0  0  0  0  0
  151.2284  142.4482  157.8462 N   0  0  0  0  0  0  0  0  0  0  0  0
  152.2493  141.9011  158.7306 C   0  0  0  0  0  0  0  0  0  0  0  0
  152.4618  142.8380  159.9321 C   0  0  0  0  0  0  0  0  0  0  0  0
  152.7890  144.1435  159.4650 O   0  0  0  0  0  0  0  0  0  0  0  0
  151.7512  144.7020  158.6648 C   0  0  0  0  0  0  0  0  0  0  0  0
  151.5211  143.8139  157.4300 C   0  0  0  0  0  0  0  0  0  0  0  0
  149.8561  141.9388  156.0072 N   0  3  0  0  0  0  0  0  0  0  0  0
  149.4461  141.2070  154.9484 C   0  0  0  0  0  0  0  0  0  0  0  0
  148.9267  139.5296  152.9488 H   0  0  0  0  0  0  0  0  0  0  0  0
  150.1958  138.4089  153.2554 H   0  0  0  0  0  0  0  0  0  0  0  0
  151.7891  138.7277  155.1382 H   0  0  0  0  0  0  0  0  0  0  0  0
  152.4874  140.1263  157.0753 H   0  0  0  0  0  0  0  0  0  0  0  0
  151.9475  140.9115  159.0768 H   0  0  0  0  0  0  0  0  0  0  0  0
  153.1866  141.7816  158.1854 H   0  0  0  0  0  0  0  0  0  0  0  0
  151.5693  142.8772  160.5588 H   0  0  0  0  0  0  0  0  0  0  0  0
  153.2748  142.4698  160.5578 H   0  0  0  0  0  0  0  0  0  0  0  0
  150.8364  144.7988  159.2518 H   0  0  0  0  0  0  0  0  0  0  0  0
  152.0406  145.7070  158.3576 H   0  0  0  0  0  0  0  0  0  0  0  0
  152.4089  143.8268  156.7962 H   0  0  0  0  0  0  0  0  0  0  0  0
  150.6937  144.2053  156.8367 H   0  0  0  0  0  0  0  0  0  0  0  0
  148.5870  141.5883  154.4152 H   0  0  0  0  0  0  0  0  0  0  0  0
  149.3422  142.7900  156.2363 H   0  0  0  0  0  0  0  0  0  0  0  0
  1  2  1  0  0  0  0
  1 14  1  0  0  0  0
  1 15  1  0  0  0  0
  2 13  1  0  0  0  0
  2  3  2  0  0  0  0
  3  4  1  0  0  0  0
  3 16  1  0  0  0  0
  4  5  2  0  0  0  0
  4 17  1  0  0  0  0
  5  6  1  0  0  0  0
  5 12  1  0  0  0  0
  6 11  1  0  0  0  0
  6  7  1  0  0  0  0
  7  8  1  0  0  0  0
  7 18  1  0  0  0  0
  7 19  1  0  0  0  0
  8  9  1  0  0  0  0
  8 20  1  0  0  0  0
  8 21  1  0  0  0  0
  9 10  1  0  0  0  0
 10 11  1  0  0  0  0
 10 22  1  0  0  0  0
 10 23  1  0  0  0  0
 11 24  1  0  0  0  0
 11 25  1  0  0  0  0
 12 13  2  0  0  0  0
 12 27  1  0  0  0  0
 13 26  1  0  0  0  0
M  CHG  1  12   1
M  END
> <s_m_source_file>
AV-unprocessed.smi

> <i_m_source_file_index>
579

> <i_lp_mmshare_version>
43012

> <i_f3d_flags>
0

> <s_epik_input>
W05IMl1jMVtjSF1bY0hdYyhuW2NIXTEpTjJbQ0gyXVtDSDJdT1tDSDJdW0NIMl0y

> <s_epik_cmdline>
J2VwaWtfcHl0aG9uJywgJy1waCcsICc3LjAnLCAnLXRuJywgJzgnLCAnLW1hJywgJzIwMCcsICctbWV0YWxfYmluZGluZycsICctaW1hZScsICc8aW5maWxlLm1hZT4nLCAnLW9tYWUnLCAnPG91dGZpbGUubWFlPic=

> <r_lp_tautomer_probability>
0.999846

> <r_epik_Ionization_Penalty>
2.4501

> <r_epik_Ionization_Penalty_Charging>
2.4501

> <r_epik_Ionization_Penalty_Neutral>
1.10725e-07

> <r_epik_State_Penalty>
2.61152

> <r_epik_Charging_Adjusted_Penalty>
5.06162

> <i_epik_Tot_Q>
1

> <i_epik_Tot_abs_Q>
1

> <r_epik_Metal_State_Penalty>
6.69701

> <b_epik_Metal_Only>
0

> <s_lp_Force_Field>
OPLS_2005

> <r_lp_Energy>
25.3444

> <b_lp_Chiralities_Consistent>
1

> <s_lp_Variant>
AV-unprocessed.smi:579-2

> <Gold.Version>
5.8.1

> <Gold.Id.Protein>
6NUR|6NUR_protein|mol2

> <Gold.PLP.Fitness>
37.7475

> <Gold.PLP.PLP>
-31.0728

> <Gold.PLP.part.hbond>
-1.7688

> <Gold.PLP.part.metal>
0.0000

> <Gold.PLP.part.buried>
-2.3337

> <Gold.PLP.part.nonpolar>
-26.5385

> <Gold.PLP.part.repulsive>
0.3161

> <Gold.PLP.ligand.clash>
0.0000

> <Gold.PLP.ligand.torsion>
0.0701

> <Gold.PLP.Chemscore.Hbond>
2.2400

> <Gold.PLP.Chemscore.CHOScore>
0.0000

> <Gold.PLP.Chemscore.Metal>
0.0000

> <Gold.Chemscore.Hbonds>
donor molecule, donor type, donor heavy atom, donor atom, acceptor molecule, acceptor atom, score
      L1  H     1    14       P1  7957  0.16
      L1  H    12    27       P1  8028  1.69

> <Gold.PLP.Chemscore.Internal.Correction>
0.0949

> <Gold.Rescore>
     Score         DG    S(hbond)    S(metal)    S(lipo)     H(rot)  DE(clash)    DE(int)     intcor
     14.84     -15.33       1.00        0.00      77.51       1.00       0.40       0.09       ----

> <Gold.Chemscore.Fitness>
14.8422

> <Gold.Chemscore.DG>
-15.3341

> <Gold.Chemscore.ZeroCoef>
-5.4800

> <Gold.Chemscore.Hbond>
1.0015

> <Gold.Chemscore.Metal>
0.0000

> <Gold.Chemscore.Lipo>
77.5137

> <Gold.Chemscore.Internal_Hbond>
0.0000

> <Gold.Chemscore.DEClash>
0.4027

> <Gold.Chemscore.DEInternal>
0.0891

> <Gold.Chemscore.Rot>
1.0000

> <Gold.Chemscore.Internal.Correction>
   9.000000E+99

> <Gold.Chemscore.Hbonds>
donor molecule, donor type, donor heavy atom, donor atom, acceptor molecule, acceptor atom, score
      L1  H     1    14       P1  7957  0.16
      L1  H    12    27       P1  8028  0.78

> <Gold.Chemscore.Hbond.Weighted>
-3.3450

> <Gold.Chemscore.Metal.Weighted>
-0.0000

> <Gold.Chemscore.Lipo.Weighted>
-9.0691

> <Gold.Chemscore.Internal_Hbond.Weighted>
0.0000

> <Gold.Chemscore.DEClash.Weighted>
0.4027

> <Gold.Chemscore.DEInternal.Weighted>
0.0891

> <Gold.Chemscore.Rot.Weighted>
2.5600

> <Gold.Chemscore.Internal.Correction.Weighted>
   9.000000E+99

> <Gold.Protein.RotatedTorsions>
[ 6907 6896 6895 6894 ] final   64.08 input  -60.11 | X-H torsion
[ 7974 7965 7964 7962 ] final   24.73 input  175.53 | X-H torsion
[ 8008 7997 7996 7995 ] final  115.29 input   59.86 | X-H torsion
[ 10167 10162 10161 10158 ] final  -69.55 input  -65.29 | X-H torsion
[ 10718 10713 10712 10709 ] final   26.48 input   66.30 | X-H torsion
[ 10763 10752 10751 10750 ] final  -62.27 input  -60.55 | X-H torsion
[ 11005 11000 10999 10996 ] final  -53.50 input  -57.11 | X-H torsion

> <Gold.Protein.ActiveResidues>
 VAL166  LYS551  ARG553  GLY616  TRP617  ASP618  TYR619  PRO620  LYS621  CYS622 
 ASP623  PHE694  ASN695  SER759  ASP760  ASP761  ALA762  ILE779  LEU786  VAL792 
 PHE793  MET794  SER795  GLU796  ALA797  LYS798  CYS799  TRP800  GLU811  SER814 

> <Gold.Protein.RotatedAtoms>
  152.4303  134.5790  159.9942 H   0  0  0  0  0  0  0  0  0  0  0  0  # atno 6907 bound_to 6896
  151.5914  133.3360  159.3036 H   0  0  0  0  0  0  0  0  0  0  0  0  # atno 6908 bound_to 6896
  150.8196  134.7432  159.6825 H   0  0  0  0  0  0  0  0  0  0  0  0  # atno 6909 bound_to 6896
  146.1923  139.7564  142.8822 H   0  0  0  0  0  0  0  0  0  0  0  0  # atno 7974 bound_to 7965
  156.2373  140.2941  156.0347 H   0  0  0  0  0  0  0  0  0  0  0  0  # atno 8008 bound_to 7997
  155.2055  140.0411  157.2942 H   0  0  0  0  0  0  0  0  0  0  0  0  # atno 8009 bound_to 7997
  154.6102  140.2449  155.7686 H   0  0  0  0  0  0  0  0  0  0  0  0  # atno 8010 bound_to 7997
  140.5422  143.2314  151.7068 H   0  0  0  0  0  0  0  0  0  0  0  0  # atno 10167 bound_to 10162
  157.2073  130.6918  149.6213 H   0  0  0  0  0  0  0  0  0  0  0  0  # atno 10718 bound_to 10713
  154.2973  135.6241  153.5410 H   0  0  0  0  0  0  0  0  0  0  0  0  # atno 10763 bound_to 10752
  152.9845  135.5670  154.5323 H   0  0  0  0  0  0  0  0  0  0  0  0  # atno 10764 bound_to 10752
  154.4946  135.2869  155.1445 H   0  0  0  0  0  0  0  0  0  0  0  0  # atno 10765 bound_to 10752
  141.0979  133.6622  156.4181 H   0  0  0  0  0  0  0  0  0  0  0  0  # atno 11005 bound_to 11000
  145.3753  141.0349  143.3208 LP  0  0  0  0  0  0  0  0  0  0  0  0  # atno 17320 bound_to 7965
  144.8511  139.5320  143.6856 LP  0  0  0  0  0  0  0  0  0  0  0  0  # atno 17321 bound_to 7965
  139.4993  144.3951  152.0240 LP  0  0  0  0  0  0  0  0  0  0  0  0  # atno 17342 bound_to 10162
  140.3061  144.3592  150.6046 LP  0  0  0  0  0  0  0  0  0  0  0  0  # atno 17343 bound_to 10162
  155.9694  130.4562  150.5918 LP  0  0  0  0  0  0  0  0  0  0  0  0  # atno 17370 bound_to 10713
  157.3707  131.0765  151.1560 LP  0  0  0  0  0  0  0  0  0  0  0  0  # atno 17371 bound_to 10713
  140.5095  134.6409  157.5279 LP  0  0  0  0  0  0  0  0  0  0  0  0  # atno 17394 bound_to 11000
  139.9821  134.7121  155.9841 LP  0  0  0  0  0  0  0  0  0  0  0  0  # atno 17395 bound_to 11000

$$$$
