AV-unprocessed.smi:3314|AV-procd|sdf|12743|dock5
  -GOLD-   2272019 83D 1   1.00000     0.00000
 Structure written by MMmdl.
 37 38  0  0  0  0  0  0  0  0  3 V2000
  151.6684  145.1518  158.4236 C   0  0  0  0  0  0  0  0  0  0  0  0
  151.8747  143.6562  158.5389 C   0  0  0  0  0  0  0  0  0  0  0  0
  152.7141  143.1165  159.5319 C   0  0  0  0  0  0  0  0  0  0  0  0
  152.8685  141.7173  159.5800 C   0  0  0  0  0  0  0  0  0  0  0  0
  153.7555  141.0688  160.6218 C   0  0  0  0  0  0  0  0  0  0  0  0
  152.2489  140.8764  158.7239 N   0  0  0  0  0  0  0  0  0  0  0  0
  151.4315  141.3823  157.7699 C   0  0  0  0  0  0  0  0  0  0  0  0
  150.8310  140.5370  156.9197 N   0  5  0  0  0  0  0  0  0  0  0  0
  151.3095  140.3871  155.6605 C   0  0  0  0  0  0  0  0  0  0  0  0
  152.4574  140.5583  155.2454 O   0  0  0  0  0  0  0  0  0  0  0  0
  150.2091  139.9561  154.6805 C   0  0  2  0  0  0  0  0  0  0  0  0
  149.1124  141.0337  154.5362 C   0  0  0  0  0  0  0  0  0  0  0  0
  148.0287  140.5455  153.6535 N   0  3  2  0  0  0  0  0  0  0  0  0
  146.9713  141.5553  153.4355 C   0  0  0  0  0  0  0  0  0  0  0  0
  147.4946  139.2530  154.1395 C   0  0  0  0  0  0  0  0  0  0  0  0
  148.6337  138.2338  154.3058 C   0  0  0  0  0  0  0  0  0  0  0  0
  149.6194  138.7609  155.1841 O   0  0  0  0  0  0  0  0  0  0  0  0
  151.2290  142.7767  157.6469 C   0  0  0  0  0  0  0  0  0  0  0  0
  152.0675  145.6744  159.2932 H   0  0  0  0  0  0  0  0  0  0  0  0
  150.6059  145.3836  158.3458 H   0  0  0  0  0  0  0  0  0  0  0  0
  152.1703  145.5327  157.5339 H   0  0  0  0  0  0  0  0  0  0  0  0
  153.2267  143.7563  160.2354 H   0  0  0  0  0  0  0  0  0  0  0  0
  154.4156  141.8012  161.0870 H   0  0  0  0  0  0  0  0  0  0  0  0
  154.3757  140.2942  160.1698 H   0  0  0  0  0  0  0  0  0  0  0  0
  153.1463  140.6114  161.4017 H   0  0  0  0  0  0  0  0  0  0  0  0
  150.6371  139.7510  153.6954 H   0  0  0  0  0  0  0  0  0  0  0  0
  148.6922  141.2933  155.5099 H   0  0  0  0  0  0  0  0  0  0  0  0
  149.5392  141.9460  154.1168 H   0  0  0  0  0  0  0  0  0  0  0  0
  146.4702  141.8064  154.3714 H   0  0  0  0  0  0  0  0  0  0  0  0
  146.2230  141.1833  152.7353 H   0  0  0  0  0  0  0  0  0  0  0  0
  147.3938  142.4693  153.0170 H   0  0  0  0  0  0  0  0  0  0  0  0
  146.9863  139.4015  155.0935 H   0  0  0  0  0  0  0  0  0  0  0  0
  146.7543  138.8711  153.4357 H   0  0  0  0  0  0  0  0  0  0  0  0
  148.2482  137.3044  154.7253 H   0  0  0  0  0  0  0  0  0  0  0  0
  149.0813  137.9862  153.3420 H   0  0  0  0  0  0  0  0  0  0  0  0
  150.5820  143.1685  156.8752 H   0  0  0  0  0  0  0  0  0  0  0  0
  148.4510  140.3651  152.7536 H   0  0  0  0  0  0  0  0  0  0  0  0
  1  2  1  0  0  0  0
  1 19  1  0  0  0  0
  1 20  1  0  0  0  0
  1 21  1  0  0  0  0
  2 18  2  0  0  0  0
  2  3  1  0  0  0  0
  3  4  2  0  0  0  0
  3 22  1  0  0  0  0
  4  5  1  0  0  0  0
  4  6  1  0  0  0  0
  5 23  1  0  0  0  0
  5 24  1  0  0  0  0
  5 25  1  0  0  0  0
  6  7  2  0  0  0  0
  7  8  1  0  0  0  0
  7 18  1  0  0  0  0
  8  9  1  0  0  0  0
  9 10  2  0  0  0  0
  9 11  1  0  0  0  0
 11 17  1  0  0  0  0
 11 12  1  0  0  0  0
 11 26  1  0  0  0  0
 12 13  1  0  0  0  0
 12 27  1  0  0  0  0
 12 28  1  0  0  0  0
 13 14  1  0  0  0  0
 13 15  1  0  0  0  0
 13 37  1  0  0  0  0
 14 29  1  0  0  0  0
 14 30  1  0  0  0  0
 14 31  1  0  0  0  0
 15 16  1  0  0  0  0
 15 32  1  0  0  0  0
 15 33  1  0  0  0  0
 16 17  1  0  0  0  0
 16 34  1  0  0  0  0
 16 35  1  0  0  0  0
 18 36  1  0  0  0  0
M  CHG  1   8  -1
M  CHG  1  13   1
M  END
> <s_m_source_file>
AV-unprocessed.smi

> <i_m_source_file_index>
3314

> <i_lp_mmshare_version>
43012

> <i_f3d_flags>
0

> <s_epik_input>
W0NIM11jMVtjSF1jKFtDSDNdKW5jKFtjSF0xKVtOSF1DKD1PKVtDQEBIXTJbQ0gyXU4oW0NIM10pW0NIMl1bQ0gyXU8y

> <s_epik_cmdline>
J2VwaWtfcHl0aG9uJywgJy1waCcsICc3LjAnLCAnLXRuJywgJzgnLCAnLW1hJywgJzIwMCcsICctbWV0YWxfYmluZGluZycsICctaW1hZScsICc8aW5maWxlLm1hZT4nLCAnLW9tYWUnLCAnPG91dGZpbGUubWFlPic=

> <r_epik_Ionization_Penalty>
13.8964

> <r_epik_Ionization_Penalty_Charging>
7.88995

> <r_epik_Ionization_Penalty_Neutral>
6.00641

> <r_epik_State_Penalty>
8.39989

> <r_epik_Charging_Adjusted_Penalty>
16.2898

> <i_epik_Tot_Q>
0

> <i_epik_Tot_abs_Q>
2

> <r_epik_Metal_State_Penalty>
4.31145

> <b_epik_Metal_Only>
1

> <s_lp_Force_Field>
OPLS_2005

> <r_lp_Energy>
9.48457

> <b_lp_Chiralities_Consistent>
1

> <s_lp_Variant>
AV-unprocessed.smi:3314-13

> <Gold.Version>
5.8.1

> <Gold.Id.Protein>
6NUR|6NUR_protein|mol2

> <Gold.PLP.Fitness>
41.8775

> <Gold.PLP.PLP>
-37.2018

> <Gold.PLP.part.hbond>
-3.0000

> <Gold.PLP.part.metal>
0.0000

> <Gold.PLP.part.buried>
-2.9897

> <Gold.PLP.part.nonpolar>
-31.4363

> <Gold.PLP.part.repulsive>
0.1854

> <Gold.PLP.ligand.clash>
0.0000

> <Gold.PLP.ligand.torsion>
0.8994

> <Gold.PLP.Chemscore.Hbond>
2.1561

> <Gold.PLP.Chemscore.CHOScore>
0.0000

> <Gold.PLP.Chemscore.Metal>
0.0000

> <Gold.Chemscore.Hbonds>
donor molecule, donor type, donor heavy atom, donor atom, acceptor molecule, acceptor atom, score
      L1  H    13    37       P1  7957  1.00
      P1  H  7989  7998       L1    10  0.17
      P1  H  7997  8009       L1    10  0.80

> <Gold.PLP.Chemscore.Internal.Correction>
0.0062

> <Gold.Rescore>
     Score         DG    S(hbond)    S(metal)    S(lipo)     H(rot)  DE(clash)    DE(int)     intcor
     19.57     -20.62       1.96        0.00      95.20       1.00       0.10       0.95       ----

> <Gold.Chemscore.Fitness>
19.5740

> <Gold.Chemscore.DG>
-20.6210

> <Gold.Chemscore.ZeroCoef>
-5.4800

> <Gold.Chemscore.Hbond>
1.9648

> <Gold.Chemscore.Metal>
0.0000

> <Gold.Chemscore.Lipo>
95.2023

> <Gold.Chemscore.Internal_Hbond>
0.0000

> <Gold.Chemscore.DEClash>
0.0952

> <Gold.Chemscore.DEInternal>
0.9518

> <Gold.Chemscore.Rot>
1.0000

> <Gold.Chemscore.Internal.Correction>
   9.000000E+99

> <Gold.Chemscore.Hbonds>
donor molecule, donor type, donor heavy atom, donor atom, acceptor molecule, acceptor atom, score
      L1  H    13    37       P1  7957  0.97
      P1  H  7997  8009       L1    10  0.75

> <Gold.Chemscore.Hbond.Weighted>
-6.5624

> <Gold.Chemscore.Metal.Weighted>
-0.0000

> <Gold.Chemscore.Lipo.Weighted>
-11.1387

> <Gold.Chemscore.Internal_Hbond.Weighted>
0.0000

> <Gold.Chemscore.DEClash.Weighted>
0.0952

> <Gold.Chemscore.DEInternal.Weighted>
0.9518

> <Gold.Chemscore.Rot.Weighted>
2.5600

> <Gold.Chemscore.Internal.Correction.Weighted>
   9.000000E+99

> <Gold.Protein.RotatedTorsions>
[ 6907 6896 6895 6894 ] final   89.23 input  -60.11 | X-H torsion
[ 7974 7965 7964 7962 ] final -143.94 input  175.53 | X-H torsion
[ 8008 7997 7996 7995 ] final -137.74 input   59.86 | X-H torsion
[ 10167 10162 10161 10158 ] final  166.49 input  -65.29 | X-H torsion
[ 10718 10713 10712 10709 ] final   91.86 input   66.30 | X-H torsion
[ 10763 10752 10751 10750 ] final  125.23 input  -60.55 | X-H torsion
[ 11005 11000 10999 10996 ] final   -9.65 input  -57.11 | X-H torsion

> <Gold.Protein.ActiveResidues>
 VAL166  LYS551  ARG553  GLY616  TRP617  ASP618  TYR619  PRO620  LYS621  CYS622 
 ASP623  PHE694  ASN695  SER759  ASP760  ASP761  ALA762  ILE779  LEU786  VAL792 
 PHE793  MET794  SER795  GLU796  ALA797  LYS798  CYS799  TRP800  GLU811  SER814 

> <Gold.Protein.RotatedAtoms>
  152.5434  134.1999  159.8707 H   0  0  0  0  0  0  0  0  0  0  0  0  # atno 6907 bound_to 6896
  151.1988  133.4616  159.2603 H   0  0  0  0  0  0  0  0  0  0  0  0  # atno 6908 bound_to 6896
  151.1010  134.9984  159.8504 H   0  0  0  0  0  0  0  0  0  0  0  0  # atno 6909 bound_to 6896
  144.8333  140.5772  143.5500 H   0  0  0  0  0  0  0  0  0  0  0  0  # atno 7974 bound_to 7965
  155.4168  140.0516  157.3028 H   0  0  0  0  0  0  0  0  0  0  0  0  # atno 8008 bound_to 7997
  154.4921  140.2124  155.9486 H   0  0  0  0  0  0  0  0  0  0  0  0  # atno 8009 bound_to 7997
  156.1356  140.3164  155.8420 H   0  0  0  0  0  0  0  0  0  0  0  0  # atno 8010 bound_to 7997
  139.4926  144.4022  151.9397 H   0  0  0  0  0  0  0  0  0  0  0  0  # atno 10167 bound_to 10162
  157.6960  131.0422  150.3793 H   0  0  0  0  0  0  0  0  0  0  0  0  # atno 10718 bound_to 10713
  153.6739  135.3325  155.3160 H   0  0  0  0  0  0  0  0  0  0  0  0  # atno 10763 bound_to 10752
  154.8483  135.4393  154.1676 H   0  0  0  0  0  0  0  0  0  0  0  0  # atno 10764 bound_to 10752
  153.2675  135.6997  153.7591 H   0  0  0  0  0  0  0  0  0  0  0  0  # atno 10765 bound_to 10752
  140.7364  133.8706  155.8933 H   0  0  0  0  0  0  0  0  0  0  0  0  # atno 11005 bound_to 11000
  145.4849  139.1492  143.3742 LP  0  0  0  0  0  0  0  0  0  0  0  0  # atno 17320 bound_to 7965
  146.2634  140.4985  142.8844 LP  0  0  0  0  0  0  0  0  0  0  0  0  # atno 17321 bound_to 7965
  140.3461  144.3145  150.5958 LP  0  0  0  0  0  0  0  0  0  0  0  0  # atno 17342 bound_to 10162
  140.5525  143.2204  151.7903 LP  0  0  0  0  0  0  0  0  0  0  0  0  # atno 17343 bound_to 10162
  156.4209  130.3952  149.6826 LP  0  0  0  0  0  0  0  0  0  0  0  0  # atno 17370 bound_to 10713
  156.4077  130.7706  151.2718 LP  0  0  0  0  0  0  0  0  0  0  0  0  # atno 17371 bound_to 10713
  140.9875  134.1323  157.4438 LP  0  0  0  0  0  0  0  0  0  0  0  0  # atno 17394 bound_to 11000
  139.8815  135.0030  156.6161 LP  0  0  0  0  0  0  0  0  0  0  0  0  # atno 17395 bound_to 11000

$$$$
