AV-unprocessed.smi:1050|AV-procd|sdf|4613|dock7
  -GOLD-   22720 3113D 1   1.00000     0.00000
 Structure written by MMmdl.
 48 49  0  0  0  0  0  0  0  0  1 V2000
  152.5926  131.4153  157.5552 C   0  0  0  0  0  0  0  0  0  0  0  0
  152.0916  132.7462  157.4895 O   0  0  0  0  0  0  0  0  0  0  0  0
  151.1454  133.0412  156.5297 C   0  0  0  0  0  0  0  0  0  0  0  0
  150.4683  131.9820  155.8991 C   0  0  0  0  0  0  0  0  0  0  0  0
  149.5030  132.2822  154.9214 C   0  0  0  0  0  0  0  0  0  0  0  0
  149.2486  133.6355  154.5916 C   0  0  0  0  0  0  0  0  0  0  0  0
  148.2595  134.0295  153.6450 N   0  0  0  0  0  0  0  0  0  0  0  0
  147.3017  133.2875  153.0600 C   0  0  0  0  0  0  0  0  0  0  0  0
  147.1146  132.0902  153.2751 O   0  0  0  0  0  0  0  0  0  0  0  0
  146.4112  134.0326  152.0509 C   0  0  1  0  0  0  0  0  0  0  0  0
  145.4860  133.0679  151.2938 C   0  0  0  0  0  0  0  0  0  0  0  0
  145.5888  134.9853  152.7197 O   0  0  0  0  0  0  0  0  0  0  0  0
  144.7171  134.4483  153.7065 C   0  0  0  0  0  0  0  0  0  0  0  0
  149.9720  134.6380  155.2904 C   0  0  0  0  0  0  0  0  0  0  0  0
  149.7595  136.0015  155.0079 N   0  0  0  0  0  0  0  0  0  0  0  0
  150.9355  136.6770  154.4590 C   0  0  0  0  0  0  0  0  0  0  0  0
  150.5682  138.0851  153.9515 C   0  0  0  0  0  0  0  0  0  0  0  0
  149.9086  138.8273  155.0340 N   0  0  0  0  0  0  0  0  0  0  0  0
  150.4672  139.9049  155.6343 C   0  0  0  0  0  0  0  0  0  0  0  0
  149.7441  140.5638  156.8109 C   0  0  0  0  0  0  0  0  0  0  0  0
  151.5431  140.3832  155.2750 O   0  0  0  0  0  0  0  0  0  0  0  0
  148.6629  138.1679  155.4494 C   0  0  0  0  0  0  0  0  0  0  0  0
  149.0028  136.7700  155.9980 C   0  0  0  0  0  0  0  0  0  0  0  0
  150.8979  134.3390  156.2323 N   0  0  0  0  0  0  0  0  0  0  0  0
  153.3258  131.3454  158.3584 H   0  0  0  0  0  0  0  0  0  0  0  0
  153.0901  131.1293  156.6272 H   0  0  0  0  0  0  0  0  0  0  0  0
  151.7975  130.6999  157.7702 H   0  0  0  0  0  0  0  0  0  0  0  0
  150.6797  130.9569  156.1657 H   0  0  0  0  0  0  0  0  0  0  0  0
  148.9656  131.4690  154.4596 H   0  0  0  0  0  0  0  0  0  0  0  0
  148.3424  134.9790  153.3110 H   0  0  0  0  0  0  0  0  0  0  0  0
  147.0363  134.5454  151.3171 H   0  0  0  0  0  0  0  0  0  0  0  0
  146.0573  132.2982  150.7734 H   0  0  0  0  0  0  0  0  0  0  0  0
  144.8993  133.6029  150.5470 H   0  0  0  0  0  0  0  0  0  0  0  0
  144.7857  132.5703  151.9657 H   0  0  0  0  0  0  0  0  0  0  0  0
  144.1925  135.2624  154.2063 H   0  0  0  0  0  0  0  0  0  0  0  0
  145.2737  133.8954  154.4643 H   0  0  0  0  0  0  0  0  0  0  0  0
  143.9638  133.7889  153.2751 H   0  0  0  0  0  0  0  0  0  0  0  0
  151.6971  136.7482  155.2369 H   0  0  0  0  0  0  0  0  0  0  0  0
  151.3697  136.0951  153.6457 H   0  0  0  0  0  0  0  0  0  0  0  0
  151.4611  138.5854  153.5751 H   0  0  0  0  0  0  0  0  0  0  0  0
  149.8878  138.0109  153.1020 H   0  0  0  0  0  0  0  0  0  0  0  0
  149.5847  139.8485  157.6186 H   0  0  0  0  0  0  0  0  0  0  0  0
  148.7804  140.9644  156.4952 H   0  0  0  0  0  0  0  0  0  0  0  0
  150.3335  141.3898  157.2109 H   0  0  0  0  0  0  0  0  0  0  0  0
  148.0951  138.7266  156.1916 H   0  0  0  0  0  0  0  0  0  0  0  0
  148.0038  138.0781  154.5847 H   0  0  0  0  0  0  0  0  0  0  0  0
  148.0858  136.2371  156.2527 H   0  0  0  0  0  0  0  0  0  0  0  0
  149.5867  136.8673  156.9145 H   0  0  0  0  0  0  0  0  0  0  0  0
  1  2  1  0  0  0  0
  1 25  1  0  0  0  0
  1 26  1  0  0  0  0
  1 27  1  0  0  0  0
  2  3  1  0  0  0  0
  3 24  1  0  0  0  0
  3  4  2  0  0  0  0
  4  5  1  0  0  0  0
  4 28  1  0  0  0  0
  5  6  2  0  0  0  0
  5 29  1  0  0  0  0
  6  7  1  0  0  0  0
  6 14  1  0  0  0  0
  7  8  1  0  0  0  0
  7 30  1  0  0  0  0
  8  9  2  0  0  0  0
  8 10  1  0  0  0  0
 10 11  1  0  0  0  0
 10 12  1  0  0  0  0
 10 31  1  0  0  0  0
 11 32  1  0  0  0  0
 11 33  1  0  0  0  0
 11 34  1  0  0  0  0
 12 13  1  0  0  0  0
 13 35  1  0  0  0  0
 13 36  1  0  0  0  0
 13 37  1  0  0  0  0
 14 15  1  0  0  0  0
 14 24  2  0  0  0  0
 15 23  1  0  0  0  0
 15 16  1  0  0  0  0
 16 17  1  0  0  0  0
 16 38  1  0  0  0  0
 16 39  1  0  0  0  0
 17 18  1  0  0  0  0
 17 40  1  0  0  0  0
 17 41  1  0  0  0  0
 18 19  1  0  0  0  0
 18 22  1  0  0  0  0
 19 20  1  0  0  0  0
 19 21  2  0  0  0  0
 20 42  1  0  0  0  0
 20 43  1  0  0  0  0
 20 44  1  0  0  0  0
 22 23  1  0  0  0  0
 22 45  1  0  0  0  0
 22 46  1  0  0  0  0
 23 47  1  0  0  0  0
 23 48  1  0  0  0  0
M  END
> <s_m_source_file>
AV-unprocessed.smi

> <i_m_source_file_index>
1050

> <i_lp_mmshare_version>
43012

> <i_f3d_flags>
0

> <s_epik_input>
W0NIM11PYzFbY0hdW2NIXWMoW05IXUMoPU8pW0NASF0oW0NIM10pT1tDSDNdKWMobjEpTjJbQ0gyXVtDSDJdTihDKD1PKVtDSDNdKVtDSDJdW0NIMl0y

> <s_epik_cmdline>
J2VwaWtfcHl0aG9uJywgJy1waCcsICc3LjAnLCAnLXRuJywgJzgnLCAnLW1hJywgJzIwMCcsICctbWV0YWxfYmluZGluZycsICctaW1hZScsICc8aW5maWxlLm1hZT4nLCAnLW9tYWUnLCAnPG91dGZpbGUubWFlPic=

> <r_lp_tautomer_probability>
1

> <r_epik_Ionization_Penalty>
0.000150604

> <r_epik_Ionization_Penalty_Charging>
0

> <r_epik_Ionization_Penalty_Neutral>
0.000150604

> <r_epik_State_Penalty>
-0

> <r_epik_Charging_Adjusted_Penalty>
0

> <i_epik_Tot_Q>
0

> <i_epik_Tot_abs_Q>
0

> <r_epik_Metal_State_Penalty>
-0

> <b_epik_Metal_Only>
0

> <s_lp_Force_Field>
OPLS_2005

> <r_lp_Energy>
41.0836

> <b_lp_Chiralities_Consistent>
1

> <s_lp_Variant>
AV-unprocessed.smi:1050-2

> <Gold.Version>
5.8.1

> <Gold.Id.Protein>
6NUR|6NUR_protein|mol2

> <Gold.PLP.Fitness>
39.2714

> <Gold.PLP.PLP>
-31.6258

> <Gold.PLP.part.hbond>
-3.0000

> <Gold.PLP.part.metal>
0.0000

> <Gold.PLP.part.buried>
-2.4289

> <Gold.PLP.part.nonpolar>
-26.9381

> <Gold.PLP.part.repulsive>
0.3778

> <Gold.PLP.ligand.clash>
0.0000

> <Gold.PLP.ligand.torsion>
0.5616

> <Gold.PLP.Chemscore.Hbond>
2.8080

> <Gold.PLP.Chemscore.CHOScore>
0.0000

> <Gold.PLP.Chemscore.Metal>
0.0000

> <Gold.Chemscore.Hbonds>
donor molecule, donor type, donor heavy atom, donor atom, acceptor molecule, acceptor atom, score
      L1  H     7    30       P1  7948  0.93
      P1  H  6896  6909       L1     2  0.93
      P1  H  7989  7998       L1    21  0.88

> <Gold.PLP.Chemscore.Internal.Correction>
0.3449

> <Gold.Rescore>
     Score         DG    S(hbond)    S(metal)    S(lipo)     H(rot)  DE(clash)    DE(int)     intcor
     13.89     -15.82       2.71        0.00      48.51       1.71       0.12       1.81       ----

> <Gold.Chemscore.Fitness>
13.8907

> <Gold.Chemscore.DG>
-15.8171

> <Gold.Chemscore.ZeroCoef>
-5.4800

> <Gold.Chemscore.Hbond>
2.7067

> <Gold.Chemscore.Metal>
0.0000

> <Gold.Chemscore.Lipo>
48.5097

> <Gold.Chemscore.Internal_Hbond>
0.0000

> <Gold.Chemscore.DEClash>
0.1169

> <Gold.Chemscore.DEInternal>
1.8095

> <Gold.Chemscore.Rot>
1.7106

> <Gold.Chemscore.Internal.Correction>
   9.000000E+99

> <Gold.Chemscore.Hbonds>
donor molecule, donor type, donor heavy atom, donor atom, acceptor molecule, acceptor atom, score
      L1  H     7    30       P1  7948  0.78
      P1  H  6896  6909       L1     2  0.53
      P1  H  7989  7998       L1    21  0.80

> <Gold.Chemscore.Hbond.Weighted>
-9.0405

> <Gold.Chemscore.Metal.Weighted>
-0.0000

> <Gold.Chemscore.Lipo.Weighted>
-5.6756

> <Gold.Chemscore.Internal_Hbond.Weighted>
0.0000

> <Gold.Chemscore.DEClash.Weighted>
0.1169

> <Gold.Chemscore.DEInternal.Weighted>
1.8095

> <Gold.Chemscore.Rot.Weighted>
4.3790

> <Gold.Chemscore.Internal.Correction.Weighted>
   9.000000E+99

> <Gold.Protein.RotatedTorsions>
[ 6907 6896 6895 6894 ] final  -67.34 input  -60.11 | X-H torsion
[ 7974 7965 7964 7962 ] final   89.89 input  175.53 | X-H torsion
[ 8008 7997 7996 7995 ] final -156.71 input   59.86 | X-H torsion
[ 10167 10162 10161 10158 ] final  -18.17 input  -65.29 | X-H torsion
[ 10718 10713 10712 10709 ] final -163.82 input   66.30 | X-H torsion
[ 10763 10752 10751 10750 ] final   67.72 input  -60.55 | X-H torsion
[ 11005 11000 10999 10996 ] final -156.15 input  -57.11 | X-H torsion

> <Gold.Protein.ActiveResidues>
 VAL166  LYS551  ARG553  GLY616  TRP617  ASP618  TYR619  PRO620  LYS621  CYS622 
 ASP623  PHE694  ASN695  SER759  ASP760  ASP761  ALA762  ILE779  LEU786  VAL792 
 PHE793  MET794  SER795  GLU796  ALA797  LYS798  CYS799  TRP800  GLU811  SER814 

> <Gold.Protein.RotatedAtoms>
  150.7415  134.5895  159.5979 H   0  0  0  0  0  0  0  0  0  0  0  0  # atno 6907 bound_to 6896
  152.3287  134.7285  160.0304 H   0  0  0  0  0  0  0  0  0  0  0  0  # atno 6908 bound_to 6896
  151.7776  133.3311  159.3499 H   0  0  0  0  0  0  0  0  0  0  0  0  # atno 6909 bound_to 6896
  145.5263  139.2281  143.2644 H   0  0  0  0  0  0  0  0  0  0  0  0  # atno 7974 bound_to 7965
  155.7213  140.0790  157.2329 H   0  0  0  0  0  0  0  0  0  0  0  0  # atno 8008 bound_to 7997
  154.4045  140.1612  156.2460 H   0  0  0  0  0  0  0  0  0  0  0  0  # atno 8009 bound_to 7997
  155.9194  140.3399  155.6163 H   0  0  0  0  0  0  0  0  0  0  0  0  # atno 8010 bound_to 7997
  140.7256  143.4943  150.9951 H   0  0  0  0  0  0  0  0  0  0  0  0  # atno 10167 bound_to 10162
  156.6301  130.8926  151.2976 H   0  0  0  0  0  0  0  0  0  0  0  0  # atno 10718 bound_to 10713
  153.0200  135.5274  154.7023 H   0  0  0  0  0  0  0  0  0  0  0  0  # atno 10763 bound_to 10752
  154.6128  135.2880  155.0415 H   0  0  0  0  0  0  0  0  0  0  0  0  # atno 10764 bound_to 10752
  154.1430  135.6575  153.4999 H   0  0  0  0  0  0  0  0  0  0  0  0  # atno 10765 bound_to 10752
  140.6787  134.4168  157.5228 H   0  0  0  0  0  0  0  0  0  0  0  0  # atno 11005 bound_to 11000
  146.2073  140.6077  142.9075 LP  0  0  0  0  0  0  0  0  0  0  0  0  # atno 17320 bound_to 7965
  144.7649  140.5508  143.6710 LP  0  0  0  0  0  0  0  0  0  0  0  0  # atno 17321 bound_to 7965
  139.8649  143.7267  152.3171 LP  0  0  0  0  0  0  0  0  0  0  0  0  # atno 17342 bound_to 10162
  139.7495  144.7538  151.0528 LP  0  0  0  0  0  0  0  0  0  0  0  0  # atno 17343 bound_to 10162
  157.7202  130.9549  150.1410 LP  0  0  0  0  0  0  0  0  0  0  0  0  # atno 17370 bound_to 10713
  156.2241  130.3676  149.8521 LP  0  0  0  0  0  0  0  0  0  0  0  0  # atno 17371 bound_to 10713
  139.8958  134.8674  156.2114 LP  0  0  0  0  0  0  0  0  0  0  0  0  # atno 17394 bound_to 11000
  141.0334  133.6976  156.1470 LP  0  0  0  0  0  0  0  0  0  0  0  0  # atno 17395 bound_to 11000

$$$$
