AV-unprocessed.smi:927|AV-procd|sdf|4187|dock3
  -GOLD-   22720 2 93D 1   1.00000     0.00000
 Structure written by MMmdl.
 21 21  0  0  0  0  0  0  0  0  2 V2000
  143.9780  137.5169  151.9489 N   0  3  0  0  0  0  0  0  0  0  0  0
  145.2389  137.0111  152.5197 C   0  0  0  0  0  0  0  0  0  0  0  0
  146.1538  136.4058  151.4400 C   0  0  2  0  0  0  0  0  0  0  0  0
  146.1456  137.2547  150.3086 O   0  0  0  0  0  0  0  0  0  0  0  0
  145.7243  134.9910  151.0848 C   0  0  0  0  0  0  0  0  0  0  0  0
  144.4278  134.7399  150.5886 C   0  0  0  0  0  0  0  0  0  0  0  0
  144.0739  133.4140  150.2670 C   0  0  0  0  0  0  0  0  0  0  0  0
  144.9150  132.3675  150.4074 N   0  0  0  0  0  0  0  0  0  0  0  0
  146.1553  132.6127  150.8807 C   0  0  0  0  0  0  0  0  0  0  0  0
  146.6089  133.9002  151.2312 C   0  0  0  0  0  0  0  0  0  0  0  0
  143.2293  136.8715  152.1564 H   0  0  0  0  0  0  0  0  0  0  0  0
  144.0798  137.6052  150.9477 H   0  0  0  0  0  0  0  0  0  0  0  0
  145.7426  137.8434  153.0128 H   0  0  0  0  0  0  0  0  0  0  0  0
  145.0103  136.2748  153.2915 H   0  0  0  0  0  0  0  0  0  0  0  0
  147.1787  136.3716  151.8131 H   0  0  0  0  0  0  0  0  0  0  0  0
  145.3541  137.7719  150.3277 H   0  0  0  0  0  0  0  0  0  0  0  0
  143.7156  135.5412  150.4553 H   0  0  0  0  0  0  0  0  0  0  0  0
  143.0890  133.1889  149.8855 H   0  0  0  0  0  0  0  0  0  0  0  0
  146.8073  131.7576  150.9818 H   0  0  0  0  0  0  0  0  0  0  0  0
  147.6133  134.0416  151.6027 H   0  0  0  0  0  0  0  0  0  0  0  0
  143.7652  138.4210  152.3455 H   0  0  0  0  0  0  0  0  0  0  0  0
  1  2  1  0  0  0  0
  1 11  1  0  0  0  0
  1 12  1  0  0  0  0
  1 21  1  0  0  0  0
  2  3  1  0  0  0  0
  2 13  1  0  0  0  0
  2 14  1  0  0  0  0
  3  4  1  0  0  0  0
  3  5  1  0  0  0  0
  3 15  1  0  0  0  0
  4 16  1  0  0  0  0
  5 10  1  0  0  0  0
  5  6  2  0  0  0  0
  6  7  1  0  0  0  0
  6 17  1  0  0  0  0
  7  8  2  0  0  0  0
  7 18  1  0  0  0  0
  8  9  1  0  0  0  0
  9 10  2  0  0  0  0
  9 19  1  0  0  0  0
 10 20  1  0  0  0  0
M  CHG  1   1   1
M  END
> <s_m_source_file>
AV-unprocessed.smi

> <i_m_source_file_index>
927

> <i_lp_mmshare_version>
43012

> <i_f3d_flags>
0

> <s_epik_input>
W05IMl1bQ0gyXVtDQEhdKFtPSF0pYzFbY0hdW2NIXW5bY0hdW2NIXTE=

> <s_epik_cmdline>
J2VwaWtfcHl0aG9uJywgJy1waCcsICc3LjAnLCAnLXRuJywgJzgnLCAnLW1hJywgJzIwMCcsICctbWV0YWxfYmluZGluZycsICctaW1hZScsICc8aW5maWxlLm1hZT4nLCAnLW9tYWUnLCAnPG91dGZpbGUubWFlPic=

> <r_epik_Ionization_Penalty>
0.0159363

> <r_epik_Ionization_Penalty_Charging>
0.0140431

> <r_epik_Ionization_Penalty_Neutral>
0.00189321

> <r_epik_State_Penalty>
0.0109628

> <r_epik_Charging_Adjusted_Penalty>
0.0250059

> <i_epik_Tot_Q>
1

> <i_epik_Tot_abs_Q>
1

> <r_epik_Metal_State_Penalty>
0.0113463

> <b_epik_Metal_Only>
0

> <s_lp_Force_Field>
OPLS_2005

> <r_lp_Energy>
4.52457

> <b_lp_Chiralities_Consistent>
1

> <s_lp_Variant>
AV-unprocessed.smi:927-1

> <Gold.Version>
5.8.1

> <Gold.Id.Protein>
6NUR|6NUR_protein|mol2

> <Gold.PLP.Fitness>
39.3289

> <Gold.PLP.PLP>
-19.4830

> <Gold.PLP.part.hbond>
-4.2202

> <Gold.PLP.part.metal>
0.0000

> <Gold.PLP.part.buried>
-1.4236

> <Gold.PLP.part.nonpolar>
-14.0705

> <Gold.PLP.part.repulsive>
0.1975

> <Gold.PLP.ligand.clash>
0.0000

> <Gold.PLP.ligand.torsion>
0.1736

> <Gold.PLP.Chemscore.Hbond>
4.7288

> <Gold.PLP.Chemscore.CHOScore>
2.0000

> <Gold.PLP.Chemscore.Metal>
0.0000

> <Gold.Chemscore.Hbonds>
donor molecule, donor type, donor heavy atom, donor atom, acceptor molecule, acceptor atom, score
      L1  H     1    12       P1 10171  0.80
      L1  H     1    21       P1 10175  2.00
      L1  H     4    16       P1 10171  1.00
      P1  H  7954  7966       L1     4  0.56
      L1  C     7    18       P1 10186  1.00
      L1  C     9    19       P1 10747  1.00

> <Gold.PLP.Chemscore.Internal.Correction>
0.0066

> <Gold.Rescore>
     Score         DG    S(hbond)    S(metal)    S(lipo)     H(rot)  DE(clash)    DE(int)     intcor
     16.73     -18.31       3.66        0.00      46.63       1.90       1.37       0.20       ----

> <Gold.Chemscore.Fitness>
16.7303

> <Gold.Chemscore.DG>
-18.3068

> <Gold.Chemscore.ZeroCoef>
-5.4800

> <Gold.Chemscore.Hbond>
3.6618

> <Gold.Chemscore.Metal>
0.0000

> <Gold.Chemscore.Lipo>
46.6301

> <Gold.Chemscore.Internal_Hbond>
0.0000

> <Gold.Chemscore.DEClash>
1.3744

> <Gold.Chemscore.DEInternal>
0.2021

> <Gold.Chemscore.Rot>
1.8981

> <Gold.Chemscore.Internal.Correction>
   9.000000E+99

> <Gold.Chemscore.Hbonds>
donor molecule, donor type, donor heavy atom, donor atom, acceptor molecule, acceptor atom, score
      L1  H     1    12       P1 10171  0.75
      L1  H     1    21       P1 10175  0.94
      L1  H     4    16       P1 10171  1.00
      P1  H  7954  7966       L1     4  0.39

> <Gold.Chemscore.Hbond.Weighted>
-12.2303

> <Gold.Chemscore.Metal.Weighted>
-0.0000

> <Gold.Chemscore.Lipo.Weighted>
-5.4557

> <Gold.Chemscore.Internal_Hbond.Weighted>
0.0000

> <Gold.Chemscore.DEClash.Weighted>
1.3744

> <Gold.Chemscore.DEInternal.Weighted>
0.2021

> <Gold.Chemscore.Rot.Weighted>
4.8592

> <Gold.Chemscore.Internal.Correction.Weighted>
   9.000000E+99

> <Gold.Protein.RotatedTorsions>
[ 6907 6896 6895 6894 ] final -162.71 input  -60.11 | X-H torsion
[ 7974 7965 7964 7962 ] final  -14.34 input  175.53 | X-H torsion
[ 8008 7997 7996 7995 ] final -144.56 input   59.86 | X-H torsion
[ 10167 10162 10161 10158 ] final  -63.62 input  -65.29 | X-H torsion
[ 10718 10713 10712 10709 ] final  -85.70 input   66.30 | X-H torsion
[ 10763 10752 10751 10750 ] final -110.01 input  -60.55 | X-H torsion
[ 11005 11000 10999 10996 ] final  130.62 input  -57.11 | X-H torsion

> <Gold.Protein.ActiveResidues>
 VAL166  LYS551  ARG553  GLY616  TRP617  ASP618  TYR619  PRO620  LYS621  CYS622 
 ASP623  PHE694  ASN695  SER759  ASP760  ASP761  ALA762  ILE779  LEU786  VAL792 
 PHE793  MET794  SER795  GLU796  ALA797  LYS798  CYS799  TRP800  GLU811  SER814 

> <Gold.Protein.RotatedAtoms>
  151.3845  133.3810  159.2713 H   0  0  0  0  0  0  0  0  0  0  0  0  # atno 6907 bound_to 6896
  150.9552  134.8948  159.7707 H   0  0  0  0  0  0  0  0  0  0  0  0  # atno 6908 bound_to 6896
  152.5128  134.3802  159.9401 H   0  0  0  0  0  0  0  0  0  0  0  0  # atno 6909 bound_to 6896
  146.2078  140.3334  142.8401 H   0  0  0  0  0  0  0  0  0  0  0  0  # atno 7974 bound_to 7965
  155.5289  140.0598  157.2893 H   0  0  0  0  0  0  0  0  0  0  0  0  # atno 8008 bound_to 7997
  154.4491  140.1939  156.0519 H   0  0  0  0  0  0  0  0  0  0  0  0  # atno 8009 bound_to 7997
  156.0666  140.3265  155.7529 H   0  0  0  0  0  0  0  0  0  0  0  0  # atno 8010 bound_to 7997
  140.5858  143.2333  151.6245 H   0  0  0  0  0  0  0  0  0  0  0  0  # atno 10167 bound_to 10162
  155.9995  130.4740  150.4602 H   0  0  0  0  0  0  0  0  0  0  0  0  # atno 10718 bound_to 10713
  154.8224  135.4580  154.0819 H   0  0  0  0  0  0  0  0  0  0  0  0  # atno 10763 bound_to 10752
  153.2161  135.6888  153.8061 H   0  0  0  0  0  0  0  0  0  0  0  0  # atno 10764 bound_to 10752
  153.7495  135.3300  155.3295 H   0  0  0  0  0  0  0  0  0  0  0  0  # atno 10765 bound_to 10752
  139.9682  134.9585  156.9320 H   0  0  0  0  0  0  0  0  0  0  0  0  # atno 11005 bound_to 11000
  144.8836  140.7433  143.5971 LP  0  0  0  0  0  0  0  0  0  0  0  0  # atno 17320 bound_to 7965
  145.3255  139.1775  143.4565 LP  0  0  0  0  0  0  0  0  0  0  0  0  # atno 17321 bound_to 7965
  139.5197  144.3246  152.0881 LP  0  0  0  0  0  0  0  0  0  0  0  0  # atno 17342 bound_to 10162
  140.2402  144.4277  150.6263 LP  0  0  0  0  0  0  0  0  0  0  0  0  # atno 17343 bound_to 10162
  157.2627  131.0570  151.2310 LP  0  0  0  0  0  0  0  0  0  0  0  0  # atno 17370 bound_to 10713
  157.3419  130.7038  149.6387 LP  0  0  0  0  0  0  0  0  0  0  0  0  # atno 17371 bound_to 10713
  140.5349  134.0776  155.7326 LP  0  0  0  0  0  0  0  0  0  0  0  0  # atno 17394 bound_to 11000
  141.1362  133.9217  157.2428 LP  0  0  0  0  0  0  0  0  0  0  0  0  # atno 17395 bound_to 11000

$$$$
