AV-unprocessed.smi:773|AV-procd|sdf|3690|dock4
  -GOLD-   22720 1103D 1   1.00000     0.00000
 Structure written by MMmdl.
 39 40  0  0  0  0  0  0  0  0  1 V2000
  148.2378  136.7897  155.3703 C   0  0  0  0  0  0  0  0  0  0  0  0
  149.6344  137.2793  155.1171 C   0  0  0  0  0  0  0  0  0  0  0  0
  150.5452  136.4427  154.6490 N   0  0  0  0  0  0  0  0  0  0  0  0
  151.7267  137.1829  154.5449 O   0  0  0  0  0  0  0  0  0  0  0  0
  151.4769  138.4513  154.9583 C   0  0  0  0  0  0  0  0  0  0  0  0
  152.6262  139.4007  154.9440 C   0  0  0  0  0  0  0  0  0  0  0  0
  150.1679  138.5827  155.3315 C   0  0  0  0  0  0  0  0  0  0  0  0
  149.4604  139.8013  155.8729 C   0  0  0  0  0  0  0  0  0  0  0  0
  149.6671  141.0624  155.0038 C   0  0  1  0  0  0  0  0  0  0  0  0
  148.4772  141.3072  154.0661 C   0  0  0  0  0  0  0  0  0  0  0  0
  149.8799  142.2483  155.8345 N   0  0  0  0  0  0  0  0  0  0  0  0
  150.7396  142.3403  156.8601 C   0  0  0  0  0  0  0  0  0  0  0  0
  151.5299  141.4538  157.1854 O   0  0  0  0  0  0  0  0  0  0  0  0
  150.6018  143.4972  157.5196 N   0  0  0  0  0  0  0  0  0  0  0  0
  151.3092  143.8235  158.7508 C   0  0  0  0  0  0  0  0  0  0  0  0
  150.5323  144.7815  159.6676 C   0  0  0  0  0  0  0  0  0  0  0  0
  151.8649  145.4959  159.9230 C   0  0  0  0  0  0  0  0  0  0  0  0
  152.3377  144.9475  158.5704 C   0  0  0  0  0  0  0  0  0  0  0  0
  147.8872  137.1049  156.3531 H   0  0  0  0  0  0  0  0  0  0  0  0
  148.1780  135.7013  155.3343 H   0  0  0  0  0  0  0  0  0  0  0  0
  147.5461  137.1865  154.6272 H   0  0  0  0  0  0  0  0  0  0  0  0
  152.3365  140.3522  154.4982 H   0  0  0  0  0  0  0  0  0  0  0  0
  153.4617  138.9991  154.3705 H   0  0  0  0  0  0  0  0  0  0  0  0
  152.9755  139.5945  155.9582 H   0  0  0  0  0  0  0  0  0  0  0  0
  148.3913  139.6064  155.9652 H   0  0  0  0  0  0  0  0  0  0  0  0
  149.8005  140.0113  156.8876 H   0  0  0  0  0  0  0  0  0  0  0  0
  150.5458  140.8997  154.3773 H   0  0  0  0  0  0  0  0  0  0  0  0
  148.3075  140.4482  153.4164 H   0  0  0  0  0  0  0  0  0  0  0  0
  148.6530  142.1731  153.4269 H   0  0  0  0  0  0  0  0  0  0  0  0
  147.5589  141.4874  154.6262 H   0  0  0  0  0  0  0  0  0  0  0  0
  149.2792  143.0386  155.6527 H   0  0  0  0  0  0  0  0  0  0  0  0
  149.9282  144.1692  157.1826 H   0  0  0  0  0  0  0  0  0  0  0  0
  151.7181  142.9636  159.2855 H   0  0  0  0  0  0  0  0  0  0  0  0
  149.8119  145.4082  159.1375 H   0  0  0  0  0  0  0  0  0  0  0  0
  150.0884  144.3119  160.5458 H   0  0  0  0  0  0  0  0  0  0  0  0
  151.7977  146.5826  159.9789 H   0  0  0  0  0  0  0  0  0  0  0  0
  152.4156  145.0783  160.7677 H   0  0  0  0  0  0  0  0  0  0  0  0
  153.3769  144.6179  158.5507 H   0  0  0  0  0  0  0  0  0  0  0  0
  152.1103  145.6213  157.7419 H   0  0  0  0  0  0  0  0  0  0  0  0
  1  2  1  0  0  0  0
  1 19  1  0  0  0  0
  1 20  1  0  0  0  0
  1 21  1  0  0  0  0
  2  7  1  0  0  0  0
  2  3  2  0  0  0  0
  3  4  1  0  0  0  0
  4  5  1  0  0  0  0
  5  6  1  0  0  0  0
  5  7  2  0  0  0  0
  6 22  1  0  0  0  0
  6 23  1  0  0  0  0
  6 24  1  0  0  0  0
  7  8  1  0  0  0  0
  8  9  1  0  0  0  0
  8 25  1  0  0  0  0
  8 26  1  0  0  0  0
  9 10  1  0  0  0  0
  9 11  1  0  0  0  0
  9 27  1  0  0  0  0
 10 28  1  0  0  0  0
 10 29  1  0  0  0  0
 10 30  1  0  0  0  0
 11 12  1  0  0  0  0
 11 31  1  0  0  0  0
 12 13  2  0  0  0  0
 12 14  1  0  0  0  0
 14 15  1  0  0  0  0
 14 32  1  0  0  0  0
 15 18  1  0  0  0  0
 15 16  1  0  0  0  0
 15 33  1  0  0  0  0
 16 17  1  0  0  0  0
 16 34  1  0  0  0  0
 16 35  1  0  0  0  0
 17 18  1  0  0  0  0
 17 36  1  0  0  0  0
 17 37  1  0  0  0  0
 18 38  1  0  0  0  0
 18 39  1  0  0  0  0
M  END
> <s_m_source_file>
AV-unprocessed.smi

> <i_m_source_file_index>
773

> <i_lp_mmshare_version>
43012

> <i_f3d_flags>
0

> <s_epik_input>
W0NIM11jMW5vYyhbQ0gzXSljMVtDSDJdW0NASF0oW0NIM10pW05IXUMoPU8pW05IXVtDSF0yW0NIMl1bQ0gyXVtDSDJdMg==

> <s_epik_cmdline>
J2VwaWtfcHl0aG9uJywgJy1waCcsICc3LjAnLCAnLXRuJywgJzgnLCAnLW1hJywgJzIwMCcsICctbWV0YWxfYmluZGluZycsICctaW1hZScsICc8aW5maWxlLm1hZT4nLCAnLW9tYWUnLCAnPG91dGZpbGUubWFlPic=

> <r_lp_tautomer_probability>
1

> <r_epik_Ionization_Penalty>
6.63278e-05

> <r_epik_Ionization_Penalty_Charging>
0

> <r_epik_Ionization_Penalty_Neutral>
6.63278e-05

> <r_epik_State_Penalty>
-0

> <r_epik_Charging_Adjusted_Penalty>
0

> <i_epik_Tot_Q>
0

> <i_epik_Tot_abs_Q>
0

> <r_epik_Metal_State_Penalty>
-0

> <b_epik_Metal_Only>
0

> <s_lp_Force_Field>
OPLS_2005

> <r_lp_Energy>
6.89309

> <b_lp_Chiralities_Consistent>
1

> <s_lp_Variant>
AV-unprocessed.smi:773-2

> <Gold.Version>
5.8.1

> <Gold.Id.Protein>
6NUR|6NUR_protein|mol2

> <Gold.PLP.Fitness>
43.9795

> <Gold.PLP.PLP>
-36.7381

> <Gold.PLP.part.hbond>
-3.0000

> <Gold.PLP.part.metal>
0.0000

> <Gold.PLP.part.buried>
-4.4506

> <Gold.PLP.part.nonpolar>
-30.4612

> <Gold.PLP.part.repulsive>
0.5074

> <Gold.PLP.ligand.clash>
0.0000

> <Gold.PLP.ligand.torsion>
0.9465

> <Gold.PLP.Chemscore.Hbond>
2.9600

> <Gold.PLP.Chemscore.CHOScore>
0.0000

> <Gold.PLP.Chemscore.Metal>
0.0000

> <Gold.Chemscore.Hbonds>
donor molecule, donor type, donor heavy atom, donor atom, acceptor molecule, acceptor atom, score
      L1  H    11    31       P1  8028  1.00
      L1  H    14    32       P1  8028  0.93
      P1  H 10752 10763       L1     4  0.78

> <Gold.PLP.Chemscore.Internal.Correction>
0.2544

> <Gold.Rescore>
     Score         DG    S(hbond)    S(metal)    S(lipo)     H(rot)  DE(clash)    DE(int)     intcor
     20.25     -21.79       2.89        0.00      91.12       1.56       0.06       1.48       ----

> <Gold.Chemscore.Fitness>
20.2529

> <Gold.Chemscore.DG>
-21.7869

> <Gold.Chemscore.ZeroCoef>
-5.4800

> <Gold.Chemscore.Hbond>
2.8880

> <Gold.Chemscore.Metal>
0.0000

> <Gold.Chemscore.Lipo>
91.1193

> <Gold.Chemscore.Internal_Hbond>
0.0000

> <Gold.Chemscore.DEClash>
0.0559

> <Gold.Chemscore.DEInternal>
1.4781

> <Gold.Chemscore.Rot>
1.5625

> <Gold.Chemscore.Internal.Correction>
   9.000000E+99

> <Gold.Chemscore.Hbonds>
donor molecule, donor type, donor heavy atom, donor atom, acceptor molecule, acceptor atom, score
      L1  H    11    31       P1  8028  0.98
      L1  H    14    32       P1  8028  0.63
      P1  H 10752 10763       L1     4  0.11

> <Gold.Chemscore.Hbond.Weighted>
-9.6460

> <Gold.Chemscore.Metal.Weighted>
-0.0000

> <Gold.Chemscore.Lipo.Weighted>
-10.6610

> <Gold.Chemscore.Internal_Hbond.Weighted>
0.0000

> <Gold.Chemscore.DEClash.Weighted>
0.0559

> <Gold.Chemscore.DEInternal.Weighted>
1.4781

> <Gold.Chemscore.Rot.Weighted>
4.0000

> <Gold.Chemscore.Internal.Correction.Weighted>
   9.000000E+99

> <Gold.Protein.RotatedTorsions>
[ 6907 6896 6895 6894 ] final  177.20 input  -60.11 | X-H torsion
[ 7974 7965 7964 7962 ] final -117.37 input  175.53 | X-H torsion
[ 8008 7997 7996 7995 ] final  177.11 input   59.86 | X-H torsion
[ 10167 10162 10161 10158 ] final    2.79 input  -65.29 | X-H torsion
[ 10718 10713 10712 10709 ] final -164.94 input   66.30 | X-H torsion
[ 10763 10752 10751 10750 ] final   58.88 input  -60.55 | X-H torsion
[ 11005 11000 10999 10996 ] final   59.79 input  -57.11 | X-H torsion

> <Gold.Protein.ActiveResidues>
 VAL166  LYS551  ARG553  GLY616  TRP617  ASP618  TYR619  PRO620  LYS621  CYS622 
 ASP623  PHE694  ASN695  SER759  ASP760  ASP761  ALA762  ILE779  LEU786  VAL792 
 PHE793  MET794  SER795  GLU796  ALA797  LYS798  CYS799  TRP800  GLU811  SER814 

> <Gold.Protein.RotatedAtoms>
  151.7078  133.3312  159.3282 H   0  0  0  0  0  0  0  0  0  0  0  0  # atno 6907 bound_to 6896
  150.7707  134.6559  159.6322 H   0  0  0  0  0  0  0  0  0  0  0  0  # atno 6908 bound_to 6896
  152.3730  134.6708  160.0221 H   0  0  0  0  0  0  0  0  0  0  0  0  # atno 6909 bound_to 6896
  145.0860  140.8458  143.4011 H   0  0  0  0  0  0  0  0  0  0  0  0  # atno 7974 bound_to 7965
  156.0692  140.1367  156.9848 H   0  0  0  0  0  0  0  0  0  0  0  0  # atno 8008 bound_to 7997
  154.4523  140.0975  156.6705 H   0  0  0  0  0  0  0  0  0  0  0  0  # atno 8009 bound_to 7997
  155.5254  140.3457  155.4417 H   0  0  0  0  0  0  0  0  0  0  0  0  # atno 8010 bound_to 7997
  140.6618  143.7284  150.7752 H   0  0  0  0  0  0  0  0  0  0  0  0  # atno 10167 bound_to 10162
  156.6462  130.8989  151.3005 H   0  0  0  0  0  0  0  0  0  0  0  0  # atno 10718 bound_to 10713
  152.9881  135.5591  154.5624 H   0  0  0  0  0  0  0  0  0  0  0  0  # atno 10763 bound_to 10752
  154.5040  135.2799  155.1399 H   0  0  0  0  0  0  0  0  0  0  0  0  # atno 10764 bound_to 10752
  154.2818  135.6343  153.5403 H   0  0  0  0  0  0  0  0  0  0  0  0  # atno 10765 bound_to 10752
  140.0278  134.6057  155.9549 H   0  0  0  0  0  0  0  0  0  0  0  0  # atno 11005 bound_to 11000
  145.1122  139.2749  143.5631 LP  0  0  0  0  0  0  0  0  0  0  0  0  # atno 17320 bound_to 7965
  146.3531  140.0721  142.8622 LP  0  0  0  0  0  0  0  0  0  0  0  0  # atno 17321 bound_to 7965
  140.0954  143.4838  152.2455 LP  0  0  0  0  0  0  0  0  0  0  0  0  # atno 17342 bound_to 10162
  139.5854  144.7529  151.3533 LP  0  0  0  0  0  0  0  0  0  0  0  0  # atno 17343 bound_to 10162
  157.7155  130.9492  150.1241 LP  0  0  0  0  0  0  0  0  0  0  0  0  # atno 17370 bound_to 10713
  156.2120  130.3667  149.8659 LP  0  0  0  0  0  0  0  0  0  0  0  0  # atno 17371 bound_to 10713
  141.1813  133.6547  156.5032 LP  0  0  0  0  0  0  0  0  0  0  0  0  # atno 17394 bound_to 11000
  140.4277  134.7130  157.4925 LP  0  0  0  0  0  0  0  0  0  0  0  0  # atno 17395 bound_to 11000

$$$$
