AV-unprocessed.smi:1427|AV-procd|sdf|5812|dock4
  -GOLD-   22720 5463D 1   1.00000     0.00000
 Structure written by MMmdl.
 33 34  0  0  0  0  0  0  0  0  1 V2000
  150.0918  139.6336  157.9995 C   0  0  0  0  0  0  0  0  0  0  0  0
  150.1969  141.1444  157.7513 C   0  0  1  0  0  0  0  0  0  0  0  0
  151.6703  141.6016  157.6820 C   0  0  0  0  0  0  0  0  0  0  0  0
  151.9213  142.8044  158.4577 N   0  0  0  0  0  0  0  0  0  0  0  0
  152.4835  142.9130  159.7120 C   0  0  0  0  0  0  0  0  0  0  0  0
  152.4928  144.2384  160.0396 C   0  0  0  0  0  0  0  0  0  0  0  0
  151.9116  144.8711  158.9054 C   0  0  0  0  0  0  0  0  0  0  0  0
  151.5742  144.0110  157.9585 N   0  0  0  0  0  0  0  0  0  0  0  0
  149.4900  141.4745  156.5142 N   0  0  0  0  0  0  0  0  0  0  0  0
  149.8052  141.0241  155.2892 C   0  0  0  0  0  0  0  0  0  0  0  0
  150.7771  140.3015  155.0630 O   0  0  0  0  0  0  0  0  0  0  0  0
  148.8800  141.4620  154.1451 C   0  0  1  0  0  0  0  0  0  0  0  0
  147.8422  140.3977  153.7370 C   0  0  0  0  0  0  0  0  0  0  0  0
  146.5220  140.8432  154.3810 C   0  0  0  0  0  0  0  0  0  0  0  0
  146.7779  142.3081  154.6942 C   0  0  0  0  0  0  0  0  0  0  0  0
  145.8992  143.0914  155.0463 O   0  0  0  0  0  0  0  0  0  0  0  0
  148.0682  142.6035  154.5337 N   0  0  0  0  0  0  0  0  0  0  0  0
  150.5826  139.3551  158.9324 H   0  0  0  0  0  0  0  0  0  0  0  0
  150.5592  139.0645  157.1951 H   0  0  0  0  0  0  0  0  0  0  0  0
  149.0503  139.3180  158.0702 H   0  0  0  0  0  0  0  0  0  0  0  0
  149.7172  141.6422  158.5961 H   0  0  0  0  0  0  0  0  0  0  0  0
  152.3223  140.8171  158.0677 H   0  0  0  0  0  0  0  0  0  0  0  0
  151.9704  141.7723  156.6466 H   0  0  0  0  0  0  0  0  0  0  0  0
  152.8175  142.0468  160.2638 H   0  0  0  0  0  0  0  0  0  0  0  0
  152.8562  144.6873  160.9518 H   0  0  0  0  0  0  0  0  0  0  0  0
  151.7258  145.9227  158.7434 H   0  0  0  0  0  0  0  0  0  0  0  0
  148.6771  142.0667  156.6023 H   0  0  0  0  0  0  0  0  0  0  0  0
  149.4836  141.7432  153.2805 H   0  0  0  0  0  0  0  0  0  0  0  0
  147.7344  140.3809  152.6516 H   0  0  0  0  0  0  0  0  0  0  0  0
  148.1242  139.3902  154.0474 H   0  0  0  0  0  0  0  0  0  0  0  0
  145.6694  140.7136  153.7138 H   0  0  0  0  0  0  0  0  0  0  0  0
  146.3304  140.3044  155.3096 H   0  0  0  0  0  0  0  0  0  0  0  0
  148.4640  143.5170  154.7023 H   0  0  0  0  0  0  0  0  0  0  0  0
  1  2  1  0  0  0  0
  1 18  1  0  0  0  0
  1 19  1  0  0  0  0
  1 20  1  0  0  0  0
  2  3  1  0  0  0  0
  2  9  1  0  0  0  0
  2 21  1  0  0  0  0
  3  4  1  0  0  0  0
  3 22  1  0  0  0  0
  3 23  1  0  0  0  0
  4  8  1  0  0  0  0
  4  5  1  0  0  0  0
  5  6  2  0  0  0  0
  5 24  1  0  0  0  0
  6  7  1  0  0  0  0
  6 25  1  0  0  0  0
  7  8  2  0  0  0  0
  7 26  1  0  0  0  0
  9 10  1  0  0  0  0
  9 27  1  0  0  0  0
 10 11  2  0  0  0  0
 10 12  1  0  0  0  0
 12 17  1  0  0  0  0
 12 13  1  0  0  0  0
 12 28  1  0  0  0  0
 13 14  1  0  0  0  0
 13 29  1  0  0  0  0
 13 30  1  0  0  0  0
 14 15  1  0  0  0  0
 14 31  1  0  0  0  0
 14 32  1  0  0  0  0
 15 16  2  0  0  0  0
 15 17  1  0  0  0  0
 17 33  1  0  0  0  0
M  END
> <s_m_source_file>
AV-unprocessed.smi

> <i_m_source_file_index>
1427

> <i_lp_mmshare_version>
43012

> <i_f3d_flags>
0

> <s_epik_input>
bjFbY0hdW2NIXVtjSF1uMVtDSDJdW0NAQEhdKFtDSDNdKVtOSF1DKD1PKVtDQEBIXTJbQ0gyXVtDSDJdQyg9TylbTkhdMg==

> <s_epik_cmdline>
J2VwaWtfcHl0aG9uJywgJy1waCcsICc3LjAnLCAnLXRuJywgJzgnLCAnLW1hJywgJzIwMCcsICctbWV0YWxfYmluZGluZycsICctaW1hZScsICc8aW5maWxlLm1hZT4nLCAnLW9tYWUnLCAnPG91dGZpbGUubWFlPic=

> <r_lp_tautomer_probability>
1

> <r_epik_Ionization_Penalty>
0.000310707

> <r_epik_Ionization_Penalty_Charging>
0

> <r_epik_Ionization_Penalty_Neutral>
0.000310707

> <r_epik_State_Penalty>
-0

> <r_epik_Charging_Adjusted_Penalty>
0

> <i_epik_Tot_Q>
0

> <i_epik_Tot_abs_Q>
0

> <r_epik_Metal_State_Penalty>
-0

> <b_epik_Metal_Only>
0

> <s_lp_Force_Field>
OPLS_2005

> <r_lp_Energy>
14.0885

> <b_lp_Chiralities_Consistent>
1

> <s_lp_Variant>
AV-unprocessed.smi:1427-4

> <Gold.Version>
5.8.1

> <Gold.Id.Protein>
6NUR|6NUR_protein|mol2

> <Gold.PLP.Fitness>
38.1357

> <Gold.PLP.PLP>
-34.9831

> <Gold.PLP.part.hbond>
-2.0000

> <Gold.PLP.part.metal>
0.0000

> <Gold.PLP.part.buried>
-5.0580

> <Gold.PLP.part.nonpolar>
-28.1721

> <Gold.PLP.part.repulsive>
0.6402

> <Gold.PLP.ligand.clash>
0.0000

> <Gold.PLP.ligand.torsion>
1.4280

> <Gold.PLP.Chemscore.Hbond>
1.9920

> <Gold.PLP.Chemscore.CHOScore>
0.0000

> <Gold.PLP.Chemscore.Metal>
0.0000

> <Gold.Chemscore.Hbonds>
donor molecule, donor type, donor heavy atom, donor atom, acceptor molecule, acceptor atom, score
      L1  H    17    33       P1  8028  1.00
      P1  H  7989  7998       L1    11  1.00

> <Gold.PLP.Chemscore.Internal.Correction>
0.0325

> <Gold.Rescore>
     Score         DG    S(hbond)    S(metal)    S(lipo)     H(rot)  DE(clash)    DE(int)     intcor
     13.01     -15.20       1.82        0.00      72.21       1.88       0.10       2.09       ----

> <Gold.Chemscore.Fitness>
13.0096

> <Gold.Chemscore.DG>
-15.2036

> <Gold.Chemscore.ZeroCoef>
-5.4800

> <Gold.Chemscore.Hbond>
1.8244

> <Gold.Chemscore.Metal>
0.0000

> <Gold.Chemscore.Lipo>
72.2076

> <Gold.Chemscore.Internal_Hbond>
0.0000

> <Gold.Chemscore.DEClash>
0.1023

> <Gold.Chemscore.DEInternal>
2.0916

> <Gold.Chemscore.Rot>
1.8821

> <Gold.Chemscore.Internal.Correction>
   9.000000E+99

> <Gold.Chemscore.Hbonds>
donor molecule, donor type, donor heavy atom, donor atom, acceptor molecule, acceptor atom, score
      L1  H    17    33       P1  8028  0.93
      P1  H  7989  7998       L1    11  0.69

> <Gold.Chemscore.Hbond.Weighted>
-6.0933

> <Gold.Chemscore.Metal.Weighted>
-0.0000

> <Gold.Chemscore.Lipo.Weighted>
-8.4483

> <Gold.Chemscore.Internal_Hbond.Weighted>
0.0000

> <Gold.Chemscore.DEClash.Weighted>
0.1023

> <Gold.Chemscore.DEInternal.Weighted>
2.0916

> <Gold.Chemscore.Rot.Weighted>
4.8181

> <Gold.Chemscore.Internal.Correction.Weighted>
   9.000000E+99

> <Gold.Protein.RotatedTorsions>
[ 6907 6896 6895 6894 ] final    5.30 input  -60.11 | X-H torsion
[ 7974 7965 7964 7962 ] final  143.85 input  175.53 | X-H torsion
[ 8008 7997 7996 7995 ] final  136.05 input   59.86 | X-H torsion
[ 10167 10162 10161 10158 ] final  132.88 input  -65.29 | X-H torsion
[ 10718 10713 10712 10709 ] final  116.88 input   66.30 | X-H torsion
[ 10763 10752 10751 10750 ] final   54.02 input  -60.55 | X-H torsion
[ 11005 11000 10999 10996 ] final   15.69 input  -57.11 | X-H torsion

> <Gold.Protein.ActiveResidues>
 VAL166  LYS551  ARG553  GLY616  TRP617  ASP618  TYR619  PRO620  LYS621  CYS622 
 ASP623  PHE694  ASN695  SER759  ASP760  ASP761  ALA762  ILE779  LEU786  VAL792 
 PHE793  MET794  SER795  GLU796  ALA797  LYS798  CYS799  TRP800  GLU811  SER814 

> <Gold.Protein.RotatedAtoms>
  151.6553  135.0996  160.0168 H   0  0  0  0  0  0  0  0  0  0  0  0  # atno 6907 bound_to 6896
  152.3978  133.6768  159.6299 H   0  0  0  0  0  0  0  0  0  0  0  0  # atno 6908 bound_to 6896
  150.7882  133.8761  159.3313 H   0  0  0  0  0  0  0  0  0  0  0  0  # atno 6909 bound_to 6896
  144.8885  139.5593  143.5809 H   0  0  0  0  0  0  0  0  0  0  0  0  # atno 7974 bound_to 7965
  156.3004  140.2455  156.3681 H   0  0  0  0  0  0  0  0  0  0  0  0  # atno 8008 bound_to 7997
  154.8814  140.0412  157.1804 H   0  0  0  0  0  0  0  0  0  0  0  0  # atno 8009 bound_to 7997
  154.8692  140.2932  155.5495 H   0  0  0  0  0  0  0  0  0  0  0  0  # atno 8010 bound_to 7997
  139.5320  144.6641  151.4916 H   0  0  0  0  0  0  0  0  0  0  0  0  # atno 10167 bound_to 10162
  157.6132  131.1030  150.7536 H   0  0  0  0  0  0  0  0  0  0  0  0  # atno 10718 bound_to 10713
  152.9800  135.5759  154.4837 H   0  0  0  0  0  0  0  0  0  0  0  0  # atno 10763 bound_to 10752
  154.4381  135.2775  155.1868 H   0  0  0  0  0  0  0  0  0  0  0  0  # atno 10764 bound_to 10752
  154.3548  135.6201  153.5714 H   0  0  0  0  0  0  0  0  0  0  0  0  # atno 10765 bound_to 10752
  140.4555  134.1181  155.7708 H   0  0  0  0  0  0  0  0  0  0  0  0  # atno 11005 bound_to 11000
  146.3039  139.7517  142.9070 LP  0  0  0  0  0  0  0  0  0  0  0  0  # atno 17320 bound_to 7965
  145.3825  141.0360  143.3169 LP  0  0  0  0  0  0  0  0  0  0  0  0  # atno 17321 bound_to 7965
  140.6505  143.8707  150.6780 LP  0  0  0  0  0  0  0  0  0  0  0  0  # atno 17342 bound_to 10162
  140.2070  143.3913  152.1747 LP  0  0  0  0  0  0  0  0  0  0  0  0  # atno 17343 bound_to 10162
  156.7909  130.4889  149.5385 LP  0  0  0  0  0  0  0  0  0  0  0  0  # atno 17370 bound_to 10713
  156.1243  130.6133  151.0240 LP  0  0  0  0  0  0  0  0  0  0  0  0  # atno 17371 bound_to 10713
  141.1645  133.8730  157.1754 LP  0  0  0  0  0  0  0  0  0  0  0  0  # atno 17394 bound_to 11000
  139.9979  135.0039  157.0124 LP  0  0  0  0  0  0  0  0  0  0  0  0  # atno 17395 bound_to 11000

$$$$
