#       Name:                AV-unprocessed.smi:278
#       Creating user name   scv26
#       Creation time:       Thu Mar 26 21:36:45 2020


#       File generated by GOLD software.
#

@<TRIPOS>MOLECULE
AV-unprocessed.smi:278
    58    62     1
SMALL
NO_CHARGES


@<TRIPOS>ATOM
      1 ****        -0.7448   3.2082  -3.4065 O.2            1 S1                 0.0000
      2 ****        -1.2811   4.5264  -3.0332 S.o2           1 S1                 0.0000
      3 ****        -0.5611   5.7629  -3.3727 O.2            1 S1                 0.0000
      4 ****        -3.0131   4.6438  -3.5932 C.3            1 S1                 0.0000
      5 ****        -3.8026   3.8149  -2.5728 C.3            1 S1                 0.0000
      6 ****        -3.1644   3.9731  -1.1687 C.3            1 S1                 0.0000
      7 ****        -3.0068   2.6594  -0.3942 C.3            1 S1                 0.0000
      8 ****        -1.8051   2.8272   0.4076 N.3            1 S1                 0.0000
      9 ****        -1.3080   1.6901   0.9394 C.ar           1 S1                 0.0000
     10 ****        -1.2902   1.6045   2.2919 N.ar           1 S1                 0.0000
     11 ****        -0.8141   0.5057   2.8859 C.ar           1 S1                 0.0000
     12 ****        -0.3191  -0.6000   2.3250 N.ar           1 S1                 0.0000
     13 ****        -0.3357  -0.5150   0.9637 C.ar           1 S1                 0.0000
     14 ****        -0.8091   0.5839   0.1932 C.ar           1 S1                 0.0000
     15 ****        -0.6682   0.3068  -1.1619 N.2            1 S1                 0.0000
     16 ****        -0.1395  -0.8863  -1.1903 C.2            1 S1                 0.0000
     17 ****         0.0940  -1.4527   0.0424 N.pl3          1 S1                 0.0000
     18 ****         0.6668  -2.7604   0.3088 C.3            1 S1                 0.0000
     19 ****         2.1303  -2.6769   0.7854 C.3            1 S1                 0.0000
     20 ****         2.9100  -2.0503  -0.2157 O.3            1 S1                 0.0000
     21 ****         2.7260  -4.0648   1.0858 C.3            1 S1                 0.0000
     22 ****         4.1476  -4.0371   1.6440 C.3            1 S1                 0.0000
     23 ****         4.2608  -5.3991   2.2974 C.3            1 S1                 0.0000
     24 ****         2.8241  -5.7051   2.7282 C.3            1 S1                 0.0000
     25 ****         2.0062  -4.7022   2.1321 O.3            1 S1                 0.0000
     26 ****        -0.8660   3.6055  -0.3871 C.3            1 S1                 0.0000
     27 ****        -1.7322   4.5260  -1.2565 C.3            1 S1                 0.0000
     28 ****        -3.7565   4.6696  -0.5735 H              1 S1                 0.0000
     29 ****        -1.7061   5.5548  -0.8960 H              1 S1                 0.0000
     30 ****        -3.3115   5.6918  -3.5571 H              1 S1                 0.0000
     31 ****        -3.1088   4.2803  -4.6163 H              1 S1                 0.0000
     32 ****        -4.8578   4.0888  -2.5666 H              1 S1                 0.0000
     33 ****        -3.7574   2.7707  -2.8841 H              1 S1                 0.0000
     34 ****        -3.8742   2.4620   0.2364 H              1 S1                 0.0000
     35 ****        -2.8908   1.8162  -1.0753 H              1 S1                 0.0000
     36 ****        -0.8326   0.5135   3.9658 H              1 S1                 0.0000
     37 ****         0.0981  -1.3874  -2.1174 H              1 S1                 0.0000
     38 ****         0.0499  -3.2492   1.0638 H              1 S1                 0.0000
     39 ****         0.5919  -3.3670  -0.5948 H              1 S1                 0.0000
     40 ****         2.1820  -2.0622   1.6851 H              1 S1                 0.0000
     41 ****         2.8875  -2.5872  -0.9930 H              1 S1                 0.0000
     42 ****         2.6881  -4.7007   0.1992 H              1 S1                 0.0000
     43 ****         4.9049  -3.8705   0.8773 H              1 S1                 0.0000
     44 ****         4.2458  -3.2539   2.3971 H              1 S1                 0.0000
     45 ****         4.5949  -6.1370   1.5670 H              1 S1                 0.0000
     46 ****         4.9633  -5.4072   3.1311 H              1 S1                 0.0000
     47 ****         2.5155  -6.6946   2.3896 H              1 S1                 0.0000
     48 ****         2.7110  -5.6672   3.8118 H              1 S1                 0.0000
     49 ****        -0.2139   4.1871   0.2649 H              1 S1                 0.0000
     50 ****        -0.2294   2.9607  -0.9917 H              1 S1                 0.0000
     51 ****        -2.0272   3.3297   1.2431 LP             1 S1                 0.0000
     52 ****        -1.6332   2.3634   2.8454 LP             1 S1                 0.0000
     53 ****         0.0203  -1.3891   2.8370 LP             1 S1                 0.0000
     54 ****        -0.9152   0.8882  -1.9371 LP             1 S1                 0.0000
     55 ****         3.8536  -1.9555   0.1016 LP             1 S1                 0.0000
     56 ****         2.5344  -1.1462  -0.4193 LP             1 S1                 0.0000
     57 ****         1.1798  -5.1241   1.7593 LP             1 S1                 0.0000
     58 ****         1.7523  -4.0251   2.8227 LP             1 S1                 0.0000
@<TRIPOS>BOND
    1    1    2 2     
    2    2   27 1     
    3    2    3 2     
    4    2    4 1     
    5    4    5 1     
    6    4   30 1     
    7    4   31 1     
    8    5    6 1     
    9    5   32 1     
   10    5   33 1     
   11    6   28 1     
   12    6   27 1     
   13    6    7 1     
   14    7    8 1     
   15    7   34 1     
   16    7   35 1     
   17    8    9 1     
   18    8   26 1     
   19    9   14 ar    
   20    9   10 ar    
   21   10   11 ar    
   22   11   12 ar    
   23   11   36 1     
   24   12   13 ar    
   25   13   17 1     
   26   13   14 ar    
   27   14   15 1     
   28   15   16 2     
   29   16   17 1     
   30   16   37 1     
   31   17   18 1     
   32   18   19 1     
   33   18   38 1     
   34   18   39 1     
   35   19   20 1     
   36   19   21 1     
   37   19   40 1     
   38   20   41 1     
   39   21   25 1     
   40   21   22 1     
   41   21   42 1     
   42   22   23 1     
   43   22   43 1     
   44   22   44 1     
   45   23   24 1     
   46   23   45 1     
   47   23   46 1     
   48   24   25 1     
   49   24   47 1     
   50   24   48 1     
   51   26   27 1     
   52   26   49 1     
   53   26   50 1     
   54   27   29 1     
   55    8   51 1     
   56   10   52 1     
   57   12   53 1     
   58   15   54 1     
   59   20   55 1     
   60   20   56 1     
   61   25   57 1     
   62   25   58 1     
@<TRIPOS>SUBSTRUCTURE
      1 S1             1
@<TRIPOS>SET
LONE_PAIRS      STATIC     ATOMS    <user>   **** ""
10 1 3 51 52 53 54 55 56 57 58
DONOR_HYDROGENS      STATIC     ATOMS    <user>   **** ""
1 41
ATOM$BLUE        STATIC     ATOMS    COLORGROUP SYSTEM
10 1 3 51 52 53 54 55 56 57 58
ATOM$RED        STATIC     ATOMS    COLORGROUP SYSTEM
1 41
