AV-unprocessed.smi:1817|AV-procd|sdf|7376|dock1
  -GOLD-   22720 9 43D 1   1.00000     0.00000
 Structure written by MMmdl.
 42 43  0  0  0  0  0  0  0  0  3 V2000
  150.8241  141.3768  156.1599 C   0  0  0  0  0  0  0  0  0  0  0  0
  151.4754  140.0498  155.7450 C   0  0  0  0  0  0  0  0  0  0  0  0
  151.0080  139.5994  154.4320 N   0  0  0  0  0  0  0  0  0  0  0  0
  151.6207  138.3365  154.0216 C   0  0  0  0  0  0  0  0  0  0  0  0
  151.1119  137.1414  154.8546 C   0  0  0  0  0  0  0  0  0  0  0  0
  149.6321  137.0070  154.7610 N   0  3  0  0  0  0  0  0  0  0  0  0
  149.0723  135.8323  155.5065 C   0  0  2  0  0  0  0  0  0  0  0  0
  149.3369  134.4925  154.7846 C   0  0  0  0  0  0  0  0  0  0  0  0
  147.5526  135.9662  155.7689 C   0  0  0  0  0  0  0  0  0  0  0  0
  147.2839  136.5854  157.0647 N   0  0  0  0  0  0  0  0  0  0  0  0
  147.9219  136.3315  158.2138 C   0  0  0  0  0  0  0  0  0  0  0  0
  148.8410  135.5106  158.2446 O   0  0  0  0  0  0  0  0  0  0  0  0
  147.4485  137.0489  159.2570 N   0  5  0  0  0  0  0  0  0  0  0  0
  147.3923  136.4973  160.4806 C   0  0  0  0  0  0  0  0  0  0  0  0
  147.3164  137.2367  161.5987 N   0  0  0  0  0  0  0  0  0  0  0  0
  147.2652  136.4718  162.7563 N   0  0  0  0  0  0  0  0  0  0  0  0
  147.2935  135.1683  162.4793 C   0  0  0  0  0  0  0  0  0  0  0  0
  147.3832  134.7569  160.7795 S   0  0  0  0  0  0  0  0  0  0  0  0
  148.9935  138.2990  155.1360 C   0  0  0  0  0  0  0  0  0  0  0  0
  149.5551  139.4676  154.2999 C   0  0  0  0  0  0  0  0  0  0  0  0
  151.2751  141.7508  157.0791 H   0  0  0  0  0  0  0  0  0  0  0  0
  149.7563  141.2684  156.3476 H   0  0  0  0  0  0  0  0  0  0  0  0
  150.9587  142.1404  155.3931 H   0  0  0  0  0  0  0  0  0  0  0  0
  152.5532  140.2081  155.6904 H   0  0  0  0  0  0  0  0  0  0  0  0
  151.3142  139.2946  156.5132 H   0  0  0  0  0  0  0  0  0  0  0  0
  151.3986  138.1670  152.9670 H   0  0  0  0  0  0  0  0  0  0  0  0
  152.7060  138.4147  154.0952 H   0  0  0  0  0  0  0  0  0  0  0  0
  151.6007  136.2528  154.4585 H   0  0  0  0  0  0  0  0  0  0  0  0
  151.4153  137.2295  155.8987 H   0  0  0  0  0  0  0  0  0  0  0  0
  149.5727  135.7821  156.4749 H   0  0  0  0  0  0  0  0  0  0  0  0
  148.8230  133.6706  155.2838 H   0  0  0  0  0  0  0  0  0  0  0  0
  150.3938  134.2275  154.7802 H   0  0  0  0  0  0  0  0  0  0  0  0
  148.9855  134.5177  153.7524 H   0  0  0  0  0  0  0  0  0  0  0  0
  147.0908  136.5323  154.9581 H   0  0  0  0  0  0  0  0  0  0  0  0
  147.0665  134.9910  155.7464 H   0  0  0  0  0  0  0  0  0  0  0  0
  146.5471  137.2737  157.0993 H   0  0  0  0  0  0  0  0  0  0  0  0
  147.2577  134.4447  163.2799 H   0  0  0  0  0  0  0  0  0  0  0  0
  147.9213  138.2601  154.9516 H   0  0  0  0  0  0  0  0  0  0  0  0
  149.1162  138.4824  156.2039 H   0  0  0  0  0  0  0  0  0  0  0  0
  149.0612  140.3995  154.5726 H   0  0  0  0  0  0  0  0  0  0  0  0
  149.3184  139.3039  153.2475 H   0  0  0  0  0  0  0  0  0  0  0  0
  149.4215  136.8531  153.7851 H   0  0  0  0  0  0  0  0  0  0  0  0
  1  2  1  0  0  0  0
  1 21  1  0  0  0  0
  1 22  1  0  0  0  0
  1 23  1  0  0  0  0
  2  3  1  0  0  0  0
  2 24  1  0  0  0  0
  2 25  1  0  0  0  0
  3 20  1  0  0  0  0
  3  4  1  0  0  0  0
  4  5  1  0  0  0  0
  4 26  1  0  0  0  0
  4 27  1  0  0  0  0
  5  6  1  0  0  0  0
  5 28  1  0  0  0  0
  5 29  1  0  0  0  0
  6  7  1  0  0  0  0
  6 19  1  0  0  0  0
  6 42  1  0  0  0  0
  7  8  1  0  0  0  0
  7  9  1  0  0  0  0
  7 30  1  0  0  0  0
  8 31  1  0  0  0  0
  8 32  1  0  0  0  0
  8 33  1  0  0  0  0
  9 10  1  0  0  0  0
  9 34  1  0  0  0  0
  9 35  1  0  0  0  0
 10 11  1  0  0  0  0
 10 36  1  0  0  0  0
 11 12  2  0  0  0  0
 11 13  1  0  0  0  0
 13 14  1  0  0  0  0
 14 18  1  0  0  0  0
 14 15  2  0  0  0  0
 15 16  1  0  0  0  0
 16 17  2  0  0  0  0
 17 18  1  0  0  0  0
 17 37  1  0  0  0  0
 19 20  1  0  0  0  0
 19 38  1  0  0  0  0
 19 39  1  0  0  0  0
 20 40  1  0  0  0  0
 20 41  1  0  0  0  0
M  CHG  1   6   1
M  CHG  1  13  -1
M  END
> <s_m_source_file>
AV-unprocessed.smi

> <i_m_source_file_index>
1817

> <i_lp_mmshare_version>
43012

> <i_f3d_flags>
0

> <s_epik_input>
W0NIM11bQ0gyXU4xW0NIMl1bQ0gyXU4oW0NIMl1bQ0gyXTEpW0NASF0oW0NIM10pW0NIMl1bTkhdQyg9TylbTkhdYzJubltjSF1zMg==

> <s_epik_cmdline>
J2VwaWtfcHl0aG9uJywgJy1waCcsICc3LjAnLCAnLXRuJywgJzgnLCAnLW1hJywgJzIwMCcsICctbWV0YWxfYmluZGluZycsICctaW1hZScsICc8aW5maWxlLm1hZT4nLCAnLW9tYWUnLCAnPG91dGZpbGUubWFlPic=

> <r_epik_Ionization_Penalty>
3.16835

> <r_epik_Ionization_Penalty_Charging>
3.13468

> <r_epik_Ionization_Penalty_Neutral>
0.0336711

> <r_epik_State_Penalty>
3.95884

> <r_epik_Charging_Adjusted_Penalty>
7.09351

> <i_epik_Tot_Q>
0

> <i_epik_Tot_abs_Q>
2

> <r_epik_Metal_State_Penalty>
1.39003

> <b_epik_Metal_Only>
1

> <s_lp_Force_Field>
OPLS_2005

> <r_lp_Energy>
20.7646

> <b_lp_Chiralities_Consistent>
1

> <s_lp_Variant>
AV-unprocessed.smi:1817-9

> <Gold.Version>
5.8.1

> <Gold.Id.Protein>
6NUR|6NUR_protein|mol2

> <Gold.PLP.Fitness>
42.5758

> <Gold.PLP.PLP>
-30.7418

> <Gold.PLP.part.hbond>
-4.0000

> <Gold.PLP.part.metal>
0.0000

> <Gold.PLP.part.buried>
-4.6340

> <Gold.PLP.part.nonpolar>
-21.3820

> <Gold.PLP.part.repulsive>
0.1397

> <Gold.PLP.ligand.clash>
0.0000

> <Gold.PLP.ligand.torsion>
1.3220

> <Gold.PLP.Chemscore.Hbond>
4.7920

> <Gold.PLP.Chemscore.CHOScore>
0.0000

> <Gold.PLP.Chemscore.Metal>
0.0000

> <Gold.Chemscore.Hbonds>
donor molecule, donor type, donor heavy atom, donor atom, acceptor molecule, acceptor atom, score
      L1  H     6    42       P1  7948  1.92
      P1  H  6931  6943       L1    15  0.86
      P1  H  6934  6947       L1    15  0.88
      P1  H  7989  7998       L1     3  0.95

> <Gold.PLP.Chemscore.Internal.Correction>
0.1020

> <Gold.Rescore>
     Score         DG    S(hbond)    S(metal)    S(lipo)     H(rot)  DE(clash)    DE(int)     intcor
     10.69     -13.99       1.85        0.00      61.19       1.88       0.15       3.15       ----

> <Gold.Chemscore.Fitness>
10.6902

> <Gold.Chemscore.DG>
-13.9886

> <Gold.Chemscore.ZeroCoef>
-5.4800

> <Gold.Chemscore.Hbond>
1.8469

> <Gold.Chemscore.Metal>
0.0000

> <Gold.Chemscore.Lipo>
61.1895

> <Gold.Chemscore.Internal_Hbond>
0.0000

> <Gold.Chemscore.DEClash>
0.1461

> <Gold.Chemscore.DEInternal>
3.1522

> <Gold.Chemscore.Rot>
1.8825

> <Gold.Chemscore.Internal.Correction>
   9.000000E+99

> <Gold.Chemscore.Hbonds>
donor molecule, donor type, donor heavy atom, donor atom, acceptor molecule, acceptor atom, score
      L1  H     6    42       P1  7948  0.83
      P1  H  6931  6943       L1    15  0.16
      P1  H  6934  6947       L1    15  0.39
      P1  H  7989  7998       L1     3  0.13

> <Gold.Chemscore.Hbond.Weighted>
-6.1686

> <Gold.Chemscore.Metal.Weighted>
-0.0000

> <Gold.Chemscore.Lipo.Weighted>
-7.1592

> <Gold.Chemscore.Internal_Hbond.Weighted>
0.0000

> <Gold.Chemscore.DEClash.Weighted>
0.1461

> <Gold.Chemscore.DEInternal.Weighted>
3.1522

> <Gold.Chemscore.Rot.Weighted>
4.8191

> <Gold.Chemscore.Internal.Correction.Weighted>
   9.000000E+99

> <Gold.Protein.RotatedTorsions>
[ 6907 6896 6895 6894 ] final   84.91 input  -60.11 | X-H torsion
[ 7974 7965 7964 7962 ] final   -9.75 input  175.53 | X-H torsion
[ 8008 7997 7996 7995 ] final   15.88 input   59.86 | X-H torsion
[ 10167 10162 10161 10158 ] final -142.25 input  -65.29 | X-H torsion
[ 10718 10713 10712 10709 ] final   74.26 input   66.30 | X-H torsion
[ 10763 10752 10751 10750 ] final  -22.88 input  -60.55 | X-H torsion
[ 11005 11000 10999 10996 ] final -166.01 input  -57.11 | X-H torsion

> <Gold.Protein.ActiveResidues>
 VAL166  LYS551  ARG553  GLY616  TRP617  ASP618  TYR619  PRO620  LYS621  CYS622 
 ASP623  PHE694  ASN695  SER759  ASP760  ASP761  ALA762  ILE779  LEU786  VAL792 
 PHE793  MET794  SER795  GLU796  ALA797  LYS798  CYS799  TRP800  GLU811  SER814 

> <Gold.Protein.RotatedAtoms>
  152.5363  134.2667  159.8955 H   0  0  0  0  0  0  0  0  0  0  0  0  # atno 6907 bound_to 6896
  151.2625  133.4288  159.2624 H   0  0  0  0  0  0  0  0  0  0  0  0  # atno 6908 bound_to 6896
  151.0440  134.9641  159.8233 H   0  0  0  0  0  0  0  0  0  0  0  0  # atno 6909 bound_to 6896
  146.2242  140.2663  142.8354 H   0  0  0  0  0  0  0  0  0  0  0  0  # atno 7974 bound_to 7965
  154.8690  140.2956  155.5493 H   0  0  0  0  0  0  0  0  0  0  0  0  # atno 8008 bound_to 7997
  156.3021  140.2464  156.3609 H   0  0  0  0  0  0  0  0  0  0  0  0  # atno 8009 bound_to 7997
  154.8837  140.0397  157.1787 H   0  0  0  0  0  0  0  0  0  0  0  0  # atno 8010 bound_to 7997
  139.8107  143.7707  152.2663 H   0  0  0  0  0  0  0  0  0  0  0  0  # atno 10167 bound_to 10162
  157.6584  130.9669  150.1186 H   0  0  0  0  0  0  0  0  0  0  0  0  # atno 10718 bound_to 10713
  153.6590  135.6977  153.5183 H   0  0  0  0  0  0  0  0  0  0  0  0  # atno 10763 bound_to 10752
  153.2646  135.4234  155.0927 H   0  0  0  0  0  0  0  0  0  0  0  0  # atno 10764 bound_to 10752
  154.8457  135.3563  154.6135 H   0  0  0  0  0  0  0  0  0  0  0  0  # atno 10765 bound_to 10752
  140.5693  134.5254  157.5158 H   0  0  0  0  0  0  0  0  0  0  0  0  # atno 11005 bound_to 11000
  144.9302  140.7966  143.5694 LP  0  0  0  0  0  0  0  0  0  0  0  0  # atno 17320 bound_to 7965
  145.2606  139.1994  143.4894 LP  0  0  0  0  0  0  0  0  0  0  0  0  # atno 17321 bound_to 7965
  139.7855  144.7429  151.0028 LP  0  0  0  0  0  0  0  0  0  0  0  0  # atno 17342 bound_to 10162
  140.7818  143.4497  151.0431 LP  0  0  0  0  0  0  0  0  0  0  0  0  # atno 17343 bound_to 10162
  156.2063  130.3663  149.8725 LP  0  0  0  0  0  0  0  0  0  0  0  0  # atno 17370 bound_to 10713
  156.6615  130.8784  151.3548 LP  0  0  0  0  0  0  0  0  0  0  0  0  # atno 17371 bound_to 10713
  139.9370  134.7857  156.0778 LP  0  0  0  0  0  0  0  0  0  0  0  0  # atno 17394 bound_to 11000
  141.1066  133.6658  156.2879 LP  0  0  0  0  0  0  0  0  0  0  0  0  # atno 17395 bound_to 11000

$$$$
