AV-unprocessed.smi:614|AV-procd|sdf|3068|dock1
  -GOLD-   2262023593D 1   1.00000     0.00000
 Structure written by MMmdl.
 44 45  0  0  0  0  0  0  0  0  1 V2000
  152.5519  143.0374  162.0621 C   0  0  0  0  0  0  0  0  0  0  0  0
  151.9521  143.6340  160.8880 N   0  0  0  0  0  0  0  0  0  0  0  0
  151.9224  144.9633  160.5172 C   0  0  0  0  0  0  0  0  0  0  0  0
  151.2491  145.0423  159.3309 C   0  0  0  0  0  0  0  0  0  0  0  0
  150.9055  143.6891  159.0588 C   0  0  0  0  0  0  0  0  0  0  0  0
  150.1886  143.3466  157.8837 N   0  0  0  0  0  0  0  0  0  0  0  0
  149.7799  142.1253  157.4989 C   0  0  0  0  0  0  0  0  0  0  0  0
  149.9363  141.0922  158.1498 O   0  0  0  0  0  0  0  0  0  0  0  0
  149.1718  142.1785  156.3018 N   0  0  0  0  0  0  0  0  0  0  0  0
  148.5911  141.0831  155.5094 C   0  0  1  0  0  0  0  0  0  0  0  0
  147.2376  140.6470  156.1270 C   0  0  0  0  0  0  0  0  0  0  0  0
  148.3342  141.5814  154.0568 C   0  0  0  0  0  0  0  0  0  0  0  0
  147.8537  142.9105  154.0224 O   0  0  0  0  0  0  0  0  0  0  0  0
  149.6117  139.8902  155.5423 C   0  0  0  0  0  0  0  0  0  0  0  0
  151.0960  140.3419  155.4639 C   0  0  0  0  0  0  0  0  0  0  0  0
  152.0714  139.1578  155.5566 C   0  0  0  0  0  0  0  0  0  0  0  0
  151.7884  138.1164  154.4673 C   0  0  0  0  0  0  0  0  0  0  0  0
  150.3321  137.6411  154.5388 C   0  0  0  0  0  0  0  0  0  0  0  0
  149.3525  138.8220  154.4456 C   0  0  0  0  0  0  0  0  0  0  0  0
  151.3258  142.8444  159.9906 N   0  0  0  0  0  0  0  0  0  0  0  0
  152.8660  143.8153  162.7586 H   0  0  0  0  0  0  0  0  0  0  0  0
  153.4218  142.4484  161.7705 H   0  0  0  0  0  0  0  0  0  0  0  0
  151.8299  142.3884  162.5591 H   0  0  0  0  0  0  0  0  0  0  0  0
  152.3787  145.7340  161.1209 H   0  0  0  0  0  0  0  0  0  0  0  0
  151.0389  145.9288  158.7509 H   0  0  0  0  0  0  0  0  0  0  0  0
  149.9803  144.1118  157.2596 H   0  0  0  0  0  0  0  0  0  0  0  0
  149.1062  143.0904  155.8746 H   0  0  0  0  0  0  0  0  0  0  0  0
  146.8899  139.7087  155.6939 H   0  0  0  0  0  0  0  0  0  0  0  0
  146.4536  141.3842  155.9531 H   0  0  0  0  0  0  0  0  0  0  0  0
  147.3024  140.5095  157.2060 H   0  0  0  0  0  0  0  0  0  0  0  0
  149.2475  141.5501  153.4628 H   0  0  0  0  0  0  0  0  0  0  0  0
  147.6207  140.9414  153.5377 H   0  0  0  0  0  0  0  0  0  0  0  0
  148.2005  143.3736  154.7695 H   0  0  0  0  0  0  0  0  0  0  0  0
  149.4962  139.3885  156.5043 H   0  0  0  0  0  0  0  0  0  0  0  0
  151.2799  140.8805  154.5336 H   0  0  0  0  0  0  0  0  0  0  0  0
  151.3340  141.0331  156.2710 H   0  0  0  0  0  0  0  0  0  0  0  0
  153.0979  139.5149  155.4692 H   0  0  0  0  0  0  0  0  0  0  0  0
  151.9890  138.6924  156.5397 H   0  0  0  0  0  0  0  0  0  0  0  0
  151.9867  138.5477  153.4853 H   0  0  0  0  0  0  0  0  0  0  0  0
  152.4644  137.2680  154.5766 H   0  0  0  0  0  0  0  0  0  0  0  0
  150.1348  136.9308  153.7353 H   0  0  0  0  0  0  0  0  0  0  0  0
  150.1679  137.1033  155.4735 H   0  0  0  0  0  0  0  0  0  0  0  0
  148.3423  138.4228  154.5253 H   0  0  0  0  0  0  0  0  0  0  0  0
  149.4289  139.2715  153.4551 H   0  0  0  0  0  0  0  0  0  0  0  0
  1  2  1  0  0  0  0
  1 21  1  0  0  0  0
  1 22  1  0  0  0  0
  1 23  1  0  0  0  0
  2 20  1  0  0  0  0
  2  3  1  0  0  0  0
  3  4  2  0  0  0  0
  3 24  1  0  0  0  0
  4  5  1  0  0  0  0
  4 25  1  0  0  0  0
  5  6  1  0  0  0  0
  5 20  2  0  0  0  0
  6  7  1  0  0  0  0
  6 26  1  0  0  0  0
  7  8  2  0  0  0  0
  7  9  1  0  0  0  0
  9 10  1  0  0  0  0
  9 27  1  0  0  0  0
 10 11  1  0  0  0  0
 10 12  1  0  0  0  0
 10 14  1  0  0  0  0
 11 28  1  0  0  0  0
 11 29  1  0  0  0  0
 11 30  1  0  0  0  0
 12 13  1  0  0  0  0
 12 31  1  0  0  0  0
 12 32  1  0  0  0  0
 13 33  1  0  0  0  0
 14 19  1  0  0  0  0
 14 15  1  0  0  0  0
 14 34  1  0  0  0  0
 15 16  1  0  0  0  0
 15 35  1  0  0  0  0
 15 36  1  0  0  0  0
 16 17  1  0  0  0  0
 16 37  1  0  0  0  0
 16 38  1  0  0  0  0
 17 18  1  0  0  0  0
 17 39  1  0  0  0  0
 17 40  1  0  0  0  0
 18 19  1  0  0  0  0
 18 41  1  0  0  0  0
 18 42  1  0  0  0  0
 19 43  1  0  0  0  0
 19 44  1  0  0  0  0
M  END
> <s_m_source_file>
AV-unprocessed.smi

> <i_m_source_file_index>
614

> <i_lp_mmshare_version>
43012

> <i_f3d_flags>
0

> <s_epik_input>
W0NIM11uMVtjSF1bY0hdYyhuMSlbTkhdQyg9TylbTkhdW0NAQF0oW0NIM10pKFtDSDJdW09IXSlbQ0hdMltDSDJdW0NIMl1bQ0gyXVtDSDJdW0NIMl0y

> <s_epik_cmdline>
J2VwaWtfcHl0aG9uJywgJy1waCcsICc3LjAnLCAnLXRuJywgJzgnLCAnLW1hJywgJzIwMCcsICctbWV0YWxfYmluZGluZycsICctaW1hZScsICc8aW5maWxlLm1hZT4nLCAnLW9tYWUnLCAnPG91dGZpbGUubWFlPic=

> <r_lp_tautomer_probability>
1

> <r_epik_Ionization_Penalty>
3.66621e-05

> <r_epik_Ionization_Penalty_Charging>
0

> <r_epik_Ionization_Penalty_Neutral>
3.66621e-05

> <r_epik_State_Penalty>
-0

> <r_epik_Charging_Adjusted_Penalty>
0

> <i_epik_Tot_Q>
0

> <i_epik_Tot_abs_Q>
0

> <r_epik_Metal_State_Penalty>
-0

> <b_epik_Metal_Only>
0

> <s_lp_Force_Field>
OPLS_2005

> <r_lp_Energy>
18.5246

> <b_lp_Chiralities_Consistent>
1

> <s_lp_Variant>
AV-unprocessed.smi:614-1

> <Gold.Version>
5.8.1

> <Gold.Id.Protein>
6NUR|6NUR_protein|mol2

> <Gold.PLP.Fitness>
51.8847

> <Gold.PLP.PLP>
-45.1939

> <Gold.PLP.part.hbond>
-5.5356

> <Gold.PLP.part.metal>
0.0000

> <Gold.PLP.part.buried>
-3.8946

> <Gold.PLP.part.nonpolar>
-36.3435

> <Gold.PLP.part.repulsive>
0.1278

> <Gold.PLP.ligand.clash>
0.0000

> <Gold.PLP.ligand.torsion>
1.1125

> <Gold.PLP.Chemscore.Hbond>
2.9516

> <Gold.PLP.Chemscore.CHOScore>
0.0000

> <Gold.PLP.Chemscore.Metal>
0.0000

> <Gold.Chemscore.Hbonds>
donor molecule, donor type, donor heavy atom, donor atom, acceptor molecule, acceptor atom, score
      L1  H     6    26       P1  8028  0.94
      L1  H     9    27       P1  8028  1.00
      L1  H    13    33       P1  8028  1.00

> <Gold.PLP.Chemscore.Internal.Correction>
0.0609

> <Gold.Rescore>
     Score         DG    S(hbond)    S(metal)    S(lipo)     H(rot)  DE(clash)    DE(int)     intcor
     15.45     -19.39       2.76        0.00      85.54       2.07       0.29       3.66       ----

> <Gold.Chemscore.Fitness>
15.4452

> <Gold.Chemscore.DG>
-19.3940

> <Gold.Chemscore.ZeroCoef>
-5.4800

> <Gold.Chemscore.Hbond>
2.7566

> <Gold.Chemscore.Metal>
0.0000

> <Gold.Chemscore.Lipo>
85.5433

> <Gold.Chemscore.Internal_Hbond>
0.0000

> <Gold.Chemscore.DEClash>
0.2902

> <Gold.Chemscore.DEInternal>
3.6586

> <Gold.Chemscore.Rot>
2.0710

> <Gold.Chemscore.Internal.Correction>
   9.000000E+99

> <Gold.Chemscore.Hbonds>
donor molecule, donor type, donor heavy atom, donor atom, acceptor molecule, acceptor atom, score
      L1  H     6    26       P1  8028  0.61
      L1  H     9    27       P1  8028  1.00
      L1  H    13    33       P1  8028  0.94

> <Gold.Chemscore.Hbond.Weighted>
-9.2071

> <Gold.Chemscore.Metal.Weighted>
-0.0000

> <Gold.Chemscore.Lipo.Weighted>
-10.0086

> <Gold.Chemscore.Internal_Hbond.Weighted>
0.0000

> <Gold.Chemscore.DEClash.Weighted>
0.2902

> <Gold.Chemscore.DEInternal.Weighted>
3.6586

> <Gold.Chemscore.Rot.Weighted>
5.3017

> <Gold.Chemscore.Internal.Correction.Weighted>
   9.000000E+99

> <Gold.Protein.RotatedTorsions>
[ 6907 6896 6895 6894 ] final    4.39 input  -60.11 | X-H torsion
[ 7974 7965 7964 7962 ] final  100.22 input  175.53 | X-H torsion
[ 8008 7997 7996 7995 ] final -155.03 input   59.86 | X-H torsion
[ 10167 10162 10161 10158 ] final  -79.42 input  -65.29 | X-H torsion
[ 10718 10713 10712 10709 ] final -109.34 input   66.30 | X-H torsion
[ 10763 10752 10751 10750 ] final  163.78 input  -60.55 | X-H torsion
[ 11005 11000 10999 10996 ] final  152.43 input  -57.11 | X-H torsion

> <Gold.Protein.ActiveResidues>
 VAL166  LYS551  ARG553  GLY616  TRP617  ASP618  TYR619  PRO620  LYS621  CYS622 
 ASP623  PHE694  ASN695  SER759  ASP760  ASP761  ALA762  ILE779  LEU786  VAL792 
 PHE793  MET794  SER795  GLU796  ALA797  LYS798  CYS799  TRP800  GLU811  SER814 

> <Gold.Protein.RotatedAtoms>
  151.6406  135.1013  160.0140 H   0  0  0  0  0  0  0  0  0  0  0  0  # atno 6907 bound_to 6896
  152.4056  133.6880  159.6362 H   0  0  0  0  0  0  0  0  0  0  0  0  # atno 6908 bound_to 6896
  150.7951  133.8631  159.3278 H   0  0  0  0  0  0  0  0  0  0  0  0  # atno 6909 bound_to 6896
  145.3885  139.2367  143.3365 H   0  0  0  0  0  0  0  0  0  0  0  0  # atno 7974 bound_to 7965
  155.6956  140.0760  157.2431 H   0  0  0  0  0  0  0  0  0  0  0  0  # atno 8008 bound_to 7997
  154.4081  140.1656  156.2187 H   0  0  0  0  0  0  0  0  0  0  0  0  # atno 8009 bound_to 7997
  155.9413  140.3384  155.6333 H   0  0  0  0  0  0  0  0  0  0  0  0  # atno 8010 bound_to 7997
  140.4595  143.2458  151.8370 H   0  0  0  0  0  0  0  0  0  0  0  0  # atno 10167 bound_to 10162
  156.0532  130.5759  150.8086 H   0  0  0  0  0  0  0  0  0  0  0  0  # atno 10718 bound_to 10713
  154.2989  135.2759  155.2620 H   0  0  0  0  0  0  0  0  0  0  0  0  # atno 10763 bound_to 10752
  154.5065  135.5794  153.6575 H   0  0  0  0  0  0  0  0  0  0  0  0  # atno 10764 bound_to 10752
  152.9903  135.6171  154.3159 H   0  0  0  0  0  0  0  0  0  0  0  0  # atno 10765 bound_to 10752
  140.1307  134.8803  157.2200 H   0  0  0  0  0  0  0  0  0  0  0  0  # atno 11005 bound_to 11000
  146.2809  140.4564  142.8777 LP  0  0  0  0  0  0  0  0  0  0  0  0  # atno 17320 bound_to 7965
  144.8457  140.6925  143.6200 LP  0  0  0  0  0  0  0  0  0  0  0  0  # atno 17321 bound_to 7965
  139.4804  144.5025  151.9042 LP  0  0  0  0  0  0  0  0  0  0  0  0  # atno 17342 bound_to 10162
  140.4111  144.2368  150.5889 LP  0  0  0  0  0  0  0  0  0  0  0  0  # atno 17343 bound_to 10162
  157.5478  131.0943  150.9738 LP  0  0  0  0  0  0  0  0  0  0  0  0  # atno 17370 bound_to 10713
  157.0005  130.5598  149.5311 LP  0  0  0  0  0  0  0  0  0  0  0  0  # atno 17371 bound_to 10713
  140.2846  134.3311  155.7333 LP  0  0  0  0  0  0  0  0  0  0  0  0  # atno 17394 bound_to 11000
  141.2169  133.7498  156.9413 LP  0  0  0  0  0  0  0  0  0  0  0  0  # atno 17395 bound_to 11000

$$$$
