#       Name:                AV-unprocessed.smi:249
#       Creating user name   scv26
#       Creation time:       Thu Mar 26 20:58:26 2020


#       File generated by GOLD software.
#

@<TRIPOS>MOLECULE
AV-unprocessed.smi:249
    72    75     1
SMALL
NO_CHARGES


@<TRIPOS>ATOM
      1 ****        -3.2345  -2.1512   5.0555 C.3            1 S1                 0.0000
      2 ****        -3.8283  -0.9045   4.3792 C.3            1 S1                 0.0000
      3 ****        -3.7114  -0.9183   2.8919 N.4            1 S1                 1.0000
      4 ****        -2.2873  -0.9220   2.4485 C.3            1 S1                 0.0000
      5 ****        -2.1529  -1.0152   0.9202 C.3            1 S1                 0.0000
      6 ****        -2.8878   0.1432   0.2155 C.3            1 S1                 0.0000
      7 ****        -2.2853   1.4638   0.4619 N.3            1 S1                 0.0000
      8 ****        -2.9525   2.6248  -0.1188 C.3            1 S1                 0.0000
      9 ****        -0.9503   1.5424   0.2644 C.ar           1 S1                 0.0000
     10 ****        -0.1879   1.9191   1.3202 N.ar           1 S1                 0.0000
     11 ****         1.1395   2.0041   1.1867 C.ar           1 S1                 0.0000
     12 ****         1.8878   1.7615   0.1079 N.ar           1 S1                 0.0000
     13 ****         1.1193   1.3905  -0.9562 C.ar           1 S1                 0.0000
     14 ****        -0.2970   1.2591  -0.9676 C.ar           1 S1                 0.0000
     15 ****        -0.7285   0.8666  -2.2288 N.2            1 S1                 0.0000
     16 ****         0.3721   0.7669  -2.9239 C.2            1 S1                 0.0000
     17 ****         1.5280   1.0563  -2.2344 N.pl3          1 S1                 0.0000
     18 ****         2.8838   1.0206  -2.7522 C.3            1 S1                 0.0000
     19 ****         3.7039  -0.1857  -2.2313 C.3            1 S1                 0.0000
     20 ****         2.9731  -1.5364  -2.4276 C.3            1 S1                 0.0000
     21 ****         2.7495  -1.8098  -3.7958 O.3            1 S1                 0.0000
     22 ****         5.1360  -0.1956  -2.8227 C.3            1 S1                 0.0000
     23 ****         6.0537  -1.2671  -2.2606 C.3            1 S1                 0.0000
     24 ****         7.4327  -0.7410  -2.6422 C.3            1 S1                 0.0000
     25 ****         7.3280   0.6769  -2.5918 O.3            1 S1                 0.0000
     26 ****         5.9587   1.0620  -2.5195 C.3            1 S1                 0.0000
     27 ****        -4.3546   0.0725   0.6782 C.3            1 S1                 0.0000
     28 ****        -4.5033   0.1610   2.2150 C.3            1 S1                 0.0000
     29 ****        -6.0054   0.1201   2.5656 C.3            1 S1                 0.0000
     30 ****        -3.4954  -2.1686   6.1140 H              1 S1                 0.0000
     31 ****        -2.1466  -2.1746   5.0008 H              1 S1                 0.0000
     32 ****        -3.6203  -3.0673   4.6074 H              1 S1                 0.0000
     33 ****        -4.8744  -0.8779   4.6749 H              1 S1                 0.0000
     34 ****        -3.3682  -0.0001   4.7798 H              1 S1                 0.0000
     35 ****        -1.7882  -0.0258   2.8198 H              1 S1                 0.0000
     36 ****        -1.7578  -1.7728   2.8736 H              1 S1                 0.0000
     37 ****        -1.1008  -1.0543   0.6377 H              1 S1                 0.0000
     38 ****        -2.5746  -1.9636   0.5845 H              1 S1                 0.0000
     39 ****        -2.8656  -0.0343  -0.8600 H              1 S1                 0.0000
     40 ****        -2.3087   3.5062  -0.1288 H              1 S1                 0.0000
     41 ****        -3.8389   2.8791   0.4623 H              1 S1                 0.0000
     42 ****        -3.2617   2.4198  -1.1445 H              1 S1                 0.0000
     43 ****         1.6801   2.3086   2.0708 H              1 S1                 0.0000
     44 ****         0.3723   0.4694  -3.9627 H              1 S1                 0.0000
     45 ****         2.8371   1.0033  -3.8418 H              1 S1                 0.0000
     46 ****         3.3649   1.9602  -2.4796 H              1 S1                 0.0000
     47 ****         3.8075  -0.0529  -1.1534 H              1 S1                 0.0000
     48 ****         3.5478  -2.3555  -1.9963 H              1 S1                 0.0000
     49 ****         2.0145  -1.5418  -1.9086 H              1 S1                 0.0000
     50 ****         2.3148  -2.6459  -3.8681 H              1 S1                 0.0000
     51 ****         5.0842  -0.3198  -3.9058 H              1 S1                 0.0000
     52 ****         5.9608  -1.3198  -1.1746 H              1 S1                 0.0000
     53 ****         5.8606  -2.2592  -2.6695 H              1 S1                 0.0000
     54 ****         8.2180  -1.1079  -1.9813 H              1 S1                 0.0000
     55 ****         7.6825  -1.0343  -3.6625 H              1 S1                 0.0000
     56 ****         5.7455   1.8757  -3.2131 H              1 S1                 0.0000
     57 ****         5.7599   1.4209  -1.5088 H              1 S1                 0.0000
     58 ****        -4.9440   0.8502   0.1925 H              1 S1                 0.0000
     59 ****        -4.7867  -0.8684   0.3336 H              1 S1                 0.0000
     60 ****        -4.1095   1.1238   2.5448 H              1 S1                 0.0000
     61 ****        -6.5702   0.8101   1.9378 H              1 S1                 0.0000
     62 ****        -6.2018   0.4231   3.5932 H              1 S1                 0.0000
     63 ****        -6.4234  -0.8758   2.4147 H              1 S1                 0.0000
     64 ****        -4.1107  -1.7929   2.5827 H              1 S1                 0.0000
     65 ****        -2.4530   1.5238   1.4459 LP             1 S1                 0.0000
     66 ****        -0.6178   2.1330   2.1973 LP             1 S1                 0.0000
     67 ****         2.8843   1.8415   0.0831 LP             1 S1                 0.0000
     68 ****        -1.6661   0.6991  -2.5338 LP             1 S1                 0.0000
     69 ****         3.6235  -1.8412  -4.2806 LP             1 S1                 0.0000
     70 ****         2.1737  -1.0950  -4.1928 LP             1 S1                 0.0000
     71 ****         7.7392   1.0688  -3.4148 LP             1 S1                 0.0000
     72 ****         7.8104   1.0161  -1.7843 LP             1 S1                 0.0000
@<TRIPOS>BOND
    1    1    2 1     
    2    1   30 1     
    3    1   31 1     
    4    1   32 1     
    5    2    3 1     
    6    2   33 1     
    7    2   34 1     
    8    3   28 1     
    9    3    4 1     
   10    3   64 1     
   11    4    5 1     
   12    4   35 1     
   13    4   36 1     
   14    5    6 1     
   15    5   37 1     
   16    5   38 1     
   17    6    7 1     
   18    6   27 1     
   19    6   39 1     
   20    7    8 1     
   21    7    9 1     
   22    8   40 1     
   23    8   41 1     
   24    8   42 1     
   25    9   14 ar    
   26    9   10 ar    
   27   10   11 ar    
   28   11   12 ar    
   29   11   43 1     
   30   12   13 ar    
   31   13   17 1     
   32   13   14 ar    
   33   14   15 1     
   34   15   16 2     
   35   16   17 1     
   36   16   44 1     
   37   17   18 1     
   38   18   19 1     
   39   18   45 1     
   40   18   46 1     
   41   19   20 1     
   42   19   22 1     
   43   19   47 1     
   44   20   21 1     
   45   20   48 1     
   46   20   49 1     
   47   21   50 1     
   48   22   26 1     
   49   22   23 1     
   50   22   51 1     
   51   23   24 1     
   52   23   52 1     
   53   23   53 1     
   54   24   25 1     
   55   24   54 1     
   56   24   55 1     
   57   25   26 1     
   58   26   56 1     
   59   26   57 1     
   60   27   28 1     
   61   27   58 1     
   62   27   59 1     
   63   28   29 1     
   64   28   60 1     
   65   29   61 1     
   66   29   62 1     
   67   29   63 1     
   68    7   65 1     
   69   10   66 1     
   70   12   67 1     
   71   15   68 1     
   72   21   69 1     
   73   21   70 1     
   74   25   71 1     
   75   25   72 1     
@<TRIPOS>SUBSTRUCTURE
      1 S1             1
@<TRIPOS>SET
LONE_PAIRS      STATIC     ATOMS    <user>   **** ""
8 65 66 67 68 69 70 71 72
DONOR_HYDROGENS      STATIC     ATOMS    <user>   **** ""
2 64 50
ATOM$BLUE        STATIC     ATOMS    COLORGROUP SYSTEM
8 65 66 67 68 69 70 71 72
ATOM$RED        STATIC     ATOMS    COLORGROUP SYSTEM
2 64 50
