AV-unprocessed.smi:16|AV-procd|sdf|95|dock2
  -GOLD-   2262015243D 1   1.00000     0.00000
 Structure written by MMmdl.
 59 63  0  0  0  0  0  0  0  0  1 V2000
  153.3241  138.4042  155.2199 C   0  0  0  0  0  0  0  0  0  0  0  0
  152.0263  138.3960  154.3968 C   0  0  0  0  0  0  0  0  0  0  0  0
  150.9237  139.0560  155.0950 N   0  0  0  0  0  0  0  0  0  0  0  0
  151.2502  140.4752  155.2538 C   0  0  0  0  0  0  0  0  0  0  0  0
  150.1649  141.1889  156.0774 C   0  0  0  0  0  0  0  0  0  0  0  0
  148.7827  141.0499  155.4275 C   0  0  1  0  0  0  0  0  0  0  0  0
  148.7392  141.8191  154.2276 O   0  0  0  0  0  0  0  0  0  0  0  0
  147.4560  141.7778  153.6132 C   0  0  0  0  0  0  0  0  0  0  0  0
  147.1115  140.3309  153.2264 C   0  0  0  0  0  0  0  0  0  0  0  0
  147.2281  139.4545  154.3918 N   0  0  0  0  0  0  0  0  0  0  0  0
  146.6894  138.2086  154.3103 C   0  0  0  0  0  0  0  0  0  0  0  0
  146.5973  137.4422  155.4307 N   0  0  0  0  0  0  0  0  0  0  0  0
  146.0660  136.2181  155.3737 C   0  0  0  0  0  0  0  0  0  0  0  0
  145.5731  135.5719  154.3164 N   0  0  0  0  0  0  0  0  0  0  0  0
  145.6636  136.3304  153.1868 C   0  0  0  0  0  0  0  0  0  0  0  0
  146.2071  137.6439  153.0939 C   0  0  0  0  0  0  0  0  0  0  0  0
  146.1584  138.0780  151.7739 N   0  0  0  0  0  0  0  0  0  0  0  0
  145.6127  137.0843  151.1278 C   0  0  0  0  0  0  0  0  0  0  0  0
  145.2613  136.0034  151.9034 N   0  0  0  0  0  0  0  0  0  0  0  0
  144.7005  134.7654  151.4468 C   0  0  0  0  0  0  0  0  0  0  0  0
  145.3634  133.4213  151.7675 C   0  0  0  0  0  0  0  0  0  0  0  0
  144.8529  132.8653  150.4175 C   0  0  0  0  0  0  0  0  0  0  0  0
  145.8095  131.9365  149.6445 C   0  0  0  0  0  0  0  0  0  0  0  0
  147.1589  132.3477  149.7333 O   0  0  0  0  0  0  0  0  0  0  0  0
  143.4944  132.1438  150.5068 C   0  0  0  0  0  0  0  0  0  0  0  0
  142.8399  132.1095  149.2546 O   0  0  0  0  0  0  0  0  0  0  0  0
  144.7907  134.3462  149.9764 C   0  0  0  0  0  0  0  0  0  0  0  0
  148.4982  139.5668  155.1135 C   0  0  1  0  0  0  0  0  0  0  0  0
  149.6749  138.9299  154.3369 C   0  0  0  0  0  0  0  0  0  0  0  0
  148.0307  141.4363  156.1179 H   0  0  0  0  0  0  0  0  0  0  0  0
  148.4172  139.0512  156.0689 H   0  0  0  0  0  0  0  0  0  0  0  0
  154.1540  138.0276  154.6221 H   0  0  0  0  0  0  0  0  0  0  0  0
  153.2577  137.7738  156.1059 H   0  0  0  0  0  0  0  0  0  0  0  0
  153.5825  139.4139  155.5403 H   0  0  0  0  0  0  0  0  0  0  0  0
  152.2239  138.9304  153.4664 H   0  0  0  0  0  0  0  0  0  0  0  0
  151.7496  137.3780  154.1188 H   0  0  0  0  0  0  0  0  0  0  0  0
  152.2065  140.5768  155.7684 H   0  0  0  0  0  0  0  0  0  0  0  0
  151.3615  140.9493  154.2772 H   0  0  0  0  0  0  0  0  0  0  0  0
  150.1374  140.7627  157.0812 H   0  0  0  0  0  0  0  0  0  0  0  0
  150.4169  142.2427  156.1982 H   0  0  0  0  0  0  0  0  0  0  0  0
  146.7038  142.1873  154.2894 H   0  0  0  0  0  0  0  0  0  0  0  0
  147.4649  142.4112  152.7262 H   0  0  0  0  0  0  0  0  0  0  0  0
  146.0958  140.2967  152.8300 H   0  0  0  0  0  0  0  0  0  0  0  0
  147.7775  139.9852  152.4349 H   0  0  0  0  0  0  0  0  0  0  0  0
  146.0304  135.6798  156.3091 H   0  0  0  0  0  0  0  0  0  0  0  0
  145.4520  137.1146  150.0599 H   0  0  0  0  0  0  0  0  0  0  0  0
  143.6614  134.7707  151.7801 H   0  0  0  0  0  0  0  0  0  0  0  0
  146.4500  133.5010  151.8290 H   0  0  0  0  0  0  0  0  0  0  0  0
  144.9622  132.9217  152.6497 H   0  0  0  0  0  0  0  0  0  0  0  0
  145.7462  130.9147  150.0203 H   0  0  0  0  0  0  0  0  0  0  0  0
  145.5495  131.8993  148.5863 H   0  0  0  0  0  0  0  0  0  0  0  0
  147.6588  131.6522  150.1325 H   0  0  0  0  0  0  0  0  0  0  0  0
  143.6164  131.1213  150.8658 H   0  0  0  0  0  0  0  0  0  0  0  0
  142.8284  132.6362  151.2154 H   0  0  0  0  0  0  0  0  0  0  0  0
  142.3130  132.8894  149.1695 H   0  0  0  0  0  0  0  0  0  0  0  0
  143.9181  134.6156  149.3804 H   0  0  0  0  0  0  0  0  0  0  0  0
  145.7072  134.7000  149.5014 H   0  0  0  0  0  0  0  0  0  0  0  0
  149.7911  139.3934  153.3563 H   0  0  0  0  0  0  0  0  0  0  0  0
  149.4496  137.8782  154.1654 H   0  0  0  0  0  0  0  0  0  0  0  0
  1  2  1  0  0  0  0
  1 32  1  0  0  0  0
  1 33  1  0  0  0  0
  1 34  1  0  0  0  0
  2  3  1  0  0  0  0
  2 35  1  0  0  0  0
  2 36  1  0  0  0  0
  3 29  1  0  0  0  0
  3  4  1  0  0  0  0
  4  5  1  0  0  0  0
  4 37  1  0  0  0  0
  4 38  1  0  0  0  0
  5  6  1  0  0  0  0
  5 39  1  0  0  0  0
  5 40  1  0  0  0  0
  6 30  1  0  0  0  0
  6 28  1  0  0  0  0
  6  7  1  0  0  0  0
  7  8  1  0  0  0  0
  8  9  1  0  0  0  0
  8 41  1  0  0  0  0
  8 42  1  0  0  0  0
  9 10  1  0  0  0  0
  9 43  1  0  0  0  0
  9 44  1  0  0  0  0
 10 11  1  0  0  0  0
 10 28  1  0  0  0  0
 11 16  1  0  0  0  0
 11 12  2  0  0  0  0
 12 13  1  0  0  0  0
 13 14  2  0  0  0  0
 13 45  1  0  0  0  0
 14 15  1  0  0  0  0
 15 19  1  0  0  0  0
 15 16  2  0  0  0  0
 16 17  1  0  0  0  0
 17 18  2  0  0  0  0
 18 19  1  0  0  0  0
 18 46  1  0  0  0  0
 19 20  1  0  0  0  0
 20 27  1  0  0  0  0
 20 21  1  0  0  0  0
 20 47  1  0  0  0  0
 21 22  1  0  0  0  0
 21 48  1  0  0  0  0
 21 49  1  0  0  0  0
 22 23  1  0  0  0  0
 22 25  1  0  0  0  0
 22 27  1  0  0  0  0
 23 24  1  0  0  0  0
 23 50  1  0  0  0  0
 23 51  1  0  0  0  0
 24 52  1  0  0  0  0
 25 26  1  0  0  0  0
 25 53  1  0  0  0  0
 25 54  1  0  0  0  0
 26 55  1  0  0  0  0
 27 56  1  0  0  0  0
 27 57  1  0  0  0  0
 28 31  1  0  0  0  0
 28 29  1  0  0  0  0
 29 58  1  0  0  0  0
 29 59  1  0  0  0  0
M  END
> <s_m_source_file>
AV-unprocessed.smi

> <i_m_source_file_index>
16

> <i_lp_mmshare_version>
43012

> <i_f3d_flags>
0

> <s_epik_input>
W0NIM11bQ0gyXU4oW0NIMl1bQ0gyXTEpW0NIMl1bQ0BASF0oW0NAQEhdMTIpTihbQ0gyXVtDSDJdTzIpYyhuW2NIXW4zKWMoYzM0KW5bY0hdbjRbQ0hdKFtDSDJdNSlbQ0gyXUM1KFtDSDJdW09IXSlbQ0gyXVtPSF0=

> <s_epik_cmdline>
J2VwaWtfcHl0aG9uJywgJy1waCcsICc3LjAnLCAnLXRuJywgJzgnLCAnLW1hJywgJzIwMCcsICctbWV0YWxfYmluZGluZycsICctaW1hZScsICc8aW5maWxlLm1hZT4nLCAnLW9tYWUnLCAnPG91dGZpbGUubWFlPic=

> <r_lp_tautomer_probability>
1

> <r_epik_Ionization_Penalty>
2.27341

> <r_epik_Ionization_Penalty_Charging>
0

> <r_epik_Ionization_Penalty_Neutral>
2.27341

> <r_epik_State_Penalty>
2.41121

> <r_epik_Charging_Adjusted_Penalty>
2.41121

> <i_epik_Tot_Q>
0

> <i_epik_Tot_abs_Q>
0

> <r_epik_Metal_State_Penalty>
2.40177

> <b_epik_Metal_Only>
0

> <s_lp_Force_Field>
OPLS_2005

> <r_lp_Energy>
57.2914

> <b_lp_Chiralities_Consistent>
1

> <s_lp_Variant>
AV-unprocessed.smi:16-9

> <Gold.Version>
5.8.1

> <Gold.Id.Protein>
6NUR|6NUR_protein|mol2

> <Gold.PLP.Fitness>
53.0548

> <Gold.PLP.PLP>
-43.1358

> <Gold.PLP.part.hbond>
-5.4133

> <Gold.PLP.part.metal>
0.0000

> <Gold.PLP.part.buried>
0.5335

> <Gold.PLP.part.nonpolar>
-40.0673

> <Gold.PLP.part.repulsive>
1.2662

> <Gold.PLP.ligand.clash>
0.0000

> <Gold.PLP.ligand.torsion>
0.8735

> <Gold.PLP.Chemscore.Hbond>
3.0461

> <Gold.PLP.Chemscore.CHOScore>
0.5004

> <Gold.PLP.Chemscore.Metal>
0.0000

> <Gold.Chemscore.Hbonds>
donor molecule, donor type, donor heavy atom, donor atom, acceptor molecule, acceptor atom, score
      L1  H    24    52       P1 10747  0.98
      L1  H    26    55       P1 10186  0.98
      P1  H  8011  8017       L1     7  0.16
      P1  H 10785 10796       L1    26  0.93
      L1  C    18    46       P1 10171  0.50

> <Gold.PLP.Chemscore.Internal.Correction>
1.0265

> <Gold.Rescore>
     Score         DG    S(hbond)    S(metal)    S(lipo)     H(rot)  DE(clash)    DE(int)     intcor
     13.96     -17.52       2.48        0.00     103.86       3.28       1.35       2.21       ----

> <Gold.Chemscore.Fitness>
13.9581

> <Gold.Chemscore.DG>
-17.5200

> <Gold.Chemscore.ZeroCoef>
-5.4800

> <Gold.Chemscore.Hbond>
2.4789

> <Gold.Chemscore.Metal>
0.0000

> <Gold.Chemscore.Lipo>
103.8561

> <Gold.Chemscore.Internal_Hbond>
0.0000

> <Gold.Chemscore.DEClash>
1.3475

> <Gold.Chemscore.DEInternal>
2.2144

> <Gold.Chemscore.Rot>
3.2776

> <Gold.Chemscore.Internal.Correction>
   9.000000E+99

> <Gold.Chemscore.Hbonds>
donor molecule, donor type, donor heavy atom, donor atom, acceptor molecule, acceptor atom, score
      L1  H    24    52       P1 10747  0.87
      L1  H    26    55       P1 10186  0.92
      P1  H  8011  8017       L1     7  0.02
      P1  H 10785 10796       L1    26  0.23

> <Gold.Chemscore.Hbond.Weighted>
-8.2795

> <Gold.Chemscore.Metal.Weighted>
-0.0000

> <Gold.Chemscore.Lipo.Weighted>
-12.1512

> <Gold.Chemscore.Internal_Hbond.Weighted>
0.0000

> <Gold.Chemscore.DEClash.Weighted>
1.3475

> <Gold.Chemscore.DEInternal.Weighted>
2.2144

> <Gold.Chemscore.Rot.Weighted>
8.3907

> <Gold.Chemscore.Internal.Correction.Weighted>
   9.000000E+99

> <Gold.Protein.RotatedTorsions>
[ 6907 6896 6895 6894 ] final  121.99 input  -60.11 | X-H torsion
[ 7974 7965 7964 7962 ] final  -72.75 input  175.53 | X-H torsion
[ 8008 7997 7996 7995 ] final   85.63 input   59.86 | X-H torsion
[ 10167 10162 10161 10158 ] final  -53.98 input  -65.29 | X-H torsion
[ 10718 10713 10712 10709 ] final   62.61 input   66.30 | X-H torsion
[ 10763 10752 10751 10750 ] final -114.73 input  -60.55 | X-H torsion
[ 11005 11000 10999 10996 ] final  133.18 input  -57.11 | X-H torsion

> <Gold.Protein.ActiveResidues>
 VAL166  LYS551  ARG553  GLY616  TRP617  ASP618  TYR619  PRO620  LYS621  CYS622 
 ASP623  PHE694  ASN695  SER759  ASP760  ASP761  ALA762  ILE779  LEU786  VAL792 
 PHE793  MET794  SER795  GLU796  ALA797  LYS798  CYS799  TRP800  GLU811  SER814 

> <Gold.Protein.RotatedAtoms>
  152.4278  133.7226  159.6541 H   0  0  0  0  0  0  0  0  0  0  0  0  # atno 6907 bound_to 6896
  150.8156  133.8333  159.3168 H   0  0  0  0  0  0  0  0  0  0  0  0  # atno 6908 bound_to 6896
  151.6030  135.1048  160.0116 H   0  0  0  0  0  0  0  0  0  0  0  0  # atno 6909 bound_to 6896
  145.6611  140.9252  143.0933 H   0  0  0  0  0  0  0  0  0  0  0  0  # atno 7974 bound_to 7965
  155.9525  140.3400  155.6420 H   0  0  0  0  0  0  0  0  0  0  0  0  # atno 8008 bound_to 7997
  155.6902  140.0748  157.2469 H   0  0  0  0  0  0  0  0  0  0  0  0  # atno 8009 bound_to 7997
  154.4125  140.1658  156.2066 H   0  0  0  0  0  0  0  0  0  0  0  0  # atno 8010 bound_to 7997
  140.6455  143.2533  151.4870 H   0  0  0  0  0  0  0  0  0  0  0  0  # atno 10167 bound_to 10162
  157.5913  130.9060  149.9610 H   0  0  0  0  0  0  0  0  0  0  0  0  # atno 10718 bound_to 10713
  154.8452  135.4407  154.1552 H   0  0  0  0  0  0  0  0  0  0  0  0  # atno 10763 bound_to 10752
  153.2702  135.6944  153.7494 H   0  0  0  0  0  0  0  0  0  0  0  0  # atno 10764 bound_to 10752
  153.6737  135.3414  155.3135 H   0  0  0  0  0  0  0  0  0  0  0  0  # atno 10765 bound_to 10752
  139.9835  134.9540  156.9688 H   0  0  0  0  0  0  0  0  0  0  0  0  # atno 11005 bound_to 11000
  144.7089  139.8450  143.7421 LP  0  0  0  0  0  0  0  0  0  0  0  0  # atno 17320 bound_to 7965
  146.1124  139.4131  143.0279 LP  0  0  0  0  0  0  0  0  0  0  0  0  # atno 17321 bound_to 7965
  139.5666  144.2028  152.1774 LP  0  0  0  0  0  0  0  0  0  0  0  0  # atno 17342 bound_to 10162
  140.1311  144.5287  150.6802 LP  0  0  0  0  0  0  0  0  0  0  0  0  # atno 17343 bound_to 10162
  156.0968  130.3659  150.0291 LP  0  0  0  0  0  0  0  0  0  0  0  0  # atno 17370 bound_to 10713
  156.8413  130.9427  151.3631 LP  0  0  0  0  0  0  0  0  0  0  0  0  # atno 17371 bound_to 10713
  140.5048  134.1061  155.7258 LP  0  0  0  0  0  0  0  0  0  0  0  0  # atno 17394 bound_to 11000
  141.1504  133.8979  157.2112 LP  0  0  0  0  0  0  0  0  0  0  0  0  # atno 17395 bound_to 11000

$$$$
