AV-unprocessed.smi:3270|AV-procd|sdf|12515|dock6
  -GOLD-   2272018423D 1   1.00000     0.00000
 Structure written by MMmdl.
 39 40  0  0  0  0  0  0  0  0  2 V2000
  151.9067  145.7052  160.0090 C   0  0  0  0  0  0  0  0  0  0  0  0
  151.4942  144.2501  159.7064 C   0  0  1  0  0  0  0  0  0  0  0  0
  151.5798  143.9041  158.2105 C   0  0  0  0  0  0  0  0  0  0  0  0
  152.1738  144.6432  157.4243 O   0  0  0  0  0  0  0  0  0  0  0  0
  150.9741  142.7689  157.8262 N   0  0  0  0  0  0  0  0  0  0  0  0
  150.9567  142.2532  156.4625 C   0  0  0  0  0  0  0  0  0  0  0  0
  149.7456  141.3314  156.2207 C   0  0  0  0  0  0  0  0  0  0  0  0
  148.5512  142.0759  155.7496 N   0  3  0  0  0  0  0  0  0  0  0  0
  148.1746  141.7163  154.3614 C   0  0  0  0  0  0  0  0  0  0  0  0
  146.9624  142.5423  153.8985 C   0  0  0  0  0  0  0  0  0  0  0  0
  145.8773  142.3396  154.7945 O   0  0  0  0  0  0  0  0  0  0  0  0
  146.1921  142.7651  156.1143 C   0  0  0  0  0  0  0  0  0  0  0  0
  147.3794  141.9481  156.6523 C   0  0  0  0  0  0  0  0  0  0  0  0
  152.2559  143.2900  160.4969 N   0  0  0  0  0  0  0  0  0  0  0  0
  152.3196  143.1831  161.8717 C   0  0  0  0  0  0  0  0  0  0  0  0
  153.1279  142.1224  162.1647 C   0  0  0  0  0  0  0  0  0  0  0  0
  153.5114  141.6273  160.8875 C   0  0  0  0  0  0  0  0  0  0  0  0
  152.9836  142.3215  159.8930 N   0  0  0  0  0  0  0  0  0  0  0  0
  151.2895  146.4123  159.4535 H   0  0  0  0  0  0  0  0  0  0  0  0
  152.9479  145.8999  159.7481 H   0  0  0  0  0  0  0  0  0  0  0  0
  151.7856  145.9298  161.0690 H   0  0  0  0  0  0  0  0  0  0  0  0
  150.4477  144.1479  159.9989 H   0  0  0  0  0  0  0  0  0  0  0  0
  150.5099  142.2160  158.5322 H   0  0  0  0  0  0  0  0  0  0  0  0
  150.9675  143.0920  155.7657 H   0  0  0  0  0  0  0  0  0  0  0  0
  151.8823  141.7011  156.2978 H   0  0  0  0  0  0  0  0  0  0  0  0
  150.0274  140.5947  155.4667 H   0  0  0  0  0  0  0  0  0  0  0  0
  149.4916  140.7684  157.1204 H   0  0  0  0  0  0  0  0  0  0  0  0
  149.0155  141.8956  153.6903 H   0  0  0  0  0  0  0  0  0  0  0  0
  147.9428  140.6511  154.3088 H   0  0  0  0  0  0  0  0  0  0  0  0
  147.2115  143.6033  153.8422 H   0  0  0  0  0  0  0  0  0  0  0  0
  146.6573  142.2335  152.8985 H   0  0  0  0  0  0  0  0  0  0  0  0
  146.4177  143.8329  156.1218 H   0  0  0  0  0  0  0  0  0  0  0  0
  145.3180  142.6204  156.7498 H   0  0  0  0  0  0  0  0  0  0  0  0
  147.0969  140.8976  156.7401 H   0  0  0  0  0  0  0  0  0  0  0  0
  147.6273  142.2958  157.6545 H   0  0  0  0  0  0  0  0  0  0  0  0
  151.7899  143.8643  162.5213 H   0  0  0  0  0  0  0  0  0  0  0  0
  153.4013  141.7539  163.1422 H   0  0  0  0  0  0  0  0  0  0  0  0
  154.1495  140.7875  160.6551 H   0  0  0  0  0  0  0  0  0  0  0  0
  148.8066  143.0531  155.7296 H   0  0  0  0  0  0  0  0  0  0  0  0
  1  2  1  0  0  0  0
  1 19  1  0  0  0  0
  1 20  1  0  0  0  0
  1 21  1  0  0  0  0
  2  3  1  0  0  0  0
  2 14  1  0  0  0  0
  2 22  1  0  0  0  0
  3  4  2  0  0  0  0
  3  5  1  0  0  0  0
  5  6  1  0  0  0  0
  5 23  1  0  0  0  0
  6  7  1  0  0  0  0
  6 24  1  0  0  0  0
  6 25  1  0  0  0  0
  7  8  1  0  0  0  0
  7 26  1  0  0  0  0
  7 27  1  0  0  0  0
  8 13  1  0  0  0  0
  8  9  1  0  0  0  0
  8 39  1  0  0  0  0
  9 10  1  0  0  0  0
  9 28  1  0  0  0  0
  9 29  1  0  0  0  0
 10 11  1  0  0  0  0
 10 30  1  0  0  0  0
 10 31  1  0  0  0  0
 11 12  1  0  0  0  0
 12 13  1  0  0  0  0
 12 32  1  0  0  0  0
 12 33  1  0  0  0  0
 13 34  1  0  0  0  0
 13 35  1  0  0  0  0
 14 18  1  0  0  0  0
 14 15  1  0  0  0  0
 15 16  2  0  0  0  0
 15 36  1  0  0  0  0
 16 17  1  0  0  0  0
 16 37  1  0  0  0  0
 17 18  2  0  0  0  0
 17 38  1  0  0  0  0
M  CHG  1   8   1
M  END
> <s_m_source_file>
AV-unprocessed.smi

> <i_m_source_file_index>
3270

> <i_lp_mmshare_version>
43012

> <i_f3d_flags>
0

> <s_epik_input>
bjFbY0hdW2NIXVtjSF1uMVtDQEhdKFtDSDNdKUMoPU8pW05IXVtDSDJdW0NIMl1OMltDSDJdW0NIMl1PW0NIMl1bQ0gyXTI=

> <s_epik_cmdline>
J2VwaWtfcHl0aG9uJywgJy1waCcsICc3LjAnLCAnLXRuJywgJzgnLCAnLW1hJywgJzIwMCcsICctbWV0YWxfYmluZGluZycsICctaW1hZScsICc8aW5maWxlLm1hZT4nLCAnLW9tYWUnLCAnPG91dGZpbGUubWFlPic=

> <r_lp_tautomer_probability>
1

> <r_epik_Ionization_Penalty>
0.73255

> <r_epik_Ionization_Penalty_Charging>
0.732531

> <r_epik_Ionization_Penalty_Neutral>
1.96965e-05

> <r_epik_State_Penalty>
0.757939

> <r_epik_Charging_Adjusted_Penalty>
1.49047

> <i_epik_Tot_Q>
1

> <i_epik_Tot_abs_Q>
1

> <r_epik_Metal_State_Penalty>
0.757952

> <b_epik_Metal_Only>
0

> <s_lp_Force_Field>
OPLS_2005

> <r_lp_Energy>
19.4088

> <b_lp_Chiralities_Consistent>
1

> <s_lp_Variant>
AV-unprocessed.smi:3270-4

> <Gold.Version>
5.8.1

> <Gold.Id.Protein>
6NUR|6NUR_protein|mol2

> <Gold.PLP.Fitness>
47.5460

> <Gold.PLP.PLP>
-44.1225

> <Gold.PLP.part.hbond>
-1.0000

> <Gold.PLP.part.metal>
0.0000

> <Gold.PLP.part.buried>
-6.4632

> <Gold.PLP.part.nonpolar>
-36.8723

> <Gold.PLP.part.repulsive>
0.3649

> <Gold.PLP.ligand.clash>
0.0000

> <Gold.PLP.ligand.torsion>
1.3446

> <Gold.PLP.Chemscore.Hbond>
2.0000

> <Gold.PLP.Chemscore.CHOScore>
0.0000

> <Gold.PLP.Chemscore.Metal>
0.0000

> <Gold.Chemscore.Hbonds>
donor molecule, donor type, donor heavy atom, donor atom, acceptor molecule, acceptor atom, score
      L1  H     8    39       P1  8028  2.00

> <Gold.PLP.Chemscore.Internal.Correction>
0.1127

> <Gold.Rescore>
     Score         DG    S(hbond)    S(metal)    S(lipo)     H(rot)  DE(clash)    DE(int)     intcor
     11.53     -14.49       1.00        0.00      90.23       1.91       0.32       2.63       ----

> <Gold.Chemscore.Fitness>
11.5287

> <Gold.Chemscore.DG>
-14.4851

> <Gold.Chemscore.ZeroCoef>
-5.4800

> <Gold.Chemscore.Hbond>
1.0000

> <Gold.Chemscore.Metal>
0.0000

> <Gold.Chemscore.Lipo>
90.2310

> <Gold.Chemscore.Internal_Hbond>
0.0000

> <Gold.Chemscore.DEClash>
0.3233

> <Gold.Chemscore.DEInternal>
2.6331

> <Gold.Chemscore.Rot>
1.9109

> <Gold.Chemscore.Internal.Correction>
   9.000000E+99

> <Gold.Chemscore.Hbonds>
donor molecule, donor type, donor heavy atom, donor atom, acceptor molecule, acceptor atom, score
      L1  H     8    39       P1  8028  1.00

> <Gold.Chemscore.Hbond.Weighted>
-3.3399

> <Gold.Chemscore.Metal.Weighted>
-0.0000

> <Gold.Chemscore.Lipo.Weighted>
-10.5570

> <Gold.Chemscore.Internal_Hbond.Weighted>
0.0000

> <Gold.Chemscore.DEClash.Weighted>
0.3233

> <Gold.Chemscore.DEInternal.Weighted>
2.6331

> <Gold.Chemscore.Rot.Weighted>
4.8919

> <Gold.Chemscore.Internal.Correction.Weighted>
   9.000000E+99

> <Gold.Protein.RotatedTorsions>
[ 6907 6896 6895 6894 ] final -147.94 input  -60.11 | X-H torsion
[ 7974 7965 7964 7962 ] final   98.49 input  175.53 | X-H torsion
[ 8008 7997 7996 7995 ] final   26.07 input   59.86 | X-H torsion
[ 10167 10162 10161 10158 ] final    6.87 input  -65.29 | X-H torsion
[ 10718 10713 10712 10709 ] final  105.77 input   66.30 | X-H torsion
[ 10763 10752 10751 10750 ] final -101.93 input  -60.55 | X-H torsion
[ 11005 11000 10999 10996 ] final  -15.43 input  -57.11 | X-H torsion

> <Gold.Protein.ActiveResidues>
 VAL166  LYS551  ARG553  GLY616  TRP617  ASP618  TYR619  PRO620  LYS621  CYS622 
 ASP623  PHE694  ASN695  SER759  ASP760  ASP761  ALA762  ILE779  LEU786  VAL792 
 PHE793  MET794  SER795  GLU796  ALA797  LYS798  CYS799  TRP800  GLU811  SER814 

> <Gold.Protein.RotatedAtoms>
  151.1628  133.4834  159.2593 H   0  0  0  0  0  0  0  0  0  0  0  0  # atno 6907 bound_to 6896
  151.1437  135.0192  159.8647 H   0  0  0  0  0  0  0  0  0  0  0  0  # atno 6908 bound_to 6896
  152.5463  134.1519  159.8575 H   0  0  0  0  0  0  0  0  0  0  0  0  # atno 6909 bound_to 6896
  145.4115  139.2333  143.3245 H   0  0  0  0  0  0  0  0  0  0  0  0  # atno 7974 bound_to 7965
  155.0216  140.3148  155.4791 H   0  0  0  0  0  0  0  0  0  0  0  0  # atno 8008 bound_to 7997
  156.2891  140.2196  156.5276 H   0  0  0  0  0  0  0  0  0  0  0  0  # atno 8009 bound_to 7997
  154.7447  140.0471  157.0829 H   0  0  0  0  0  0  0  0  0  0  0  0  # atno 8010 bound_to 7997
  140.6403  143.7789  150.7419 H   0  0  0  0  0  0  0  0  0  0  0  0  # atno 10167 bound_to 10162
  157.6693  131.0835  150.5906 H   0  0  0  0  0  0  0  0  0  0  0  0  # atno 10718 bound_to 10713
  154.7695  135.4879  153.9621 H   0  0  0  0  0  0  0  0  0  0  0  0  # atno 10763 bound_to 10752
  153.1350  135.6761  153.9125 H   0  0  0  0  0  0  0  0  0  0  0  0  # atno 10764 bound_to 10752
  153.8817  135.3131  155.3424 H   0  0  0  0  0  0  0  0  0  0  0  0  # atno 10765 bound_to 10752
  140.7965  133.8247  155.9429 H   0  0  0  0  0  0  0  0  0  0  0  0  # atno 11005 bound_to 11000
  146.2702  140.4827  142.8817 LP  0  0  0  0  0  0  0  0  0  0  0  0  # atno 17320 bound_to 7965
  144.8306  140.6700  143.6294 LP  0  0  0  0  0  0  0  0  0  0  0  0  # atno 17321 bound_to 7965
  140.1419  143.4434  152.2188 LP  0  0  0  0  0  0  0  0  0  0  0  0  # atno 17342 bound_to 10162
  139.5613  144.7407  151.4148 LP  0  0  0  0  0  0  0  0  0  0  0  0  # atno 17343 bound_to 10162
  156.6207  130.4405  149.5823 LP  0  0  0  0  0  0  0  0  0  0  0  0  # atno 17370 bound_to 10713
  156.2358  130.6822  151.1508 LP  0  0  0  0  0  0  0  0  0  0  0  0  # atno 17371 bound_to 10713
  140.9337  134.1989  157.4846 LP  0  0  0  0  0  0  0  0  0  0  0  0  # atno 17394 bound_to 11000
  139.8726  134.9843  156.5236 LP  0  0  0  0  0  0  0  0  0  0  0  0  # atno 17395 bound_to 11000

$$$$
