AV-unprocessed.smi:38|AV-procd|sdf|344|dock6
  -GOLD-   2262016183D 1   1.00000     0.00000
 Structure written by MMmdl.
 27 28  0  0  0  0  0  0  0  0  2 V2000
  143.4337  145.9682  154.5949 O   0  0  0  0  0  0  0  0  0  0  0  0
  144.0943  144.9475  154.7815 C   0  0  0  0  0  0  0  0  0  0  0  0
  144.0723  144.2591  155.9594 N   0  5  0  0  0  0  0  0  0  0  0  0
  144.8083  143.1278  156.1658 C   0  0  0  0  0  0  0  0  0  0  0  0
  144.7978  142.5026  157.2266 O   0  0  0  0  0  0  0  0  0  0  0  0
  145.6327  142.6406  155.1145 N   0  0  0  0  0  0  0  0  0  0  0  0
  146.4484  141.3859  155.3515 C   0  0  2  0  0  0  0  0  0  0  0  0
  147.9345  141.6453  155.0600 C   0  0  0  0  0  0  0  0  0  0  0  0
  148.3026  140.4666  154.1801 C   0  0  2  0  0  0  0  0  0  0  0  0
  149.3601  140.7987  153.3036 O   0  0  0  0  0  0  0  0  0  0  0  0
  146.9919  140.1964  153.4417 C   0  0  1  0  0  0  0  0  0  0  0  0
  146.8890  138.7740  152.8706 C   0  0  0  0  0  0  0  0  0  0  0  0
  147.6901  138.6542  151.7144 O   0  0  0  0  0  0  0  0  0  0  0  0
  146.0318  140.3739  154.4794 O   0  0  0  0  0  0  0  0  0  0  0  0
  145.6729  143.3187  153.9065 C   0  0  0  0  0  0  0  0  0  0  0  0
  144.9446  144.4366  153.7078 C   0  0  0  0  0  0  0  0  0  0  0  0
  145.0049  145.0733  152.5253 F   0  0  0  0  0  0  0  0  0  0  0  0
  146.2388  141.0808  156.3782 H   0  0  0  0  0  0  0  0  0  0  0  0
  148.5786  139.6106  154.7976 H   0  0  0  0  0  0  0  0  0  0  0  0
  146.8441  140.9493  152.6647 H   0  0  0  0  0  0  0  0  0  0  0  0
  148.0445  142.5868  154.5180 H   0  0  0  0  0  0  0  0  0  0  0  0
  148.5138  141.6981  155.9821 H   0  0  0  0  0  0  0  0  0  0  0  0
  149.3876  140.1562  152.6110 H   0  0  0  0  0  0  0  0  0  0  0  0
  147.2577  138.0510  153.5986 H   0  0  0  0  0  0  0  0  0  0  0  0
  145.8551  138.5099  152.6467 H   0  0  0  0  0  0  0  0  0  0  0  0
  148.3419  139.3382  151.7284 H   0  0  0  0  0  0  0  0  0  0  0  0
  146.2920  142.9622  153.0976 H   0  0  0  0  0  0  0  0  0  0  0  0
  1  2  2  0  0  0  0
  2 16  1  0  0  0  0
  2  3  1  0  0  0  0
  3  4  1  0  0  0  0
  4  5  2  0  0  0  0
  4  6  1  0  0  0  0
  6  7  1  0  0  0  0
  6 15  1  0  0  0  0
  7 18  1  0  0  0  0
  7 14  1  0  0  0  0
  7  8  1  0  0  0  0
  8  9  1  0  0  0  0
  8 21  1  0  0  0  0
  8 22  1  0  0  0  0
  9 19  1  0  0  0  0
  9 10  1  0  0  0  0
  9 11  1  0  0  0  0
 10 23  1  0  0  0  0
 11 20  1  0  0  0  0
 11 12  1  0  0  0  0
 11 14  1  0  0  0  0
 12 13  1  0  0  0  0
 12 24  1  0  0  0  0
 12 25  1  0  0  0  0
 13 26  1  0  0  0  0
 15 16  2  0  0  0  0
 15 27  1  0  0  0  0
 16 17  1  0  0  0  0
M  CHG  1   3  -1
M  END
> <s_m_source_file>
AV-unprocessed.smi

> <i_m_source_file_index>
38

> <i_lp_mmshare_version>
43012

> <i_f3d_flags>
0

> <s_epik_input>
Tz1jMVtuSF1jKD1PKW4oW2NIXWMxRilbQ0BIXTJbQ0gyXVtDQEhdKFtPSF0pW0NASF0oTzIpW0NIMl1bT0hd

> <s_epik_cmdline>
J2VwaWtfcHl0aG9uJywgJy1waCcsICc3LjAnLCAnLXRuJywgJzgnLCAnLW1hJywgJzIwMCcsICctbWV0YWxfYmluZGluZycsICctaW1hZScsICc8aW5maWxlLm1hZT4nLCAnLW9tYWUnLCAnPG91dGZpbGUubWFlPic=

> <r_epik_Ionization_Penalty>
1.68146

> <r_epik_Ionization_Penalty_Charging>
3.4211e-08

> <r_epik_Ionization_Penalty_Neutral>
1.68146

> <r_epik_State_Penalty>
1.78593

> <r_epik_Charging_Adjusted_Penalty>
1.78593

> <i_epik_Tot_Q>
-1

> <i_epik_Tot_abs_Q>
1

> <r_epik_Metal_State_Penalty>
0.0113696

> <b_epik_Metal_Only>
0

> <s_epik_Chemistry_Notes>
This compound contains an acetal/aminal-like group ( X-CH(R)-Y where X, Y are N, S, or O) that may be acid/base labile, releasing an aldehyde.

> <s_lp_Force_Field>
OPLS_2005

> <r_lp_Energy>
37.5177

> <b_lp_Chiralities_Consistent>
1

> <s_lp_Variant>
AV-unprocessed.smi:38-10

> <Gold.Version>
5.8.1

> <Gold.Id.Protein>
6NUR|6NUR_protein|mol2

> <Gold.PLP.Fitness>
43.3587

> <Gold.PLP.PLP>
-32.8794

> <Gold.PLP.part.hbond>
-4.7051

> <Gold.PLP.part.metal>
0.0000

> <Gold.PLP.part.buried>
-5.6694

> <Gold.PLP.part.nonpolar>
-24.6934

> <Gold.PLP.part.repulsive>
0.5266

> <Gold.PLP.ligand.clash>
0.0000

> <Gold.PLP.ligand.torsion>
0.1178

> <Gold.PLP.Chemscore.Hbond>
3.5661

> <Gold.PLP.Chemscore.CHOScore>
0.0000

> <Gold.PLP.Chemscore.Metal>
0.0000

> <Gold.Chemscore.Hbonds>
donor molecule, donor type, donor heavy atom, donor atom, acceptor molecule, acceptor atom, score
      L1  H    10    23       P1  7957  0.70
      L1  H    13    26       P1  7957  0.99
      P1  H  7954  7966       L1    13  0.79
      P1  H  7989  7998       L1    10  0.08
      P1  H  8011  8017       L1    10  1.00

> <Gold.PLP.Chemscore.Internal.Correction>
0.0164

> <Gold.Rescore>
     Score         DG    S(hbond)    S(metal)    S(lipo)     H(rot)  DE(clash)    DE(int)     intcor
     10.25     -10.45       2.26        0.00      41.12       2.88       0.08       0.12       ----

> <Gold.Chemscore.Fitness>
10.2506

> <Gold.Chemscore.DG>
-10.4510

> <Gold.Chemscore.ZeroCoef>
-5.4800

> <Gold.Chemscore.Hbond>
2.2566

> <Gold.Chemscore.Metal>
0.0000

> <Gold.Chemscore.Lipo>
41.1152

> <Gold.Chemscore.Internal_Hbond>
0.0000

> <Gold.Chemscore.DEClash>
0.0797

> <Gold.Chemscore.DEInternal>
0.1207

> <Gold.Chemscore.Rot>
2.8815

> <Gold.Chemscore.Internal.Correction>
   9.000000E+99

> <Gold.Chemscore.Hbonds>
donor molecule, donor type, donor heavy atom, donor atom, acceptor molecule, acceptor atom, score
      L1  H    10    23       P1  7957  0.68
      L1  H    13    26       P1  7957  0.86
      P1  H  7954  7966       L1    13  0.12
      P1  H  7989  7998       L1    10  0.01
      P1  H  8011  8017       L1    10  0.30

> <Gold.Chemscore.Hbond.Weighted>
-7.5370

> <Gold.Chemscore.Metal.Weighted>
-0.0000

> <Gold.Chemscore.Lipo.Weighted>
-4.8105

> <Gold.Chemscore.Internal_Hbond.Weighted>
0.0000

> <Gold.Chemscore.DEClash.Weighted>
0.0797

> <Gold.Chemscore.DEInternal.Weighted>
0.1207

> <Gold.Chemscore.Rot.Weighted>
7.3765

> <Gold.Chemscore.Internal.Correction.Weighted>
   9.000000E+99

> <Gold.Protein.RotatedTorsions>
[ 6907 6896 6895 6894 ] final -104.57 input  -60.11 | X-H torsion
[ 7974 7965 7964 7962 ] final  103.14 input  175.53 | X-H torsion
[ 8008 7997 7996 7995 ] final   77.49 input   59.86 | X-H torsion
[ 10167 10162 10161 10158 ] final  -69.16 input  -65.29 | X-H torsion
[ 10718 10713 10712 10709 ] final    4.28 input   66.30 | X-H torsion
[ 10763 10752 10751 10750 ] final  -50.47 input  -60.55 | X-H torsion
[ 11005 11000 10999 10996 ] final   52.32 input  -57.11 | X-H torsion

> <Gold.Protein.ActiveResidues>
 VAL166  LYS551  ARG553  GLY616  TRP617  ASP618  TYR619  PRO620  LYS621  CYS622 
 ASP623  PHE694  ASN695  SER759  ASP760  ASP761  ALA762  ILE779  LEU786  VAL792 
 PHE793  MET794  SER795  GLU796  ALA797  LYS798  CYS799  TRP800  GLU811  SER814 

> <Gold.Protein.RotatedAtoms>
  150.7293  134.0258  159.3716 H   0  0  0  0  0  0  0  0  0  0  0  0  # atno 6907 bound_to 6896
  151.8225  135.0645  160.0436 H   0  0  0  0  0  0  0  0  0  0  0  0  # atno 6908 bound_to 6896
  152.2993  133.5603  159.5644 H   0  0  0  0  0  0  0  0  0  0  0  0  # atno 6909 bound_to 6896
  145.3498  139.2442  143.3564 H   0  0  0  0  0  0  0  0  0  0  0  0  # atno 7974 bound_to 7965
  155.8423  140.3461  155.5640 H   0  0  0  0  0  0  0  0  0  0  0  0  # atno 8008 bound_to 7997
  155.8127  140.0901  157.1914 H   0  0  0  0  0  0  0  0  0  0  0  0  # atno 8009 bound_to 7997
  154.4005  140.1445  156.3393 H   0  0  0  0  0  0  0  0  0  0  0  0  # atno 8010 bound_to 7997
  140.5452  143.2313  151.7015 H   0  0  0  0  0  0  0  0  0  0  0  0  # atno 10167 bound_to 10162
  156.8902  130.5685  149.5650 H   0  0  0  0  0  0  0  0  0  0  0  0  # atno 10718 bound_to 10713
  154.1109  135.6549  153.4885 H   0  0  0  0  0  0  0  0  0  0  0  0  # atno 10763 bound_to 10752
  153.0257  135.5247  154.7192 H   0  0  0  0  0  0  0  0  0  0  0  0  # atno 10764 bound_to 10752
  154.6372  135.2983  155.0116 H   0  0  0  0  0  0  0  0  0  0  0  0  # atno 10765 bound_to 10752
  140.0859  134.5275  155.8900 H   0  0  0  0  0  0  0  0  0  0  0  0  # atno 11005 bound_to 11000
  146.2973  140.4112  142.8717 LP  0  0  0  0  0  0  0  0  0  0  0  0  # atno 17320 bound_to 7965
  144.8726  140.7293  143.6037 LP  0  0  0  0  0  0  0  0  0  0  0  0  # atno 17321 bound_to 7965
  139.5004  144.3906  152.0283 LP  0  0  0  0  0  0  0  0  0  0  0  0  # atno 17342 bound_to 10162
  140.3018  144.3638  150.6058 LP  0  0  0  0  0  0  0  0  0  0  0  0  # atno 17343 bound_to 10162
  156.0633  130.5681  150.9237 LP  0  0  0  0  0  0  0  0  0  0  0  0  # atno 17370 bound_to 10713
  157.6088  131.0937  150.8832 LP  0  0  0  0  0  0  0  0  0  0  0  0  # atno 17371 bound_to 10713
  141.2062  133.6653  156.6229 LP  0  0  0  0  0  0  0  0  0  0  0  0  # atno 17394 bound_to 11000
  140.3421  134.7840  157.4405 LP  0  0  0  0  0  0  0  0  0  0  0  0  # atno 17395 bound_to 11000

$$$$
