AV-unprocessed.smi:485|AV-procd|sdf|2692|dock2
  -GOLD-   2262023123D 1   1.00000     0.00000
 Structure written by MMmdl.
 36 38  0  0  0  0  0  0  0  0  1 V2000
  153.7416  138.3700  158.1475 O   0  0  0  0  0  0  0  0  0  0  0  0
  152.4420  138.7172  158.5750 C   0  0  0  0  0  0  0  0  0  0  0  0
  152.2488  140.1983  158.6970 C   0  0  0  0  0  0  0  0  0  0  0  0
  153.0092  140.9443  159.4990 N   0  0  0  0  0  0  0  0  0  0  0  0
  152.5086  142.2156  159.2964 C   0  0  0  0  0  0  0  0  0  0  0  0
  152.8936  143.4541  159.8580 C   0  0  0  0  0  0  0  0  0  0  0  0
  152.2255  144.6416  159.4944 C   0  0  0  0  0  0  0  0  0  0  0  0
  151.1649  144.6080  158.5657 C   0  0  0  0  0  0  0  0  0  0  0  0
  150.7658  143.3847  157.9938 C   0  0  0  0  0  0  0  0  0  0  0  0
  151.4362  142.2020  158.3601 C   0  0  0  0  0  0  0  0  0  0  0  0
  151.2981  140.8659  157.9958 N   0  0  0  0  0  0  0  0  0  0  0  0
  150.3308  140.3238  157.0510 C   0  0  0  0  0  0  0  0  0  0  0  0
  150.5424  140.8374  155.6126 C   0  0  1  0  0  0  0  0  0  0  0  0
  151.6636  140.2020  155.0284 O   0  0  0  0  0  0  0  0  0  0  0  0
  149.2796  140.6700  154.7817 C   0  0  0  0  0  0  0  0  0  0  0  0
  148.8182  139.3860  154.4146 C   0  0  0  0  0  0  0  0  0  0  0  0
  147.6401  139.2454  153.6553 C   0  0  0  0  0  0  0  0  0  0  0  0
  146.9139  140.3863  153.2631 C   0  0  0  0  0  0  0  0  0  0  0  0
  147.3662  141.6682  153.6305 C   0  0  0  0  0  0  0  0  0  0  0  0
  148.5449  141.8092  154.3885 C   0  0  0  0  0  0  0  0  0  0  0  0
  153.6700  137.7119  157.4733 H   0  0  0  0  0  0  0  0  0  0  0  0
  151.7106  138.3010  157.8832 H   0  0  0  0  0  0  0  0  0  0  0  0
  152.2572  138.2493  159.5425 H   0  0  0  0  0  0  0  0  0  0  0  0
  153.7049  143.4902  160.5699 H   0  0  0  0  0  0  0  0  0  0  0  0
  152.5277  145.5825  159.9304 H   0  0  0  0  0  0  0  0  0  0  0  0
  150.6577  145.5220  158.2927 H   0  0  0  0  0  0  0  0  0  0  0  0
  149.9520  143.3544  157.2845 H   0  0  0  0  0  0  0  0  0  0  0  0
  150.3927  139.2351  157.0762 H   0  0  0  0  0  0  0  0  0  0  0  0
  149.3275  140.5737  157.3967 H   0  0  0  0  0  0  0  0  0  0  0  0
  150.7814  141.9005  155.6459 H   0  0  0  0  0  0  0  0  0  0  0  0
  152.3502  140.1520  155.6758 H   0  0  0  0  0  0  0  0  0  0  0  0
  149.3633  138.5037  154.7168 H   0  0  0  0  0  0  0  0  0  0  0  0
  147.2921  138.2620  153.3755 H   0  0  0  0  0  0  0  0  0  0  0  0
  146.0093  140.2783  152.6829 H   0  0  0  0  0  0  0  0  0  0  0  0
  146.8078  142.5433  153.3325 H   0  0  0  0  0  0  0  0  0  0  0  0
  148.8812  142.7964  154.6702 H   0  0  0  0  0  0  0  0  0  0  0  0
  1  2  1  0  0  0  0
  1 21  1  0  0  0  0
  2  3  1  0  0  0  0
  2 22  1  0  0  0  0
  2 23  1  0  0  0  0
  3 11  1  0  0  0  0
  3  4  2  0  0  0  0
  4  5  1  0  0  0  0
  5 10  2  0  0  0  0
  5  6  1  0  0  0  0
  6  7  2  0  0  0  0
  6 24  1  0  0  0  0
  7  8  1  0  0  0  0
  7 25  1  0  0  0  0
  8  9  2  0  0  0  0
  8 26  1  0  0  0  0
  9 10  1  0  0  0  0
  9 27  1  0  0  0  0
 10 11  1  0  0  0  0
 11 12  1  0  0  0  0
 12 13  1  0  0  0  0
 12 28  1  0  0  0  0
 12 29  1  0  0  0  0
 13 14  1  0  0  0  0
 13 15  1  0  0  0  0
 13 30  1  0  0  0  0
 14 31  1  0  0  0  0
 15 20  1  0  0  0  0
 15 16  2  0  0  0  0
 16 17  1  0  0  0  0
 16 32  1  0  0  0  0
 17 18  2  0  0  0  0
 17 33  1  0  0  0  0
 18 19  1  0  0  0  0
 18 34  1  0  0  0  0
 19 20  2  0  0  0  0
 19 35  1  0  0  0  0
 20 36  1  0  0  0  0
M  END
> <s_m_source_file>
AV-unprocessed.smi

> <i_m_source_file_index>
485

> <i_lp_mmshare_version>
43012

> <i_f3d_flags>
0

> <s_epik_input>
W2NIXTFbY0hdW2NIXVtjSF1jKGMxMiluKGMobjIpW0NIMl1bT0hdKVtDSDJdW0NASF0oW09IXSljM1tjSF1bY0hdW2NIXVtjSF1bY0hdMw==

> <s_epik_cmdline>
J2VwaWtfcHl0aG9uJywgJy1waCcsICc3LjAnLCAnLXRuJywgJzgnLCAnLW1hJywgJzIwMCcsICctbWV0YWxfYmluZGluZycsICctaW1hZScsICc8aW5maWxlLm1hZT4nLCAnLW9tYWUnLCAnPG91dGZpbGUubWFlPic=

> <r_epik_Ionization_Penalty>
0.0634722

> <r_epik_Ionization_Penalty_Charging>
0

> <r_epik_Ionization_Penalty_Neutral>
0.0634722

> <r_epik_State_Penalty>
0.0551572

> <r_epik_Charging_Adjusted_Penalty>
0.0551572

> <i_epik_Tot_Q>
0

> <i_epik_Tot_abs_Q>
0

> <r_epik_Metal_State_Penalty>
5.78034e-05

> <b_epik_Metal_Only>
0

> <s_lp_Force_Field>
OPLS_2005

> <r_lp_Energy>
11.9135

> <b_lp_Chiralities_Consistent>
1

> <s_lp_Variant>
AV-unprocessed.smi:485-2

> <Gold.Version>
5.8.1

> <Gold.Id.Protein>
6NUR|6NUR_protein|mol2

> <Gold.PLP.Fitness>
50.6543

> <Gold.PLP.PLP>
-45.8831

> <Gold.PLP.part.hbond>
-1.9787

> <Gold.PLP.part.metal>
0.0000

> <Gold.PLP.part.buried>
-3.4874

> <Gold.PLP.part.nonpolar>
-39.3757

> <Gold.PLP.part.repulsive>
0.0000

> <Gold.PLP.ligand.clash>
0.0000

> <Gold.PLP.ligand.torsion>
0.2833

> <Gold.PLP.Chemscore.Hbond>
1.7632

> <Gold.PLP.Chemscore.CHOScore>
0.0000

> <Gold.PLP.Chemscore.Metal>
0.0000

> <Gold.Chemscore.Hbonds>
donor molecule, donor type, donor heavy atom, donor atom, acceptor molecule, acceptor atom, score
      P1  H  7989  7998       L1    14  0.96
      P1  H  7997  8009       L1     1  0.51

> <Gold.PLP.Chemscore.Internal.Correction>
0.0483

> <Gold.Rescore>
     Score         DG    S(hbond)    S(metal)    S(lipo)     H(rot)  DE(clash)    DE(int)     intcor
     16.89     -17.11       1.47        0.00     114.74       2.62       0.00       0.23       ----

> <Gold.Chemscore.Fitness>
16.8862

> <Gold.Chemscore.DG>
-17.1148

> <Gold.Chemscore.ZeroCoef>
-5.4800

> <Gold.Chemscore.Hbond>
1.4746

> <Gold.Chemscore.Metal>
0.0000

> <Gold.Chemscore.Lipo>
114.7449

> <Gold.Chemscore.Internal_Hbond>
0.0000

> <Gold.Chemscore.DEClash>
0.0004

> <Gold.Chemscore.DEInternal>
0.2282

> <Gold.Chemscore.Rot>
2.6232

> <Gold.Chemscore.Internal.Correction>
   9.000000E+99

> <Gold.Chemscore.Hbonds>
donor molecule, donor type, donor heavy atom, donor atom, acceptor molecule, acceptor atom, score
      P1  H  7989  7998       L1    14  0.28
      P1  H  7997  8009       L1     1  0.26

> <Gold.Chemscore.Hbond.Weighted>
-4.9251

> <Gold.Chemscore.Metal.Weighted>
-0.0000

> <Gold.Chemscore.Lipo.Weighted>
-13.4251

> <Gold.Chemscore.Internal_Hbond.Weighted>
0.0000

> <Gold.Chemscore.DEClash.Weighted>
0.0004

> <Gold.Chemscore.DEInternal.Weighted>
0.2282

> <Gold.Chemscore.Rot.Weighted>
6.7154

> <Gold.Chemscore.Internal.Correction.Weighted>
   9.000000E+99

> <Gold.Protein.RotatedTorsions>
[ 6907 6896 6895 6894 ] final  151.72 input  -60.11 | X-H torsion
[ 7974 7965 7964 7962 ] final  -30.86 input  175.53 | X-H torsion
[ 8008 7997 7996 7995 ] final  127.16 input   59.86 | X-H torsion
[ 10167 10162 10161 10158 ] final  -68.65 input  -65.29 | X-H torsion
[ 10718 10713 10712 10709 ] final   -3.93 input   66.30 | X-H torsion
[ 10763 10752 10751 10750 ] final   97.96 input  -60.55 | X-H torsion
[ 11005 11000 10999 10996 ] final  -90.17 input  -57.11 | X-H torsion

> <Gold.Protein.ActiveResidues>
 VAL166  LYS551  ARG553  GLY616  TRP617  ASP618  TYR619  PRO620  LYS621  CYS622 
 ASP623  PHE694  ASN695  SER759  ASP760  ASP761  ALA762  ILE779  LEU786  VAL792 
 PHE793  MET794  SER795  GLU796  ALA797  LYS798  CYS799  TRP800  GLU811  SER814 

> <Gold.Protein.RotatedAtoms>
  152.0967  133.4228  159.4568 H   0  0  0  0  0  0  0  0  0  0  0  0  # atno 6907 bound_to 6896
  150.6863  134.2809  159.4636 H   0  0  0  0  0  0  0  0  0  0  0  0  # atno 6908 bound_to 6896
  152.0665  134.9560  160.0625 H   0  0  0  0  0  0  0  0  0  0  0  0  # atno 6909 bound_to 6896
  146.1111  140.5594  142.8777 H   0  0  0  0  0  0  0  0  0  0  0  0  # atno 7974 bound_to 7965
  156.2883  140.2675  156.2229 H   0  0  0  0  0  0  0  0  0  0  0  0  # atno 8008 bound_to 7997
  155.0150  140.0387  157.2433 H   0  0  0  0  0  0  0  0  0  0  0  0  # atno 8009 bound_to 7997
  154.7485  140.2738  155.6318 H   0  0  0  0  0  0  0  0  0  0  0  0  # atno 8010 bound_to 7997
  140.5491  143.2312  151.6946 H   0  0  0  0  0  0  0  0  0  0  0  0  # atno 10167 bound_to 10162
  156.7688  130.5293  149.5771 H   0  0  0  0  0  0  0  0  0  0  0  0  # atno 10718 bound_to 10713
  153.2832  135.4165  155.1098 H   0  0  0  0  0  0  0  0  0  0  0  0  # atno 10763 bound_to 10752
  154.8496  135.3500  154.6083 H   0  0  0  0  0  0  0  0  0  0  0  0  # atno 10764 bound_to 10752
  153.6504  135.7053  153.5269 H   0  0  0  0  0  0  0  0  0  0  0  0  # atno 10765 bound_to 10752
  141.1571  133.7675  156.9699 H   0  0  0  0  0  0  0  0  0  0  0  0  # atno 11005 bound_to 11000
  144.7512  140.5196  143.6800 LP  0  0  0  0  0  0  0  0  0  0  0  0  # atno 17320 bound_to 7965
  145.5661  139.1481  143.3314 LP  0  0  0  0  0  0  0  0  0  0  0  0  # atno 17321 bound_to 7965
  139.5020  144.3847  152.0340 LP  0  0  0  0  0  0  0  0  0  0  0  0  # atno 17342 bound_to 10162
  140.2962  144.3698  150.6073 LP  0  0  0  0  0  0  0  0  0  0  0  0  # atno 17343 bound_to 10162
  156.1292  130.6165  151.0308 LP  0  0  0  0  0  0  0  0  0  0  0  0  # atno 17370 bound_to 10713
  157.6701  131.0863  150.7634 LP  0  0  0  0  0  0  0  0  0  0  0  0  # atno 17371 bound_to 10713
  140.1136  134.9461  157.2102 LP  0  0  0  0  0  0  0  0  0  0  0  0  # atno 17394 bound_to 11000
  140.3162  134.2968  155.7256 LP  0  0  0  0  0  0  0  0  0  0  0  0  # atno 17395 bound_to 11000

$$$$
