AV-unprocessed.smi:3164|AV-procd|sdf|12081|dock3
  -GOLD-   2272017513D 1   1.00000     0.00000
 Structure written by MMmdl.
 40 41  0  0  0  0  0  0  0  0  3 V2000
  150.5948  136.9030  155.2201 C   0  0  0  0  0  0  0  0  0  0  0  0
  149.6366  137.6733  154.3937 N   0  3  1  0  0  0  0  0  0  0  0  0
  148.2254  137.5228  154.8206 C   0  0  0  0  0  0  0  0  0  0  0  0
  147.9136  138.4022  156.0454 C   0  0  0  0  0  0  0  0  0  0  0  0
  148.2464  139.7554  155.7584 O   0  0  0  0  0  0  0  0  0  0  0  0
  149.6332  139.9306  155.4851 C   0  0  2  0  0  0  0  0  0  0  0  0
  149.8912  141.4298  155.2699 C   0  0  0  0  0  0  0  0  0  0  0  0
  149.7625  142.1874  156.5315 N   0  3  0  0  0  0  0  0  0  0  0  0
  151.0302  142.3370  157.2718 C   0  0  0  0  0  0  0  0  0  0  0  0
  150.8053  143.0372  158.6189 C   0  0  0  0  0  0  0  0  0  0  0  0
  151.8464  142.6424  159.6488 C   0  0  0  0  0  0  0  0  0  0  0  0
  152.9335  141.8140  159.2972 C   0  0  0  0  0  0  0  0  0  0  0  0
  153.8659  141.4723  160.2961 C   0  0  0  0  0  0  0  0  0  0  0  0
  153.6750  141.9685  161.6001 C   0  0  0  0  0  0  0  0  0  0  0  0
  152.5561  142.7880  161.8490 C   0  0  0  0  0  0  0  0  0  0  0  0
  151.6557  143.1209  160.8986 N   0  0  0  0  0  0  0  0  0  0  0  0
  149.9981  139.1027  154.2322 C   0  0  0  0  0  0  0  0  0  0  0  0
  150.6197  137.2543  156.2515 H   0  0  0  0  0  0  0  0  0  0  0  0
  151.6022  136.9820  154.8104 H   0  0  0  0  0  0  0  0  0  0  0  0
  150.3268  135.8460  155.2296 H   0  0  0  0  0  0  0  0  0  0  0  0
  147.5832  137.8217  153.9910 H   0  0  0  0  0  0  0  0  0  0  0  0
  147.9980  136.4758  155.0251 H   0  0  0  0  0  0  0  0  0  0  0  0
  146.8515  138.3452  156.2841 H   0  0  0  0  0  0  0  0  0  0  0  0
  148.4529  138.0598  156.9297 H   0  0  0  0  0  0  0  0  0  0  0  0
  150.2216  139.5908  156.3392 H   0  0  0  0  0  0  0  0  0  0  0  0
  150.8997  141.5762  154.8805 H   0  0  0  0  0  0  0  0  0  0  0  0
  149.1995  141.8307  154.5275 H   0  0  0  0  0  0  0  0  0  0  0  0
  149.4047  143.1083  156.3190 H   0  0  0  0  0  0  0  0  0  0  0  0
  151.4684  141.3507  157.4318 H   0  0  0  0  0  0  0  0  0  0  0  0
  151.7355  142.9100  156.6680 H   0  0  0  0  0  0  0  0  0  0  0  0
  150.8242  144.1198  158.4859 H   0  0  0  0  0  0  0  0  0  0  0  0
  149.8157  142.7928  159.0083 H   0  0  0  0  0  0  0  0  0  0  0  0
  153.0537  141.4471  158.2884 H   0  0  0  0  0  0  0  0  0  0  0  0
  154.7118  140.8413  160.0665 H   0  0  0  0  0  0  0  0  0  0  0  0
  154.3698  141.7274  162.3909 H   0  0  0  0  0  0  0  0  0  0  0  0
  152.3792  143.1857  162.8373 H   0  0  0  0  0  0  0  0  0  0  0  0
  151.0593  139.1968  153.9980 H   0  0  0  0  0  0  0  0  0  0  0  0
  149.4564  139.4923  153.3688 H   0  0  0  0  0  0  0  0  0  0  0  0
  149.1002  141.7131  157.1291 H   0  0  0  0  0  0  0  0  0  0  0  0
  149.6974  137.2607  153.4731 H   0  0  0  0  0  0  0  0  0  0  0  0
  1  2  1  0  0  0  0
  1 18  1  0  0  0  0
  1 19  1  0  0  0  0
  1 20  1  0  0  0  0
  2 17  1  0  0  0  0
  2  3  1  0  0  0  0
  2 40  1  0  0  0  0
  3  4  1  0  0  0  0
  3 21  1  0  0  0  0
  3 22  1  0  0  0  0
  4  5  1  0  0  0  0
  4 23  1  0  0  0  0
  4 24  1  0  0  0  0
  5  6  1  0  0  0  0
  6  7  1  0  0  0  0
  6 17  1  0  0  0  0
  6 25  1  0  0  0  0
  7  8  1  0  0  0  0
  7 26  1  0  0  0  0
  7 27  1  0  0  0  0
  8  9  1  0  0  0  0
  8 28  1  0  0  0  0
  8 39  1  0  0  0  0
  9 10  1  0  0  0  0
  9 29  1  0  0  0  0
  9 30  1  0  0  0  0
 10 11  1  0  0  0  0
 10 31  1  0  0  0  0
 10 32  1  0  0  0  0
 11 16  1  0  0  0  0
 11 12  2  0  0  0  0
 12 13  1  0  0  0  0
 12 33  1  0  0  0  0
 13 14  2  0  0  0  0
 13 34  1  0  0  0  0
 14 15  1  0  0  0  0
 14 35  1  0  0  0  0
 15 16  2  0  0  0  0
 15 36  1  0  0  0  0
 17 37  1  0  0  0  0
 17 38  1  0  0  0  0
M  CHG  1   2   1
M  CHG  1   8   1
M  END
> <s_m_source_file>
AV-unprocessed.smi

> <i_m_source_file_index>
3164

> <i_lp_mmshare_version>
43012

> <i_f3d_flags>
0

> <s_epik_input>
W0NIM11OMVtDSDJdW0NIMl1PW0NASF0oW0NIMl0xKVtDSDJdW05IXVtDSDJdW0NIMl1jMltjSF1bY0hdW2NIXVtjSF1uMg==

> <s_epik_cmdline>
J2VwaWtfcHl0aG9uJywgJy1waCcsICc3LjAnLCAnLXRuJywgJzgnLCAnLW1hJywgJzIwMCcsICctbWV0YWxfYmluZGluZycsICctaW1hZScsICc8aW5maWxlLm1hZT4nLCAnLW9tYWUnLCAnPG91dGZpbGUubWFlPic=

> <r_epik_Ionization_Penalty>
0.294944

> <r_epik_Ionization_Penalty_Charging>
0.29381

> <r_epik_Ionization_Penalty_Neutral>
0.00113372

> <r_epik_State_Penalty>
0.271365

> <r_epik_Charging_Adjusted_Penalty>
0.565175

> <i_epik_Tot_Q>
2

> <i_epik_Tot_abs_Q>
2

> <r_epik_Metal_State_Penalty>
0.271365

> <b_epik_Metal_Only>
0

> <s_lp_Force_Field>
OPLS_2005

> <r_lp_Energy>
22.4387

> <b_lp_Chiralities_Consistent>
1

> <s_lp_Variant>
AV-unprocessed.smi:3164-3

> <Gold.Version>
5.8.1

> <Gold.Id.Protein>
6NUR|6NUR_protein|mol2

> <Gold.PLP.Fitness>
45.5791

> <Gold.PLP.PLP>
-34.4714

> <Gold.PLP.part.hbond>
-2.7785

> <Gold.PLP.part.metal>
0.0000

> <Gold.PLP.part.buried>
-4.2756

> <Gold.PLP.part.nonpolar>
-28.0996

> <Gold.PLP.part.repulsive>
0.1641

> <Gold.PLP.ligand.clash>
0.0000

> <Gold.PLP.ligand.torsion>
0.4471

> <Gold.PLP.Chemscore.Hbond>
4.0000

> <Gold.PLP.Chemscore.CHOScore>
0.0000

> <Gold.PLP.Chemscore.Metal>
0.0000

> <Gold.Chemscore.Hbonds>
donor molecule, donor type, donor heavy atom, donor atom, acceptor molecule, acceptor atom, score
      L1  H     2    40       P1  7948  2.00
      L1  H     8    28       P1  8028  2.00

> <Gold.PLP.Chemscore.Internal.Correction>
0.0019

> <Gold.Rescore>
     Score         DG    S(hbond)    S(metal)    S(lipo)     H(rot)  DE(clash)    DE(int)     intcor
     18.67     -19.08       2.00        0.00      95.21       1.65       0.01       0.40       ----

> <Gold.Chemscore.Fitness>
18.6740

> <Gold.Chemscore.DG>
-19.0782

> <Gold.Chemscore.ZeroCoef>
-5.4800

> <Gold.Chemscore.Hbond>
1.9972

> <Gold.Chemscore.Metal>
0.0000

> <Gold.Chemscore.Lipo>
95.2116

> <Gold.Chemscore.Internal_Hbond>
0.0000

> <Gold.Chemscore.DEClash>
0.0089

> <Gold.Chemscore.DEInternal>
0.3953

> <Gold.Chemscore.Rot>
1.6454

> <Gold.Chemscore.Internal.Correction>
   9.000000E+99

> <Gold.Chemscore.Hbonds>
donor molecule, donor type, donor heavy atom, donor atom, acceptor molecule, acceptor atom, score
      L1  H     2    40       P1  7948  0.69
      L1  H     8    28       P1  8028  1.00

> <Gold.Chemscore.Hbond.Weighted>
-6.6707

> <Gold.Chemscore.Metal.Weighted>
-0.0000

> <Gold.Chemscore.Lipo.Weighted>
-11.1398

> <Gold.Chemscore.Internal_Hbond.Weighted>
0.0000

> <Gold.Chemscore.DEClash.Weighted>
0.0089

> <Gold.Chemscore.DEInternal.Weighted>
0.3953

> <Gold.Chemscore.Rot.Weighted>
4.2122

> <Gold.Chemscore.Internal.Correction.Weighted>
   9.000000E+99

> <Gold.Protein.RotatedTorsions>
[ 6907 6896 6895 6894 ] final   35.43 input  -60.11 | X-H torsion
[ 7974 7965 7964 7962 ] final  -14.51 input  175.53 | X-H torsion
[ 8008 7997 7996 7995 ] final  123.14 input   59.86 | X-H torsion
[ 10167 10162 10161 10158 ] final   47.25 input  -65.29 | X-H torsion
[ 10718 10713 10712 10709 ] final    1.36 input   66.30 | X-H torsion
[ 10763 10752 10751 10750 ] final  135.34 input  -60.55 | X-H torsion
[ 11005 11000 10999 10996 ] final -114.83 input  -57.11 | X-H torsion

> <Gold.Protein.ActiveResidues>
 VAL166  LYS551  ARG553  GLY616  TRP617  ASP618  TYR619  PRO620  LYS621  CYS622 
 ASP623  PHE694  ASN695  SER759  ASP760  ASP761  ALA762  ILE779  LEU786  VAL792 
 PHE793  MET794  SER795  GLU796  ALA797  LYS798  CYS799  TRP800  GLU811  SER814 

> <Gold.Protein.RotatedAtoms>
  152.1160  134.9240  160.0564 H   0  0  0  0  0  0  0  0  0  0  0  0  # atno 6907 bound_to 6896
  152.0400  133.3968  159.4341 H   0  0  0  0  0  0  0  0  0  0  0  0  # atno 6908 bound_to 6896
  150.6846  134.3347  159.4885 H   0  0  0  0  0  0  0  0  0  0  0  0  # atno 6909 bound_to 6896
  146.2071  140.3359  142.8403 H   0  0  0  0  0  0  0  0  0  0  0  0  # atno 7974 bound_to 7965
  156.2754  140.2770  156.1579 H   0  0  0  0  0  0  0  0  0  0  0  0  # atno 8008 bound_to 7997
  155.0784  140.0387  157.2649 H   0  0  0  0  0  0  0  0  0  0  0  0  # atno 8009 bound_to 7997
  154.6984  140.2644  155.6749 H   0  0  0  0  0  0  0  0  0  0  0  0  # atno 8010 bound_to 7997
  140.3056  144.2882  150.6210 H   0  0  0  0  0  0  0  0  0  0  0  0  # atno 10167 bound_to 10162
  156.8471  130.5541  149.5672 H   0  0  0  0  0  0  0  0  0  0  0  0  # atno 10718 bound_to 10713
  153.8384  135.3094  155.3424 H   0  0  0  0  0  0  0  0  0  0  0  0  # atno 10763 bound_to 10752
  154.7943  135.4764  154.0128 H   0  0  0  0  0  0  0  0  0  0  0  0  # atno 10764 bound_to 10752
  153.1591  135.6857  153.8861 H   0  0  0  0  0  0  0  0  0  0  0  0  # atno 10765 bound_to 10752
  141.0527  133.9662  157.2809 H   0  0  0  0  0  0  0  0  0  0  0  0  # atno 11005 bound_to 11000
  144.8819  140.7412  143.5981 LP  0  0  0  0  0  0  0  0  0  0  0  0  # atno 17320 bound_to 7965
  145.3279  139.1768  143.4552 LP  0  0  0  0  0  0  0  0  0  0  0  0  # atno 17321 bound_to 7965
  140.5613  143.2192  151.7760 LP  0  0  0  0  0  0  0  0  0  0  0  0  # atno 17342 bound_to 10162
  139.4905  144.4344  151.9835 LP  0  0  0  0  0  0  0  0  0  0  0  0  # atno 17343 bound_to 10162
  156.0848  130.5850  150.9629 LP  0  0  0  0  0  0  0  0  0  0  0  0  # atno 17370 bound_to 10713
  157.6324  131.0919  150.8416 LP  0  0  0  0  0  0  0  0  0  0  0  0  # atno 17371 bound_to 10713
  139.9364  135.0196  156.8568 LP  0  0  0  0  0  0  0  0  0  0  0  0  # atno 17394 bound_to 11000
  140.6025  134.0159  155.7543 LP  0  0  0  0  0  0  0  0  0  0  0  0  # atno 17395 bound_to 11000

$$$$
