#       Name:                AV-unprocessed.smi:2247
#       Creating user name   scv26
#       Creation time:       Fri Mar 27 12:29:06 2020


#       File generated by GOLD software.
#

@<TRIPOS>MOLECULE
AV-unprocessed.smi:2247
    41    42     1
SMALL
NO_CHARGES


@<TRIPOS>ATOM
      1 ****        -3.7725  -0.8445   0.6959 C.3            1 S1                 0.0000
      2 ****        -3.2692  -1.1076  -0.7322 C.3            1 S1                 0.0000
      3 ****        -3.9791  -2.3089  -1.3817 C.3            1 S1                 0.0000
      4 ****        -1.8067  -1.2461  -0.7402 N.am           1 S1                 0.0000
      5 ****        -1.1453  -2.5351  -0.6164 C.3            1 S1                 0.0000
      6 ****         0.3142  -2.1894  -0.3071 C.3            1 S1                 0.0000
      7 ****         0.5165  -0.7459  -0.7950 C.3            1 S1                 0.0000
      8 ****         1.3318  -0.0007   0.1624 N.am           1 S1                 0.0000
      9 ****         2.0577   1.0896  -0.1260 C.2            1 S1                 0.0000
     10 ****         2.1354   1.5764  -1.2543 O.2            1 S1                 0.0000
     11 ****         2.6746   1.5673   0.9677 N.am           1 S1                 0.0000
     12 ****         3.5171   2.7038   1.0568 C.2            1 S1                 0.0000
     13 ****         3.8626   3.5181   0.0583 N.2            1 S1                 0.0000
     14 ****         4.6877   4.4645   0.6487 C.2            1 S1                 0.0000
     15 ****         4.7961   4.1651   1.9825 C.2            1 S1                 0.0000
     16 ****         4.0561   3.0463   2.2568 O.3            1 S1                 0.0000
     17 ****        -0.9261  -0.2381  -0.8111 C.2            1 S1                 0.0000
     18 ****        -1.2114   0.9567  -0.8939 O.2            1 S1                 0.0000
     19 ****        -4.8519  -0.6911   0.7088 H              1 S1                 0.0000
     20 ****        -3.3099   0.0467   1.1215 H              1 S1                 0.0000
     21 ****        -3.5481  -1.6836   1.3554 H              1 S1                 0.0000
     22 ****        -3.5239  -0.2352  -1.3368 H              1 S1                 0.0000
     23 ****        -5.0533  -2.1343  -1.4468 H              1 S1                 0.0000
     24 ****        -3.8339  -3.2256  -0.8097 H              1 S1                 0.0000
     25 ****        -3.6148  -2.4810  -2.3950 H              1 S1                 0.0000
     26 ****        -1.5882  -3.1477   0.1699 H              1 S1                 0.0000
     27 ****        -1.2217  -3.0746  -1.5615 H              1 S1                 0.0000
     28 ****         0.4740  -2.2601   0.7706 H              1 S1                 0.0000
     29 ****         1.0081  -2.8841  -0.7814 H              1 S1                 0.0000
     30 ****         0.9275  -0.7245  -1.8059 H              1 S1                 0.0000
     31 ****         1.3242  -0.3289   1.1167 H              1 S1                 0.0000
     32 ****         2.5221   1.0684   1.8313 H              1 S1                 0.0000
     33 ****         5.1285   5.2693   0.0793 H              1 S1                 0.0000
     34 ****         5.3215   4.6152   2.8116 H              1 S1                 0.0000
     35 ****         1.6408   1.1564  -2.0152 LP             1 S1                 0.0000
     36 ****         2.6931   2.3917  -1.4097 LP             1 S1                 0.0000
     37 ****         3.5882   3.4595  -0.9015 LP             1 S1                 0.0000
     38 ****         4.6383   2.3125   2.6071 LP             1 S1                 0.0000
     39 ****         3.3388   3.2495   2.9233 LP             1 S1                 0.0000
     40 ****        -2.1697   1.2418  -0.9128 LP             1 S1                 0.0000
     41 ****        -0.4848   1.6421  -0.9422 LP             1 S1                 0.0000
@<TRIPOS>BOND
    1    1    2 1     
    2    1   19 1     
    3    1   20 1     
    4    1   21 1     
    5    2    3 1     
    6    2    4 1     
    7    2   22 1     
    8    3   23 1     
    9    3   24 1     
   10    3   25 1     
   11    4   17 am    
   12    4    5 1     
   13    5    6 1     
   14    5   26 1     
   15    5   27 1     
   16    6    7 1     
   17    6   28 1     
   18    6   29 1     
   19    7    8 1     
   20    7   17 1     
   21    7   30 1     
   22    8    9 am    
   23    8   31 1     
   24    9   10 2     
   25    9   11 am    
   26   11   12 1     
   27   11   32 1     
   28   12   16 1     
   29   12   13 2     
   30   13   14 1     
   31   14   15 2     
   32   14   33 1     
   33   15   16 1     
   34   15   34 1     
   35   17   18 2     
   36   10   35 1     
   37   10   36 1     
   38   13   37 1     
   39   16   38 1     
   40   16   39 1     
   41   18   40 1     
   42   18   41 1     
@<TRIPOS>SUBSTRUCTURE
      1 S1             1
@<TRIPOS>SET
LONE_PAIRS      STATIC     ATOMS    <user>   **** ""
7 35 36 37 38 39 40 41
DONOR_HYDROGENS      STATIC     ATOMS    <user>   **** ""
2 31 32
ATOM$BLUE        STATIC     ATOMS    COLORGROUP SYSTEM
7 35 36 37 38 39 40 41
ATOM$RED        STATIC     ATOMS    COLORGROUP SYSTEM
2 31 32
