AV-unprocessed.smi:2066|AV-procd|sdf|8419|dock2
  -GOLD-   2272011113D 1   1.00000     0.00000
 Structure written by MMmdl.
 39 40  0  0  0  0  0  0  0  0  1 V2000
  149.6239  136.0938  157.1702 C   0  0  0  0  0  0  0  0  0  0  0  0
  149.4363  136.0936  155.6339 C   0  0  0  0  0  0  0  0  0  0  0  0
  150.0965  134.7979  155.0973 C   0  0  0  0  0  0  0  0  0  0  0  0
  147.9082  135.9638  155.3587 C   0  0  0  0  0  0  0  0  0  0  0  0
  147.6067  135.5821  153.9788 N   0  0  0  0  0  0  0  0  0  0  0  0
  146.5731  134.8260  153.5827 C   0  0  0  0  0  0  0  0  0  0  0  0
  145.7241  134.3754  154.3526 O   0  0  0  0  0  0  0  0  0  0  0  0
  146.6000  134.6267  152.2534 N   0  0  0  0  0  0  0  0  0  0  0  0
  145.7012  133.8645  151.4621 C   0  0  0  0  0  0  0  0  0  0  0  0
  144.3685  133.9159  151.5722 N   0  0  0  0  0  0  0  0  0  0  0  0
  143.7341  133.0582  150.6702 C   0  0  0  0  0  0  0  0  0  0  0  0
  144.6055  132.3560  149.8754 C   0  0  0  0  0  0  0  0  0  0  0  0
  146.2674  132.7474  150.2290 S   0  0  0  0  0  0  0  0  0  0  0  0
  150.0128  137.2998  154.9756 N   0  0  0  0  0  0  0  0  0  0  0  0
  151.4420  137.5184  155.2264 C   0  0  0  0  0  0  0  0  0  0  0  0
  151.9960  138.7031  154.4167 C   0  0  0  0  0  0  0  0  0  0  0  0
  151.2511  139.8779  154.7136 O   0  0  0  0  0  0  0  0  0  0  0  0
  149.8655  139.7276  154.4301 C   0  0  0  0  0  0  0  0  0  0  0  0
  149.2951  138.5521  155.2417 C   0  0  0  0  0  0  0  0  0  0  0  0
  149.2023  135.1912  157.6144 H   0  0  0  0  0  0  0  0  0  0  0  0
  149.1266  136.9387  157.6461 H   0  0  0  0  0  0  0  0  0  0  0  0
  150.6746  136.1220  157.4579 H   0  0  0  0  0  0  0  0  0  0  0  0
  149.5568  133.9084  155.4246 H   0  0  0  0  0  0  0  0  0  0  0  0
  151.1205  134.6784  155.4511 H   0  0  0  0  0  0  0  0  0  0  0  0
  150.1220  134.7795  154.0074 H   0  0  0  0  0  0  0  0  0  0  0  0
  147.4557  135.2572  156.0568 H   0  0  0  0  0  0  0  0  0  0  0  0
  147.3959  136.9042  155.5600 H   0  0  0  0  0  0  0  0  0  0  0  0
  148.2557  135.9006  153.2745 H   0  0  0  0  0  0  0  0  0  0  0  0
  147.3596  135.0603  151.7499 H   0  0  0  0  0  0  0  0  0  0  0  0
  142.6550  133.0102  150.6620 H   0  0  0  0  0  0  0  0  0  0  0  0
  144.3707  131.6350  149.1065 H   0  0  0  0  0  0  0  0  0  0  0  0
  151.6146  137.7056  156.2862 H   0  0  0  0  0  0  0  0  0  0  0  0
  152.0232  136.6371  154.9613 H   0  0  0  0  0  0  0  0  0  0  0  0
  153.0437  138.8738  154.6642 H   0  0  0  0  0  0  0  0  0  0  0  0
  151.9493  138.4944  153.3466 H   0  0  0  0  0  0  0  0  0  0  0  0
  149.3474  140.6518  154.6862 H   0  0  0  0  0  0  0  0  0  0  0  0
  149.7202  139.5647  153.3609 H   0  0  0  0  0  0  0  0  0  0  0  0
  148.2398  138.4584  154.9922 H   0  0  0  0  0  0  0  0  0  0  0  0
  149.3491  138.7996  156.3020 H   0  0  0  0  0  0  0  0  0  0  0  0
  1  2  1  0  0  0  0
  1 20  1  0  0  0  0
  1 21  1  0  0  0  0
  1 22  1  0  0  0  0
  2  3  1  0  0  0  0
  2  4  1  0  0  0  0
  2 14  1  0  0  0  0
  3 23  1  0  0  0  0
  3 24  1  0  0  0  0
  3 25  1  0  0  0  0
  4  5  1  0  0  0  0
  4 26  1  0  0  0  0
  4 27  1  0  0  0  0
  5  6  1  0  0  0  0
  5 28  1  0  0  0  0
  6  7  2  0  0  0  0
  6  8  1  0  0  0  0
  8  9  1  0  0  0  0
  8 29  1  0  0  0  0
  9 13  1  0  0  0  0
  9 10  2  0  0  0  0
 10 11  1  0  0  0  0
 11 12  2  0  0  0  0
 11 30  1  0  0  0  0
 12 13  1  0  0  0  0
 12 31  1  0  0  0  0
 14 19  1  0  0  0  0
 14 15  1  0  0  0  0
 15 16  1  0  0  0  0
 15 32  1  0  0  0  0
 15 33  1  0  0  0  0
 16 17  1  0  0  0  0
 16 34  1  0  0  0  0
 16 35  1  0  0  0  0
 17 18  1  0  0  0  0
 18 19  1  0  0  0  0
 18 36  1  0  0  0  0
 18 37  1  0  0  0  0
 19 38  1  0  0  0  0
 19 39  1  0  0  0  0
M  END
> <s_m_source_file>
AV-unprocessed.smi

> <i_m_source_file_index>
2066

> <i_lp_mmshare_version>
43012

> <i_f3d_flags>
0

> <s_epik_input>
W0NIMl0xW0NIMl1PW0NIMl1bQ0gyXU4xQyhbQ0gzXSkoW0NIM10pW0NIMl1bTkhdQyg9TylbTkhdYzJuW2NIXVtjSF1zMg==

> <s_epik_cmdline>
J2VwaWtfcHl0aG9uJywgJy1waCcsICc3LjAnLCAnLXRuJywgJzgnLCAnLW1hJywgJzIwMCcsICctbWV0YWxfYmluZGluZycsICctaW1hZScsICc8aW5maWxlLm1hZT4nLCAnLW9tYWUnLCAnPG91dGZpbGUubWFlPic=

> <r_lp_tautomer_probability>
0.999

> <r_epik_Ionization_Penalty>
0.219202

> <r_epik_Ionization_Penalty_Charging>
0

> <r_epik_Ionization_Penalty_Neutral>
0.219202

> <r_epik_State_Penalty>
0.209349

> <r_epik_Charging_Adjusted_Penalty>
0.209349

> <i_epik_Tot_Q>
0

> <i_epik_Tot_abs_Q>
0

> <r_epik_Metal_State_Penalty>
0.2479

> <b_epik_Metal_Only>
0

> <s_lp_Force_Field>
OPLS_2005

> <r_lp_Energy>
39.7757

> <b_lp_Chiralities_Consistent>
1

> <s_lp_Variant>
AV-unprocessed.smi:2066-1

> <Gold.Version>
5.8.1

> <Gold.Id.Protein>
6NUR|6NUR_protein|mol2

> <Gold.PLP.Fitness>
39.3406

> <Gold.PLP.PLP>
-28.9089

> <Gold.PLP.part.hbond>
-3.0000

> <Gold.PLP.part.metal>
0.0000

> <Gold.PLP.part.buried>
-4.2649

> <Gold.PLP.part.nonpolar>
-20.9671

> <Gold.PLP.part.repulsive>
0.4377

> <Gold.PLP.ligand.clash>
0.0000

> <Gold.PLP.ligand.torsion>
0.7615

> <Gold.PLP.Chemscore.Hbond>
2.9600

> <Gold.PLP.Chemscore.CHOScore>
0.9955

> <Gold.PLP.Chemscore.Metal>
0.0000

> <Gold.Chemscore.Hbonds>
donor molecule, donor type, donor heavy atom, donor atom, acceptor molecule, acceptor atom, score
      L1  H     5    28       P1  7948  1.00
      L1  H     8    29       P1  7948  0.96
      P1  H  7989  7998       L1    17  0.95
      L1  C    11    30       P1 10186  1.00

> <Gold.PLP.Chemscore.Internal.Correction>
0.0881

> <Gold.Rescore>
     Score         DG    S(hbond)    S(metal)    S(lipo)     H(rot)  DE(clash)    DE(int)     intcor
     14.81     -15.56       1.93        0.00      65.75       1.58       0.00       0.75       ----

> <Gold.Chemscore.Fitness>
14.8085

> <Gold.Chemscore.DG>
-15.5573

> <Gold.Chemscore.ZeroCoef>
-5.4800

> <Gold.Chemscore.Hbond>
1.9255

> <Gold.Chemscore.Metal>
0.0000

> <Gold.Chemscore.Lipo>
65.7497

> <Gold.Chemscore.Internal_Hbond>
0.0000

> <Gold.Chemscore.DEClash>
0.0033

> <Gold.Chemscore.DEInternal>
0.7456

> <Gold.Chemscore.Rot>
1.5807

> <Gold.Chemscore.Internal.Correction>
   9.000000E+99

> <Gold.Chemscore.Hbonds>
donor molecule, donor type, donor heavy atom, donor atom, acceptor molecule, acceptor atom, score
      L1  H     5    28       P1  7948  0.98
      L1  H     8    29       P1  7948  0.81
      P1  H  7989  7998       L1    17  0.08

> <Gold.Chemscore.Hbond.Weighted>
-6.4312

> <Gold.Chemscore.Metal.Weighted>
-0.0000

> <Gold.Chemscore.Lipo.Weighted>
-7.6927

> <Gold.Chemscore.Internal_Hbond.Weighted>
0.0000

> <Gold.Chemscore.DEClash.Weighted>
0.0033

> <Gold.Chemscore.DEInternal.Weighted>
0.7456

> <Gold.Chemscore.Rot.Weighted>
4.0466

> <Gold.Chemscore.Internal.Correction.Weighted>
   9.000000E+99

> <Gold.Protein.RotatedTorsions>
[ 6907 6896 6895 6894 ] final    4.30 input  -60.11 | X-H torsion
[ 7974 7965 7964 7962 ] final   25.33 input  175.53 | X-H torsion
[ 8008 7997 7996 7995 ] final   -5.42 input   59.86 | X-H torsion
[ 10167 10162 10161 10158 ] final  111.03 input  -65.29 | X-H torsion
[ 10718 10713 10712 10709 ] final -105.48 input   66.30 | X-H torsion
[ 10763 10752 10751 10750 ] final  -48.85 input  -60.55 | X-H torsion
[ 11005 11000 10999 10996 ] final   62.22 input  -57.11 | X-H torsion

> <Gold.Protein.ActiveResidues>
 VAL166  LYS551  ARG553  GLY616  TRP617  ASP618  TYR619  PRO620  LYS621  CYS622 
 ASP623  PHE694  ASN695  SER759  ASP760  ASP761  ALA762  ILE779  LEU786  VAL792 
 PHE793  MET794  SER795  GLU796  ALA797  LYS798  CYS799  TRP800  GLU811  SER814 

> <Gold.Protein.RotatedAtoms>
  151.6390  135.1015  160.0137 H   0  0  0  0  0  0  0  0  0  0  0  0  # atno 6907 bound_to 6896
  152.4064  133.6892  159.6369 H   0  0  0  0  0  0  0  0  0  0  0  0  # atno 6908 bound_to 6896
  150.7958  133.8618  159.3275 H   0  0  0  0  0  0  0  0  0  0  0  0  # atno 6909 bound_to 6896
  146.1894  139.7481  142.8843 H   0  0  0  0  0  0  0  0  0  0  0  0  # atno 7974 bound_to 7965
  154.6041  140.2459  155.7754 H   0  0  0  0  0  0  0  0  0  0  0  0  # atno 8008 bound_to 7997
  156.2329  140.2960  156.0188 H   0  0  0  0  0  0  0  0  0  0  0  0  # atno 8009 bound_to 7997
  155.2162  140.0399  157.2931 H   0  0  0  0  0  0  0  0  0  0  0  0  # atno 8010 bound_to 7997
  139.6642  144.7128  151.1807 H   0  0  0  0  0  0  0  0  0  0  0  0  # atno 10167 bound_to 10162
  156.0348  130.5566  150.7545 H   0  0  0  0  0  0  0  0  0  0  0  0  # atno 10718 bound_to 10713
  154.0846  135.6586  153.4843 H   0  0  0  0  0  0  0  0  0  0  0  0  # atno 10763 bound_to 10752
  153.0343  135.5188  154.7441 H   0  0  0  0  0  0  0  0  0  0  0  0  # atno 10764 bound_to 10752
  154.6546  135.3006  154.9912 H   0  0  0  0  0  0  0  0  0  0  0  0  # atno 10765 bound_to 10752
  140.0107  134.6301  155.9785 H   0  0  0  0  0  0  0  0  0  0  0  0  # atno 11005 bound_to 11000
  145.3840  141.0362  143.3161 LP  0  0  0  0  0  0  0  0  0  0  0  0  # atno 17320 bound_to 7965
  144.8457  139.5400  143.6879 LP  0  0  0  0  0  0  0  0  0  0  0  0  # atno 17321 bound_to 7965
  140.7593  143.5945  150.8762 LP  0  0  0  0  0  0  0  0  0  0  0  0  # atno 17342 bound_to 10162
  139.9605  143.6169  152.3003 LP  0  0  0  0  0  0  0  0  0  0  0  0  # atno 17343 bound_to 10162
  157.5081  131.0923  151.0232 LP  0  0  0  0  0  0  0  0  0  0  0  0  # atno 17370 bound_to 10713
  157.0595  130.5820  149.5383 LP  0  0  0  0  0  0  0  0  0  0  0  0  # atno 17371 bound_to 10713
  141.1709  133.6537  156.4647 LP  0  0  0  0  0  0  0  0  0  0  0  0  # atno 17394 bound_to 11000
  140.4560  134.6885  157.5062 LP  0  0  0  0  0  0  0  0  0  0  0  0  # atno 17395 bound_to 11000

$$$$
