AV-unprocessed.smi:1901|AV-procd|sdf|7718|dock5
  -GOLD-   22720 9463D 1   1.00000     0.00000
 Structure written by MMmdl.
 27 28  0  0  0  0  0  0  0  0  2 V2000
  151.2449  139.9864  158.9091 O   0  0  0  0  0  0  0  0  0  0  0  0
  152.3542  140.0135  158.3719 C   0  0  0  0  0  0  0  0  0  0  0  0
  153.3330  140.7427  158.9244 N   0  0  0  0  0  0  0  0  0  0  0  0
  153.2089  141.5320  160.1438 C   0  0  0  0  0  0  0  0  0  0  0  0
  152.4043  142.8171  159.8886 C   0  0  2  0  0  0  0  0  0  0  0  0
  152.9676  143.7142  158.8037 C   0  0  0  0  0  0  0  0  0  0  0  0
  152.2949  145.0473  159.1173 C   0  0  0  0  0  0  0  0  0  0  0  0
  152.0991  145.0641  160.5288 O   0  0  0  0  0  0  0  0  0  0  0  0
  152.3759  143.7782  161.0764 C   0  0  0  0  0  0  0  0  0  0  0  0
  152.7406  139.3730  157.2389 N   0  5  0  0  0  0  0  0  0  0  0  0
  151.9615  139.1624  156.1547 C   0  0  0  0  0  0  0  0  0  0  0  0
  151.8775  138.0360  155.4275 N   0  0  0  0  0  0  0  0  0  0  0  0
  150.9817  138.1124  154.3610 C   0  0  0  0  0  0  0  0  0  0  0  0
  150.3596  139.3273  154.2648 C   0  0  0  0  0  0  0  0  0  0  0  0
  150.8880  140.4122  155.5179 S   0  0  0  0  0  0  0  0  0  0  0  0
  154.2304  140.7464  158.4624 H   0  0  0  0  0  0  0  0  0  0  0  0
  152.7148  140.9328  160.9098 H   0  0  0  0  0  0  0  0  0  0  0  0
  154.2038  141.7758  160.5200 H   0  0  0  0  0  0  0  0  0  0  0  0
  151.3767  142.5566  159.6283 H   0  0  0  0  0  0  0  0  0  0  0  0
  154.0496  143.8062  158.9099 H   0  0  0  0  0  0  0  0  0  0  0  0
  152.7527  143.3588  157.7956 H   0  0  0  0  0  0  0  0  0  0  0  0
  152.8872  145.9006  158.7864 H   0  0  0  0  0  0  0  0  0  0  0  0
  151.3195  145.1035  158.6328 H   0  0  0  0  0  0  0  0  0  0  0  0
  151.6346  143.4958  161.8242 H   0  0  0  0  0  0  0  0  0  0  0  0
  153.3503  143.8175  161.5653 H   0  0  0  0  0  0  0  0  0  0  0  0
  150.8493  137.2528  153.7212 H   0  0  0  0  0  0  0  0  0  0  0  0
  149.6281  139.6496  153.5394 H   0  0  0  0  0  0  0  0  0  0  0  0
  1  2  2  0  0  0  0
  2  3  1  0  0  0  0
  2 10  1  0  0  0  0
  3  4  1  0  0  0  0
  3 16  1  0  0  0  0
  4  5  1  0  0  0  0
  4 17  1  0  0  0  0
  4 18  1  0  0  0  0
  5  9  1  0  0  0  0
  5  6  1  0  0  0  0
  5 19  1  0  0  0  0
  6  7  1  0  0  0  0
  6 20  1  0  0  0  0
  6 21  1  0  0  0  0
  7  8  1  0  0  0  0
  7 22  1  0  0  0  0
  7 23  1  0  0  0  0
  8  9  1  0  0  0  0
  9 24  1  0  0  0  0
  9 25  1  0  0  0  0
 10 11  1  0  0  0  0
 11 15  1  0  0  0  0
 11 12  2  0  0  0  0
 12 13  1  0  0  0  0
 13 14  2  0  0  0  0
 13 26  1  0  0  0  0
 14 15  1  0  0  0  0
 14 27  1  0  0  0  0
M  CHG  1  10  -1
M  END
> <s_m_source_file>
AV-unprocessed.smi

> <i_m_source_file_index>
1901

> <i_lp_mmshare_version>
43012

> <i_f3d_flags>
0

> <s_epik_input>
czFbY0hdW2NIXW5jMVtOSF1DKD1PKVtOSF1bQ0gyXVtDQEBIXTJbQ0gyXVtDSDJdT1tDSDJdMg==

> <s_epik_cmdline>
J2VwaWtfcHl0aG9uJywgJy1waCcsICc3LjAnLCAnLXRuJywgJzgnLCAnLW1hJywgJzIwMCcsICctbWV0YWxfYmluZGluZycsICctaW1hZScsICc8aW5maWxlLm1hZT4nLCAnLW9tYWUnLCAnPG91dGZpbGUubWFlPic=

> <r_lp_tautomer_probability>
0.999

> <r_epik_Ionization_Penalty>
8.4411

> <r_epik_Ionization_Penalty_Charging>
6.72681

> <r_epik_Ionization_Penalty_Neutral>
1.71429

> <r_epik_State_Penalty>
6.72698

> <r_epik_Charging_Adjusted_Penalty>
13.4538

> <i_epik_Tot_Q>
-1

> <i_epik_Tot_abs_Q>
1

> <r_epik_Metal_State_Penalty>
2.64812

> <b_epik_Metal_Only>
1

> <s_lp_Force_Field>
OPLS_2005

> <r_lp_Energy>
18.4833

> <b_lp_Chiralities_Consistent>
1

> <s_lp_Variant>
AV-unprocessed.smi:1901-3

> <Gold.Version>
5.8.1

> <Gold.Id.Protein>
6NUR|6NUR_protein|mol2

> <Gold.PLP.Fitness>
46.1153

> <Gold.PLP.PLP>
-35.2663

> <Gold.PLP.part.hbond>
-1.0000

> <Gold.PLP.part.metal>
0.0000

> <Gold.PLP.part.buried>
-3.3109

> <Gold.PLP.part.nonpolar>
-31.2170

> <Gold.PLP.part.repulsive>
0.3488

> <Gold.PLP.ligand.clash>
0.0000

> <Gold.PLP.ligand.torsion>
0.6973

> <Gold.PLP.Chemscore.Hbond>
2.0000

> <Gold.PLP.Chemscore.CHOScore>
2.0790

> <Gold.PLP.Chemscore.Metal>
0.0000

> <Gold.Chemscore.Hbonds>
donor molecule, donor type, donor heavy atom, donor atom, acceptor molecule, acceptor atom, score
      P1  H  7997  8008       L1    10  2.00
      L1  C    13    26       P1  7948  0.15
      L1  C    13    26       P1  7949  0.80
      L1  C    14    27       P1  7957  1.00

> <Gold.PLP.Chemscore.Internal.Correction>
0.0064

> <Gold.Rescore>
     Score         DG    S(hbond)    S(metal)    S(lipo)     H(rot)  DE(clash)    DE(int)     intcor
     13.29     -14.15       0.80        0.00      79.69       1.30       0.12       0.73       ----

> <Gold.Chemscore.Fitness>
13.2939

> <Gold.Chemscore.DG>
-14.1455

> <Gold.Chemscore.ZeroCoef>
-5.4800

> <Gold.Chemscore.Hbond>
0.7992

> <Gold.Chemscore.Metal>
0.0000

> <Gold.Chemscore.Lipo>
79.6928

> <Gold.Chemscore.Internal_Hbond>
0.0000

> <Gold.Chemscore.DEClash>
0.1245

> <Gold.Chemscore.DEInternal>
0.7271

> <Gold.Chemscore.Rot>
1.3000

> <Gold.Chemscore.Internal.Correction>
   9.000000E+99

> <Gold.Chemscore.Hbonds>
donor molecule, donor type, donor heavy atom, donor atom, acceptor molecule, acceptor atom, score
      P1  H  7997  8008       L1    10  0.37

> <Gold.Chemscore.Hbond.Weighted>
-2.6695

> <Gold.Chemscore.Metal.Weighted>
-0.0000

> <Gold.Chemscore.Lipo.Weighted>
-9.3241

> <Gold.Chemscore.Internal_Hbond.Weighted>
0.0000

> <Gold.Chemscore.DEClash.Weighted>
0.1245

> <Gold.Chemscore.DEInternal.Weighted>
0.7271

> <Gold.Chemscore.Rot.Weighted>
3.3280

> <Gold.Chemscore.Internal.Correction.Weighted>
   9.000000E+99

> <Gold.Protein.RotatedTorsions>
[ 6907 6896 6895 6894 ] final  111.02 input  -60.11 | X-H torsion
[ 7974 7965 7964 7962 ] final   99.64 input  175.53 | X-H torsion
[ 8008 7997 7996 7995 ] final  -52.15 input   59.86 | X-H torsion
[ 10167 10162 10161 10158 ] final   35.39 input  -65.29 | X-H torsion
[ 10718 10713 10712 10709 ] final  -29.29 input   66.30 | X-H torsion
[ 10763 10752 10751 10750 ] final   90.16 input  -60.55 | X-H torsion
[ 11005 11000 10999 10996 ] final  -57.27 input  -57.11 | X-H torsion

> <Gold.Protein.ActiveResidues>
 VAL166  LYS551  ARG553  GLY616  TRP617  ASP618  TYR619  PRO620  LYS621  CYS622 
 ASP623  PHE694  ASN695  SER759  ASP760  ASP761  ALA762  ILE779  LEU786  VAL792 
 PHE793  MET794  SER795  GLU796  ALA797  LYS798  CYS799  TRP800  GLU811  SER814 

> <Gold.Protein.RotatedAtoms>
  152.4990  133.8717  159.7301 H   0  0  0  0  0  0  0  0  0  0  0  0  # atno 6907 bound_to 6896
  150.9202  133.6881  159.2840 H   0  0  0  0  0  0  0  0  0  0  0  0  # atno 6908 bound_to 6896
  151.4261  135.1008  159.9681 H   0  0  0  0  0  0  0  0  0  0  0  0  # atno 6909 bound_to 6896
  145.3962  139.2355  143.3325 H   0  0  0  0  0  0  0  0  0  0  0  0  # atno 7974 bound_to 7965
  154.4100  140.1230  156.4945 H   0  0  0  0  0  0  0  0  0  0  0  0  # atno 8008 bound_to 7997
  155.6956  140.3495  155.4892 H   0  0  0  0  0  0  0  0  0  0  0  0  # atno 8009 bound_to 7997
  155.9430  140.1090  157.1030 H   0  0  0  0  0  0  0  0  0  0  0  0  # atno 8010 bound_to 7997
  140.4226  144.1438  150.6149 H   0  0  0  0  0  0  0  0  0  0  0  0  # atno 10167 bound_to 10162
  156.4143  130.4414  149.7229 H   0  0  0  0  0  0  0  0  0  0  0  0  # atno 10718 bound_to 10713
  153.1946  135.4444  155.0192 H   0  0  0  0  0  0  0  0  0  0  0  0  # atno 10763 bound_to 10752
  154.8111  135.3295  154.7305 H   0  0  0  0  0  0  0  0  0  0  0  0  # atno 10764 bound_to 10752
  153.7756  135.6981  153.4953 H   0  0  0  0  0  0  0  0  0  0  0  0  # atno 10765 bound_to 10752
  141.1157  133.6610  156.4744 H   0  0  0  0  0  0  0  0  0  0  0  0  # atno 11005 bound_to 11000
  146.2774  140.4653  142.8790 LP  0  0  0  0  0  0  0  0  0  0  0  0  # atno 17320 bound_to 7965
  144.8406  140.6850  143.6232 LP  0  0  0  0  0  0  0  0  0  0  0  0  # atno 17321 bound_to 7965
  140.4517  143.2484  151.9339 LP  0  0  0  0  0  0  0  0  0  0  0  0  # atno 17342 bound_to 10162
  139.4783  144.5556  151.8319 LP  0  0  0  0  0  0  0  0  0  0  0  0  # atno 17343 bound_to 10162
  156.4195  130.7762  151.2778 LP  0  0  0  0  0  0  0  0  0  0  0  0  # atno 17370 bound_to 10713
  157.7507  131.0187  150.3637 LP  0  0  0  0  0  0  0  0  0  0  0  0  # atno 17371 bound_to 10713
  140.4652  134.6804  157.5104 LP  0  0  0  0  0  0  0  0  0  0  0  0  # atno 17394 bound_to 11000
  140.0078  134.6737  155.9428 LP  0  0  0  0  0  0  0  0  0  0  0  0  # atno 17395 bound_to 11000

$$$$
