AV-unprocessed.smi:688|AV-procd|sdf|3355|dock8
  -GOLD-   22720 0333D 1   1.00000     0.00000
 Structure written by MMmdl.
 36 37  0  0  0  0  0  0  0  0  1 V2000
  152.4323  136.9523  159.0882 O   0  0  0  0  0  0  0  0  0  0  0  0
  151.9325  137.4219  158.0680 C   0  0  0  0  0  0  0  0  0  0  0  0
  152.7136  138.1928  157.2015 N   0  0  0  0  0  0  0  0  0  0  0  0
  152.2718  138.7816  156.0164 C   0  0  0  0  0  0  0  0  0  0  0  0
  153.0519  139.4435  155.3319 O   0  0  0  0  0  0  0  0  0  0  0  0
  150.9172  138.5750  155.6686 N   0  0  0  0  0  0  0  0  0  0  0  0
  150.4336  139.1845  154.4519 C   0  0  0  0  0  0  0  0  0  0  0  0
  150.2934  140.7220  154.5255 C   0  0  1  0  0  0  0  0  0  0  0  0
  149.4191  141.1100  153.4861 O   0  0  0  0  0  0  0  0  0  0  0  0
  149.7062  141.2235  155.8569 C   0  0  0  0  0  0  0  0  0  0  0  0
  150.7512  141.3193  156.8105 O   0  0  0  0  0  0  0  0  0  0  0  0
  151.0808  142.6596  157.1345 C   0  0  0  0  0  0  0  0  0  0  0  0
  151.6495  142.7642  158.5352 C   0  0  0  0  0  0  0  0  0  0  0  0
  151.5370  143.9754  159.2490 C   0  0  0  0  0  0  0  0  0  0  0  0
  152.0673  144.0830  160.5493 C   0  0  0  0  0  0  0  0  0  0  0  0
  152.7132  142.9796  161.1402 C   0  0  0  0  0  0  0  0  0  0  0  0
  153.3620  143.1108  162.7337 Cl  0  0  0  0  0  0  0  0  0  0  0  0
  152.8303  141.7693  160.4290 C   0  0  0  0  0  0  0  0  0  0  0  0
  152.3014  141.6622  159.1278 C   0  0  0  0  0  0  0  0  0  0  0  0
  150.1049  137.8175  156.4992 C   0  0  0  0  0  0  0  0  0  0  0  0
  150.5420  137.2501  157.6494 C   0  0  0  0  0  0  0  0  0  0  0  0
  149.4663  136.3237  158.6336 Cl  0  0  0  0  0  0  0  0  0  0  0  0
  153.6805  138.3353  157.4548 H   0  0  0  0  0  0  0  0  0  0  0  0
  151.1083  138.8682  153.6527 H   0  0  0  0  0  0  0  0  0  0  0  0
  149.4719  138.7163  154.2353 H   0  0  0  0  0  0  0  0  0  0  0  0
  151.2624  141.1904  154.3507 H   0  0  0  0  0  0  0  0  0  0  0  0
  149.3628  140.4002  152.8645 H   0  0  0  0  0  0  0  0  0  0  0  0
  149.1941  142.1785  155.7260 H   0  0  0  0  0  0  0  0  0  0  0  0
  148.9719  140.5136  156.2383 H   0  0  0  0  0  0  0  0  0  0  0  0
  151.8000  143.0491  156.4120 H   0  0  0  0  0  0  0  0  0  0  0  0
  150.1911  143.2885  157.0763 H   0  0  0  0  0  0  0  0  0  0  0  0
  151.0420  144.8242  158.7999 H   0  0  0  0  0  0  0  0  0  0  0  0
  151.9777  145.0127  161.0917 H   0  0  0  0  0  0  0  0  0  0  0  0
  153.3259  140.9219  160.8797 H   0  0  0  0  0  0  0  0  0  0  0  0
  152.3969  140.7307  158.5892 H   0  0  0  0  0  0  0  0  0  0  0  0
  149.0699  137.6736  156.2233 H   0  0  0  0  0  0  0  0  0  0  0  0
  1  2  2  0  0  0  0
  2 21  1  0  0  0  0
  2  3  1  0  0  0  0
  3 23  1  0  0  0  0
  3  4  1  0  0  0  0
  4  5  2  0  0  0  0
  4  6  1  0  0  0  0
  6  7  1  0  0  0  0
  6 20  1  0  0  0  0
  7  8  1  0  0  0  0
  7 24  1  0  0  0  0
  7 25  1  0  0  0  0
  8  9  1  0  0  0  0
  8 10  1  0  0  0  0
  8 26  1  0  0  0  0
  9 27  1  0  0  0  0
 10 11  1  0  0  0  0
 10 28  1  0  0  0  0
 10 29  1  0  0  0  0
 11 12  1  0  0  0  0
 12 13  1  0  0  0  0
 12 30  1  0  0  0  0
 12 31  1  0  0  0  0
 13 19  1  0  0  0  0
 13 14  2  0  0  0  0
 14 15  1  0  0  0  0
 14 32  1  0  0  0  0
 15 16  2  0  0  0  0
 15 33  1  0  0  0  0
 16 17  1  0  0  0  0
 16 18  1  0  0  0  0
 18 19  2  0  0  0  0
 18 34  1  0  0  0  0
 19 35  1  0  0  0  0
 20 21  2  0  0  0  0
 20 36  1  0  0  0  0
 21 22  1  0  0  0  0
M  END
> <s_m_source_file>
AV-unprocessed.smi

> <i_m_source_file_index>
688

> <i_lp_mmshare_version>
43012

> <i_f3d_flags>
0

> <s_epik_input>
Tz1jMVtuSF1jKD1PKW4oW2NIXWMxQ2wpW0NIMl1bQ0BIXShbT0hdKVtDSDJdT1tDSDJdYzJbY0hdW2NIXWMoQ2wpW2NIXVtjSF0y

> <s_epik_cmdline>
J2VwaWtfcHl0aG9uJywgJy1waCcsICc3LjAnLCAnLXRuJywgJzgnLCAnLW1hJywgJzIwMCcsICctbWV0YWxfYmluZGluZycsICctaW1hZScsICc8aW5maWxlLm1hZT4nLCAnLW9tYWUnLCAnPG91dGZpbGUubWFlPic=

> <r_lp_tautomer_probability>
0.999537

> <r_epik_Ionization_Penalty>
0.0280571

> <r_epik_Ionization_Penalty_Charging>
0.028057

> <r_epik_Ionization_Penalty_Neutral>
6.25502e-08

> <r_epik_State_Penalty>
0.0230008

> <r_epik_Charging_Adjusted_Penalty>
0.0510579

> <i_epik_Tot_Q>
0

> <i_epik_Tot_abs_Q>
0

> <r_epik_Metal_State_Penalty>
2.1942

> <b_epik_Metal_Only>
0

> <s_lp_Force_Field>
OPLS_2005

> <r_lp_Energy>
13.9943

> <b_lp_Chiralities_Consistent>
1

> <s_lp_Variant>
AV-unprocessed.smi:688-2

> <Gold.Version>
5.8.1

> <Gold.Id.Protein>
6NUR|6NUR_protein|mol2

> <Gold.PLP.Fitness>
51.3188

> <Gold.PLP.PLP>
-42.7296

> <Gold.PLP.part.hbond>
-5.0000

> <Gold.PLP.part.metal>
0.0000

> <Gold.PLP.part.buried>
-3.3579

> <Gold.PLP.part.nonpolar>
-33.7254

> <Gold.PLP.part.repulsive>
0.1556

> <Gold.PLP.ligand.clash>
0.0000

> <Gold.PLP.ligand.torsion>
1.3956

> <Gold.PLP.Chemscore.Hbond>
3.7500

> <Gold.PLP.Chemscore.CHOScore>
0.0000

> <Gold.PLP.Chemscore.Metal>
0.0000

> <Gold.Chemscore.Hbonds>
donor molecule, donor type, donor heavy atom, donor atom, acceptor molecule, acceptor atom, score
      L1  H     9    27       P1  7957  0.82
      P1  H  6896  6907       L1     1  0.74
      P1  H  7997  8008       L1     5  1.00
      P1  H  8011  8017       L1     9  0.90

> <Gold.PLP.Chemscore.Internal.Correction>
0.1304

> <Gold.Rescore>
     Score         DG    S(hbond)    S(metal)    S(lipo)     H(rot)  DE(clash)    DE(int)     intcor
     18.78     -22.26       3.28        0.00     114.04       2.94       1.71       1.77       ----

> <Gold.Chemscore.Fitness>
18.7793

> <Gold.Chemscore.DG>
-22.2594

> <Gold.Chemscore.ZeroCoef>
-5.4800

> <Gold.Chemscore.Hbond>
3.2845

> <Gold.Chemscore.Metal>
0.0000

> <Gold.Chemscore.Lipo>
114.0415

> <Gold.Chemscore.Internal_Hbond>
0.0000

> <Gold.Chemscore.DEClash>
1.7114

> <Gold.Chemscore.DEInternal>
1.7688

> <Gold.Chemscore.Rot>
2.9429

> <Gold.Chemscore.Internal.Correction>
   9.000000E+99

> <Gold.Chemscore.Hbonds>
donor molecule, donor type, donor heavy atom, donor atom, acceptor molecule, acceptor atom, score
      L1  H     9    27       P1  7957  0.81
      P1  H  6896  6907       L1     1  0.68
      P1  H  7997  8008       L1     5  0.98
      P1  H  8011  8017       L1     9  0.17

> <Gold.Chemscore.Hbond.Weighted>
-10.9703

> <Gold.Chemscore.Metal.Weighted>
-0.0000

> <Gold.Chemscore.Lipo.Weighted>
-13.3429

> <Gold.Chemscore.Internal_Hbond.Weighted>
0.0000

> <Gold.Chemscore.DEClash.Weighted>
1.7114

> <Gold.Chemscore.DEInternal.Weighted>
1.7688

> <Gold.Chemscore.Rot.Weighted>
7.5337

> <Gold.Chemscore.Internal.Correction.Weighted>
   9.000000E+99

> <Gold.Protein.RotatedTorsions>
[ 6907 6896 6895 6894 ] final   10.22 input  -60.11 | X-H torsion
[ 7974 7965 7964 7962 ] final -140.30 input  175.53 | X-H torsion
[ 8008 7997 7996 7995 ] final  -26.29 input   59.86 | X-H torsion
[ 10167 10162 10161 10158 ] final   91.94 input  -65.29 | X-H torsion
[ 10718 10713 10712 10709 ] final   53.74 input   66.30 | X-H torsion
[ 10763 10752 10751 10750 ] final   83.61 input  -60.55 | X-H torsion
[ 11005 11000 10999 10996 ] final  -32.95 input  -57.11 | X-H torsion

> <Gold.Protein.ActiveResidues>
 VAL166  LYS551  ARG553  GLY616  TRP617  ASP618  TYR619  PRO620  LYS621  CYS622 
 ASP623  PHE694  ASN695  SER759  ASP760  ASP761  ALA762  ILE779  LEU786  VAL792 
 PHE793  MET794  SER795  GLU796  ALA797  LYS798  CYS799  TRP800  GLU811  SER814 

> <Gold.Protein.RotatedAtoms>
  151.7348  135.0867  160.0305 H   0  0  0  0  0  0  0  0  0  0  0  0  # atno 6907 bound_to 6896
  152.3518  133.6184  159.5959 H   0  0  0  0  0  0  0  0  0  0  0  0  # atno 6908 bound_to 6896
  150.7545  133.9479  159.3518 H   0  0  0  0  0  0  0  0  0  0  0  0  # atno 6909 bound_to 6896
  144.8608  140.6216  143.5329 H   0  0  0  0  0  0  0  0  0  0  0  0  # atno 7974 bound_to 7965
  154.4433  140.1903  156.0752 H   0  0  0  0  0  0  0  0  0  0  0  0  # atno 8008 bound_to 7997
  156.0481  140.3312  155.7293 H   0  0  0  0  0  0  0  0  0  0  0  0  # atno 8009 bound_to 7997
  155.5599  140.0602  157.2822 H   0  0  0  0  0  0  0  0  0  0  0  0  # atno 8010 bound_to 7997
  139.8325  144.6680  150.9382 H   0  0  0  0  0  0  0  0  0  0  0  0  # atno 10167 bound_to 10162
  157.5194  130.8554  149.8538 H   0  0  0  0  0  0  0  0  0  0  0  0  # atno 10718 bound_to 10713
  153.1306  135.4685  154.9343 H   0  0  0  0  0  0  0  0  0  0  0  0  # atno 10763 bound_to 10752
  154.7661  135.3145  154.8286 H   0  0  0  0  0  0  0  0  0  0  0  0  # atno 10764 bound_to 10752
  153.8829  135.6892  153.4819 H   0  0  0  0  0  0  0  0  0  0  0  0  # atno 10765 bound_to 10752
  140.9595  133.7173  156.1346 H   0  0  0  0  0  0  0  0  0  0  0  0  # atno 11005 bound_to 11000
  145.4316  139.1548  143.4019 LP  0  0  0  0  0  0  0  0  0  0  0  0  # atno 17320 bound_to 7965
  146.2859  140.4433  142.8758 LP  0  0  0  0  0  0  0  0  0  0  0  0  # atno 17321 bound_to 7965
  140.7805  143.3988  151.1185 LP  0  0  0  0  0  0  0  0  0  0  0  0  # atno 17342 bound_to 10162
  139.7640  143.8593  152.3106 LP  0  0  0  0  0  0  0  0  0  0  0  0  # atno 17343 bound_to 10162
  156.0343  130.3756  150.1603 LP  0  0  0  0  0  0  0  0  0  0  0  0  # atno 17370 bound_to 10713
  156.9792  130.9859  151.3441 LP  0  0  0  0  0  0  0  0  0  0  0  0  # atno 17371 bound_to 10713
  140.7488  134.4068  157.5544 LP  0  0  0  0  0  0  0  0  0  0  0  0  # atno 17394 bound_to 11000
  139.8873  134.8886  156.2535 LP  0  0  0  0  0  0  0  0  0  0  0  0  # atno 17395 bound_to 11000

$$$$
