AV-unprocessed.smi:2774|AV-procd|sdf|10685|dock1
  -GOLD-   2272015133D 1   1.00000     0.00000
 Structure written by MMmdl.
 34 35  0  0  0  0  0  0  0  0  1 V2000
  148.8371  140.8034  156.6397 O   0  0  0  0  0  0  0  0  0  0  0  0
  149.9406  141.1461  155.8275 C   0  0  1  0  0  0  0  0  0  0  0  0
  150.8047  142.1591  156.6003 C   0  0  0  0  0  0  0  0  0  0  0  0
  151.1117  141.6838  157.9509 N   0  0  0  0  0  0  0  0  0  0  0  0
  151.7857  142.6469  158.8266 C   0  0  2  0  0  0  0  0  0  0  0  0
  152.3350  141.9008  160.0584 C   0  0  0  0  0  0  0  0  0  0  0  0
  153.1583  142.8045  160.9892 C   0  0  0  0  0  0  0  0  0  0  0  0
  152.3250  143.9555  161.5655 C   0  0  0  0  0  0  0  0  0  0  0  0
  151.7196  145.0411  160.2476 S   0  0  0  0  0  0  0  0  0  0  0  0
  150.8507  143.8041  159.2436 C   0  0  0  0  0  0  0  0  0  0  0  0
  150.7283  139.9170  155.3968 C   0  0  0  0  0  0  0  0  0  0  0  0
  152.1041  139.8055  155.6894 C   0  0  0  0  0  0  0  0  0  0  0  0
  152.7896  138.6466  155.2738 C   0  0  0  0  0  0  0  0  0  0  0  0
  152.1973  137.6330  154.6067 N   0  0  0  0  0  0  0  0  0  0  0  0
  150.8802  137.7441  154.3306 C   0  0  0  0  0  0  0  0  0  0  0  0
  150.1034  138.8599  154.7007 C   0  0  0  0  0  0  0  0  0  0  0  0
  148.2518  140.2608  156.1339 H   0  0  0  0  0  0  0  0  0  0  0  0
  149.5354  141.6317  154.9385 H   0  0  0  0  0  0  0  0  0  0  0  0
  151.7343  142.3262  156.0547 H   0  0  0  0  0  0  0  0  0  0  0  0
  150.2864  143.1168  156.6355 H   0  0  0  0  0  0  0  0  0  0  0  0
  151.6668  140.8361  157.8919 H   0  0  0  0  0  0  0  0  0  0  0  0
  152.6349  143.0697  158.2879 H   0  0  0  0  0  0  0  0  0  0  0  0
  151.5129  141.4528  160.6188 H   0  0  0  0  0  0  0  0  0  0  0  0
  152.9654  141.0731  159.7309 H   0  0  0  0  0  0  0  0  0  0  0  0
  153.5588  142.2067  161.8082 H   0  0  0  0  0  0  0  0  0  0  0  0
  154.0195  143.2037  160.4522 H   0  0  0  0  0  0  0  0  0  0  0  0
  151.4744  143.5673  162.1269 H   0  0  0  0  0  0  0  0  0  0  0  0
  152.9241  144.5463  162.2585 H   0  0  0  0  0  0  0  0  0  0  0  0
  150.4525  144.3286  158.3763 H   0  0  0  0  0  0  0  0  0  0  0  0
  149.9980  143.4236  159.8072 H   0  0  0  0  0  0  0  0  0  0  0  0
  152.6255  140.5863  156.2232 H   0  0  0  0  0  0  0  0  0  0  0  0
  153.8426  138.5307  155.4836 H   0  0  0  0  0  0  0  0  0  0  0  0
  150.4311  136.9188  153.7982 H   0  0  0  0  0  0  0  0  0  0  0  0
  149.0517  138.8995  154.4574 H   0  0  0  0  0  0  0  0  0  0  0  0
  1  2  1  0  0  0  0
  1 17  1  0  0  0  0
  2  3  1  0  0  0  0
  2 11  1  0  0  0  0
  2 18  1  0  0  0  0
  3  4  1  0  0  0  0
  3 19  1  0  0  0  0
  3 20  1  0  0  0  0
  4  5  1  0  0  0  0
  4 21  1  0  0  0  0
  5 10  1  0  0  0  0
  5  6  1  0  0  0  0
  5 22  1  0  0  0  0
  6  7  1  0  0  0  0
  6 23  1  0  0  0  0
  6 24  1  0  0  0  0
  7  8  1  0  0  0  0
  7 25  1  0  0  0  0
  7 26  1  0  0  0  0
  8  9  1  0  0  0  0
  8 27  1  0  0  0  0
  8 28  1  0  0  0  0
  9 10  1  0  0  0  0
 10 29  1  0  0  0  0
 10 30  1  0  0  0  0
 11 16  1  0  0  0  0
 11 12  2  0  0  0  0
 12 13  1  0  0  0  0
 12 31  1  0  0  0  0
 13 14  2  0  0  0  0
 13 32  1  0  0  0  0
 14 15  1  0  0  0  0
 15 16  2  0  0  0  0
 15 33  1  0  0  0  0
 16 34  1  0  0  0  0
M  END
> <s_m_source_file>
AV-unprocessed.smi

> <i_m_source_file_index>
2774

> <i_lp_mmshare_version>
43012

> <i_f3d_flags>
0

> <s_epik_input>
W2NIXTFbY0hdbltjSF1bY0hdYzFbQ0BIXShbT0hdKVtDSDJdW05IXVtDQEBIXTJbQ0gyXVtDSDJdW0NIMl1TW0NIMl0y

> <s_epik_cmdline>
J2VwaWtfcHl0aG9uJywgJy1waCcsICc3LjAnLCAnLXRuJywgJzgnLCAnLW1hJywgJzIwMCcsICctbWV0YWxfYmluZGluZycsICctaW1hZScsICc8aW5maWxlLm1hZT4nLCAnLW9tYWUnLCAnPG91dGZpbGUubWFlPic=

> <r_epik_Ionization_Penalty>
2.08116

> <r_epik_Ionization_Penalty_Charging>
0

> <r_epik_Ionization_Penalty_Neutral>
2.08116

> <r_epik_State_Penalty>
2.1944

> <r_epik_Charging_Adjusted_Penalty>
2.1944

> <i_epik_Tot_Q>
0

> <i_epik_Tot_abs_Q>
0

> <r_epik_Metal_State_Penalty>
2.1769

> <b_epik_Metal_Only>
0

> <s_lp_Force_Field>
OPLS_2005

> <r_lp_Energy>
10.4712

> <b_lp_Chiralities_Consistent>
1

> <s_lp_Variant>
AV-unprocessed.smi:2774-6

> <Gold.Version>
5.8.1

> <Gold.Id.Protein>
6NUR|6NUR_protein|mol2

> <Gold.PLP.Fitness>
46.3914

> <Gold.PLP.PLP>
-41.2890

> <Gold.PLP.part.hbond>
-1.0000

> <Gold.PLP.part.metal>
0.0000

> <Gold.PLP.part.buried>
-4.0064

> <Gold.PLP.part.nonpolar>
-36.6146

> <Gold.PLP.part.repulsive>
0.0968

> <Gold.PLP.ligand.clash>
0.0000

> <Gold.PLP.ligand.torsion>
0.1592

> <Gold.PLP.Chemscore.Hbond>
0.6599

> <Gold.PLP.Chemscore.CHOScore>
1.1102

> <Gold.PLP.Chemscore.Metal>
0.0000

> <Gold.Chemscore.Hbonds>
donor molecule, donor type, donor heavy atom, donor atom, acceptor molecule, acceptor atom, score
      P1  H 10752 10765       L1    14  0.59
      L1  C    15    33       P1  7948  0.70
      L1  C    15    33       P1  7949  0.35

> <Gold.PLP.Chemscore.Internal.Correction>
0.1106

> <Gold.Rescore>
     Score         DG    S(hbond)    S(metal)    S(lipo)     H(rot)  DE(clash)    DE(int)     intcor
     17.34     -17.69       0.83        0.00     121.97       1.89       0.14       0.22       ----

> <Gold.Chemscore.Fitness>
17.3361

> <Gold.Chemscore.DG>
-17.6931

> <Gold.Chemscore.ZeroCoef>
-5.4800

> <Gold.Chemscore.Hbond>
0.8349

> <Gold.Chemscore.Metal>
0.0000

> <Gold.Chemscore.Lipo>
121.9661

> <Gold.Chemscore.Internal_Hbond>
0.0000

> <Gold.Chemscore.DEClash>
0.1380

> <Gold.Chemscore.DEInternal>
0.2189

> <Gold.Chemscore.Rot>
1.8928

> <Gold.Chemscore.Internal.Correction>
   9.000000E+99

> <Gold.Chemscore.Hbonds>
donor molecule, donor type, donor heavy atom, donor atom, acceptor molecule, acceptor atom, score
      P1  H 10752 10765       L1    14  0.50

> <Gold.Chemscore.Hbond.Weighted>
-2.7886

> <Gold.Chemscore.Metal.Weighted>
-0.0000

> <Gold.Chemscore.Lipo.Weighted>
-14.2700

> <Gold.Chemscore.Internal_Hbond.Weighted>
0.0000

> <Gold.Chemscore.DEClash.Weighted>
0.1380

> <Gold.Chemscore.DEInternal.Weighted>
0.2189

> <Gold.Chemscore.Rot.Weighted>
4.8455

> <Gold.Chemscore.Internal.Correction.Weighted>
   9.000000E+99

> <Gold.Protein.RotatedTorsions>
[ 6907 6896 6895 6894 ] final  147.96 input  -60.11 | X-H torsion
[ 7974 7965 7964 7962 ] final  -46.43 input  175.53 | X-H torsion
[ 8008 7997 7996 7995 ] final -118.96 input   59.86 | X-H torsion
[ 10167 10162 10161 10158 ] final   56.39 input  -65.29 | X-H torsion
[ 10718 10713 10712 10709 ] final -113.61 input   66.30 | X-H torsion
[ 10763 10752 10751 10750 ] final  164.64 input  -60.55 | X-H torsion
[ 11005 11000 10999 10996 ] final   52.93 input  -57.11 | X-H torsion

> <Gold.Protein.ActiveResidues>
 VAL166  LYS551  ARG553  GLY616  TRP617  ASP618  TYR619  PRO620  LYS621  CYS622 
 ASP623  PHE694  ASN695  SER759  ASP760  ASP761  ALA762  ILE779  LEU786  VAL792 
 PHE793  MET794  SER795  GLU796  ALA797  LYS798  CYS799  TRP800  GLU811  SER814 

> <Gold.Protein.RotatedAtoms>
  152.1479  133.4503  159.4798 H   0  0  0  0  0  0  0  0  0  0  0  0  # atno 6907 bound_to 6896
  150.6892  134.2226  159.4411 H   0  0  0  0  0  0  0  0  0  0  0  0  # atno 6908 bound_to 6896
  152.0120  134.9870  160.0619 H   0  0  0  0  0  0  0  0  0  0  0  0  # atno 6909 bound_to 6896
  145.9720  140.7373  142.9406 H   0  0  0  0  0  0  0  0  0  0  0  0  # atno 7974 bound_to 7965
  155.1081  140.0397  157.2716 H   0  0  0  0  0  0  0  0  0  0  0  0  # atno 8008 bound_to 7997
  154.6706  140.2611  155.6985 H   0  0  0  0  0  0  0  0  0  0  0  0  # atno 8009 bound_to 7997
  156.2657  140.2798  156.1214 H   0  0  0  0  0  0  0  0  0  0  0  0  # atno 8010 bound_to 7997
  140.2092  144.3907  150.6496 H   0  0  0  0  0  0  0  0  0  0  0  0  # atno 10167 bound_to 10162
  156.0777  130.5982  150.8665 H   0  0  0  0  0  0  0  0  0  0  0  0  # atno 10718 bound_to 10713
  154.3120  135.2757  155.2561 H   0  0  0  0  0  0  0  0  0  0  0  0  # atno 10763 bound_to 10752
  154.4952  135.5823  153.6493 H   0  0  0  0  0  0  0  0  0  0  0  0  # atno 10764 bound_to 10752
  152.9887  135.6144  154.3298 H   0  0  0  0  0  0  0  0  0  0  0  0  # atno 10765 bound_to 10752
  140.0808  134.5341  155.8948 H   0  0  0  0  0  0  0  0  0  0  0  0  # atno 11005 bound_to 11000
  144.6839  140.2764  143.7298 LP  0  0  0  0  0  0  0  0  0  0  0  0  # atno 17320 bound_to 7965
  145.7893  139.1921  143.2112 LP  0  0  0  0  0  0  0  0  0  0  0  0  # atno 17321 bound_to 7965
  140.6335  143.2191  151.6444 LP  0  0  0  0  0  0  0  0  0  0  0  0  # atno 17342 bound_to 10162
  139.5186  144.3278  152.0854 LP  0  0  0  0  0  0  0  0  0  0  0  0  # atno 17343 bound_to 10162
  157.5880  131.0945  150.9164 LP  0  0  0  0  0  0  0  0  0  0  0  0  # atno 17370 bound_to 10713
  156.9346  130.5362  149.5279 LP  0  0  0  0  0  0  0  0  0  0  0  0  # atno 17371 bound_to 10713
  141.2046  133.6640  156.6130 LP  0  0  0  0  0  0  0  0  0  0  0  0  # atno 17394 bound_to 11000
  140.3490  134.7785  157.4453 LP  0  0  0  0  0  0  0  0  0  0  0  0  # atno 17395 bound_to 11000

$$$$
