#       Name:                AV-unprocessed.smi:1506
#       Creating user name   scv26
#       Creation time:       Fri Mar 27 06:19:52 2020


#       File generated by GOLD software.
#

@<TRIPOS>MOLECULE
AV-unprocessed.smi:1506
    44    46     1
SMALL
NO_CHARGES


@<TRIPOS>ATOM
      1 ****        -5.2615   2.6128  -0.0222 C.3            1 S1                 0.0000
      2 ****        -4.7009   1.2426   0.2992 C.ar           1 S1                 0.0000
      3 ****        -5.5556   0.2042   0.7193 C.ar           1 S1                 0.0000
      4 ****        -5.0251  -1.0650   1.0154 C.ar           1 S1                 0.0000
      5 ****        -3.6419  -1.3008   0.8955 C.ar           1 S1                 0.0000
      6 ****        -2.7711  -0.2626   0.4783 C.ar           1 S1                 0.0000
      7 ****        -1.4071  -0.4030   0.3395 O.3            1 S1                 0.0000
      8 ****        -0.8207  -1.6595   0.6575 C.3            1 S1                 0.0000
      9 ****         0.7060  -1.5867   0.4872 C.3            1 S1                 0.0000
     10 ****         1.2637  -0.9033   1.5927 O.3            1 S1                 0.0000
     11 ****         1.1559  -0.9637  -0.8493 C.3            1 S1                 0.0000
     12 ****         2.6010  -0.9429  -0.9888 N.pl3          1 S1                 0.0000
     13 ****         3.3891  -1.9476  -1.4173 C.2            1 S1                 0.0000
     14 ****         4.6982  -1.7177  -1.4644 N.2            1 S1                 0.0000
     15 ****         4.7688  -0.4099  -1.0150 C.ar           1 S1                 0.0000
     16 ****         5.8849   0.4363  -0.8257 C.ar           1 S1                 0.0000
     17 ****         5.7111   1.7518  -0.3470 C.ar           1 S1                 0.0000
     18 ****         4.4221   2.2406  -0.0506 C.ar           1 S1                 0.0000
     19 ****         3.2950   1.4161  -0.2310 C.ar           1 S1                 0.0000
     20 ****         3.4726   0.1045  -0.7095 C.ar           1 S1                 0.0000
     21 ****        -3.3163   1.0039   0.1826 C.ar           1 S1                 0.0000
     22 ****        -6.3433   2.5764  -0.1549 H              1 S1                 0.0000
     23 ****        -4.8211   2.9997  -0.9415 H              1 S1                 0.0000
     24 ****        -5.0384   3.3097   0.7860 H              1 S1                 0.0000
     25 ****        -6.6177   0.3760   0.8158 H              1 S1                 0.0000
     26 ****        -5.6808  -1.8610   1.3363 H              1 S1                 0.0000
     27 ****        -3.2739  -2.2876   1.1307 H              1 S1                 0.0000
     28 ****        -1.0691  -1.9660   1.6752 H              1 S1                 0.0000
     29 ****        -1.2170  -2.4150  -0.0228 H              1 S1                 0.0000
     30 ****         1.0924  -2.6054   0.5389 H              1 S1                 0.0000
     31 ****         2.2045  -0.9057   1.5028 H              1 S1                 0.0000
     32 ****         0.7375  -1.5258  -1.6852 H              1 S1                 0.0000
     33 ****         0.7866   0.0580  -0.9458 H              1 S1                 0.0000
     34 ****         2.9780  -2.9034  -1.7078 H              1 S1                 0.0000
     35 ****         6.8771   0.0727  -1.0485 H              1 S1                 0.0000
     36 ****         6.5716   2.3891  -0.2054 H              1 S1                 0.0000
     37 ****         4.2990   3.2490   0.3166 H              1 S1                 0.0000
     38 ****         2.3064   1.7860  -0.0023 H              1 S1                 0.0000
     39 ****        -2.6615   1.8018  -0.1362 H              1 S1                 0.0000
     40 ****        -0.9779   0.2813   0.9291 LP             1 S1                 0.0000
     41 ****        -1.1852  -0.2064  -0.6155 LP             1 S1                 0.0000
     42 ****         1.0047  -1.3655   2.4408 LP             1 S1                 0.0000
     43 ****         0.9289   0.0388   1.6109 LP             1 S1                 0.0000
     44 ****         5.4370  -2.3284  -1.7493 LP             1 S1                 0.0000
@<TRIPOS>BOND
    1    1    2 1     
    2    1   22 1     
    3    1   23 1     
    4    1   24 1     
    5    2   21 ar    
    6    2    3 ar    
    7    3    4 ar    
    8    3   25 1     
    9    4    5 ar    
   10    4   26 1     
   11    5    6 ar    
   12    5   27 1     
   13    6    7 1     
   14    6   21 ar    
   15    7    8 1     
   16    8    9 1     
   17    8   28 1     
   18    8   29 1     
   19    9   10 1     
   20    9   11 1     
   21    9   30 1     
   22   10   31 1     
   23   11   12 1     
   24   11   32 1     
   25   11   33 1     
   26   12   20 1     
   27   12   13 1     
   28   13   14 2     
   29   13   34 1     
   30   14   15 1     
   31   15   20 ar    
   32   15   16 ar    
   33   16   17 ar    
   34   16   35 1     
   35   17   18 ar    
   36   17   36 1     
   37   18   19 ar    
   38   18   37 1     
   39   19   20 ar    
   40   19   38 1     
   41   21   39 1     
   42    7   40 1     
   43    7   41 1     
   44   10   42 1     
   45   10   43 1     
   46   14   44 1     
@<TRIPOS>SUBSTRUCTURE
      1 S1             1
@<TRIPOS>SET
LONE_PAIRS      STATIC     ATOMS    <user>   **** ""
5 40 41 42 43 44
DONOR_HYDROGENS      STATIC     ATOMS    <user>   **** ""
1 31
ATOM$BLUE        STATIC     ATOMS    COLORGROUP SYSTEM
5 40 41 42 43 44
ATOM$RED        STATIC     ATOMS    COLORGROUP SYSTEM
1 31
