AV-unprocessed.smi:2452|AV-procd|sdf|9685|dock8
  -GOLD-   2272013323D 1   1.00000     0.00000
 Structure written by MMmdl.
 34 35  0  0  0  0  0  0  0  0  1 V2000
  147.2924  141.3194  153.7856 C   0  0  0  0  0  0  0  0  0  0  0  0
  148.5624  140.5985  154.1437 C   0  0  0  0  0  0  0  0  0  0  0  0
  149.5612  141.2833  154.6812 N   0  0  0  0  0  0  0  0  0  0  0  0
  150.6264  140.3838  154.8423 O   0  0  0  0  0  0  0  0  0  0  0  0
  150.2407  139.1606  154.3939 C   0  0  0  0  0  0  0  0  0  0  0  0
  151.2484  138.0639  154.4651 C   0  0  0  0  0  0  0  0  0  0  0  0
  148.9460  139.2358  153.9729 C   0  0  0  0  0  0  0  0  0  0  0  0
  148.2148  138.1585  153.4130 N   0  0  0  0  0  0  0  0  0  0  0  0
  146.8800  138.0338  153.3654 C   0  0  0  0  0  0  0  0  0  0  0  0
  146.0817  138.8177  153.8787 O   0  0  0  0  0  0  0  0  0  0  0  0
  146.5133  136.9287  152.7024 N   0  0  0  0  0  0  0  0  0  0  0  0
  145.1344  136.5210  152.4582 C   0  0  0  0  0  0  0  0  0  0  0  0
  145.0508  135.4159  151.3917 C   0  0  2  0  0  0  0  0  0  0  0  0
  143.7654  134.5965  151.4495 C   0  0  0  0  0  0  0  0  0  0  0  0
  144.1546  133.3101  150.7429 C   0  0  0  0  0  0  0  0  0  0  0  0
  145.6810  133.2652  150.8712 C   0  0  0  0  0  0  0  0  0  0  0  0
  146.0435  134.4259  151.6102 O   0  0  0  0  0  0  0  0  0  0  0  0
  146.8364  140.8953  152.8911 H   0  0  0  0  0  0  0  0  0  0  0  0
  147.4762  142.3755  153.5854 H   0  0  0  0  0  0  0  0  0  0  0  0
  146.5654  141.2591  154.5954 H   0  0  0  0  0  0  0  0  0  0  0  0
  150.9460  137.2130  153.8547 H   0  0  0  0  0  0  0  0  0  0  0  0
  151.3685  137.7182  155.4917 H   0  0  0  0  0  0  0  0  0  0  0  0
  152.2195  138.4067  154.1076 H   0  0  0  0  0  0  0  0  0  0  0  0
  148.7595  137.3791  153.0749 H   0  0  0  0  0  0  0  0  0  0  0  0
  147.2365  136.3386  152.3181 H   0  0  0  0  0  0  0  0  0  0  0  0
  144.7070  136.1701  153.3977 H   0  0  0  0  0  0  0  0  0  0  0  0
  144.5438  137.3865  152.1527 H   0  0  0  0  0  0  0  0  0  0  0  0
  145.1744  135.8303  150.3892 H   0  0  0  0  0  0  0  0  0  0  0  0
  143.5013  134.3803  152.4857 H   0  0  0  0  0  0  0  0  0  0  0  0
  142.9193  135.1008  150.9818 H   0  0  0  0  0  0  0  0  0  0  0  0
  143.6742  132.4415  151.1940 H   0  0  0  0  0  0  0  0  0  0  0  0
  143.8675  133.3456  149.6913 H   0  0  0  0  0  0  0  0  0  0  0  0
  146.0276  132.3667  151.3826 H   0  0  0  0  0  0  0  0  0  0  0  0
  146.1501  133.2982  149.8871 H   0  0  0  0  0  0  0  0  0  0  0  0
  1  2  1  0  0  0  0
  1 18  1  0  0  0  0
  1 19  1  0  0  0  0
  1 20  1  0  0  0  0
  2  7  1  0  0  0  0
  2  3  2  0  0  0  0
  3  4  1  0  0  0  0
  4  5  1  0  0  0  0
  5  6  1  0  0  0  0
  5  7  2  0  0  0  0
  6 21  1  0  0  0  0
  6 22  1  0  0  0  0
  6 23  1  0  0  0  0
  7  8  1  0  0  0  0
  8  9  1  0  0  0  0
  8 24  1  0  0  0  0
  9 10  2  0  0  0  0
  9 11  1  0  0  0  0
 11 12  1  0  0  0  0
 11 25  1  0  0  0  0
 12 13  1  0  0  0  0
 12 26  1  0  0  0  0
 12 27  1  0  0  0  0
 13 17  1  0  0  0  0
 13 14  1  0  0  0  0
 13 28  1  0  0  0  0
 14 15  1  0  0  0  0
 14 29  1  0  0  0  0
 14 30  1  0  0  0  0
 15 16  1  0  0  0  0
 15 31  1  0  0  0  0
 15 32  1  0  0  0  0
 16 17  1  0  0  0  0
 16 33  1  0  0  0  0
 16 34  1  0  0  0  0
M  END
> <s_m_source_file>
AV-unprocessed.smi

> <i_m_source_file_index>
2452

> <i_lp_mmshare_version>
43012

> <i_f3d_flags>
0

> <s_epik_input>
W0NIM11jMW5vYyhbQ0gzXSljMVtOSF1DKD1PKVtOSF1bQ0gyXVtDQEBIXTJbQ0gyXVtDSDJdW0NIMl1PMg==

> <s_epik_cmdline>
J2VwaWtfcHl0aG9uJywgJy1waCcsICc3LjAnLCAnLXRuJywgJzgnLCAnLW1hJywgJzIwMCcsICctbWV0YWxfYmluZGluZycsICctaW1hZScsICc8aW5maWxlLm1hZT4nLCAnLW9tYWUnLCAnPG91dGZpbGUubWFlPic=

> <r_lp_tautomer_probability>
1

> <r_epik_Ionization_Penalty>
3.28451e-05

> <r_epik_Ionization_Penalty_Charging>
0

> <r_epik_Ionization_Penalty_Neutral>
3.28451e-05

> <r_epik_State_Penalty>
-0

> <r_epik_Charging_Adjusted_Penalty>
0

> <i_epik_Tot_Q>
0

> <i_epik_Tot_abs_Q>
0

> <r_epik_Metal_State_Penalty>
-0

> <b_epik_Metal_Only>
0

> <s_lp_Force_Field>
OPLS_2005

> <r_lp_Energy>
18.3338

> <b_lp_Chiralities_Consistent>
1

> <s_lp_Variant>
AV-unprocessed.smi:2452-1

> <Gold.Version>
5.8.1

> <Gold.Id.Protein>
6NUR|6NUR_protein|mol2

> <Gold.PLP.Fitness>
37.7620

> <Gold.PLP.PLP>
-29.6470

> <Gold.PLP.part.hbond>
-4.1866

> <Gold.PLP.part.metal>
0.0000

> <Gold.PLP.part.buried>
-3.8015

> <Gold.PLP.part.nonpolar>
-23.3289

> <Gold.PLP.part.repulsive>
0.5901

> <Gold.PLP.ligand.clash>
0.0000

> <Gold.PLP.ligand.torsion>
0.3795

> <Gold.PLP.Chemscore.Hbond>
2.8720

> <Gold.PLP.Chemscore.CHOScore>
0.0000

> <Gold.PLP.Chemscore.Metal>
0.0000

> <Gold.Chemscore.Hbonds>
donor molecule, donor type, donor heavy atom, donor atom, acceptor molecule, acceptor atom, score
      L1  H     8    24       P1  7948  0.93
      L1  H    11    25       P1  7948  0.93
      P1  H  7989  7998       L1     4  0.95

> <Gold.PLP.Chemscore.Internal.Correction>
0.2579

> <Gold.Rescore>
     Score         DG    S(hbond)    S(metal)    S(lipo)     H(rot)  DE(clash)    DE(int)     intcor
     14.56     -16.18       1.92        0.00      63.73       1.23       0.00       1.62       ----

> <Gold.Chemscore.Fitness>
14.5602

> <Gold.Chemscore.DG>
-16.1799

> <Gold.Chemscore.ZeroCoef>
-5.4800

> <Gold.Chemscore.Hbond>
1.9166

> <Gold.Chemscore.Metal>
0.0000

> <Gold.Chemscore.Lipo>
63.7336

> <Gold.Chemscore.Internal_Hbond>
0.0000

> <Gold.Chemscore.DEClash>
0.0029

> <Gold.Chemscore.DEInternal>
1.6168

> <Gold.Chemscore.Rot>
1.2337

> <Gold.Chemscore.Internal.Correction>
   9.000000E+99

> <Gold.Chemscore.Hbonds>
donor molecule, donor type, donor heavy atom, donor atom, acceptor molecule, acceptor atom, score
      L1  H     8    24       P1  7948  0.91
      L1  H    11    25       P1  7948  0.90
      P1  H  7989  7998       L1     4  0.05

> <Gold.Chemscore.Hbond.Weighted>
-6.4013

> <Gold.Chemscore.Metal.Weighted>
-0.0000

> <Gold.Chemscore.Lipo.Weighted>
-7.4568

> <Gold.Chemscore.Internal_Hbond.Weighted>
0.0000

> <Gold.Chemscore.DEClash.Weighted>
0.0029

> <Gold.Chemscore.DEInternal.Weighted>
1.6168

> <Gold.Chemscore.Rot.Weighted>
3.1582

> <Gold.Chemscore.Internal.Correction.Weighted>
   9.000000E+99

> <Gold.Protein.RotatedTorsions>
[ 6907 6896 6895 6894 ] final  139.09 input  -60.11 | X-H torsion
[ 7974 7965 7964 7962 ] final -135.36 input  175.53 | X-H torsion
[ 8008 7997 7996 7995 ] final  -22.93 input   59.86 | X-H torsion
[ 10167 10162 10161 10158 ] final -173.91 input  -65.29 | X-H torsion
[ 10718 10713 10712 10709 ] final  167.79 input   66.30 | X-H torsion
[ 10763 10752 10751 10750 ] final   85.78 input  -60.55 | X-H torsion
[ 11005 11000 10999 10996 ] final   22.19 input  -57.11 | X-H torsion

> <Gold.Protein.ActiveResidues>
 VAL166  LYS551  ARG553  GLY616  TRP617  ASP618  TYR619  PRO620  LYS621  CYS622 
 ASP623  PHE694  ASN695  SER759  ASP760  ASP761  ALA762  ILE779  LEU786  VAL792 
 PHE793  MET794  SER795  GLU796  ALA797  LYS798  CYS799  TRP800  GLU811  SER814 

> <Gold.Protein.RotatedAtoms>
  152.2590  133.5281  159.5370 H   0  0  0  0  0  0  0  0  0  0  0  0  # atno 6907 bound_to 6896
  150.7119  134.0856  159.3922 H   0  0  0  0  0  0  0  0  0  0  0  0  # atno 6908 bound_to 6896
  151.8774  135.0467  160.0536 H   0  0  0  0  0  0  0  0  0  0  0  0  # atno 6909 bound_to 6896
  144.9021  140.6784  143.5078 H   0  0  0  0  0  0  0  0  0  0  0  0  # atno 7974 bound_to 7965
  154.4615  140.1994  156.0233 H   0  0  0  0  0  0  0  0  0  0  0  0  # atno 8008 bound_to 7997
  156.0848  140.3266  155.7711 H   0  0  0  0  0  0  0  0  0  0  0  0  # atno 8009 bound_to 7997
  155.5053  140.0557  157.2923 H   0  0  0  0  0  0  0  0  0  0  0  0  # atno 8010 bound_to 7997
  139.5662  144.1750  152.1316 H   0  0  0  0  0  0  0  0  0  0  0  0  # atno 10167 bound_to 10162
  157.0465  131.0301  151.2695 H   0  0  0  0  0  0  0  0  0  0  0  0  # atno 10718 bound_to 10713
  153.1508  135.4604  154.9633 H   0  0  0  0  0  0  0  0  0  0  0  0  # atno 10763 bound_to 10752
  154.7823  135.3192  154.7966 H   0  0  0  0  0  0  0  0  0  0  0  0  # atno 10764 bound_to 10752
  153.8471  135.6925  153.4850 H   0  0  0  0  0  0  0  0  0  0  0  0  # atno 10765 bound_to 10752
  140.3833  134.1897  155.7663 H   0  0  0  0  0  0  0  0  0  0  0  0  # atno 11005 bound_to 11000
  145.3599  139.1684  143.4389 LP  0  0  0  0  0  0  0  0  0  0  0  0  # atno 17320 bound_to 7965
  146.3114  140.3660  142.8669 LP  0  0  0  0  0  0  0  0  0  0  0  0  # atno 17321 bound_to 7965
  140.1273  144.5320  150.6825 LP  0  0  0  0  0  0  0  0  0  0  0  0  # atno 17342 bound_to 10162
  140.6946  143.2396  151.5037 LP  0  0  0  0  0  0  0  0  0  0  0  0  # atno 17343 bound_to 10162
  157.5064  130.7911  149.7658 LP  0  0  0  0  0  0  0  0  0  0  0  0  # atno 17370 bound_to 10713
  156.0021  130.3874  150.2566 LP  0  0  0  0  0  0  0  0  0  0  0  0  # atno 17371 bound_to 10713
  141.1916  133.8192  157.0873 LP  0  0  0  0  0  0  0  0  0  0  0  0  # atno 17394 bound_to 11000
  140.0462  134.9829  157.1052 LP  0  0  0  0  0  0  0  0  0  0  0  0  # atno 17395 bound_to 11000

$$$$
