AV-unprocessed.smi:156|AV-procd|sdf|1289|dock5
  -GOLD-   2262018573D 1   1.00000     0.00000
 Structure written by MMmdl.
 51 53  0  0  0  0  0  0  0  0  1 V2000
  148.4137  139.0287  156.7161 C   0  0  0  0  0  0  0  0  0  0  0  0
  148.8521  137.9848  155.6689 C   0  0  2  0  0  0  0  0  0  0  0  0
  150.2632  138.2561  155.0709 C   0  0  1  0  0  0  0  0  0  0  0  0
  150.4287  139.7003  154.5607 C   0  0  0  0  0  0  0  0  0  0  0  0
  151.6387  137.8702  156.2759 S   0  0  0  0  0  0  0  0  0  0  0  0
  150.7443  137.5137  157.8475 C   0  0  0  0  0  0  0  0  0  0  0  0
  152.3241  136.6365  155.8629 O   0  0  0  0  0  0  0  0  0  0  0  0
  152.4274  139.0937  156.4879 O   0  0  0  0  0  0  0  0  0  0  0  0
  147.8277  137.8573  154.6241 N   0  0  0  0  0  0  0  0  0  0  0  0
  147.3374  139.0323  153.9088 C   0  0  0  0  0  0  0  0  0  0  0  0
  147.1442  136.6917  154.4690 C   0  0  0  0  0  0  0  0  0  0  0  0
  147.3002  135.7036  155.3900 N   0  0  0  0  0  0  0  0  0  0  0  0
  146.6431  134.5476  155.2651 C   0  0  0  0  0  0  0  0  0  0  0  0
  145.7982  134.1690  154.3059 N   0  0  0  0  0  0  0  0  0  0  0  0
  145.6419  135.1483  153.3698 C   0  0  0  0  0  0  0  0  0  0  0  0
  146.2620  136.4309  153.3794 C   0  0  0  0  0  0  0  0  0  0  0  0
  145.8542  137.1540  152.2644 N   0  0  0  0  0  0  0  0  0  0  0  0
  145.0415  136.3495  151.6371 C   0  0  0  0  0  0  0  0  0  0  0  0
  144.8711  135.1141  152.2198 N   0  0  0  0  0  0  0  0  0  0  0  0
  144.0334  134.0246  151.7357 C   0  0  0  0  0  0  0  0  0  0  0  0
  144.8048  132.7633  151.2743 C   0  0  0  0  0  0  0  0  0  0  0  0
  143.8262  131.8561  150.5155 C   0  0  0  0  0  0  0  0  0  0  0  0
  143.2481  132.5286  149.4148 O   0  0  0  0  0  0  0  0  0  0  0  0
  146.1451  133.0153  150.5626 C   0  0  0  0  0  0  0  0  0  0  0  0
  146.8989  132.6830  151.7473 O   0  0  0  0  0  0  0  0  0  0  0  0
  145.7165  132.0673  152.3003 C   0  0  0  0  0  0  0  0  0  0  0  0
  149.0437  138.9949  157.6045 H   0  0  0  0  0  0  0  0  0  0  0  0
  147.3926  138.8415  157.0502 H   0  0  0  0  0  0  0  0  0  0  0  0
  148.4520  140.0433  156.3199 H   0  0  0  0  0  0  0  0  0  0  0  0
  148.9325  137.0399  156.2045 H   0  0  0  0  0  0  0  0  0  0  0  0
  150.4217  137.5943  154.2191 H   0  0  0  0  0  0  0  0  0  0  0  0
  149.7485  139.9163  153.7376 H   0  0  0  0  0  0  0  0  0  0  0  0
  151.4347  139.8750  154.1798 H   0  0  0  0  0  0  0  0  0  0  0  0
  150.2405  140.4283  155.3496 H   0  0  0  0  0  0  0  0  0  0  0  0
  151.4726  137.3621  158.6437 H   0  0  0  0  0  0  0  0  0  0  0  0
  150.1497  136.6071  157.7423 H   0  0  0  0  0  0  0  0  0  0  0  0
  150.0988  138.3509  158.1090 H   0  0  0  0  0  0  0  0  0  0  0  0
  146.2485  139.0284  153.8477 H   0  0  0  0  0  0  0  0  0  0  0  0
  147.7396  139.0583  152.8963 H   0  0  0  0  0  0  0  0  0  0  0  0
  147.6358  139.9549  154.4052 H   0  0  0  0  0  0  0  0  0  0  0  0
  146.8218  133.8212  156.0441 H   0  0  0  0  0  0  0  0  0  0  0  0
  144.5461  136.6386  150.7221 H   0  0  0  0  0  0  0  0  0  0  0  0
  143.3288  133.7788  152.5307 H   0  0  0  0  0  0  0  0  0  0  0  0
  143.4274  134.4146  150.9168 H   0  0  0  0  0  0  0  0  0  0  0  0
  144.3226  130.9530  150.1590 H   0  0  0  0  0  0  0  0  0  0  0  0
  143.0153  131.5274  151.1666 H   0  0  0  0  0  0  0  0  0  0  0  0
  142.5519  133.0834  149.7323 H   0  0  0  0  0  0  0  0  0  0  0  0
  146.3530  132.3192  149.7482 H   0  0  0  0  0  0  0  0  0  0  0  0
  146.3016  134.0408  150.2313 H   0  0  0  0  0  0  0  0  0  0  0  0
  145.5375  132.3440  153.3377 H   0  0  0  0  0  0  0  0  0  0  0  0
  145.7445  130.9811  152.1971 H   0  0  0  0  0  0  0  0  0  0  0  0
  1  2  1  0  0  0  0
  1 27  1  0  0  0  0
  1 28  1  0  0  0  0
  1 29  1  0  0  0  0
  2  3  1  0  0  0  0
  2  9  1  0  0  0  0
  2 30  1  0  0  0  0
  3  4  1  0  0  0  0
  3  5  1  0  0  0  0
  3 31  1  0  0  0  0
  4 32  1  0  0  0  0
  4 33  1  0  0  0  0
  4 34  1  0  0  0  0
  5  6  1  0  0  0  0
  5  7  2  0  0  0  0
  5  8  2  0  0  0  0
  6 35  1  0  0  0  0
  6 36  1  0  0  0  0
  6 37  1  0  0  0  0
  9 10  1  0  0  0  0
  9 11  1  0  0  0  0
 10 38  1  0  0  0  0
 10 39  1  0  0  0  0
 10 40  1  0  0  0  0
 11 16  1  0  0  0  0
 11 12  2  0  0  0  0
 12 13  1  0  0  0  0
 13 14  2  0  0  0  0
 13 41  1  0  0  0  0
 14 15  1  0  0  0  0
 15 19  1  0  0  0  0
 15 16  2  0  0  0  0
 16 17  1  0  0  0  0
 17 18  2  0  0  0  0
 18 19  1  0  0  0  0
 18 42  1  0  0  0  0
 19 20  1  0  0  0  0
 20 21  1  0  0  0  0
 20 43  1  0  0  0  0
 20 44  1  0  0  0  0
 21 26  1  0  0  0  0
 21 22  1  0  0  0  0
 21 24  1  0  0  0  0
 22 23  1  0  0  0  0
 22 45  1  0  0  0  0
 22 46  1  0  0  0  0
 23 47  1  0  0  0  0
 24 25  1  0  0  0  0
 24 48  1  0  0  0  0
 24 49  1  0  0  0  0
 25 26  1  0  0  0  0
 26 50  1  0  0  0  0
 26 51  1  0  0  0  0
M  END
> <s_m_source_file>
AV-unprocessed.smi

> <i_m_source_file_index>
156

> <i_lp_mmshare_version>
43012

> <i_f3d_flags>
0

> <s_epik_input>
W0NIM11TKD1PKSg9TylbQ0BASF0oW0NIM10pW0NAQEhdKFtDSDNdKU4oW0NIM10pYyhuW2NIXW4xKWMoYzEyKW5bY0hdbjJbQ0gyXUMzKFtDSDJdW09IXSlbQ0gyXU9bQ0gyXTM=

> <s_epik_cmdline>
J2VwaWtfcHl0aG9uJywgJy1waCcsICc3LjAnLCAnLXRuJywgJzgnLCAnLW1hJywgJzIwMCcsICctbWV0YWxfYmluZGluZycsICctaW1hZScsICc8aW5maWxlLm1hZT4nLCAnLW9tYWUnLCAnPG91dGZpbGUubWFlPic=

> <r_lp_tautomer_probability>
1

> <r_epik_Ionization_Penalty>
0.00107697

> <r_epik_Ionization_Penalty_Charging>
0

> <r_epik_Ionization_Penalty_Neutral>
0.00107697

> <r_epik_State_Penalty>
0.000614712

> <r_epik_Charging_Adjusted_Penalty>
0.000614712

> <i_epik_Tot_Q>
0

> <i_epik_Tot_abs_Q>
0

> <r_epik_Metal_State_Penalty>
-0

> <b_epik_Metal_Only>
0

> <s_lp_Force_Field>
OPLS_2005

> <r_lp_Energy>
28.6083

> <b_lp_Chiralities_Consistent>
1

> <s_lp_Variant>
AV-unprocessed.smi:156-3

> <Gold.Version>
5.8.1

> <Gold.Id.Protein>
6NUR|6NUR_protein|mol2

> <Gold.PLP.Fitness>
38.8862

> <Gold.PLP.PLP>
-28.2399

> <Gold.PLP.part.hbond>
-2.9516

> <Gold.PLP.part.metal>
0.0000

> <Gold.PLP.part.buried>
-2.5200

> <Gold.PLP.part.nonpolar>
-22.4644

> <Gold.PLP.part.repulsive>
0.6692

> <Gold.PLP.ligand.clash>
0.0000

> <Gold.PLP.ligand.torsion>
0.8680

> <Gold.PLP.Chemscore.Hbond>
2.8050

> <Gold.PLP.Chemscore.CHOScore>
1.0000

> <Gold.PLP.Chemscore.Metal>
0.0000

> <Gold.Chemscore.Hbonds>
donor molecule, donor type, donor heavy atom, donor atom, acceptor molecule, acceptor atom, score
      L1  H    23    47       P1 10186  0.96
      P1  H  7997  8010       L1     8  0.67
      P1  H 10752 10763       L1     7  1.00
      L1  C    18    42       P1 10171  1.00

> <Gold.PLP.Chemscore.Internal.Correction>
0.9672

> <Gold.Rescore>
     Score         DG    S(hbond)    S(metal)    S(lipo)     H(rot)  DE(clash)    DE(int)     intcor
      8.47     -13.10       2.63        0.00      60.16       3.21       0.33       4.30       ----

> <Gold.Chemscore.Fitness>
8.4660

> <Gold.Chemscore.DG>
-13.0970

> <Gold.Chemscore.ZeroCoef>
-5.4800

> <Gold.Chemscore.Hbond>
2.6345

> <Gold.Chemscore.Metal>
0.0000

> <Gold.Chemscore.Lipo>
60.1647

> <Gold.Chemscore.Internal_Hbond>
0.0000

> <Gold.Chemscore.DEClash>
0.3311

> <Gold.Chemscore.DEInternal>
4.2998

> <Gold.Chemscore.Rot>
3.2115

> <Gold.Chemscore.Internal.Correction>
   9.000000E+99

> <Gold.Chemscore.Hbonds>
donor molecule, donor type, donor heavy atom, donor atom, acceptor molecule, acceptor atom, score
      L1  H    23    47       P1 10186  0.88
      P1  H  7997  8010       L1     8  0.67
      P1  H 10752 10763       L1     7  0.96

> <Gold.Chemscore.Hbond.Weighted>
-8.7992

> <Gold.Chemscore.Metal.Weighted>
-0.0000

> <Gold.Chemscore.Lipo.Weighted>
-7.0393

> <Gold.Chemscore.Internal_Hbond.Weighted>
0.0000

> <Gold.Chemscore.DEClash.Weighted>
0.3311

> <Gold.Chemscore.DEInternal.Weighted>
4.2998

> <Gold.Chemscore.Rot.Weighted>
8.2215

> <Gold.Chemscore.Internal.Correction.Weighted>
   9.000000E+99

> <Gold.Protein.RotatedTorsions>
[ 6907 6896 6895 6894 ] final   40.63 input  -60.11 | X-H torsion
[ 7974 7965 7964 7962 ] final   40.89 input  175.53 | X-H torsion
[ 8008 7997 7996 7995 ] final   74.58 input   59.86 | X-H torsion
[ 10167 10162 10161 10158 ] final -152.55 input  -65.29 | X-H torsion
[ 10718 10713 10712 10709 ] final -139.60 input   66.30 | X-H torsion
[ 10763 10752 10751 10750 ] final   80.68 input  -60.55 | X-H torsion
[ 11005 11000 10999 10996 ] final  -14.23 input  -57.11 | X-H torsion

> <Gold.Protein.ActiveResidues>
 VAL166  LYS551  ARG553  GLY616  TRP617  ASP618  TYR619  PRO620  LYS621  CYS622 
 ASP623  PHE694  ASN695  SER759  ASP760  ASP761  ALA762  ILE779  LEU786  VAL792 
 PHE793  MET794  SER795  GLU796  ALA797  LYS798  CYS799  TRP800  GLU811  SER814 

> <Gold.Protein.RotatedAtoms>
  152.1849  134.8722  160.0522 H   0  0  0  0  0  0  0  0  0  0  0  0  # atno 6907 bound_to 6896
  151.9633  133.3697  159.4051 H   0  0  0  0  0  0  0  0  0  0  0  0  # atno 6908 bound_to 6896
  150.6924  134.4141  159.5219 H   0  0  0  0  0  0  0  0  0  0  0  0  # atno 6909 bound_to 6896
  146.0868  139.5479  142.9501 H   0  0  0  0  0  0  0  0  0  0  0  0  # atno 7974 bound_to 7965
  155.8005  140.3476  155.5400 H   0  0  0  0  0  0  0  0  0  0  0  0  # atno 8008 bound_to 7997
  155.8543  140.0961  157.1675 H   0  0  0  0  0  0  0  0  0  0  0  0  # atno 8009 bound_to 7997
  154.4009  140.1370  156.3870 H   0  0  0  0  0  0  0  0  0  0  0  0  # atno 8010 bound_to 7997
  139.7172  143.9014  152.2490 H   0  0  0  0  0  0  0  0  0  0  0  0  # atno 10167 bound_to 10162
  156.3126  130.7490  151.1569 H   0  0  0  0  0  0  0  0  0  0  0  0  # atno 10718 bound_to 10713
  153.1053  135.4794  154.8940 H   0  0  0  0  0  0  0  0  0  0  0  0  # atno 10763 bound_to 10752
  154.7423  135.3085  154.8708 H   0  0  0  0  0  0  0  0  0  0  0  0  # atno 10764 bound_to 10752
  153.9313  135.6844  153.4799 H   0  0  0  0  0  0  0  0  0  0  0  0  # atno 10765 bound_to 10752
  140.7843  133.8338  155.9320 H   0  0  0  0  0  0  0  0  0  0  0  0  # atno 11005 bound_to 11000
  145.6115  141.0339  143.1964 LP  0  0  0  0  0  0  0  0  0  0  0  0  # atno 17320 bound_to 7965
  144.7331  139.7665  143.7339 LP  0  0  0  0  0  0  0  0  0  0  0  0  # atno 17321 bound_to 7965
  139.8900  144.6971  150.8781 LP  0  0  0  0  0  0  0  0  0  0  0  0  # atno 17342 bound_to 10162
  140.7746  143.3594  151.1858 LP  0  0  0  0  0  0  0  0  0  0  0  0  # atno 17343 bound_to 10162
  157.7394  131.0529  150.5232 LP  0  0  0  0  0  0  0  0  0  0  0  0  # atno 17370 bound_to 10713
  156.5373  130.4199  149.6171 LP  0  0  0  0  0  0  0  0  0  0  0  0  # atno 17371 bound_to 10713
  140.9452  134.1849  157.4768 LP  0  0  0  0  0  0  0  0  0  0  0  0  # atno 17394 bound_to 11000
  139.8738  134.9887  156.5427 LP  0  0  0  0  0  0  0  0  0  0  0  0  # atno 17395 bound_to 11000

$$$$
