AV-unprocessed.smi:158|AV-procd|sdf|1325|dock10
  -GOLD-   2262019 23D 1   1.00000     0.00000
 Structure written by MMmdl.
 31 33  0  0  0  0  0  0  0  0  1 V2000
  149.6184  138.5129  153.6857 N   0  0  0  0  0  0  0  0  0  0  0  0
  149.7300  138.7278  155.0038 C   0  0  0  0  0  0  0  0  0  0  0  0
  149.5162  137.6901  155.8458 N   0  0  0  0  0  0  0  0  0  0  0  0
  149.6167  137.8624  157.1695 C   0  0  0  0  0  0  0  0  0  0  0  0
  149.3238  136.4742  158.1487 Cl  0  0  0  0  0  0  0  0  0  0  0  0
  149.9192  138.9910  157.8193 N   0  0  0  0  0  0  0  0  0  0  0  0
  150.1360  140.0401  156.9737 C   0  0  0  0  0  0  0  0  0  0  0  0
  150.0600  139.9893  155.5562 C   0  0  0  0  0  0  0  0  0  0  0  0
  150.3377  141.2399  155.0210 N   0  0  0  0  0  0  0  0  0  0  0  0
  150.5630  141.9861  156.0694 C   0  0  0  0  0  0  0  0  0  0  0  0
  150.4612  141.3455  157.2849 N   0  0  0  0  0  0  0  0  0  0  0  0
  150.6611  141.9347  158.6457 C   0  0  2  0  0  0  0  0  0  0  0  0
  150.8942  143.3064  158.5258 O   0  0  0  0  0  0  0  0  0  0  0  0
  152.0963  143.6665  159.2034 C   0  0  1  0  0  0  0  0  0  0  0  0
  151.9757  145.0670  159.8283 C   0  0  0  0  0  0  0  0  0  0  0  0
  151.1281  145.0305  160.9568 O   0  0  0  0  0  0  0  0  0  0  0  0
  152.3906  142.5001  160.1603 C   0  0  1  0  0  0  0  0  0  0  0  0
  151.7254  142.6301  161.4030 O   0  0  0  0  0  0  0  0  0  0  0  0
  151.8542  141.3124  159.3864 C   0  0  2  0  0  0  0  0  0  0  0  0
  152.7799  140.8783  158.5276 F   0  0  0  0  0  0  0  0  0  0  0  0
  149.7144  141.7785  159.1641 H   0  0  0  0  0  0  0  0  0  0  0  0
  152.8800  143.6876  158.4442 H   0  0  0  0  0  0  0  0  0  0  0  0
  153.4585  142.4053  160.3611 H   0  0  0  0  0  0  0  0  0  0  0  0
  151.5474  140.4673  160.0038 H   0  0  0  0  0  0  0  0  0  0  0  0
  149.7727  139.2724  153.0380 H   0  0  0  0  0  0  0  0  0  0  0  0
  149.3770  137.5946  153.3426 H   0  0  0  0  0  0  0  0  0  0  0  0
  150.8102  143.0343  155.9840 H   0  0  0  0  0  0  0  0  0  0  0  0
  152.9580  145.4141  160.1492 H   0  0  0  0  0  0  0  0  0  0  0  0
  151.6014  145.7961  159.1094 H   0  0  0  0  0  0  0  0  0  0  0  0
  150.2484  145.2355  160.6784 H   0  0  0  0  0  0  0  0  0  0  0  0
  152.1104  143.3558  161.8711 H   0  0  0  0  0  0  0  0  0  0  0  0
  1  2  1  0  0  0  0
  1 25  1  0  0  0  0
  1 26  1  0  0  0  0
  2  8  1  0  0  0  0
  2  3  2  0  0  0  0
  3  4  1  0  0  0  0
  4  5  1  0  0  0  0
  4  6  2  0  0  0  0
  6  7  1  0  0  0  0
  7 11  1  0  0  0  0
  7  8  2  0  0  0  0
  8  9  1  0  0  0  0
  9 10  2  0  0  0  0
 10 11  1  0  0  0  0
 10 27  1  0  0  0  0
 11 12  1  0  0  0  0
 12 21  1  0  0  0  0
 12 19  1  0  0  0  0
 12 13  1  0  0  0  0
 13 14  1  0  0  0  0
 14 22  1  0  0  0  0
 14 15  1  0  0  0  0
 14 17  1  0  0  0  0
 15 16  1  0  0  0  0
 15 28  1  0  0  0  0
 15 29  1  0  0  0  0
 16 30  1  0  0  0  0
 17 23  1  0  0  0  0
 17 18  1  0  0  0  0
 17 19  1  0  0  0  0
 18 31  1  0  0  0  0
 19 24  1  0  0  0  0
 19 20  1  0  0  0  0
M  END
> <s_m_source_file>
AV-unprocessed.smi

> <i_m_source_file_index>
158

> <i_lp_mmshare_version>
43012

> <i_f3d_flags>
0

> <s_epik_input>
Q2xjKG4xKW5jKFtOSDJdKWMoYzEyKW5bY0hdbjJbQ0BASF0zT1tDQEhdKFtDSDJdW09IXSlbQ0BASF0oW09IXSlbQ0BASF0zRg==

> <s_epik_cmdline>
J2VwaWtfcHl0aG9uJywgJy1waCcsICc3LjAnLCAnLXRuJywgJzgnLCAnLW1hJywgJzIwMCcsICctbWV0YWxfYmluZGluZycsICctaW1hZScsICc8aW5maWxlLm1hZT4nLCAnLW9tYWUnLCAnPG91dGZpbGUubWFlPic=

> <r_lp_tautomer_probability>
1

> <r_epik_Ionization_Penalty>
6.51543e-05

> <r_epik_Ionization_Penalty_Charging>
0

> <r_epik_Ionization_Penalty_Neutral>
6.51543e-05

> <r_epik_State_Penalty>
-0

> <r_epik_Charging_Adjusted_Penalty>
0

> <i_epik_Tot_Q>
0

> <i_epik_Tot_abs_Q>
0

> <r_epik_Metal_State_Penalty>
-0

> <b_epik_Metal_Only>
0

> <s_epik_Chemistry_Notes>
This compound contains an acetal/aminal-like group ( X-CH(R)-Y where X, Y are N, S, or O) that may be acid/base labile, releasing an aldehyde.

> <s_lp_Force_Field>
OPLS_2005

> <r_lp_Energy>
35.164

> <b_lp_Chiralities_Consistent>
1

> <s_lp_Variant>
AV-unprocessed.smi:158-3

> <Gold.Version>
5.8.1

> <Gold.Id.Protein>
6NUR|6NUR_protein|mol2

> <Gold.PLP.Fitness>
43.8336

> <Gold.PLP.PLP>
-32.2251

> <Gold.PLP.part.hbond>
-5.0000

> <Gold.PLP.part.metal>
0.0000

> <Gold.PLP.part.buried>
-4.6342

> <Gold.PLP.part.nonpolar>
-22.8405

> <Gold.PLP.part.repulsive>
0.3340

> <Gold.PLP.ligand.clash>
0.0000

> <Gold.PLP.ligand.torsion>
0.1077

> <Gold.PLP.Chemscore.Hbond>
3.1031

> <Gold.PLP.Chemscore.CHOScore>
0.8381

> <Gold.PLP.Chemscore.Metal>
0.0000

> <Gold.Chemscore.Hbonds>
donor molecule, donor type, donor heavy atom, donor atom, acceptor molecule, acceptor atom, score
      L1  H     1    25       P1  7957  0.99
      L1  H     1    26       P1  7948  1.00
      P1  H  6933  6945       L1    18  0.52
      P1  H  7989  7998       L1     9  0.58
      L1  C    10    27       P1  8028  0.70

> <Gold.PLP.Chemscore.Internal.Correction>
0.0002

> <Gold.Rescore>
     Score         DG    S(hbond)    S(metal)    S(lipo)     H(rot)  DE(clash)    DE(int)     intcor
     12.26     -12.82       2.90        0.00      48.29       3.12       0.36       0.21       ----

> <Gold.Chemscore.Fitness>
12.2582

> <Gold.Chemscore.DG>
-12.8224

> <Gold.Chemscore.ZeroCoef>
-5.4800

> <Gold.Chemscore.Hbond>
2.9004

> <Gold.Chemscore.Metal>
0.0000

> <Gold.Chemscore.Lipo>
48.2920

> <Gold.Chemscore.Internal_Hbond>
0.0000

> <Gold.Chemscore.DEClash>
0.3552

> <Gold.Chemscore.DEInternal>
0.2090

> <Gold.Chemscore.Rot>
3.1230

> <Gold.Chemscore.Internal.Correction>
   9.000000E+99

> <Gold.Chemscore.Hbonds>
donor molecule, donor type, donor heavy atom, donor atom, acceptor molecule, acceptor atom, score
      L1  H     1    25       P1  7957  0.87
      L1  H     1    26       P1  7948  0.88
      P1  H  6933  6945       L1    18  0.47
      P1  H  7989  7998       L1     9  0.30

> <Gold.Chemscore.Hbond.Weighted>
-9.6872

> <Gold.Chemscore.Metal.Weighted>
-0.0000

> <Gold.Chemscore.Lipo.Weighted>
-5.6502

> <Gold.Chemscore.Internal_Hbond.Weighted>
0.0000

> <Gold.Chemscore.DEClash.Weighted>
0.3552

> <Gold.Chemscore.DEInternal.Weighted>
0.2090

> <Gold.Chemscore.Rot.Weighted>
7.9950

> <Gold.Chemscore.Internal.Correction.Weighted>
   9.000000E+99

> <Gold.Protein.RotatedTorsions>
[ 6907 6896 6895 6894 ] final  -54.19 input  -60.11 | X-H torsion
[ 7974 7965 7964 7962 ] final   -4.78 input  175.53 | X-H torsion
[ 8008 7997 7996 7995 ] final  -97.76 input   59.86 | X-H torsion
[ 10167 10162 10161 10158 ] final  133.10 input  -65.29 | X-H torsion
[ 10718 10713 10712 10709 ] final  117.98 input   66.30 | X-H torsion
[ 10763 10752 10751 10750 ] final  -44.24 input  -60.55 | X-H torsion
[ 11005 11000 10999 10996 ] final -114.19 input  -57.11 | X-H torsion

> <Gold.Protein.ActiveResidues>
 VAL166  LYS551  ARG553  GLY616  TRP617  ASP618  TYR619  PRO620  LYS621  CYS622 
 ASP623  PHE694  ASN695  SER759  ASP760  ASP761  ALA762  ILE779  LEU786  VAL792 
 PHE793  MET794  SER795  GLU796  ALA797  LYS798  CYS799  TRP800  GLU811  SER814 

> <Gold.Protein.RotatedAtoms>
  150.8360  134.7633  159.6892 H   0  0  0  0  0  0  0  0  0  0  0  0  # atno 6907 bound_to 6896
  152.4457  134.5497  159.9873 H   0  0  0  0  0  0  0  0  0  0  0  0  # atno 6908 bound_to 6896
  151.5647  133.3360  159.3013 H   0  0  0  0  0  0  0  0  0  0  0  0  # atno 6909 bound_to 6896
  146.2366  140.1923  142.8333 H   0  0  0  0  0  0  0  0  0  0  0  0  # atno 7974 bound_to 7965
  154.7920  140.0460  157.1208 H   0  0  0  0  0  0  0  0  0  0  0  0  # atno 8008 bound_to 7997
  154.9579  140.3073  155.5024 H   0  0  0  0  0  0  0  0  0  0  0  0  # atno 8009 bound_to 7997
  156.2951  140.2276  156.4662 H   0  0  0  0  0  0  0  0  0  0  0  0  # atno 8010 bound_to 7997
  139.5311  144.6631  151.4947 H   0  0  0  0  0  0  0  0  0  0  0  0  # atno 10167 bound_to 10162
  157.6061  131.1043  150.7692 H   0  0  0  0  0  0  0  0  0  0  0  0  # atno 10718 bound_to 10713
  154.0088  135.6684  153.4764 H   0  0  0  0  0  0  0  0  0  0  0  0  # atno 10763 bound_to 10752
  153.0630  135.5017  154.8132 H   0  0  0  0  0  0  0  0  0  0  0  0  # atno 10764 bound_to 10752
  154.7008  135.3078  154.9307 H   0  0  0  0  0  0  0  0  0  0  0  0  # atno 10765 bound_to 10752
  141.0568  133.9600  157.2740 H   0  0  0  0  0  0  0  0  0  0  0  0  # atno 11005 bound_to 11000
  144.9848  140.8493  143.5375 LP  0  0  0  0  0  0  0  0  0  0  0  0  # atno 17320 bound_to 7965
  145.1921  139.2296  143.5237 LP  0  0  0  0  0  0  0  0  0  0  0  0  # atno 17321 bound_to 7965
  140.6490  143.8736  150.6766 LP  0  0  0  0  0  0  0  0  0  0  0  0  # atno 17342 bound_to 10162
  140.2095  143.3895  152.1729 LP  0  0  0  0  0  0  0  0  0  0  0  0  # atno 17343 bound_to 10162
  156.8079  130.4943  149.5360 LP  0  0  0  0  0  0  0  0  0  0  0  0  # atno 17370 bound_to 10713
  156.1147  130.6066  151.0102 LP  0  0  0  0  0  0  0  0  0  0  0  0  # atno 17371 bound_to 10713
  139.9397  135.0192  156.8668 LP  0  0  0  0  0  0  0  0  0  0  0  0  # atno 17394 bound_to 11000
  140.5949  134.0227  155.7514 LP  0  0  0  0  0  0  0  0  0  0  0  0  # atno 17395 bound_to 11000

$$$$
