AV-unprocessed.smi:788|AV-procd|sdf|3736|dock2
  -GOLD-   22720 1173D 1   1.00000     0.00000
 Structure written by MMmdl.
 34 35  0  0  0  0  0  0  0  0  2 V2000
  151.7817  138.0514  154.9730 C   0  0  0  0  0  0  0  0  0  0  0  0
  151.5166  139.4906  155.4470 C   0  0  1  0  0  0  0  0  0  0  0  0
  150.0519  139.9059  155.1992 C   0  0  0  0  0  0  0  0  0  0  0  0
  149.8004  141.3620  155.6197 C   0  0  0  0  0  0  0  0  0  0  0  0
  150.2009  141.6023  157.0834 C   0  0  0  0  0  0  0  0  0  0  0  0
  151.6662  141.1954  157.3434 C   0  0  1  0  0  0  0  0  0  0  0  0
  152.0793  141.4815  158.7977 C   0  0  0  0  0  0  0  0  0  0  0  0
  151.9232  139.7260  156.9239 C   0  0  1  0  0  0  0  0  0  0  0  0
  151.2111  138.8085  157.8167 N   0  0  0  0  0  0  0  0  0  0  0  0
  151.6131  137.5976  158.2499 C   0  0  0  0  0  0  0  0  0  0  0  0
  152.6899  137.1469  157.8626 O   0  0  0  0  0  0  0  0  0  0  0  0
  150.7903  136.9335  159.1043 N   0  5  0  0  0  0  0  0  0  0  0  0
  149.4590  137.1321  159.1221 C   0  0  0  0  0  0  0  0  0  0  0  0
  148.7454  137.1302  160.2597 N   0  0  0  0  0  0  0  0  0  0  0  0
  147.3881  137.3344  160.0525 N   0  0  0  0  0  0  0  0  0  0  0  0
  147.1130  137.4971  158.7586 C   0  0  0  0  0  0  0  0  0  0  0  0
  148.4862  137.4137  157.6754 S   0  0  0  0  0  0  0  0  0  0  0  0
  151.1385  137.3337  155.4831 H   0  0  0  0  0  0  0  0  0  0  0  0
  152.8163  137.7622  155.1590 H   0  0  0  0  0  0  0  0  0  0  0  0
  151.5992  137.9525  153.9028 H   0  0  0  0  0  0  0  0  0  0  0  0
  152.1450  140.1397  154.8354 H   0  0  0  0  0  0  0  0  0  0  0  0
  149.8042  139.7850  154.1441 H   0  0  0  0  0  0  0  0  0  0  0  0
  149.3787  139.2459  155.7484 H   0  0  0  0  0  0  0  0  0  0  0  0
  150.3677  142.0314  154.9720 H   0  0  0  0  0  0  0  0  0  0  0  0
  148.7489  141.6125  155.4771 H   0  0  0  0  0  0  0  0  0  0  0  0
  150.0580  142.6548  157.3301 H   0  0  0  0  0  0  0  0  0  0  0  0
  149.5348  141.0415  157.7406 H   0  0  0  0  0  0  0  0  0  0  0  0
  152.2943  141.8239  156.7104 H   0  0  0  0  0  0  0  0  0  0  0  0
  151.4537  140.9417  159.5095 H   0  0  0  0  0  0  0  0  0  0  0  0
  151.9941  142.5441  159.0261 H   0  0  0  0  0  0  0  0  0  0  0  0
  153.1143  141.1884  158.9757 H   0  0  0  0  0  0  0  0  0  0  0  0
  152.9973  139.5510  157.0021 H   0  0  0  0  0  0  0  0  0  0  0  0
  150.3155  139.1309  158.1520 H   0  0  0  0  0  0  0  0  0  0  0  0
  146.0957  137.6680  158.4402 H   0  0  0  0  0  0  0  0  0  0  0  0
  1  2  1  0  0  0  0
  1 18  1  0  0  0  0
  1 19  1  0  0  0  0
  1 20  1  0  0  0  0
  2  8  1  0  0  0  0
  2  3  1  0  0  0  0
  2 21  1  0  0  0  0
  3  4  1  0  0  0  0
  3 22  1  0  0  0  0
  3 23  1  0  0  0  0
  4  5  1  0  0  0  0
  4 24  1  0  0  0  0
  4 25  1  0  0  0  0
  5  6  1  0  0  0  0
  5 26  1  0  0  0  0
  5 27  1  0  0  0  0
  6  7  1  0  0  0  0
  6  8  1  0  0  0  0
  6 28  1  0  0  0  0
  7 29  1  0  0  0  0
  7 30  1  0  0  0  0
  7 31  1  0  0  0  0
  8  9  1  0  0  0  0
  8 32  1  0  0  0  0
  9 10  1  0  0  0  0
  9 33  1  0  0  0  0
 10 11  2  0  0  0  0
 10 12  1  0  0  0  0
 12 13  1  0  0  0  0
 13 17  1  0  0  0  0
 13 14  2  0  0  0  0
 14 15  1  0  0  0  0
 15 16  2  0  0  0  0
 16 17  1  0  0  0  0
 16 34  1  0  0  0  0
M  CHG  1  12  -1
M  END
> <s_m_source_file>
AV-unprocessed.smi

> <i_m_source_file_index>
788

> <i_lp_mmshare_version>
43012

> <i_f3d_flags>
0

> <s_epik_input>
W0NIM11bQ0BASF0xW0NIMl1bQ0gyXVtDSDJdW0NAQEhdKFtDSDNdKVtDQEhdMVtOSF1DKD1PKVtOSF1jMm5uW2NIXXMy

> <s_epik_cmdline>
J2VwaWtfcHl0aG9uJywgJy1waCcsICc3LjAnLCAnLXRuJywgJzgnLCAnLW1hJywgJzIwMCcsICctbWV0YWxfYmluZGluZycsICctaW1hZScsICc8aW5maWxlLm1hZT4nLCAnLW9tYWUnLCAnPG91dGZpbGUubWFlPic=

> <r_lp_tautomer_probability>
1

> <r_epik_Ionization_Penalty>
4.58638

> <r_epik_Ionization_Penalty_Charging>
4.53816

> <r_epik_Ionization_Penalty_Neutral>
0.048215

> <r_epik_State_Penalty>
4.53788

> <r_epik_Charging_Adjusted_Penalty>
9.07605

> <i_epik_Tot_Q>
-1

> <i_epik_Tot_abs_Q>
1

> <r_epik_Metal_State_Penalty>
0.838628

> <b_epik_Metal_Only>
1

> <s_lp_Force_Field>
OPLS_2005

> <r_lp_Energy>
10.1282

> <b_lp_Chiralities_Consistent>
1

> <s_lp_Variant>
AV-unprocessed.smi:788-6

> <Gold.Version>
5.8.1

> <Gold.Id.Protein>
6NUR|6NUR_protein|mol2

> <Gold.PLP.Fitness>
35.0069

> <Gold.PLP.PLP>
-25.7142

> <Gold.PLP.part.hbond>
-3.4613

> <Gold.PLP.part.metal>
0.0000

> <Gold.PLP.part.buried>
-4.9653

> <Gold.PLP.part.nonpolar>
-18.6320

> <Gold.PLP.part.repulsive>
0.0412

> <Gold.PLP.ligand.clash>
0.0000

> <Gold.PLP.ligand.torsion>
0.7831

> <Gold.PLP.Chemscore.Hbond>
3.6160

> <Gold.PLP.Chemscore.CHOScore>
0.0000

> <Gold.PLP.Chemscore.Metal>
0.0000

> <Gold.Chemscore.Hbonds>
donor molecule, donor type, donor heavy atom, donor atom, acceptor molecule, acceptor atom, score
      P1  H  6896  6909       L1    12  2.00
      P1  H  6931  6943       L1    14  0.62
      P1  H  6934  6947       L1    15  0.99

> <Gold.PLP.Chemscore.Internal.Correction>
0.0109

> <Gold.Rescore>
     Score         DG    S(hbond)    S(metal)    S(lipo)     H(rot)  DE(clash)    DE(int)     intcor
     13.00     -13.82       1.39        0.00      53.48       1.00       0.00       0.83       ----

> <Gold.Chemscore.Fitness>
12.9957

> <Gold.Chemscore.DG>
-13.8211

> <Gold.Chemscore.ZeroCoef>
-5.4800

> <Gold.Chemscore.Hbond>
1.3902

> <Gold.Chemscore.Metal>
0.0000

> <Gold.Chemscore.Lipo>
53.4842

> <Gold.Chemscore.Internal_Hbond>
0.0000

> <Gold.Chemscore.DEClash>
0.0000

> <Gold.Chemscore.DEInternal>
0.8253

> <Gold.Chemscore.Rot>
1.0000

> <Gold.Chemscore.Internal.Correction>
   9.000000E+99

> <Gold.Chemscore.Hbonds>
donor molecule, donor type, donor heavy atom, donor atom, acceptor molecule, acceptor atom, score
      P1  H  6896  6909       L1    12  0.51
      P1  H  6931  6943       L1    14  0.18
      P1  H  6934  6947       L1    15  0.16

> <Gold.Chemscore.Hbond.Weighted>
-4.6434

> <Gold.Chemscore.Metal.Weighted>
-0.0000

> <Gold.Chemscore.Lipo.Weighted>
-6.2577

> <Gold.Chemscore.Internal_Hbond.Weighted>
0.0000

> <Gold.Chemscore.DEClash.Weighted>
0.0000

> <Gold.Chemscore.DEInternal.Weighted>
0.8253

> <Gold.Chemscore.Rot.Weighted>
2.5600

> <Gold.Chemscore.Internal.Correction.Weighted>
   9.000000E+99

> <Gold.Protein.RotatedTorsions>
[ 6907 6896 6895 6894 ] final   89.65 input  -60.11 | X-H torsion
[ 7974 7965 7964 7962 ] final   79.96 input  175.53 | X-H torsion
[ 8008 7997 7996 7995 ] final    9.50 input   59.86 | X-H torsion
[ 10167 10162 10161 10158 ] final -137.31 input  -65.29 | X-H torsion
[ 10718 10713 10712 10709 ] final -133.02 input   66.30 | X-H torsion
[ 10763 10752 10751 10750 ] final -132.90 input  -60.55 | X-H torsion
[ 11005 11000 10999 10996 ] final  139.97 input  -57.11 | X-H torsion

> <Gold.Protein.ActiveResidues>
 VAL166  LYS551  ARG553  GLY616  TRP617  ASP618  TYR619  PRO620  LYS621  CYS622 
 ASP623  PHE694  ASN695  SER759  ASP760  ASP761  ALA762  ILE779  LEU786  VAL792 
 PHE793  MET794  SER795  GLU796  ALA797  LYS798  CYS799  TRP800  GLU811  SER814 

> <Gold.Protein.RotatedAtoms>
  152.5438  134.1934  159.8682 H   0  0  0  0  0  0  0  0  0  0  0  0  # atno 6907 bound_to 6896
  151.1928  133.4650  159.2602 H   0  0  0  0  0  0  0  0  0  0  0  0  # atno 6908 bound_to 6896
  151.1066  135.0015  159.8530 H   0  0  0  0  0  0  0  0  0  0  0  0  # atno 6909 bound_to 6896
  145.6574  139.2462  143.1942 H   0  0  0  0  0  0  0  0  0  0  0  0  # atno 7974 bound_to 7965
  154.7808  140.2818  155.6065 H   0  0  0  0  0  0  0  0  0  0  0  0  # atno 8008 bound_to 7997
  156.2949  140.2623  156.2561 H   0  0  0  0  0  0  0  0  0  0  0  0  # atno 8009 bound_to 7997
  154.9786  140.0375  157.2257 H   0  0  0  0  0  0  0  0  0  0  0  0  # atno 8010 bound_to 7997
  139.8591  143.7100  152.2651 H   0  0  0  0  0  0  0  0  0  0  0  0  # atno 10167 bound_to 10162
  156.2406  130.7093  151.0953 H   0  0  0  0  0  0  0  0  0  0  0  0  # atno 10718 bound_to 10713
  154.8738  135.3783  154.4485 H   0  0  0  0  0  0  0  0  0  0  0  0  # atno 10763 bound_to 10752
  153.5163  135.7029  153.5759 H   0  0  0  0  0  0  0  0  0  0  0  0  # atno 10764 bound_to 10752
  153.4026  135.3944  155.1964 H   0  0  0  0  0  0  0  0  0  0  0  0  # atno 10765 bound_to 10752
  140.0293  134.9359  157.0631 H   0  0  0  0  0  0  0  0  0  0  0  0  # atno 11005 bound_to 11000
  146.1154  140.7376  142.9483 LP  0  0  0  0  0  0  0  0  0  0  0  0  # atno 17320 bound_to 7965
  144.7101  140.4006  143.7087 LP  0  0  0  0  0  0  0  0  0  0  0  0  # atno 17321 bound_to 7965
  139.7391  144.7564  151.0680 LP  0  0  0  0  0  0  0  0  0  0  0  0  # atno 17342 bound_to 10162
  140.7777  143.4994  150.9791 LP  0  0  0  0  0  0  0  0  0  0  0  0  # atno 17343 bound_to 10162
  157.7173  131.0702  150.6275 LP  0  0  0  0  0  0  0  0  0  0  0  0  # atno 17370 bound_to 10713
  156.6348  130.4442  149.5773 LP  0  0  0  0  0  0  0  0  0  0  0  0  # atno 17371 bound_to 10713
  140.4253  134.1838  155.7166 LP  0  0  0  0  0  0  0  0  0  0  0  0  # atno 17394 bound_to 11000
  141.1821  133.8391  157.1219 LP  0  0  0  0  0  0  0  0  0  0  0  0  # atno 17395 bound_to 11000

$$$$
