#       Name:                AV-unprocessed.smi:3183
#       Creating user name   scv26
#       Creation time:       Fri Mar 27 17:59:41 2020


#       File generated by GOLD software.
#

@<TRIPOS>MOLECULE
AV-unprocessed.smi:3183
    44    45     1
SMALL
NO_CHARGES


@<TRIPOS>ATOM
      1 ****        -3.4440   2.2373  -1.9711 C.3            1 S1                 0.0000
      2 ****        -2.6429   2.8231  -0.7906 C.3            1 S1                 0.0000
      3 ****        -1.1361   2.9028  -1.1100 C.3            1 S1                 0.0000
      4 ****        -0.4586   1.5214  -1.1022 C.3            1 S1                 0.0000
      5 ****        -0.6832   0.7883   0.2367 C.3            1 S1                 0.0000
      6 ****        -0.0935  -0.5689   0.2221 N.4            1 S1                 1.0000
      7 ****         1.3799  -0.6195   0.3261 C.3            1 S1                 0.0000
      8 ****         1.8770  -2.0714   0.3849 C.3            1 S1                 0.0000
      9 ****         3.3652  -2.2083   0.4953 C.2            1 S1                 0.0000
     10 ****         4.3547  -1.2667   0.5787 C.2            1 S1                 0.0000
     11 ****         5.5535  -2.0270   0.6633 C.2            1 S1                 0.0000
     12 ****         5.3303  -3.3290   0.6349 N.2            1 S1                 0.0000
     13 ****         3.9892  -3.4422   0.5321 N.pl3          1 S1                 0.0000
     14 ****         3.3912  -4.7623   0.4749 C.3            1 S1                 0.0000
     15 ****        -2.1874   0.6972   0.5567 C.3            1 S1                 0.0000
     16 ****        -2.8603   2.0849   0.5550 C.3            1 S1                 0.0000
     17 ****        -4.3379   2.0040   0.9732 C.3            1 S1                 0.0000
     18 ****        -3.2070   1.1894  -2.1519 H              1 S1                 0.0000
     19 ****        -3.2337   2.7834  -2.8910 H              1 S1                 0.0000
     20 ****        -4.5180   2.3095  -1.8006 H              1 S1                 0.0000
     21 ****        -2.9941   3.8480  -0.6618 H              1 S1                 0.0000
     22 ****        -0.9797   3.3889  -2.0737 H              1 S1                 0.0000
     23 ****        -0.6477   3.5399  -0.3714 H              1 S1                 0.0000
     24 ****        -0.8407   0.9179  -1.9262 H              1 S1                 0.0000
     25 ****         0.6063   1.6548  -1.2913 H              1 S1                 0.0000
     26 ****        -0.2060   1.3567   1.0368 H              1 S1                 0.0000
     27 ****        -0.4667  -1.0709   1.0152 H              1 S1                 0.0000
     28 ****         1.8266  -0.1141  -0.5300 H              1 S1                 0.0000
     29 ****         1.6944  -0.0830   1.2224 H              1 S1                 0.0000
     30 ****         1.4123  -2.5750   1.2335 H              1 S1                 0.0000
     31 ****         1.5377  -2.6015  -0.5059 H              1 S1                 0.0000
     32 ****         4.2438  -0.1925   0.5798 H              1 S1                 0.0000
     33 ****         6.5711  -1.6741   0.7441 H              1 S1                 0.0000
     34 ****         2.6908  -4.8841   1.3014 H              1 S1                 0.0000
     35 ****         4.1569  -5.5364   0.5458 H              1 S1                 0.0000
     36 ****         2.8563  -4.8824  -0.4675 H              1 S1                 0.0000
     37 ****        -2.6829   0.0424  -0.1611 H              1 S1                 0.0000
     38 ****        -2.3216   0.2306   1.5337 H              1 S1                 0.0000
     39 ****        -2.3615   2.6794   1.3222 H              1 S1                 0.0000
     40 ****        -4.9108   1.3516   0.3139 H              1 S1                 0.0000
     41 ****        -4.8051   2.9892   0.9600 H              1 S1                 0.0000
     42 ****        -4.4349   1.6096   1.9849 H              1 S1                 0.0000
     43 ****        -0.3850  -1.0423  -0.6212 H              1 S1                 0.0000
     44 ****         6.0046  -4.0661   0.6796 LP             1 S1                 0.0000
@<TRIPOS>BOND
    1    1    2 1     
    2    1   18 1     
    3    1   19 1     
    4    1   20 1     
    5    2   16 1     
    6    2    3 1     
    7    2   21 1     
    8    3    4 1     
    9    3   22 1     
   10    3   23 1     
   11    4    5 1     
   12    4   24 1     
   13    4   25 1     
   14    5    6 1     
   15    5   15 1     
   16    5   26 1     
   17    6    7 1     
   18    6   27 1     
   19    6   43 1     
   20    7    8 1     
   21    7   28 1     
   22    7   29 1     
   23    8    9 1     
   24    8   30 1     
   25    8   31 1     
   26    9   13 1     
   27    9   10 2     
   28   10   11 1     
   29   10   32 1     
   30   11   12 2     
   31   11   33 1     
   32   12   13 1     
   33   13   14 1     
   34   14   34 1     
   35   14   35 1     
   36   14   36 1     
   37   15   16 1     
   38   15   37 1     
   39   15   38 1     
   40   16   17 1     
   41   16   39 1     
   42   17   40 1     
   43   17   41 1     
   44   17   42 1     
   45   12   44 1     
@<TRIPOS>SUBSTRUCTURE
      1 S1             1
@<TRIPOS>SET
LONE_PAIRS      STATIC     ATOMS    <user>   **** ""
1 44
DONOR_HYDROGENS      STATIC     ATOMS    <user>   **** ""
2 27 43
ATOM$BLUE        STATIC     ATOMS    COLORGROUP SYSTEM
1 44
ATOM$RED        STATIC     ATOMS    COLORGROUP SYSTEM
2 27 43
