AV-unprocessed.smi:1426|AV-procd|sdf|5808|dock7
  -GOLD-   22720 5463D 1   1.00000     0.00000
 Structure written by MMmdl.
 44 46  0  0  0  0  0  0  0  0  2 V2000
  150.4094  134.1176  155.6392 O   0  0  0  0  0  0  0  0  0  0  0  0
  149.8632  134.6471  154.6715 C   0  0  0  0  0  0  0  0  0  0  0  0
  149.9559  135.9544  154.3908 N   0  0  0  0  0  0  0  0  0  0  0  0
  150.7014  136.9288  155.1806 C   0  0  0  0  0  0  0  0  0  0  0  0
  150.6267  138.3423  154.5725 C   0  0  1  0  0  0  0  0  0  0  0  0
  149.2418  138.9542  154.6064 C   0  0  0  0  0  0  0  0  0  0  0  0
  149.5497  140.4346  154.4055 C   0  0  0  0  0  0  0  0  0  0  0  0
  150.8172  140.6524  155.0184 O   0  0  0  0  0  0  0  0  0  0  0  0
  151.4378  139.4049  155.3169 C   0  0  0  0  0  0  0  0  0  0  0  0
  149.0863  134.0107  153.7791 N   0  0  0  0  0  0  0  0  0  0  0  0
  148.7366  132.6305  153.7480 C   0  0  0  0  0  0  0  0  0  0  0  0
  149.4022  131.6848  154.5701 C   0  0  0  0  0  0  0  0  0  0  0  0
  149.0233  130.3297  154.5323 C   0  0  0  0  0  0  0  0  0  0  0  0
  147.9861  129.9378  153.6692 C   0  0  0  0  0  0  0  0  0  0  0  0
  147.3861  130.8567  152.8850 N   0  3  0  0  0  0  0  0  0  0  0  0
  147.7155  132.1728  152.8648 C   0  0  0  0  0  0  0  0  0  0  0  0
  147.0070  133.0157  151.9782 N   0  0  0  0  0  0  0  0  0  0  0  0
  146.3732  134.2349  152.4664 C   0  0  0  0  0  0  0  0  0  0  0  0
  145.4325  134.6683  151.3456 C   0  0  0  0  0  0  0  0  0  0  0  0
  144.9516  133.3319  150.7887 C   0  0  0  0  0  0  0  0  0  0  0  0
  146.1700  132.4153  150.9441 C   0  0  0  0  0  0  0  0  0  0  0  0
  149.4734  136.3053  153.5764 H   0  0  0  0  0  0  0  0  0  0  0  0
  150.3308  136.9390  156.2071 H   0  0  0  0  0  0  0  0  0  0  0  0
  151.7387  136.5973  155.2328 H   0  0  0  0  0  0  0  0  0  0  0  0
  150.9601  138.3124  153.5335 H   0  0  0  0  0  0  0  0  0  0  0  0
  148.5758  138.5521  153.8422 H   0  0  0  0  0  0  0  0  0  0  0  0
  148.7775  138.7984  155.5814 H   0  0  0  0  0  0  0  0  0  0  0  0
  149.6349  140.6640  153.3426 H   0  0  0  0  0  0  0  0  0  0  0  0
  148.7827  141.0820  154.8312 H   0  0  0  0  0  0  0  0  0  0  0  0
  151.3858  139.2470  156.3950 H   0  0  0  0  0  0  0  0  0  0  0  0
  152.4890  139.4053  155.0268 H   0  0  0  0  0  0  0  0  0  0  0  0
  148.6188  134.5949  153.1016 H   0  0  0  0  0  0  0  0  0  0  0  0
  150.2063  131.9777  155.2282 H   0  0  0  0  0  0  0  0  0  0  0  0
  149.5215  129.6033  155.1575 H   0  0  0  0  0  0  0  0  0  0  0  0
  147.6260  128.9234  153.5752 H   0  0  0  0  0  0  0  0  0  0  0  0
  145.7958  134.0307  153.3692 H   0  0  0  0  0  0  0  0  0  0  0  0
  147.1114  135.0041  152.6955 H   0  0  0  0  0  0  0  0  0  0  0  0
  144.6191  135.3051  151.6946 H   0  0  0  0  0  0  0  0  0  0  0  0
  145.9878  135.2126  150.5803 H   0  0  0  0  0  0  0  0  0  0  0  0
  144.1294  132.9569  151.3998 H   0  0  0  0  0  0  0  0  0  0  0  0
  144.6002  133.4000  149.7585 H   0  0  0  0  0  0  0  0  0  0  0  0
  146.7336  132.3851  150.0112 H   0  0  0  0  0  0  0  0  0  0  0  0
  145.8703  131.3971  151.1957 H   0  0  0  0  0  0  0  0  0  0  0  0
  146.6437  130.5389  152.2619 H   0  0  0  0  0  0  0  0  0  0  0  0
  1  2  2  0  0  0  0
  2  3  1  0  0  0  0
  2 10  1  0  0  0  0
  3  4  1  0  0  0  0
  3 22  1  0  0  0  0
  4  5  1  0  0  0  0
  4 23  1  0  0  0  0
  4 24  1  0  0  0  0
  5  9  1  0  0  0  0
  5  6  1  0  0  0  0
  5 25  1  0  0  0  0
  6  7  1  0  0  0  0
  6 26  1  0  0  0  0
  6 27  1  0  0  0  0
  7  8  1  0  0  0  0
  7 28  1  0  0  0  0
  7 29  1  0  0  0  0
  8  9  1  0  0  0  0
  9 30  1  0  0  0  0
  9 31  1  0  0  0  0
 10 11  1  0  0  0  0
 10 32  1  0  0  0  0
 11 16  1  0  0  0  0
 11 12  2  0  0  0  0
 12 13  1  0  0  0  0
 12 33  1  0  0  0  0
 13 14  2  0  0  0  0
 13 34  1  0  0  0  0
 14 15  1  0  0  0  0
 14 35  1  0  0  0  0
 15 16  2  0  0  0  0
 15 44  1  0  0  0  0
 16 17  1  0  0  0  0
 17 21  1  0  0  0  0
 17 18  1  0  0  0  0
 18 19  1  0  0  0  0
 18 36  1  0  0  0  0
 18 37  1  0  0  0  0
 19 20  1  0  0  0  0
 19 38  1  0  0  0  0
 19 39  1  0  0  0  0
 20 21  1  0  0  0  0
 20 40  1  0  0  0  0
 20 41  1  0  0  0  0
 21 42  1  0  0  0  0
 21 43  1  0  0  0  0
M  CHG  1  15   1
M  END
> <s_m_source_file>
AV-unprocessed.smi

> <i_m_source_file_index>
1426

> <i_lp_mmshare_version>
43012

> <i_f3d_flags>
0

> <s_epik_input>
W0NIMl0xT1tDSDJdW0NIMl1bQ0BIXTFbQ0gyXVtOSF1DKD1PKVtOSF1jMltjSF1bY0hdW2NIXW5jMk4zW0NIMl1bQ0gyXVtDSDJdW0NIMl0z

> <s_epik_cmdline>
J2VwaWtfcHl0aG9uJywgJy1waCcsICc3LjAnLCAnLXRuJywgJzgnLCAnLW1hJywgJzIwMCcsICctbWV0YWxfYmluZGluZycsICctaW1hZScsICc8aW5maWxlLm1hZT4nLCAnLW9tYWUnLCAnPG91dGZpbGUubWFlPic=

> <r_lp_tautomer_probability>
0.999994

> <r_epik_Ionization_Penalty>
1.10677

> <r_epik_Ionization_Penalty_Charging>
1.10675

> <r_epik_Ionization_Penalty_Neutral>
2.02663e-05

> <r_epik_State_Penalty>
1.16438

> <r_epik_Charging_Adjusted_Penalty>
2.27113

> <i_epik_Tot_Q>
1

> <i_epik_Tot_abs_Q>
1

> <r_epik_Metal_State_Penalty>
1.25078

> <b_epik_Metal_Only>
0

> <s_lp_Force_Field>
OPLS_2005

> <r_lp_Energy>
54.362

> <b_lp_Chiralities_Consistent>
1

> <s_lp_Variant>
AV-unprocessed.smi:1426-4

> <Gold.Version>
5.8.1

> <Gold.Id.Protein>
6NUR|6NUR_protein|mol2

> <Gold.PLP.Fitness>
44.4996

> <Gold.PLP.PLP>
-37.5896

> <Gold.PLP.part.hbond>
-4.6659

> <Gold.PLP.part.metal>
0.0000

> <Gold.PLP.part.buried>
-1.4633

> <Gold.PLP.part.nonpolar>
-31.4815

> <Gold.PLP.part.repulsive>
0.3361

> <Gold.PLP.ligand.clash>
0.0000

> <Gold.PLP.ligand.torsion>
0.2373

> <Gold.PLP.Chemscore.Hbond>
2.3309

> <Gold.PLP.Chemscore.CHOScore>
0.0000

> <Gold.PLP.Chemscore.Metal>
0.0000

> <Gold.Chemscore.Hbonds>
donor molecule, donor type, donor heavy atom, donor atom, acceptor molecule, acceptor atom, score
      L1  H     3    22       P1  7948  1.00
      L1  H    10    32       P1  7948  0.80
      P1  H  7989  7998       L1     8  0.52

> <Gold.PLP.Chemscore.Internal.Correction>
0.3921

> <Gold.Rescore>
     Score         DG    S(hbond)    S(metal)    S(lipo)     H(rot)  DE(clash)    DE(int)     intcor
     12.53     -15.09       1.31        0.00      75.42       1.40       0.01       2.54       ----

> <Gold.Chemscore.Fitness>
12.5317

> <Gold.Chemscore.DG>
-15.0857

> <Gold.Chemscore.ZeroCoef>
-5.4800

> <Gold.Chemscore.Hbond>
1.3088

> <Gold.Chemscore.Metal>
0.0000

> <Gold.Chemscore.Lipo>
75.4200

> <Gold.Chemscore.Internal_Hbond>
0.0000

> <Gold.Chemscore.DEClash>
0.0104

> <Gold.Chemscore.DEInternal>
2.5437

> <Gold.Chemscore.Rot>
1.4023

> <Gold.Chemscore.Internal.Correction>
   9.000000E+99

> <Gold.Chemscore.Hbonds>
donor molecule, donor type, donor heavy atom, donor atom, acceptor molecule, acceptor atom, score
      L1  H     3    22       P1  7948  0.63
      L1  H    10    32       P1  7948  0.19
      P1  H  7989  7998       L1     8  0.01

> <Gold.Chemscore.Hbond.Weighted>
-4.3714

> <Gold.Chemscore.Metal.Weighted>
-0.0000

> <Gold.Chemscore.Lipo.Weighted>
-8.8241

> <Gold.Chemscore.Internal_Hbond.Weighted>
0.0000

> <Gold.Chemscore.DEClash.Weighted>
0.0104

> <Gold.Chemscore.DEInternal.Weighted>
2.5437

> <Gold.Chemscore.Rot.Weighted>
3.5898

> <Gold.Chemscore.Internal.Correction.Weighted>
   9.000000E+99

> <Gold.Protein.RotatedTorsions>
[ 6907 6896 6895 6894 ] final   98.37 input  -60.11 | X-H torsion
[ 7974 7965 7964 7962 ] final  -25.70 input  175.53 | X-H torsion
[ 8008 7997 7996 7995 ] final  -39.22 input   59.86 | X-H torsion
[ 10167 10162 10161 10158 ] final   43.64 input  -65.29 | X-H torsion
[ 10718 10713 10712 10709 ] final  163.64 input   66.30 | X-H torsion
[ 10763 10752 10751 10750 ] final  -30.83 input  -60.55 | X-H torsion
[ 11005 11000 10999 10996 ] final  -54.21 input  -57.11 | X-H torsion

> <Gold.Protein.ActiveResidues>
 VAL166  LYS551  ARG553  GLY616  TRP617  ASP618  TYR619  PRO620  LYS621  CYS622 
 ASP623  PHE694  ASN695  SER759  ASP760  ASP761  ALA762  ILE779  LEU786  VAL792 
 PHE793  MET794  SER795  GLU796  ALA797  LYS798  CYS799  TRP800  GLU811  SER814 

> <Gold.Protein.RotatedAtoms>
  152.5410  134.0592  159.8144 H   0  0  0  0  0  0  0  0  0  0  0  0  # atno 6907 bound_to 6896
  151.0722  133.5449  159.2633 H   0  0  0  0  0  0  0  0  0  0  0  0  # atno 6908 bound_to 6896
  151.2308  135.0562  159.9041 H   0  0  0  0  0  0  0  0  0  0  0  0  # atno 6909 bound_to 6896
  146.1474  140.4921  142.8626 H   0  0  0  0  0  0  0  0  0  0  0  0  # atno 7974 bound_to 7965
  154.4026  140.1557  156.2828 H   0  0  0  0  0  0  0  0  0  0  0  0  # atno 8008 bound_to 7997
  155.8854  140.3441  155.5896 H   0  0  0  0  0  0  0  0  0  0  0  0  # atno 8009 bound_to 7997
  155.7619  140.0818  157.2141 H   0  0  0  0  0  0  0  0  0  0  0  0  # atno 8010 bound_to 7997
  140.3423  144.2454  150.6154 H   0  0  0  0  0  0  0  0  0  0  0  0  # atno 10167 bound_to 10162
  157.1057  131.0454  151.2479 H   0  0  0  0  0  0  0  0  0  0  0  0  # atno 10718 bound_to 10713
  153.7875  135.6900  153.4877 H   0  0  0  0  0  0  0  0  0  0  0  0  # atno 10763 bound_to 10752
  153.1771  135.4520  154.9978 H   0  0  0  0  0  0  0  0  0  0  0  0  # atno 10764 bound_to 10752
  154.8058  135.3356  154.7373 H   0  0  0  0  0  0  0  0  0  0  0  0  # atno 10765 bound_to 10752
  141.1014  133.6617  156.4287 H   0  0  0  0  0  0  0  0  0  0  0  0  # atno 11005 bound_to 11000
  144.7862  140.5942  143.6572 LP  0  0  0  0  0  0  0  0  0  0  0  0  # atno 17320 bound_to 7965
  145.4905  139.1489  143.3712 LP  0  0  0  0  0  0  0  0  0  0  0  0  # atno 17321 bound_to 7965
  140.5297  143.2246  151.8258 LP  0  0  0  0  0  0  0  0  0  0  0  0  # atno 17342 bound_to 10162
  139.4838  144.4736  151.9395 LP  0  0  0  0  0  0  0  0  0  0  0  0  # atno 17343 bound_to 10162
  157.4603  130.7649  149.7229 LP  0  0  0  0  0  0  0  0  0  0  0  0  # atno 17370 bound_to 10713
  155.9862  130.3976  150.3221 LP  0  0  0  0  0  0  0  0  0  0  0  0  # atno 17371 bound_to 10713
  140.5011  134.6484  157.5249 LP  0  0  0  0  0  0  0  0  0  0  0  0  # atno 17394 bound_to 11000
  139.9868  134.7049  155.9760 LP  0  0  0  0  0  0  0  0  0  0  0  0  # atno 17395 bound_to 11000

$$$$
