#       Name:                AV-unprocessed.smi:41
#       Creating user name   scv26
#       Creation time:       Thu Mar 26 16:24:19 2020


#       File generated by GOLD software.
#

@<TRIPOS>MOLECULE
AV-unprocessed.smi:41
    33    34     1
SMALL
NO_CHARGES


@<TRIPOS>ATOM
      1 ****        -4.8391   0.5611   0.0792 N.pl3          1 S1                 0.0000
      2 ****        -3.5039   0.4588   0.1459 C.2            1 S1                 0.0000
      3 ****        -2.7641   1.4965  -0.1930 N.2            1 S1                 0.0000
      4 ****        -1.3941   1.4867  -0.1608 C.2            1 S1                 0.0000
      5 ****        -0.7577   2.4791  -0.5127 O.2            1 S1                 0.0000
      6 ****        -0.7562   0.3029   0.2909 N.am           1 S1                 0.0000
      7 ****         0.7005   0.1903   0.2759 C.3            1 S1                 0.0000
      8 ****         1.3127  -0.3492   1.5862 C.3            1 S1                 0.0000
      9 ****         2.8803  -1.1165   1.1423 S.3            1 S1                 0.0000
     10 ****         2.4677  -0.9575  -0.6108 C.3            1 S1                 0.0000
     11 ****         3.3278   0.1079  -1.3166 C.3            1 S1                 0.0000
     12 ****         4.6646  -0.3330  -1.4296 O.3            1 S1                 0.0000
     13 ****         1.0888  -0.6539  -0.7622 O.3            1 S1                 0.0000
     14 ****        -1.5300  -0.8040   0.6191 C.2            1 S1                 0.0000
     15 ****        -2.8791  -0.7718   0.5727 C.2            1 S1                 0.0000
     16 ****        -3.6102  -1.8505   0.9027 F              1 S1                 0.0000
     17 ****         1.1414   1.1665   0.0715 H              1 S1                 0.0000
     18 ****         2.6371  -1.9208  -1.0932 H              1 S1                 0.0000
     19 ****        -5.4175  -0.2284   0.3292 H              1 S1                 0.0000
     20 ****        -5.2636   1.4260  -0.2234 H              1 S1                 0.0000
     21 ****         1.4491   0.4636   2.2999 H              1 S1                 0.0000
     22 ****         0.6886  -1.1094   2.0504 H              1 S1                 0.0000
     23 ****         2.9464   0.2911  -2.3216 H              1 S1                 0.0000
     24 ****         3.3059   1.0590  -0.7840 H              1 S1                 0.0000
     25 ****         5.1666   0.3378  -1.8668 H              1 S1                 0.0000
     26 ****        -1.0629  -1.7333   0.9088 H              1 S1                 0.0000
     27 ****        -3.2261   2.3328  -0.4884 LP             1 S1                 0.0000
     28 ****        -1.2400   3.2979  -0.8241 LP             1 S1                 0.0000
     29 ****         0.2419   2.4670  -0.4874 LP             1 S1                 0.0000
     30 ****         4.6967  -1.1789  -1.9620 LP             1 S1                 0.0000
     31 ****         5.0434  -0.4977  -0.5189 LP             1 S1                 0.0000
     32 ****         0.9389  -0.1988  -1.6399 LP             1 S1                 0.0000
     33 ****         0.5529  -1.4974  -0.7283 LP             1 S1                 0.0000
@<TRIPOS>BOND
    1    1    2 1     
    2    1   19 1     
    3    1   20 1     
    4    2   15 1     
    5    2    3 2     
    6    3    4 1     
    7    4    5 2     
    8    4    6 am    
    9    6    7 1     
   10    6   14 1     
   11    7   17 1     
   12    7   13 1     
   13    7    8 1     
   14    8    9 1     
   15    8   21 1     
   16    8   22 1     
   17    9   10 1     
   18   10   18 1     
   19   10   11 1     
   20   10   13 1     
   21   11   12 1     
   22   11   23 1     
   23   11   24 1     
   24   12   25 1     
   25   14   15 2     
   26   14   26 1     
   27   15   16 1     
   28    3   27 1     
   29    5   28 1     
   30    5   29 1     
   31   12   30 1     
   32   12   31 1     
   33   13   32 1     
   34   13   33 1     
@<TRIPOS>SUBSTRUCTURE
      1 S1             1
@<TRIPOS>SET
LONE_PAIRS      STATIC     ATOMS    <user>   **** ""
7 27 28 29 30 31 32 33
DONOR_HYDROGENS      STATIC     ATOMS    <user>   **** ""
3 19 20 25
ATOM$BLUE        STATIC     ATOMS    COLORGROUP SYSTEM
7 27 28 29 30 31 32 33
ATOM$RED        STATIC     ATOMS    COLORGROUP SYSTEM
3 19 20 25
