#       Name:                AV-unprocessed.smi:714
#       Creating user name   scv26
#       Creation time:       Fri Mar 27 00:47:38 2020


#       File generated by GOLD software.
#

@<TRIPOS>MOLECULE
AV-unprocessed.smi:714
    44    45     1
SMALL
NO_CHARGES


@<TRIPOS>ATOM
      1 ****        -5.2141  -2.5810  -3.4586 C.1            1 S1                 0.0000
      2 ****        -4.7680  -2.7513  -2.3347 C.1            1 S1                 0.0000
      3 ****        -4.2203  -2.9435  -0.9812 C.3            1 S1                 0.0000
      4 ****        -2.7761  -2.7451  -0.9257 N.am           1 S1                 0.0000
      5 ****        -2.1533  -1.5729  -0.7079 C.2            1 S1                 0.0000
      6 ****        -2.7809  -0.5285  -0.5237 O.2            1 S1                 0.0000
      7 ****        -0.6917  -1.6705  -0.7163 C.2            1 S1                 0.0000
      8 ****         0.0220  -2.9144  -0.9538 C.2            1 S1                 0.0000
      9 ****         1.3673  -2.9500  -0.9033 C.2            1 S1                 0.0000
     10 ****         2.1644  -1.7525  -0.6218 C.2            1 S1                 0.0000
     11 ****         3.3918  -1.8032  -0.5411 O.2            1 S1                 0.0000
     12 ****         1.4628  -0.5867  -0.4632 N.am           1 S1                 0.0000
     13 ****         2.1824   0.6749  -0.1578 C.3            1 S1                 0.0000
     14 ****         1.6344   1.9003  -0.9243 C.3            1 S1                 0.0000
     15 ****         0.9971   2.8280   0.1188 C.3            1 S1                 0.0000
     16 ****         1.3797   2.2724   1.4040 N.am           1 S1                 0.0000
     17 ****         1.0213   2.9575   2.6446 C.3            1 S1                 0.0000
     18 ****         2.2084   3.7216   3.2581 C.3            1 S1                 0.0000
     19 ****         1.7932   4.3605   4.3511 F              1 S1                 0.0000
     20 ****         3.1917   2.8906   3.6027 F              1 S1                 0.0000
     21 ****         2.6774   4.6209   2.3930 F              1 S1                 0.0000
     22 ****         1.9797   1.0809   1.3015 C.2            1 S1                 0.0000
     23 ****         2.3449   0.3766   2.2422 O.2            1 S1                 0.0000
     24 ****         0.0485  -0.5702  -0.4810 C.2            1 S1                 0.0000
     25 ****        -5.6032  -2.4287  -4.4403 H              1 S1                 0.0000
     26 ****        -4.7412  -2.2754  -0.2939 H              1 S1                 0.0000
     27 ****        -4.4470  -3.9631  -0.6696 H              1 S1                 0.0000
     28 ****        -2.2014  -3.5627  -1.0692 H              1 S1                 0.0000
     29 ****        -0.5032  -3.8326  -1.1718 H              1 S1                 0.0000
     30 ****         1.8760  -3.8866  -1.0788 H              1 S1                 0.0000
     31 ****         3.2549   0.6061  -0.3456 H              1 S1                 0.0000
     32 ****         2.4649   2.4202  -1.4037 H              1 S1                 0.0000
     33 ****         0.9380   1.6461  -1.7243 H              1 S1                 0.0000
     34 ****         1.3467   3.8556   0.0130 H              1 S1                 0.0000
     35 ****        -0.0900   2.8267   0.0307 H              1 S1                 0.0000
     36 ****         0.2048   3.6521   2.4427 H              1 S1                 0.0000
     37 ****         0.6314   2.2338   3.3622 H              1 S1                 0.0000
     38 ****        -0.3936   0.3927  -0.2729 H              1 S1                 0.0000
     39 ****        -3.7808  -0.5376  -0.5337 LP             1 S1                 0.0000
     40 ****        -2.2903   0.3282  -0.3642 LP             1 S1                 0.0000
     41 ****         3.8657  -2.6745  -0.6685 LP             1 S1                 0.0000
     42 ****         3.9149  -0.9730  -0.3481 LP             1 S1                 0.0000
     43 ****         2.7939  -0.4994   2.0661 LP             1 S1                 0.0000
     44 ****         2.1927   0.6803   3.1827 LP             1 S1                 0.0000
@<TRIPOS>BOND
    1    1    2 3     
    2    1   25 1     
    3    2    3 1     
    4    3    4 1     
    5    3   26 1     
    6    3   27 1     
    7    4    5 am    
    8    4   28 1     
    9    5    6 2     
   10    5    7 1     
   11    7   24 2     
   12    7    8 1     
   13    8    9 2     
   14    8   29 1     
   15    9   10 1     
   16    9   30 1     
   17   10   11 2     
   18   10   12 am    
   19   12   13 1     
   20   12   24 1     
   21   13   22 1     
   22   13   14 1     
   23   13   31 1     
   24   14   15 1     
   25   14   32 1     
   26   14   33 1     
   27   15   16 1     
   28   15   34 1     
   29   15   35 1     
   30   16   17 1     
   31   16   22 am    
   32   17   18 1     
   33   17   36 1     
   34   17   37 1     
   35   18   19 1     
   36   18   20 1     
   37   18   21 1     
   38   22   23 2     
   39   24   38 1     
   40    6   39 1     
   41    6   40 1     
   42   11   41 1     
   43   11   42 1     
   44   23   43 1     
   45   23   44 1     
@<TRIPOS>SUBSTRUCTURE
      1 S1             1
@<TRIPOS>SET
LONE_PAIRS      STATIC     ATOMS    <user>   **** ""
6 39 40 41 42 43 44
DONOR_HYDROGENS      STATIC     ATOMS    <user>   **** ""
1 28
ATOM$BLUE        STATIC     ATOMS    COLORGROUP SYSTEM
6 39 40 41 42 43 44
ATOM$RED        STATIC     ATOMS    COLORGROUP SYSTEM
1 28
