AV-unprocessed.smi:861|AV-procd|sdf|3973|dock3
  -GOLD-   22720 1443D 1   1.00000     0.00000
 Structure written by MMmdl.
 45 46  0  0  0  0  0  0  0  0  3 V2000
  145.9043  131.9912  150.1569 C   0  0  0  0  0  0  0  0  0  0  0  0
  145.7695  132.6295  151.5499 C   0  0  0  0  0  0  0  0  0  0  0  0
  144.5867  133.6097  151.5748 C   0  0  0  0  0  0  0  0  0  0  0  0
  147.0643  133.3286  152.0136 C   0  0  0  0  0  0  0  0  0  0  0  0
  146.9919  133.8996  153.4429 C   0  0  0  0  0  0  0  0  0  0  0  0
  148.2791  134.5107  153.8702 N   0  3  2  0  0  0  0  0  0  0  0  0
  149.4031  133.5453  153.9426 C   0  0  0  0  0  0  0  0  0  0  0  0
  149.3238  132.6943  155.2223 C   0  0  0  0  0  0  0  0  0  0  0  0
  149.3027  133.5511  156.3577 O   0  0  0  0  0  0  0  0  0  0  0  0
  148.1644  134.4069  156.3764 C   0  0  1  0  0  0  0  0  0  0  0  0
  148.2095  135.2382  157.6710 C   0  0  0  0  0  0  0  0  0  0  0  0
  147.9398  134.4399  158.8600 N   0  0  0  0  0  0  0  0  0  0  0  0
  147.7476  135.0274  160.1191 C   0  0  0  0  0  0  0  0  0  0  0  0
  147.4831  134.3064  161.3075 C   0  0  0  0  0  0  0  0  0  0  0  0
  147.3153  135.0276  162.5019 C   0  0  0  0  0  0  0  0  0  0  0  0
  147.4198  136.4282  162.4377 C   0  0  0  0  0  0  0  0  0  0  0  0
  147.6717  137.0993  161.2919 N   0  0  0  0  0  0  0  0  0  0  0  0
  147.8274  136.3809  160.1658 N   0  3  0  0  0  0  0  0  0  0  0  0
  148.2033  135.3086  155.1219 C   0  0  0  0  0  0  0  0  0  0  0  0
  146.1848  132.7311  149.4067 H   0  0  0  0  0  0  0  0  0  0  0  0
  144.9620  131.5422  149.8412 H   0  0  0  0  0  0  0  0  0  0  0  0
  146.6526  131.1995  150.1440 H   0  0  0  0  0  0  0  0  0  0  0  0
  145.5421  131.8337  152.2604 H   0  0  0  0  0  0  0  0  0  0  0  0
  144.7447  134.4391  150.8844 H   0  0  0  0  0  0  0  0  0  0  0  0
  144.4402  134.0290  152.5706 H   0  0  0  0  0  0  0  0  0  0  0  0
  143.6581  133.1137  151.2908 H   0  0  0  0  0  0  0  0  0  0  0  0
  147.9026  132.6344  151.9400 H   0  0  0  0  0  0  0  0  0  0  0  0
  147.2815  134.1339  151.3127 H   0  0  0  0  0  0  0  0  0  0  0  0
  146.1752  134.6158  153.5298 H   0  0  0  0  0  0  0  0  0  0  0  0
  146.7529  133.0830  154.1238 H   0  0  0  0  0  0  0  0  0  0  0  0
  149.4302  132.9128  153.0545 H   0  0  0  0  0  0  0  0  0  0  0  0
  150.3379  134.1076  153.9436 H   0  0  0  0  0  0  0  0  0  0  0  0
  148.4437  132.0495  155.2166 H   0  0  0  0  0  0  0  0  0  0  0  0
  150.1942  132.0417  155.2917 H   0  0  0  0  0  0  0  0  0  0  0  0
  147.2563  133.8032  156.3703 H   0  0  0  0  0  0  0  0  0  0  0  0
  149.1942  135.6933  157.7816 H   0  0  0  0  0  0  0  0  0  0  0  0
  147.5017  136.0657  157.6212 H   0  0  0  0  0  0  0  0  0  0  0  0
  147.7454  133.4557  158.7393 H   0  0  0  0  0  0  0  0  0  0  0  0
  147.4081  133.2296  161.3211 H   0  0  0  0  0  0  0  0  0  0  0  0
  147.1114  134.5262  163.4366 H   0  0  0  0  0  0  0  0  0  0  0  0
  147.2981  137.0279  163.3279 H   0  0  0  0  0  0  0  0  0  0  0  0
  149.0865  135.9477  155.1648 H   0  0  0  0  0  0  0  0  0  0  0  0
  147.3462  135.9807  155.1068 H   0  0  0  0  0  0  0  0  0  0  0  0
  148.5205  135.1540  153.1294 H   0  0  0  0  0  0  0  0  0  0  0  0
  148.0166  136.8822  159.2974 H   0  0  0  0  0  0  0  0  0  0  0  0
  1  2  1  0  0  0  0
  1 20  1  0  0  0  0
  1 21  1  0  0  0  0
  1 22  1  0  0  0  0
  2  3  1  0  0  0  0
  2  4  1  0  0  0  0
  2 23  1  0  0  0  0
  3 24  1  0  0  0  0
  3 25  1  0  0  0  0
  3 26  1  0  0  0  0
  4  5  1  0  0  0  0
  4 27  1  0  0  0  0
  4 28  1  0  0  0  0
  5  6  1  0  0  0  0
  5 29  1  0  0  0  0
  5 30  1  0  0  0  0
  6 19  1  0  0  0  0
  6  7  1  0  0  0  0
  6 44  1  0  0  0  0
  7  8  1  0  0  0  0
  7 31  1  0  0  0  0
  7 32  1  0  0  0  0
  8  9  1  0  0  0  0
  8 33  1  0  0  0  0
  8 34  1  0  0  0  0
  9 10  1  0  0  0  0
 10 11  1  0  0  0  0
 10 19  1  0  0  0  0
 10 35  1  0  0  0  0
 11 12  1  0  0  0  0
 11 36  1  0  0  0  0
 11 37  1  0  0  0  0
 12 13  1  0  0  0  0
 12 38  1  0  0  0  0
 13 18  1  0  0  0  0
 13 14  2  0  0  0  0
 14 15  1  0  0  0  0
 14 39  1  0  0  0  0
 15 16  2  0  0  0  0
 15 40  1  0  0  0  0
 16 17  1  0  0  0  0
 16 41  1  0  0  0  0
 17 18  2  0  0  0  0
 18 45  1  0  0  0  0
 19 42  1  0  0  0  0
 19 43  1  0  0  0  0
M  CHG  1   6   1
M  CHG  1  18   1
M  END
> <s_m_source_file>
AV-unprocessed.smi

> <i_m_source_file_index>
861

> <i_lp_mmshare_version>
43012

> <i_f3d_flags>
0

> <s_epik_input>
W0NIM11bQ0hdKFtDSDNdKVtDSDJdW0NIMl1OMVtDSDJdW0NIMl1PW0NASF0oW0NIMl0xKVtDSDJdW05IXWMyW2NIXVtjSF1bY0hdbm4y

> <s_epik_cmdline>
J2VwaWtfcHl0aG9uJywgJy1waCcsICc3LjAnLCAnLXRuJywgJzgnLCAnLW1hJywgJzIwMCcsICctbWV0YWxfYmluZGluZycsICctaW1hZScsICc8aW5maWxlLm1hZT4nLCAnLW9tYWUnLCAnPG91dGZpbGUubWFlPic=

> <r_lp_tautomer_probability>
0.966961

> <r_epik_Ionization_Penalty>
2.478

> <r_epik_Ionization_Penalty_Charging>
2.47799

> <r_epik_Ionization_Penalty_Neutral>
3.15286e-06

> <r_epik_State_Penalty>
2.10794

> <r_epik_Charging_Adjusted_Penalty>
4.58594

> <i_epik_Tot_Q>
2

> <i_epik_Tot_abs_Q>
2

> <r_epik_Metal_State_Penalty>
2.11378

> <b_epik_Metal_Only>
0

> <s_lp_Force_Field>
OPLS_2005

> <r_lp_Energy>
36.5784

> <b_lp_Chiralities_Consistent>
1

> <s_lp_Variant>
AV-unprocessed.smi:861-8

> <Gold.Version>
5.8.1

> <Gold.Id.Protein>
6NUR|6NUR_protein|mol2

> <Gold.PLP.Fitness>
44.2711

> <Gold.PLP.PLP>
-32.9803

> <Gold.PLP.part.hbond>
-3.0000

> <Gold.PLP.part.metal>
0.0000

> <Gold.PLP.part.buried>
-4.9075

> <Gold.PLP.part.nonpolar>
-25.3098

> <Gold.PLP.part.repulsive>
0.2410

> <Gold.PLP.ligand.clash>
0.0000

> <Gold.PLP.ligand.torsion>
0.1324

> <Gold.PLP.Chemscore.Hbond>
3.8406

> <Gold.PLP.Chemscore.CHOScore>
0.0000

> <Gold.PLP.Chemscore.Metal>
0.0000

> <Gold.Chemscore.Hbonds>
donor molecule, donor type, donor heavy atom, donor atom, acceptor molecule, acceptor atom, score
      L1  H     6    44       P1  7948  2.00
      P1  H  6931  6943       L1    17  0.95
      P1  H  6934  6947       L1    17  0.86

> <Gold.PLP.Chemscore.Internal.Correction>
0.0338

> <Gold.Rescore>
     Score         DG    S(hbond)    S(metal)    S(lipo)     H(rot)  DE(clash)    DE(int)     intcor
     16.02     -16.20       1.94        0.00      75.16       1.78       0.00       0.17       ----

> <Gold.Chemscore.Fitness>
16.0238

> <Gold.Chemscore.DG>
-16.1970

> <Gold.Chemscore.ZeroCoef>
-5.4800

> <Gold.Chemscore.Hbond>
1.9371

> <Gold.Chemscore.Metal>
0.0000

> <Gold.Chemscore.Lipo>
75.1563

> <Gold.Chemscore.Internal_Hbond>
0.0000

> <Gold.Chemscore.DEClash>
0.0000

> <Gold.Chemscore.DEInternal>
0.1733

> <Gold.Chemscore.Rot>
1.7759

> <Gold.Chemscore.Internal.Correction>
   9.000000E+99

> <Gold.Chemscore.Hbonds>
donor molecule, donor type, donor heavy atom, donor atom, acceptor molecule, acceptor atom, score
      L1  H     6    44       P1  7948  0.82
      P1  H  6931  6943       L1    17  0.20
      P1  H  6934  6947       L1    17  0.69

> <Gold.Chemscore.Hbond.Weighted>
-6.4699

> <Gold.Chemscore.Metal.Weighted>
-0.0000

> <Gold.Chemscore.Lipo.Weighted>
-8.7933

> <Gold.Chemscore.Internal_Hbond.Weighted>
0.0000

> <Gold.Chemscore.DEClash.Weighted>
0.0000

> <Gold.Chemscore.DEInternal.Weighted>
0.1733

> <Gold.Chemscore.Rot.Weighted>
4.5462

> <Gold.Chemscore.Internal.Correction.Weighted>
   9.000000E+99

> <Gold.Protein.RotatedTorsions>
[ 6907 6896 6895 6894 ] final    1.22 input  -60.11 | X-H torsion
[ 7974 7965 7964 7962 ] final  -62.00 input  175.53 | X-H torsion
[ 8008 7997 7996 7995 ] final  -55.42 input   59.86 | X-H torsion
[ 10167 10162 10161 10158 ] final -139.83 input  -65.29 | X-H torsion
[ 10718 10713 10712 10709 ] final -158.84 input   66.30 | X-H torsion
[ 10763 10752 10751 10750 ] final -105.64 input  -60.55 | X-H torsion
[ 11005 11000 10999 10996 ] final  -55.36 input  -57.11 | X-H torsion

> <Gold.Protein.ActiveResidues>
 VAL166  LYS551  ARG553  GLY616  TRP617  ASP618  TYR619  PRO620  LYS621  CYS622 
 ASP623  PHE694  ASN695  SER759  ASP760  ASP761  ALA762  ILE779  LEU786  VAL792 
 PHE793  MET794  SER795  GLU796  ALA797  LYS798  CYS799  TRP800  GLU811  SER814 

> <Gold.Protein.RotatedAtoms>
  151.5890  135.1054  160.0034 H   0  0  0  0  0  0  0  0  0  0  0  0  # atno 6907 bound_to 6896
  152.4316  133.7283  159.6583 H   0  0  0  0  0  0  0  0  0  0  0  0  # atno 6908 bound_to 6896
  150.8209  133.8184  159.3162 H   0  0  0  0  0  0  0  0  0  0  0  0  # atno 6909 bound_to 6896
  145.7966  140.8679  143.0253 H   0  0  0  0  0  0  0  0  0  0  0  0  # atno 7974 bound_to 7965
  154.4194  140.1153  156.5473 H   0  0  0  0  0  0  0  0  0  0  0  0  # atno 8008 bound_to 7997
  155.6446  140.3496  155.4707 H   0  0  0  0  0  0  0  0  0  0  0  0  # atno 8009 bound_to 7997
  155.9843  140.1166  157.0687 H   0  0  0  0  0  0  0  0  0  0  0  0  # atno 8010 bound_to 7997
  139.8341  143.7407  152.2665 H   0  0  0  0  0  0  0  0  0  0  0  0  # atno 10167 bound_to 10162
  156.5598  130.8642  151.2806 H   0  0  0  0  0  0  0  0  0  0  0  0  # atno 10718 bound_to 10713
  154.7960  135.4741  154.0162 H   0  0  0  0  0  0  0  0  0  0  0  0  # atno 10763 bound_to 10752
  153.1705  135.6824  153.8622 H   0  0  0  0  0  0  0  0  0  0  0  0  # atno 10764 bound_to 10752
  153.8206  135.3205  155.3387 H   0  0  0  0  0  0  0  0  0  0  0  0  # atno 10765 bound_to 10752
  141.1070  133.6612  156.4458 H   0  0  0  0  0  0  0  0  0  0  0  0  # atno 11005 bound_to 11000
  144.6774  140.0199  143.7484 LP  0  0  0  0  0  0  0  0  0  0  0  0  # atno 17320 bound_to 7965
  145.9921  139.3023  143.0978 LP  0  0  0  0  0  0  0  0  0  0  0  0  # atno 17321 bound_to 7965
  139.7624  144.7502  151.0344 LP  0  0  0  0  0  0  0  0  0  0  0  0  # atno 17342 bound_to 10162
  140.7804  143.4736  151.0113 LP  0  0  0  0  0  0  0  0  0  0  0  0  # atno 17343 bound_to 10162
  157.7371  130.9789  150.2172 LP  0  0  0  0  0  0  0  0  0  0  0  0  # atno 17370 bound_to 10713
  156.2809  130.3733  149.7936 LP  0  0  0  0  0  0  0  0  0  0  0  0  # atno 17371 bound_to 10713
  140.4876  134.6606  157.5197 LP  0  0  0  0  0  0  0  0  0  0  0  0  # atno 17394 bound_to 11000
  139.9945  134.6933  155.9633 LP  0  0  0  0  0  0  0  0  0  0  0  0  # atno 17395 bound_to 11000

$$$$
