AV-unprocessed.smi:2525|AV-procd|sdf|9931|dock6
  -GOLD-   2272013573D 1   1.00000     0.00000
 Structure written by MMmdl.
 44 45  0  0  0  0  0  0  0  0  1 V2000
  147.7836  140.8365  157.1521 C   0  0  0  0  0  0  0  0  0  0  0  0
  149.0419  140.1073  157.6527 C   0  0  0  0  0  0  0  0  0  0  0  0
  150.3750  140.4395  156.9386 C   0  0  0  0  0  0  0  0  0  0  0  0
  150.4895  141.9905  156.8910 C   0  0  0  0  0  0  0  0  0  0  0  0
  150.1988  142.7377  158.2065 C   0  0  0  0  0  0  0  0  0  0  0  0
  151.6479  139.6879  157.4302 C   0  0  2  0  0  0  0  0  0  0  0  0
  152.5161  140.4834  158.2919 N   0  0  0  0  0  0  0  0  0  0  0  0
  153.1469  140.0196  159.3803 C   0  0  0  0  0  0  0  0  0  0  0  0
  153.0786  138.8506  159.7591 O   0  0  0  0  0  0  0  0  0  0  0  0
  153.9804  141.0318  160.1670 C   0  0  0  0  0  0  0  0  0  0  0  0
  153.1841  142.1873  160.5397 N   0  0  0  0  0  0  0  0  0  0  0  0
  152.9145  142.6764  161.8020 C   0  0  0  0  0  0  0  0  0  0  0  0
  152.1369  143.7723  161.5584 C   0  0  0  0  0  0  0  0  0  0  0  0
  151.9677  143.9031  160.1809 N   0  0  0  0  0  0  0  0  0  0  0  0
  152.6006  142.9452  159.5796 N   0  0  0  0  0  0  0  0  0  0  0  0
  152.1447  139.5985  155.9819 C   0  0  1  0  0  0  0  0  0  0  0  0
  152.9680  138.3866  155.5630 C   0  0  0  0  0  0  0  0  0  0  0  0
  150.6548  139.6803  155.6096 C   0  0  2  0  0  0  0  0  0  0  0  0
  150.3804  140.4469  154.4476 O   0  0  0  0  0  0  0  0  0  0  0  0
  149.0422  140.9063  154.3759 C   0  0  0  0  0  0  0  0  0  0  0  0
  146.9321  140.6019  157.7911 H   0  0  0  0  0  0  0  0  0  0  0  0
  147.5142  140.5271  156.1422 H   0  0  0  0  0  0  0  0  0  0  0  0
  147.9038  141.9191  157.1594 H   0  0  0  0  0  0  0  0  0  0  0  0
  149.1394  140.3321  158.7151 H   0  0  0  0  0  0  0  0  0  0  0  0
  148.8413  139.0366  157.5948 H   0  0  0  0  0  0  0  0  0  0  0  0
  151.4895  142.2776  156.5636 H   0  0  0  0  0  0  0  0  0  0  0  0
  149.8188  142.3949  156.1330 H   0  0  0  0  0  0  0  0  0  0  0  0
  150.2095  143.8147  158.0386 H   0  0  0  0  0  0  0  0  0  0  0  0
  150.9506  142.5285  158.9671 H   0  0  0  0  0  0  0  0  0  0  0  0
  149.2243  142.4867  158.6220 H   0  0  0  0  0  0  0  0  0  0  0  0
  151.4482  138.6901  157.8228 H   0  0  0  0  0  0  0  0  0  0  0  0
  152.6299  141.4577  158.0527 H   0  0  0  0  0  0  0  0  0  0  0  0
  154.3846  140.5671  161.0677 H   0  0  0  0  0  0  0  0  0  0  0  0
  154.8295  141.3635  159.5677 H   0  0  0  0  0  0  0  0  0  0  0  0
  153.2816  142.2273  162.7131 H   0  0  0  0  0  0  0  0  0  0  0  0
  151.6904  144.4708  162.2507 H   0  0  0  0  0  0  0  0  0  0  0  0
  152.6488  140.5228  155.6941 H   0  0  0  0  0  0  0  0  0  0  0  0
  152.4489  137.4549  155.7889 H   0  0  0  0  0  0  0  0  0  0  0  0
  153.9247  138.3634  156.0847 H   0  0  0  0  0  0  0  0  0  0  0  0
  153.1815  138.3959  154.4951 H   0  0  0  0  0  0  0  0  0  0  0  0
  150.1772  138.6990  155.5828 H   0  0  0  0  0  0  0  0  0  0  0  0
  148.9171  141.5213  153.4850 H   0  0  0  0  0  0  0  0  0  0  0  0
  148.7859  141.5161  155.2432 H   0  0  0  0  0  0  0  0  0  0  0  0
  148.3389  140.0771  154.3079 H   0  0  0  0  0  0  0  0  0  0  0  0
  1  2  1  0  0  0  0
  1 21  1  0  0  0  0
  1 22  1  0  0  0  0
  1 23  1  0  0  0  0
  2  3  1  0  0  0  0
  2 24  1  0  0  0  0
  2 25  1  0  0  0  0
  3 18  1  0  0  0  0
  3  4  1  0  0  0  0
  3  6  1  0  0  0  0
  4  5  1  0  0  0  0
  4 26  1  0  0  0  0
  4 27  1  0  0  0  0
  5 28  1  0  0  0  0
  5 29  1  0  0  0  0
  5 30  1  0  0  0  0
  6  7  1  0  0  0  0
  6 16  1  0  0  0  0
  6 31  1  0  0  0  0
  7  8  1  0  0  0  0
  7 32  1  0  0  0  0
  8  9  2  0  0  0  0
  8 10  1  0  0  0  0
 10 11  1  0  0  0  0
 10 33  1  0  0  0  0
 10 34  1  0  0  0  0
 11 15  1  0  0  0  0
 11 12  1  0  0  0  0
 12 13  2  0  0  0  0
 12 35  1  0  0  0  0
 13 14  1  0  0  0  0
 13 36  1  0  0  0  0
 14 15  2  0  0  0  0
 16 17  1  0  0  0  0
 16 18  1  0  0  0  0
 16 37  1  0  0  0  0
 17 38  1  0  0  0  0
 17 39  1  0  0  0  0
 17 40  1  0  0  0  0
 18 19  1  0  0  0  0
 18 41  1  0  0  0  0
 19 20  1  0  0  0  0
 20 42  1  0  0  0  0
 20 43  1  0  0  0  0
 20 44  1  0  0  0  0
M  END
> <s_m_source_file>
AV-unprocessed.smi

> <i_m_source_file_index>
2525

> <i_lp_mmshare_version>
43012

> <i_f3d_flags>
0

> <s_epik_input>
W0NIM11PW0NAQEhdMVtDQEhdKFtDSDNdKVtDQEBIXShDMShbQ0gyXVtDSDNdKVtDSDJdW0NIM10pW05IXUMoPU8pW0NIMl1uMltjSF1bY0hdbm4y

> <s_epik_cmdline>
J2VwaWtfcHl0aG9uJywgJy1waCcsICc3LjAnLCAnLXRuJywgJzgnLCAnLW1hJywgJzIwMCcsICctbWV0YWxfYmluZGluZycsICctaW1hZScsICc8aW5maWxlLm1hZT4nLCAnLW9tYWUnLCAnPG91dGZpbGUubWFlPic=

> <r_lp_tautomer_probability>
1

> <r_epik_Ionization_Penalty>
1.18045e-06

> <r_epik_Ionization_Penalty_Charging>
0

> <r_epik_Ionization_Penalty_Neutral>
1.18045e-06

> <r_epik_State_Penalty>
-0

> <r_epik_Charging_Adjusted_Penalty>
0

> <i_epik_Tot_Q>
0

> <i_epik_Tot_abs_Q>
0

> <r_epik_Metal_State_Penalty>
-0

> <b_epik_Metal_Only>
0

> <s_lp_Force_Field>
OPLS_2005

> <r_lp_Energy>
27.6116

> <b_lp_Chiralities_Consistent>
1

> <s_lp_Variant>
AV-unprocessed.smi:2525-6

> <Gold.Version>
5.8.1

> <Gold.Id.Protein>
6NUR|6NUR_protein|mol2

> <Gold.PLP.Fitness>
42.6501

> <Gold.PLP.PLP>
-40.3089

> <Gold.PLP.part.hbond>
-0.9751

> <Gold.PLP.part.metal>
0.0000

> <Gold.PLP.part.buried>
-6.1491

> <Gold.PLP.part.nonpolar>
-33.3766

> <Gold.PLP.part.repulsive>
0.2597

> <Gold.PLP.ligand.clash>
0.0000

> <Gold.PLP.ligand.torsion>
0.5975

> <Gold.PLP.Chemscore.Hbond>
0.9760

> <Gold.PLP.Chemscore.CHOScore>
0.0000

> <Gold.PLP.Chemscore.Metal>
0.0000

> <Gold.Chemscore.Hbonds>
donor molecule, donor type, donor heavy atom, donor atom, acceptor molecule, acceptor atom, score
      P1  H  7989  7998       L1    19  0.99

> <Gold.PLP.Chemscore.Internal.Correction>
0.6082

> <Gold.Rescore>
     Score         DG    S(hbond)    S(metal)    S(lipo)     H(rot)  DE(clash)    DE(int)     intcor
     12.10     -13.86       0.91        0.00      88.96       1.98       0.01       1.75       ----

> <Gold.Chemscore.Fitness>
12.0992

> <Gold.Chemscore.DG>
-13.8560

> <Gold.Chemscore.ZeroCoef>
-5.4800

> <Gold.Chemscore.Hbond>
0.9105

> <Gold.Chemscore.Metal>
0.0000

> <Gold.Chemscore.Lipo>
88.9577

> <Gold.Chemscore.Internal_Hbond>
0.0000

> <Gold.Chemscore.DEClash>
0.0098

> <Gold.Chemscore.DEInternal>
1.7471

> <Gold.Chemscore.Rot>
1.9817

> <Gold.Chemscore.Internal.Correction>
   9.000000E+99

> <Gold.Chemscore.Hbonds>
donor molecule, donor type, donor heavy atom, donor atom, acceptor molecule, acceptor atom, score
      P1  H  7989  7998       L1    19  0.91

> <Gold.Chemscore.Hbond.Weighted>
-3.0410

> <Gold.Chemscore.Metal.Weighted>
-0.0000

> <Gold.Chemscore.Lipo.Weighted>
-10.4080

> <Gold.Chemscore.Internal_Hbond.Weighted>
0.0000

> <Gold.Chemscore.DEClash.Weighted>
0.0098

> <Gold.Chemscore.DEInternal.Weighted>
1.7471

> <Gold.Chemscore.Rot.Weighted>
5.0731

> <Gold.Chemscore.Internal.Correction.Weighted>
   9.000000E+99

> <Gold.Protein.RotatedTorsions>
[ 6907 6896 6895 6894 ] final  -81.75 input  -60.11 | X-H torsion
[ 7974 7965 7964 7962 ] final  166.54 input  175.53 | X-H torsion
[ 8008 7997 7996 7995 ] final -177.02 input   59.86 | X-H torsion
[ 10167 10162 10161 10158 ] final    5.80 input  -65.29 | X-H torsion
[ 10718 10713 10712 10709 ] final  -80.83 input   66.30 | X-H torsion
[ 10763 10752 10751 10750 ] final   57.57 input  -60.55 | X-H torsion
[ 11005 11000 10999 10996 ] final  -49.62 input  -57.11 | X-H torsion

> <Gold.Protein.ActiveResidues>
 VAL166  LYS551  ARG553  GLY616  TRP617  ASP618  TYR619  PRO620  LYS621  CYS622 
 ASP623  PHE694  ASN695  SER759  ASP760  ASP761  ALA762  ILE779  LEU786  VAL792 
 PHE793  MET794  SER795  GLU796  ALA797  LYS798  CYS799  TRP800  GLU811  SER814 

> <Gold.Protein.RotatedAtoms>
  150.6907  134.3769  159.5016 H   0  0  0  0  0  0  0  0  0  0  0  0  # atno 6907 bound_to 6896
  152.1577  134.8935  160.0553 H   0  0  0  0  0  0  0  0  0  0  0  0  # atno 6908 bound_to 6896
  152.0008  133.3790  159.4218 H   0  0  0  0  0  0  0  0  0  0  0  0  # atno 6909 bound_to 6896
  144.7458  139.8630  143.6382 H   0  0  0  0  0  0  0  0  0  0  0  0  # atno 7974 bound_to 7965
  156.0018  140.1222  157.0539 H   0  0  0  0  0  0  0  0  0  0  0  0  # atno 8008 bound_to 7997
  154.4245  140.1105  156.5777 H   0  0  0  0  0  0  0  0  0  0  0  0  # atno 8009 bound_to 7997
  155.6201  140.3472  155.4651 H   0  0  0  0  0  0  0  0  0  0  0  0  # atno 8010 bound_to 7997
  140.6462  143.7655  150.7503 H   0  0  0  0  0  0  0  0  0  0  0  0  # atno 10167 bound_to 10162
  156.0062  130.4586  150.3861 H   0  0  0  0  0  0  0  0  0  0  0  0  # atno 10718 bound_to 10713
  152.9853  135.5637  154.5413 H   0  0  0  0  0  0  0  0  0  0  0  0  # atno 10763 bound_to 10752
  154.4867  135.2791  155.1531 H   0  0  0  0  0  0  0  0  0  0  0  0  # atno 10764 bound_to 10752
  154.3017  135.6306  153.5481 H   0  0  0  0  0  0  0  0  0  0  0  0  # atno 10765 bound_to 10752
  141.0769  133.6663  156.3612 H   0  0  0  0  0  0  0  0  0  0  0  0  # atno 11005 bound_to 11000
  146.1335  139.4375  143.0154 LP  0  0  0  0  0  0  0  0  0  0  0  0  # atno 17320 bound_to 7965
  145.7127  141.0101  143.1444 LP  0  0  0  0  0  0  0  0  0  0  0  0  # atno 17321 bound_to 7965
  140.1297  143.4537  152.2262 LP  0  0  0  0  0  0  0  0  0  0  0  0  # atno 17342 bound_to 10162
  139.5673  144.7443  151.3986 LP  0  0  0  0  0  0  0  0  0  0  0  0  # atno 17343 bound_to 10162
  157.1938  131.0421  151.2686 LP  0  0  0  0  0  0  0  0  0  0  0  0  # atno 17370 bound_to 10713
  157.4037  130.7347  149.6787 LP  0  0  0  0  0  0  0  0  0  0  0  0  # atno 17371 bound_to 10713
  140.5553  134.5988  157.5419 LP  0  0  0  0  0  0  0  0  0  0  0  0  # atno 17394 bound_to 11000
  139.9582  134.7498  156.0295 LP  0  0  0  0  0  0  0  0  0  0  0  0  # atno 17395 bound_to 11000

$$$$
