AV-unprocessed.smi:2243|AV-procd|sdf|9071|dock10
  -GOLD-   2272012273D 1   1.00000     0.00000
 Structure written by MMmdl.
 33 34  0  0  0  0  0  0  0  0  2 V2000
  148.8362  135.7083  156.5688 C   0  0  0  0  0  0  0  0  0  0  0  0
  148.4788  137.1937  156.7499 C   0  0  1  0  0  0  0  0  0  0  0  0
  147.9494  137.3632  158.1049 N   0  0  0  0  0  0  0  0  0  0  0  0
  148.5418  137.0036  159.2545 C   0  0  0  0  0  0  0  0  0  0  0  0
  149.6437  136.4503  159.2374 O   0  0  0  0  0  0  0  0  0  0  0  0
  147.8143  137.3015  160.3546 N   0  5  0  0  0  0  0  0  0  0  0  0
  147.2888  136.3128  161.0960 C   0  0  0  0  0  0  0  0  0  0  0  0
  147.1961  136.2850  162.4266 N   0  0  0  0  0  0  0  0  0  0  0  0
  146.5863  135.0798  162.7389 C   0  0  0  0  0  0  0  0  0  0  0  0
  146.3250  134.4252  161.5663 C   0  0  0  0  0  0  0  0  0  0  0  0
  146.7594  135.1949  160.5229 O   0  0  0  0  0  0  0  0  0  0  0  0
  149.6801  138.1469  156.5044 C   0  0  0  0  0  0  0  0  0  0  0  0
  149.2810  139.6374  156.5522 C   0  0  0  0  0  0  0  0  0  0  0  0
  150.4780  140.5481  156.2367 C   0  0  0  0  0  0  0  0  0  0  0  0
  151.0189  140.2189  154.9632 O   0  0  0  0  0  0  0  0  0  0  0  0
  151.5179  138.8885  154.9092 C   0  0  0  0  0  0  0  0  0  0  0  0
  150.3790  137.8850  155.1545 C   0  0  0  0  0  0  0  0  0  0  0  0
  149.1042  135.4783  155.5382 H   0  0  0  0  0  0  0  0  0  0  0  0
  147.9892  135.0706  156.8240 H   0  0  0  0  0  0  0  0  0  0  0  0
  149.6719  135.4199  157.2071 H   0  0  0  0  0  0  0  0  0  0  0  0
  147.7037  137.4280  156.0185 H   0  0  0  0  0  0  0  0  0  0  0  0
  147.0468  137.8088  158.1801 H   0  0  0  0  0  0  0  0  0  0  0  0
  146.3878  134.7871  163.7592 H   0  0  0  0  0  0  0  0  0  0  0  0
  145.8700  133.4786  161.3173 H   0  0  0  0  0  0  0  0  0  0  0  0
  150.4110  137.9759  157.2966 H   0  0  0  0  0  0  0  0  0  0  0  0
  148.4815  139.8285  155.8351 H   0  0  0  0  0  0  0  0  0  0  0  0
  148.8880  139.9031  157.5335 H   0  0  0  0  0  0  0  0  0  0  0  0
  150.1611  141.5911  156.2247 H   0  0  0  0  0  0  0  0  0  0  0  0
  151.2471  140.4592  157.0056 H   0  0  0  0  0  0  0  0  0  0  0  0
  151.9590  138.7197  153.9268 H   0  0  0  0  0  0  0  0  0  0  0  0
  152.3158  138.7573  155.6417 H   0  0  0  0  0  0  0  0  0  0  0  0
  150.7904  136.8768  155.1206 H   0  0  0  0  0  0  0  0  0  0  0  0
  149.6537  137.9552  154.3428 H   0  0  0  0  0  0  0  0  0  0  0  0
  1  2  1  0  0  0  0
  1 18  1  0  0  0  0
  1 19  1  0  0  0  0
  1 20  1  0  0  0  0
  2  3  1  0  0  0  0
  2 12  1  0  0  0  0
  2 21  1  0  0  0  0
  3 22  1  0  0  0  0
  3  4  1  0  0  0  0
  4  6  1  0  0  0  0
  4  5  2  0  0  0  0
  6  7  1  0  0  0  0
  7 11  1  0  0  0  0
  7  8  2  0  0  0  0
  8  9  1  0  0  0  0
  9 23  1  0  0  0  0
  9 10  2  0  0  0  0
 10 24  1  0  0  0  0
 10 11  1  0  0  0  0
 12 17  1  0  0  0  0
 12 13  1  0  0  0  0
 12 25  1  0  0  0  0
 13 14  1  0  0  0  0
 13 26  1  0  0  0  0
 13 27  1  0  0  0  0
 14 15  1  0  0  0  0
 14 28  1  0  0  0  0
 14 29  1  0  0  0  0
 15 16  1  0  0  0  0
 16 17  1  0  0  0  0
 16 30  1  0  0  0  0
 16 31  1  0  0  0  0
 17 32  1  0  0  0  0
 17 33  1  0  0  0  0
M  CHG  1   6  -1
M  END
> <s_m_source_file>
AV-unprocessed.smi

> <i_m_source_file_index>
2243

> <i_lp_mmshare_version>
43012

> <i_f3d_flags>
0

> <s_epik_input>
W0NIMl0xW0NIMl1PW0NIMl1bQ0gyXVtDSF0xW0NASF0oW0NIM10pW05IXUMoPU8pW05IXWMybltjSF1bY0hdbzI=

> <s_epik_cmdline>
J2VwaWtfcHl0aG9uJywgJy1waCcsICc3LjAnLCAnLXRuJywgJzgnLCAnLW1hJywgJzIwMCcsICctbWV0YWxfYmluZGluZycsICctaW1hZScsICc8aW5maWxlLm1hZT4nLCAnLW9tYWUnLCAnPG91dGZpbGUubWFlPic=

> <r_lp_tautomer_probability>
0.107061

> <r_epik_Ionization_Penalty>
11.1403

> <r_epik_Ionization_Penalty_Charging>
7.81312

> <r_epik_Ionization_Penalty_Neutral>
3.32719

> <r_epik_State_Penalty>
5.94317

> <r_epik_Charging_Adjusted_Penalty>
13.7563

> <i_epik_Tot_Q>
-1

> <i_epik_Tot_abs_Q>
1

> <r_epik_Metal_State_Penalty>
1.86619

> <b_epik_Metal_Only>
1

> <s_lp_Force_Field>
OPLS_2005

> <r_lp_Energy>
6.4903

> <b_lp_Chiralities_Consistent>
1

> <s_lp_Variant>
AV-unprocessed.smi:2243-10

> <Gold.Version>
5.8.1

> <Gold.Id.Protein>
6NUR|6NUR_protein|mol2

> <Gold.PLP.Fitness>
37.4528

> <Gold.PLP.PLP>
-24.9618

> <Gold.PLP.part.hbond>
-4.0000

> <Gold.PLP.part.metal>
0.0000

> <Gold.PLP.part.buried>
-5.3386

> <Gold.PLP.part.nonpolar>
-16.9574

> <Gold.PLP.part.repulsive>
0.1387

> <Gold.PLP.ligand.clash>
0.0000

> <Gold.PLP.ligand.torsion>
1.0420

> <Gold.PLP.Chemscore.Hbond>
4.8526

> <Gold.PLP.Chemscore.CHOScore>
0.0000

> <Gold.PLP.Chemscore.Metal>
0.0000

> <Gold.Chemscore.Hbonds>
donor molecule, donor type, donor heavy atom, donor atom, acceptor molecule, acceptor atom, score
      P1  H  6896  6909       L1     5  0.94
      P1  H  6931  6943       L1     6  0.79
      P1  H  6934  6947       L1     6  1.66
      P1  H  7989  7998       L1    15  1.00

> <Gold.PLP.Chemscore.Internal.Correction>
0.0171

> <Gold.Rescore>
     Score         DG    S(hbond)    S(metal)    S(lipo)     H(rot)  DE(clash)    DE(int)     intcor
     14.26     -16.54       2.82        0.00      42.56       1.31       0.00       2.28       ----

> <Gold.Chemscore.Fitness>
14.2600

> <Gold.Chemscore.DG>
-16.5433

> <Gold.Chemscore.ZeroCoef>
-5.4800

> <Gold.Chemscore.Hbond>
2.8227

> <Gold.Chemscore.Metal>
0.0000

> <Gold.Chemscore.Lipo>
42.5606

> <Gold.Chemscore.Internal_Hbond>
0.0000

> <Gold.Chemscore.DEClash>
0.0000

> <Gold.Chemscore.DEInternal>
2.2833

> <Gold.Chemscore.Rot>
1.3063

> <Gold.Chemscore.Internal.Correction>
   9.000000E+99

> <Gold.Chemscore.Hbonds>
donor molecule, donor type, donor heavy atom, donor atom, acceptor molecule, acceptor atom, score
      P1  H  6896  6909       L1     5  0.90
      P1  H  6931  6943       L1     6  0.07
      P1  H  6934  6947       L1     6  0.67
      P1  H  7989  7998       L1    15  0.35

> <Gold.Chemscore.Hbond.Weighted>
-9.4280

> <Gold.Chemscore.Metal.Weighted>
-0.0000

> <Gold.Chemscore.Lipo.Weighted>
-4.9796

> <Gold.Chemscore.Internal_Hbond.Weighted>
0.0000

> <Gold.Chemscore.DEClash.Weighted>
0.0000

> <Gold.Chemscore.DEInternal.Weighted>
2.2833

> <Gold.Chemscore.Rot.Weighted>
3.3443

> <Gold.Chemscore.Internal.Correction.Weighted>
   9.000000E+99

> <Gold.Protein.RotatedTorsions>
[ 6907 6896 6895 6894 ] final   84.25 input  -60.11 | X-H torsion
[ 7974 7965 7964 7962 ] final  -28.88 input  175.53 | X-H torsion
[ 8008 7997 7996 7995 ] final   13.09 input   59.86 | X-H torsion
[ 10167 10162 10161 10158 ] final -145.17 input  -65.29 | X-H torsion
[ 10718 10713 10712 10709 ] final  130.17 input   66.30 | X-H torsion
[ 10763 10752 10751 10750 ] final  153.90 input  -60.55 | X-H torsion
[ 11005 11000 10999 10996 ] final  -73.83 input  -57.11 | X-H torsion

> <Gold.Protein.ActiveResidues>
 VAL166  LYS551  ARG553  GLY616  TRP617  ASP618  TYR619  PRO620  LYS621  CYS622 
 ASP623  PHE694  ASN695  SER759  ASP760  ASP761  ALA762  ILE779  LEU786  VAL792 
 PHE793  MET794  SER795  GLU796  ALA797  LYS798  CYS799  TRP800  GLU811  SER814 

> <Gold.Protein.RotatedAtoms>
  152.5348  134.2770  159.8992 H   0  0  0  0  0  0  0  0  0  0  0  0  # atno 6907 bound_to 6896
  151.2725  133.4242  159.2629 H   0  0  0  0  0  0  0  0  0  0  0  0  # atno 6908 bound_to 6896
  151.0355  134.9585  159.8190 H   0  0  0  0  0  0  0  0  0  0  0  0  # atno 6909 bound_to 6896
  146.1256  140.5341  142.8716 H   0  0  0  0  0  0  0  0  0  0  0  0  # atno 7974 bound_to 7965
  154.8297  140.2897  155.5731 H   0  0  0  0  0  0  0  0  0  0  0  0  # atno 8008 bound_to 7997
  156.3004  140.2534  156.3150 H   0  0  0  0  0  0  0  0  0  0  0  0  # atno 8009 bound_to 7997
  154.9246  140.0385  157.2005 H   0  0  0  0  0  0  0  0  0  0  0  0  # atno 8010 bound_to 7997
  139.7830  143.8074  152.2641 H   0  0  0  0  0  0  0  0  0  0  0  0  # atno 10167 bound_to 10162
  157.5087  131.1096  150.9324 H   0  0  0  0  0  0  0  0  0  0  0  0  # atno 10718 bound_to 10713
  154.1437  135.2819  155.3154 H   0  0  0  0  0  0  0  0  0  0  0  0  # atno 10763 bound_to 10752
  154.6268  135.5449  153.7639 H   0  0  0  0  0  0  0  0  0  0  0  0  # atno 10764 bound_to 10752
  153.0242  135.6452  154.1583 H   0  0  0  0  0  0  0  0  0  0  0  0  # atno 10765 bound_to 10752
  141.1628  133.6891  156.7272 H   0  0  0  0  0  0  0  0  0  0  0  0  # atno 11005 bound_to 11000
  144.7639  140.5486  143.6716 LP  0  0  0  0  0  0  0  0  0  0  0  0  # atno 17320 bound_to 7965
  145.5372  139.1475  143.3467 LP  0  0  0  0  0  0  0  0  0  0  0  0  # atno 17321 bound_to 7965
  139.8142  144.7323  150.9657 LP  0  0  0  0  0  0  0  0  0  0  0  0  # atno 17342 bound_to 10162
  140.7819  143.4221  151.0825 LP  0  0  0  0  0  0  0  0  0  0  0  0  # atno 17343 bound_to 10162
  156.9971  130.5585  149.5308 LP  0  0  0  0  0  0  0  0  0  0  0  0  # atno 17370 bound_to 10713
  156.0275  130.5368  150.8445 LP  0  0  0  0  0  0  0  0  0  0  0  0  # atno 17371 bound_to 10713
  140.2772  134.8345  157.3901 LP  0  0  0  0  0  0  0  0  0  0  0  0  # atno 17394 bound_to 11000
  140.1466  134.4903  155.7991 LP  0  0  0  0  0  0  0  0  0  0  0  0  # atno 17395 bound_to 11000

$$$$
