AV-unprocessed.smi:1046|AV-procd|sdf|4559|dock8
  -GOLD-   22720 3 03D 1   1.00000     0.00000
 Structure written by MMmdl.
 54 56  0  0  0  0  0  0  0  0  3 V2000
  152.8772  143.9448  159.3919 C   0  0  0  0  0  0  0  0  0  0  0  0
  152.2729  142.8966  158.4729 C   0  0  0  0  0  0  0  0  0  0  0  0
  151.2444  143.2891  157.5869 C   0  0  0  0  0  0  0  0  0  0  0  0
  150.7142  142.3090  156.7562 C   0  0  0  0  0  0  0  0  0  0  0  0
  149.7109  142.3766  155.7870 N   0  3  0  0  0  0  0  0  0  0  0  0
  149.5371  141.1481  155.2260 C   0  0  0  0  0  0  0  0  0  0  0  0
  150.4132  140.2956  155.8237 N   0  0  0  0  0  0  0  0  0  0  0  0
  150.6343  138.8609  155.5916 C   0  0  0  0  0  0  0  0  0  0  0  0
  149.6527  138.2669  154.5616 C   0  0  1  0  0  0  0  0  0  0  0  0
  150.0785  136.9874  154.1366 O   0  0  0  0  0  0  0  0  0  0  0  0
  148.1731  138.1808  154.9993 C   0  0  0  0  0  0  0  0  0  0  0  0
  147.2886  139.2525  154.5181 N   0  0  0  0  0  0  0  0  0  0  0  0
  146.9594  139.1804  153.0888 C   0  0  0  0  0  0  0  0  0  0  0  0
  145.9983  138.0265  152.7281 C   0  0  0  0  0  0  0  0  0  0  0  0
  144.7536  138.1106  153.5335 N   0  3  0  0  0  0  0  0  0  0  0  0
  143.7742  137.0527  153.1786 C   0  0  0  0  0  0  0  0  0  0  0  0
  142.4531  137.1853  153.9554 C   0  0  0  0  0  0  0  0  0  0  0  0
  141.8321  138.4145  153.6448 O   0  0  0  0  0  0  0  0  0  0  0  0
  145.0755  138.1636  154.9833 C   0  0  0  0  0  0  0  0  0  0  0  0
  146.0351  139.3349  155.2682 C   0  0  0  0  0  0  0  0  0  0  0  0
  151.1695  140.9765  156.7859 C   0  0  0  0  0  0  0  0  0  0  0  0
  152.1821  140.5737  157.6535 C   0  0  0  0  0  0  0  0  0  0  0  0
  152.7373  141.5562  158.5040 C   0  0  0  0  0  0  0  0  0  0  0  0
  153.8486  141.1458  159.4550 C   0  0  0  0  0  0  0  0  0  0  0  0
  152.3575  144.8991  159.3042 H   0  0  0  0  0  0  0  0  0  0  0  0
  153.9255  144.1106  159.1428 H   0  0  0  0  0  0  0  0  0  0  0  0
  152.8137  143.6284  160.4333 H   0  0  0  0  0  0  0  0  0  0  0  0
  150.8880  144.3082  157.5554 H   0  0  0  0  0  0  0  0  0  0  0  0
  148.8310  140.8966  154.4478 H   0  0  0  0  0  0  0  0  0  0  0  0
  151.6706  138.7157  155.2881 H   0  0  0  0  0  0  0  0  0  0  0  0
  150.5129  138.3603  156.5528 H   0  0  0  0  0  0  0  0  0  0  0  0
  149.6816  138.9027  153.6757 H   0  0  0  0  0  0  0  0  0  0  0  0
  149.6154  136.7634  153.3439 H   0  0  0  0  0  0  0  0  0  0  0  0
  147.7730  137.2061  154.7230 H   0  0  0  0  0  0  0  0  0  0  0  0
  148.1737  138.1809  156.0904 H   0  0  0  0  0  0  0  0  0  0  0  0
  146.4981  140.1224  152.7889 H   0  0  0  0  0  0  0  0  0  0  0  0
  147.8585  139.0953  152.4842 H   0  0  0  0  0  0  0  0  0  0  0  0
  145.7480  138.0896  151.6685 H   0  0  0  0  0  0  0  0  0  0  0  0
  146.4719  137.0558  152.8775 H   0  0  0  0  0  0  0  0  0  0  0  0
  143.5515  137.0995  152.1113 H   0  0  0  0  0  0  0  0  0  0  0  0
  144.2199  136.0724  153.3531 H   0  0  0  0  0  0  0  0  0  0  0  0
  141.7759  136.3804  153.6685 H   0  0  0  0  0  0  0  0  0  0  0  0
  142.5964  137.1057  155.0323 H   0  0  0  0  0  0  0  0  0  0  0  0
  142.5037  139.0656  153.5050 H   0  0  0  0  0  0  0  0  0  0  0  0
  144.1663  138.3024  155.5668 H   0  0  0  0  0  0  0  0  0  0  0  0
  145.5151  137.2178  155.3039 H   0  0  0  0  0  0  0  0  0  0  0  0
  146.2456  139.3912  156.3369 H   0  0  0  0  0  0  0  0  0  0  0  0
  145.5326  140.2709  155.0195 H   0  0  0  0  0  0  0  0  0  0  0  0
  152.5410  139.5552  157.6738 H   0  0  0  0  0  0  0  0  0  0  0  0
  154.1220  140.0987  159.3214 H   0  0  0  0  0  0  0  0  0  0  0  0
  153.5341  141.2793  160.4902 H   0  0  0  0  0  0  0  0  0  0  0  0
  154.7422  141.7463  159.2834 H   0  0  0  0  0  0  0  0  0  0  0  0
  144.3216  138.9915  153.2927 H   0  0  0  0  0  0  0  0  0  0  0  0
  149.1828  143.1992  155.5255 H   0  0  0  0  0  0  0  0  0  0  0  0
  1  2  1  0  0  0  0
  1 25  1  0  0  0  0
  1 26  1  0  0  0  0
  1 27  1  0  0  0  0
  2 23  1  0  0  0  0
  2  3  2  0  0  0  0
  3  4  1  0  0  0  0
  3 28  1  0  0  0  0
  4 21  2  0  0  0  0
  4  5  1  0  0  0  0
  5  6  2  0  0  0  0
  5 54  1  0  0  0  0
  6  7  1  0  0  0  0
  6 29  1  0  0  0  0
  7  8  1  0  0  0  0
  7 21  1  0  0  0  0
  8  9  1  0  0  0  0
  8 30  1  0  0  0  0
  8 31  1  0  0  0  0
  9 10  1  0  0  0  0
  9 11  1  0  0  0  0
  9 32  1  0  0  0  0
 10 33  1  0  0  0  0
 11 12  1  0  0  0  0
 11 34  1  0  0  0  0
 11 35  1  0  0  0  0
 12 20  1  0  0  0  0
 12 13  1  0  0  0  0
 13 14  1  0  0  0  0
 13 36  1  0  0  0  0
 13 37  1  0  0  0  0
 14 15  1  0  0  0  0
 14 38  1  0  0  0  0
 14 39  1  0  0  0  0
 15 16  1  0  0  0  0
 15 19  1  0  0  0  0
 15 53  1  0  0  0  0
 16 17  1  0  0  0  0
 16 40  1  0  0  0  0
 16 41  1  0  0  0  0
 17 18  1  0  0  0  0
 17 42  1  0  0  0  0
 17 43  1  0  0  0  0
 18 44  1  0  0  0  0
 19 20  1  0  0  0  0
 19 45  1  0  0  0  0
 19 46  1  0  0  0  0
 20 47  1  0  0  0  0
 20 48  1  0  0  0  0
 21 22  1  0  0  0  0
 22 23  2  0  0  0  0
 22 49  1  0  0  0  0
 23 24  1  0  0  0  0
 24 50  1  0  0  0  0
 24 51  1  0  0  0  0
 24 52  1  0  0  0  0
M  CHG  1   5   1
M  CHG  1  15   1
M  END
> <s_m_source_file>
AV-unprocessed.smi

> <i_m_source_file_index>
1046

> <i_lp_mmshare_version>
43012

> <i_f3d_flags>
0

> <s_epik_input>
W0NIM11jKFtjSF0xKWMoW0NIM10pW2NIXWMoYzEyKW4oW2NIXW4yKVtDSDJdW0NASF0oW09IXSlbQ0gyXU4zW0NIMl1bQ0gyXU4oW0NIMl1bQ0gyXTMpW0NIMl1bQ0gyXVtPSF0=

> <s_epik_cmdline>
J2VwaWtfcHl0aG9uJywgJy1waCcsICc3LjAnLCAnLXRuJywgJzgnLCAnLW1hJywgJzIwMCcsICctbWV0YWxfYmluZGluZycsICctaW1hZScsICc8aW5maWxlLm1hZT4nLCAnLW9tYWUnLCAnPG91dGZpbGUubWFlPic=

> <r_epik_Ionization_Penalty>
1.37806

> <r_epik_Ionization_Penalty_Charging>
1.32954

> <r_epik_Ionization_Penalty_Neutral>
0.0485178

> <r_epik_State_Penalty>
2.26587

> <r_epik_Charging_Adjusted_Penalty>
3.59541

> <i_epik_Tot_Q>
2

> <i_epik_Tot_abs_Q>
2

> <r_epik_Metal_State_Penalty>
6.27317

> <b_epik_Metal_Only>
0

> <s_lp_Force_Field>
OPLS_2005

> <r_lp_Energy>
47.9713

> <b_lp_Chiralities_Consistent>
1

> <s_lp_Variant>
AV-unprocessed.smi:1046-12

> <Gold.Version>
5.8.1

> <Gold.Id.Protein>
6NUR|6NUR_protein|mol2

> <Gold.PLP.Fitness>
60.0238

> <Gold.PLP.PLP>
-43.5048

> <Gold.PLP.part.hbond>
-5.0806

> <Gold.PLP.part.metal>
0.0000

> <Gold.PLP.part.buried>
-2.6501

> <Gold.PLP.part.nonpolar>
-37.5298

> <Gold.PLP.part.repulsive>
0.2973

> <Gold.PLP.ligand.clash>
0.0000

> <Gold.PLP.ligand.torsion>
0.7814

> <Gold.PLP.Chemscore.Hbond>
6.0000

> <Gold.PLP.Chemscore.CHOScore>
0.0000

> <Gold.PLP.Chemscore.Metal>
0.0000

> <Gold.Chemscore.Hbonds>
donor molecule, donor type, donor heavy atom, donor atom, acceptor molecule, acceptor atom, score
      L1  H     5    54       P1  8028  2.00
      L1  H    10    33       P1  7948  1.00
      L1  H    15    53       P1 10175  2.00
      L1  H    18    44       P1 10175  0.98

> <Gold.PLP.Chemscore.Internal.Correction>
0.0819

> <Gold.Rescore>
     Score         DG    S(hbond)    S(metal)    S(lipo)     H(rot)  DE(clash)    DE(int)     intcor
     21.53     -22.43       3.88        0.00     105.99       3.29       0.03       0.87       ----

> <Gold.Chemscore.Fitness>
21.5282

> <Gold.Chemscore.DG>
-22.4280

> <Gold.Chemscore.ZeroCoef>
-5.4800

> <Gold.Chemscore.Hbond>
3.8828

> <Gold.Chemscore.Metal>
0.0000

> <Gold.Chemscore.Lipo>
105.9920

> <Gold.Chemscore.Internal_Hbond>
0.0000

> <Gold.Chemscore.DEClash>
0.0332

> <Gold.Chemscore.DEInternal>
0.8666

> <Gold.Chemscore.Rot>
3.2896

> <Gold.Chemscore.Internal.Correction>
   9.000000E+99

> <Gold.Chemscore.Hbonds>
donor molecule, donor type, donor heavy atom, donor atom, acceptor molecule, acceptor atom, score
      L1  H     5    54       P1  8028  0.92
      L1  H    10    33       P1  7948  0.60
      L1  H    15    53       P1 10175  1.00
      L1  H    18    44       P1 10175  0.91

> <Gold.Chemscore.Hbond.Weighted>
-12.9684

> <Gold.Chemscore.Metal.Weighted>
-0.0000

> <Gold.Chemscore.Lipo.Weighted>
-12.4011

> <Gold.Chemscore.Internal_Hbond.Weighted>
0.0000

> <Gold.Chemscore.DEClash.Weighted>
0.0332

> <Gold.Chemscore.DEInternal.Weighted>
0.8666

> <Gold.Chemscore.Rot.Weighted>
8.4215

> <Gold.Chemscore.Internal.Correction.Weighted>
   9.000000E+99

> <Gold.Protein.RotatedTorsions>
[ 6907 6896 6895 6894 ] final   23.02 input  -60.11 | X-H torsion
[ 7974 7965 7964 7962 ] final -173.89 input  175.53 | X-H torsion
[ 8008 7997 7996 7995 ] final  -78.55 input   59.86 | X-H torsion
[ 10167 10162 10161 10158 ] final -126.60 input  -65.29 | X-H torsion
[ 10718 10713 10712 10709 ] final  176.76 input   66.30 | X-H torsion
[ 10763 10752 10751 10750 ] final -136.16 input  -60.55 | X-H torsion
[ 11005 11000 10999 10996 ] final   63.35 input  -57.11 | X-H torsion

> <Gold.Protein.ActiveResidues>
 VAL166  LYS551  ARG553  GLY616  TRP617  ASP618  TYR619  PRO620  LYS621  CYS622 
 ASP623  PHE694  ASN695  SER759  ASP760  ASP761  ALA762  ILE779  LEU786  VAL792 
 PHE793  MET794  SER795  GLU796  ALA797  LYS798  CYS799  TRP800  GLU811  SER814 

> <Gold.Protein.RotatedAtoms>
  151.9360  135.0235  160.0532 H   0  0  0  0  0  0  0  0  0  0  0  0  # atno 6907 bound_to 6896
  152.2077  133.4883  159.5101 H   0  0  0  0  0  0  0  0  0  0  0  0  # atno 6908 bound_to 6896
  150.6969  134.1425  159.4153 H   0  0  0  0  0  0  0  0  0  0  0  0  # atno 6909 bound_to 6896
  144.7135  140.1554  143.6380 H   0  0  0  0  0  0  0  0  0  0  0  0  # atno 7974 bound_to 7965
  154.5700  140.0692  156.8949 H   0  0  0  0  0  0  0  0  0  0  0  0  # atno 8008 bound_to 7997
  155.2653  140.3361  155.4251 H   0  0  0  0  0  0  0  0  0  0  0  0  # atno 8009 bound_to 7997
  156.2110  140.1759  156.7679 H   0  0  0  0  0  0  0  0  0  0  0  0  # atno 8010 bound_to 7997
  139.9697  143.5859  152.2417 H   0  0  0  0  0  0  0  0  0  0  0  0  # atno 10167 bound_to 10162
  156.9154  130.9923  151.3013 H   0  0  0  0  0  0  0  0  0  0  0  0  # atno 10718 bound_to 10713
  154.8689  135.3681  154.5015 H   0  0  0  0  0  0  0  0  0  0  0  0  # atno 10763 bound_to 10752
  153.5656  135.7022  153.5532 H   0  0  0  0  0  0  0  0  0  0  0  0  # atno 10764 bound_to 10752
  153.3588  135.4052  155.1666 H   0  0  0  0  0  0  0  0  0  0  0  0  # atno 10765 bound_to 10752
  140.0031  134.6412  155.9899 H   0  0  0  0  0  0  0  0  0  0  0  0  # atno 11005 bound_to 11000
  145.9078  139.2469  143.1455 LP  0  0  0  0  0  0  0  0  0  0  0  0  # atno 17320 bound_to 7965
  145.9746  140.8732  143.0145 LP  0  0  0  0  0  0  0  0  0  0  0  0  # atno 17321 bound_to 7965
  139.6491  144.7660  151.2185 LP  0  0  0  0  0  0  0  0  0  0  0  0  # atno 17342 bound_to 10162
  140.7526  143.6191  150.8531 LP  0  0  0  0  0  0  0  0  0  0  0  0  # atno 17343 bound_to 10162
  157.5941  130.8465  149.8703 LP  0  0  0  0  0  0  0  0  0  0  0  0  # atno 17370 bound_to 10713
  156.0516  130.3716  150.1188 LP  0  0  0  0  0  0  0  0  0  0  0  0  # atno 17371 bound_to 10713
  141.1656  133.6537  156.4469 LP  0  0  0  0  0  0  0  0  0  0  0  0  # atno 17394 bound_to 11000
  140.4692  134.6769  157.5121 LP  0  0  0  0  0  0  0  0  0  0  0  0  # atno 17395 bound_to 11000

$$$$
