AV-unprocessed.smi:2021|AV-procd|sdf|8186|dock10
  -GOLD-   2272010443D 1   1.00000     0.00000
 Structure written by MMmdl.
 40 41  0  0  0  0  0  0  0  0  2 V2000
  153.2226  142.2787  160.2224 C   0  0  0  0  0  0  0  0  0  0  0  0
  152.4347  143.1375  159.2184 C   0  0  0  0  0  0  0  0  0  0  0  0
  152.1877  144.5353  159.8070 C   0  0  0  0  0  0  0  0  0  0  0  0
  151.1032  142.4660  158.8078 C   0  0  0  0  0  0  0  0  0  0  0  0
  151.2180  141.3790  157.8347 N   0  0  0  0  0  0  0  0  0  0  0  0
  150.3515  141.6165  156.6857 C   0  0  0  0  0  0  0  0  0  0  0  0
  150.4528  140.4888  155.6461 C   0  0  0  0  0  0  0  0  0  0  0  0
  150.1422  139.2467  156.2671 O   0  0  0  0  0  0  0  0  0  0  0  0
  151.0045  138.9405  157.3608 C   0  0  2  0  0  0  0  0  0  0  0  0
  150.5915  137.5835  157.9478 C   0  0  0  0  0  0  0  0  0  0  0  0
  149.5320  137.7468  158.9347 N   0  0  0  0  0  0  0  0  0  0  0  0
  148.8514  136.7451  159.5067 C   0  0  0  0  0  0  0  0  0  0  0  0
  149.1109  135.5775  159.2062 O   0  0  0  0  0  0  0  0  0  0  0  0
  147.9140  137.1565  160.3908 N   0  5  0  0  0  0  0  0  0  0  0  0
  147.1996  136.2527  161.0816 C   0  0  0  0  0  0  0  0  0  0  0  0
  146.1049  135.6624  160.5750 N   0  0  0  0  0  0  0  0  0  0  0  0
  145.5124  134.7647  161.4529 N   0  0  0  0  0  0  0  0  0  0  0  0
  146.1741  134.7074  162.6084 C   0  0  0  0  0  0  0  0  0  0  0  0
  147.5781  135.7466  162.7306 S   0  0  0  0  0  0  0  0  0  0  0  0
  150.9028  140.0711  158.4046 C   0  0  0  0  0  0  0  0  0  0  0  0
  152.6681  142.1503  161.1525 H   0  0  0  0  0  0  0  0  0  0  0  0
  154.1778  142.7427  160.4691 H   0  0  0  0  0  0  0  0  0  0  0  0
  153.4361  141.2858  159.8290 H   0  0  0  0  0  0  0  0  0  0  0  0
  153.0501  143.2762  158.3284 H   0  0  0  0  0  0  0  0  0  0  0  0
  151.5681  144.4851  160.7029 H   0  0  0  0  0  0  0  0  0  0  0  0
  151.6832  145.1806  159.0873 H   0  0  0  0  0  0  0  0  0  0  0  0
  153.1258  145.0202  160.0776 H   0  0  0  0  0  0  0  0  0  0  0  0
  150.5681  142.1207  159.6938 H   0  0  0  0  0  0  0  0  0  0  0  0
  150.4616  143.2331  158.3716 H   0  0  0  0  0  0  0  0  0  0  0  0
  149.3157  141.7078  157.0162 H   0  0  0  0  0  0  0  0  0  0  0  0
  150.6125  142.5643  156.2136 H   0  0  0  0  0  0  0  0  0  0  0  0
  149.7541  140.6629  154.8278 H   0  0  0  0  0  0  0  0  0  0  0  0
  151.4532  140.4489  155.2125 H   0  0  0  0  0  0  0  0  0  0  0  0
  152.0328  138.8762  156.9995 H   0  0  0  0  0  0  0  0  0  0  0  0
  150.2323  136.9294  157.1518 H   0  0  0  0  0  0  0  0  0  0  0  0
  151.4508  137.0918  158.4067 H   0  0  0  0  0  0  0  0  0  0  0  0
  149.2974  138.6904  159.2063 H   0  0  0  0  0  0  0  0  0  0  0  0
  145.8311  134.0521  163.3949 H   0  0  0  0  0  0  0  0  0  0  0  0
  151.5880  139.8461  159.2212 H   0  0  0  0  0  0  0  0  0  0  0  0
  149.8983  140.0860  158.8304 H   0  0  0  0  0  0  0  0  0  0  0  0
  1  2  1  0  0  0  0
  1 21  1  0  0  0  0
  1 22  1  0  0  0  0
  1 23  1  0  0  0  0
  2  3  1  0  0  0  0
  2  4  1  0  0  0  0
  2 24  1  0  0  0  0
  3 25  1  0  0  0  0
  3 26  1  0  0  0  0
  3 27  1  0  0  0  0
  4  5  1  0  0  0  0
  4 28  1  0  0  0  0
  4 29  1  0  0  0  0
  5 20  1  0  0  0  0
  5  6  1  0  0  0  0
  6  7  1  0  0  0  0
  6 30  1  0  0  0  0
  6 31  1  0  0  0  0
  7  8  1  0  0  0  0
  7 32  1  0  0  0  0
  7 33  1  0  0  0  0
  8  9  1  0  0  0  0
  9 10  1  0  0  0  0
  9 20  1  0  0  0  0
  9 34  1  0  0  0  0
 10 11  1  0  0  0  0
 10 35  1  0  0  0  0
 10 36  1  0  0  0  0
 11 12  1  0  0  0  0
 11 37  1  0  0  0  0
 12 13  2  0  0  0  0
 12 14  1  0  0  0  0
 14 15  1  0  0  0  0
 15 19  1  0  0  0  0
 15 16  2  0  0  0  0
 16 17  1  0  0  0  0
 17 18  2  0  0  0  0
 18 19  1  0  0  0  0
 18 38  1  0  0  0  0
 20 39  1  0  0  0  0
 20 40  1  0  0  0  0
M  CHG  1  14  -1
M  END
> <s_m_source_file>
AV-unprocessed.smi

> <i_m_source_file_index>
2021

> <i_lp_mmshare_version>
43012

> <i_f3d_flags>
0

> <s_epik_input>
W0NIM11bQ0hdKFtDSDNdKVtDSDJdTjFbQ0gyXVtDSDJdT1tDQEhdKFtDSDJdMSlbQ0gyXVtOSF1DKD1PKVtOSF1jMm5uW2NIXXMy

> <s_epik_cmdline>
J2VwaWtfcHl0aG9uJywgJy1waCcsICc3LjAnLCAnLXRuJywgJzgnLCAnLW1hJywgJzIwMCcsICctbWV0YWxfYmluZGluZycsICctaW1hZScsICc8aW5maWxlLm1hZT4nLCAnLW9tYWUnLCAnPG91dGZpbGUubWFlPic=

> <r_lp_tautomer_probability>
1

> <r_epik_Ionization_Penalty>
4.44864

> <r_epik_Ionization_Penalty_Charging>
3.27383

> <r_epik_Ionization_Penalty_Neutral>
1.17482

> <r_epik_State_Penalty>
4.44168

> <r_epik_Charging_Adjusted_Penalty>
7.7155

> <i_epik_Tot_Q>
-1

> <i_epik_Tot_abs_Q>
1

> <r_epik_Metal_State_Penalty>
1.66628

> <b_epik_Metal_Only>
1

> <s_lp_Force_Field>
OPLS_2005

> <r_lp_Energy>
22.4741

> <b_lp_Chiralities_Consistent>
1

> <s_lp_Variant>
AV-unprocessed.smi:2021-12

> <Gold.Version>
5.8.1

> <Gold.Id.Protein>
6NUR|6NUR_protein|mol2

> <Gold.PLP.Fitness>
46.7436

> <Gold.PLP.PLP>
-38.4078

> <Gold.PLP.part.hbond>
-3.0000

> <Gold.PLP.part.metal>
0.0000

> <Gold.PLP.part.buried>
-5.6483

> <Gold.PLP.part.nonpolar>
-31.5433

> <Gold.PLP.part.repulsive>
0.2418

> <Gold.PLP.ligand.clash>
0.0000

> <Gold.PLP.ligand.torsion>
1.9696

> <Gold.PLP.Chemscore.Hbond>
4.0720

> <Gold.PLP.Chemscore.CHOScore>
0.0000

> <Gold.PLP.Chemscore.Metal>
0.0000

> <Gold.Chemscore.Hbonds>
donor molecule, donor type, donor heavy atom, donor atom, acceptor molecule, acceptor atom, score
      P1  H  6896  6908       L1    13  1.00
      P1  H  6931  6943       L1    14  0.96
      P1  H  6934  6947       L1    14  1.49

> <Gold.PLP.Chemscore.Internal.Correction>
0.0589

> <Gold.Rescore>
     Score         DG    S(hbond)    S(metal)    S(lipo)     H(rot)  DE(clash)    DE(int)     intcor
     15.15     -17.02       1.77        0.00      87.46       1.81       0.01       1.86       ----

> <Gold.Chemscore.Fitness>
15.1465

> <Gold.Chemscore.DG>
-17.0179

> <Gold.Chemscore.ZeroCoef>
-5.4800

> <Gold.Chemscore.Hbond>
1.7748

> <Gold.Chemscore.Metal>
0.0000

> <Gold.Chemscore.Lipo>
87.4568

> <Gold.Chemscore.Internal_Hbond>
0.0000

> <Gold.Chemscore.DEClash>
0.0092

> <Gold.Chemscore.DEInternal>
1.8622

> <Gold.Chemscore.Rot>
1.8056

> <Gold.Chemscore.Internal.Correction>
   9.000000E+99

> <Gold.Chemscore.Hbonds>
donor molecule, donor type, donor heavy atom, donor atom, acceptor molecule, acceptor atom, score
      P1  H  6896  6908       L1    13  0.99
      P1  H  6931  6943       L1    14  0.11
      P1  H  6934  6947       L1    14  0.42

> <Gold.Chemscore.Hbond.Weighted>
-5.9278

> <Gold.Chemscore.Metal.Weighted>
-0.0000

> <Gold.Chemscore.Lipo.Weighted>
-10.2324

> <Gold.Chemscore.Internal_Hbond.Weighted>
0.0000

> <Gold.Chemscore.DEClash.Weighted>
0.0092

> <Gold.Chemscore.DEInternal.Weighted>
1.8622

> <Gold.Chemscore.Rot.Weighted>
4.6224

> <Gold.Chemscore.Internal.Correction.Weighted>
   9.000000E+99

> <Gold.Protein.RotatedTorsions>
[ 6907 6896 6895 6894 ] final -178.79 input  -60.11 | X-H torsion
[ 7974 7965 7964 7962 ] final    6.61 input  175.53 | X-H torsion
[ 8008 7997 7996 7995 ] final   20.29 input   59.86 | X-H torsion
[ 10167 10162 10161 10158 ] final  -93.77 input  -65.29 | X-H torsion
[ 10718 10713 10712 10709 ] final   73.00 input   66.30 | X-H torsion
[ 10763 10752 10751 10750 ] final -175.41 input  -60.55 | X-H torsion
[ 11005 11000 10999 10996 ] final   83.51 input  -57.11 | X-H torsion

> <Gold.Protein.ActiveResidues>
 VAL166  LYS551  ARG553  GLY616  TRP617  ASP618  TYR619  PRO620  LYS621  CYS622 
 ASP623  PHE694  ASN695  SER759  ASP760  ASP761  ALA762  ILE779  LEU786  VAL792 
 PHE793  MET794  SER795  GLU796  ALA797  LYS798  CYS799  TRP800  GLU811  SER814 

> <Gold.Protein.RotatedAtoms>
  151.6430  133.3325  159.3134 H   0  0  0  0  0  0  0  0  0  0  0  0  # atno 6907 bound_to 6896
  150.7998  134.7088  159.6601 H   0  0  0  0  0  0  0  0  0  0  0  0  # atno 6908 bound_to 6896
  152.4090  134.6162  160.0090 H   0  0  0  0  0  0  0  0  0  0  0  0  # atno 6909 bound_to 6896
  146.2433  140.0207  142.8398 H   0  0  0  0  0  0  0  0  0  0  0  0  # atno 7974 bound_to 7965
  154.9334  140.3043  155.5156 H   0  0  0  0  0  0  0  0  0  0  0  0  # atno 8008 bound_to 7997
  156.3002  140.2350  156.4333 H   0  0  0  0  0  0  0  0  0  0  0  0  # atno 8009 bound_to 7997
  154.8216  140.0423  157.1403 H   0  0  0  0  0  0  0  0  0  0  0  0  # atno 8010 bound_to 7997
  140.3213  143.3048  152.0043 H   0  0  0  0  0  0  0  0  0  0  0  0  # atno 10167 bound_to 10162
  157.6528  130.9607  150.1008 H   0  0  0  0  0  0  0  0  0  0  0  0  # atno 10718 bound_to 10713
  154.5847  135.2839  155.0697 H   0  0  0  0  0  0  0  0  0  0  0  0  # atno 10763 bound_to 10752
  154.2019  135.6423  153.5093 H   0  0  0  0  0  0  0  0  0  0  0  0  # atno 10764 bound_to 10752
  153.0100  135.5471  154.6513 H   0  0  0  0  0  0  0  0  0  0  0  0  # atno 10765 bound_to 10752
  139.9029  134.8150  156.2319 H   0  0  0  0  0  0  0  0  0  0  0  0  # atno 11005 bound_to 11000
  145.1244  140.9481  143.4581 LP  0  0  0  0  0  0  0  0  0  0  0  0  # atno 17320 bound_to 7965
  145.0450  139.3229  143.5957 LP  0  0  0  0  0  0  0  0  0  0  0  0  # atno 17321 bound_to 7965
  139.4874  144.6309  151.7072 LP  0  0  0  0  0  0  0  0  0  0  0  0  # atno 17342 bound_to 10162
  140.5481  144.0470  150.6115 LP  0  0  0  0  0  0  0  0  0  0  0  0  # atno 17343 bound_to 10162
  156.1931  130.3656  149.8884 LP  0  0  0  0  0  0  0  0  0  0  0  0  # atno 17370 bound_to 10713
  156.6807  130.8857  151.3575 LP  0  0  0  0  0  0  0  0  0  0  0  0  # atno 17371 bound_to 10713
  141.0340  133.6973  156.1479 LP  0  0  0  0  0  0  0  0  0  0  0  0  # atno 17394 bound_to 11000
  140.7055  134.4518  157.5584 LP  0  0  0  0  0  0  0  0  0  0  0  0  # atno 17395 bound_to 11000

$$$$
