AV-unprocessed.smi:3076|AV-procd|sdf|11725|dock6
  -GOLD-   2272017123D 1   1.00000     0.00000
 Structure written by MMmdl.
 21 21  0  0  0  0  0  0  0  0  2 V2000
  148.3040  138.5622  152.9937 N   0  3  0  0  0  0  0  0  0  0  0  0
  149.0582  138.7252  154.2488 C   0  0  0  0  0  0  0  0  0  0  0  0
  149.3793  140.2036  154.5327 C   0  0  2  0  0  0  0  0  0  0  0  0
  149.8967  140.7909  153.3545 O   0  0  0  0  0  0  0  0  0  0  0  0
  150.3407  140.3420  155.7024 C   0  0  0  0  0  0  0  0  0  0  0  0
  149.9915  141.0691  156.8617 C   0  0  0  0  0  0  0  0  0  0  0  0
  150.9274  141.1728  157.9086 C   0  0  0  0  0  0  0  0  0  0  0  0
  152.1793  140.5452  157.7539 C   0  0  0  0  0  0  0  0  0  0  0  0
  152.5269  139.8493  156.6503 N   0  0  0  0  0  0  0  0  0  0  0  0
  151.6238  139.7541  155.6512 C   0  0  0  0  0  0  0  0  0  0  0  0
  147.3207  138.7150  153.1663 H   0  0  0  0  0  0  0  0  0  0  0  0
  148.4440  137.6249  152.6433 H   0  0  0  0  0  0  0  0  0  0  0  0
  148.4565  138.3102  155.0582 H   0  0  0  0  0  0  0  0  0  0  0  0
  149.9723  138.1324  154.1946 H   0  0  0  0  0  0  0  0  0  0  0  0
  148.4571  140.7314  154.7810 H   0  0  0  0  0  0  0  0  0  0  0  0
  149.8854  140.1436  152.6650 H   0  0  0  0  0  0  0  0  0  0  0  0
  149.0244  141.5426  156.9494 H   0  0  0  0  0  0  0  0  0  0  0  0
  150.6923  141.7209  158.8090 H   0  0  0  0  0  0  0  0  0  0  0  0
  152.9213  140.6055  158.5363 H   0  0  0  0  0  0  0  0  0  0  0  0
  151.9380  139.1930  154.7831 H   0  0  0  0  0  0  0  0  0  0  0  0
  148.6355  139.2284  152.3110 H   0  0  0  0  0  0  0  0  0  0  0  0
  1  2  1  0  0  0  0
  1 11  1  0  0  0  0
  1 12  1  0  0  0  0
  1 21  1  0  0  0  0
  2  3  1  0  0  0  0
  2 13  1  0  0  0  0
  2 14  1  0  0  0  0
  3  4  1  0  0  0  0
  3  5  1  0  0  0  0
  3 15  1  0  0  0  0
  4 16  1  0  0  0  0
  5 10  1  0  0  0  0
  5  6  2  0  0  0  0
  6  7  1  0  0  0  0
  6 17  1  0  0  0  0
  7  8  2  0  0  0  0
  7 18  1  0  0  0  0
  8  9  1  0  0  0  0
  8 19  1  0  0  0  0
  9 10  2  0  0  0  0
 10 20  1  0  0  0  0
M  CHG  1   1   1
M  END
> <s_m_source_file>
AV-unprocessed.smi

> <i_m_source_file_index>
3076

> <i_lp_mmshare_version>
43012

> <i_f3d_flags>
0

> <s_epik_input>
W05IMl1bQ0gyXVtDQEhdKFtPSF0pYzFbY0hdW2NIXVtjSF1uW2NIXTE=

> <s_epik_cmdline>
J2VwaWtfcHl0aG9uJywgJy1waCcsICc3LjAnLCAnLXRuJywgJzgnLCAnLW1hJywgJzIwMCcsICctbWV0YWxfYmluZGluZycsICctaW1hZScsICc8aW5maWxlLm1hZT4nLCAnLW9tYWUnLCAnPG91dGZpbGUubWFlPic=

> <r_epik_Ionization_Penalty>
0.0145342

> <r_epik_Ionization_Penalty_Charging>
0.0140431

> <r_epik_Ionization_Penalty_Neutral>
0.000491123

> <r_epik_State_Penalty>
0.0109628

> <r_epik_Charging_Adjusted_Penalty>
0.0250059

> <i_epik_Tot_Q>
1

> <i_epik_Tot_abs_Q>
1

> <r_epik_Metal_State_Penalty>
0.0109916

> <b_epik_Metal_Only>
0

> <s_lp_Force_Field>
OPLS_2005

> <r_lp_Energy>
5.00299

> <b_lp_Chiralities_Consistent>
1

> <s_lp_Variant>
AV-unprocessed.smi:3076-1

> <Gold.Version>
5.8.1

> <Gold.Id.Protein>
6NUR|6NUR_protein|mol2

> <Gold.PLP.Fitness>
38.7321

> <Gold.PLP.PLP>
-20.6835

> <Gold.PLP.part.hbond>
-5.0430

> <Gold.PLP.part.metal>
0.0000

> <Gold.PLP.part.buried>
-1.7549

> <Gold.PLP.part.nonpolar>
-13.2481

> <Gold.PLP.part.repulsive>
0.0520

> <Gold.PLP.ligand.clash>
0.0000

> <Gold.PLP.ligand.torsion>
0.0650

> <Gold.PLP.Chemscore.Hbond>
6.0572

> <Gold.PLP.Chemscore.CHOScore>
0.0000

> <Gold.PLP.Chemscore.Metal>
0.0000

> <Gold.Chemscore.Hbonds>
donor molecule, donor type, donor heavy atom, donor atom, acceptor molecule, acceptor atom, score
      L1  H     1    12       P1  7948  2.00
      L1  H     1    21       P1  7957  1.00
      L1  H     4    16       P1  7957  0.79
      P1  H  7989  7998       L1     4  0.22
      P1  H  7997  8009       L1     9  1.00
      P1  H  8011  8017       L1     4  1.00

> <Gold.PLP.Chemscore.Internal.Correction>
0.0070

> <Gold.Rescore>
     Score         DG    S(hbond)    S(metal)    S(lipo)     H(rot)  DE(clash)    DE(int)     intcor
     18.93     -19.29       4.12        0.00      42.06       1.90       0.24       0.12       ----

> <Gold.Chemscore.Fitness>
18.9265

> <Gold.Chemscore.DG>
-19.2891

> <Gold.Chemscore.ZeroCoef>
-5.4800

> <Gold.Chemscore.Hbond>
4.1158

> <Gold.Chemscore.Metal>
0.0000

> <Gold.Chemscore.Lipo>
42.0631

> <Gold.Chemscore.Internal_Hbond>
0.0000

> <Gold.Chemscore.DEClash>
0.2434

> <Gold.Chemscore.DEInternal>
0.1192

> <Gold.Chemscore.Rot>
1.8981

> <Gold.Chemscore.Internal.Correction>
   9.000000E+99

> <Gold.Chemscore.Hbonds>
donor molecule, donor type, donor heavy atom, donor atom, acceptor molecule, acceptor atom, score
      L1  H     1    12       P1  7948  1.00
      L1  H     1    21       P1  7957  1.00
      L1  H     4    16       P1  7957  0.73
      P1  H  7989  7998       L1     4  0.02
      P1  H  7997  8009       L1     9  0.68
      P1  H  8011  8017       L1     4  0.29

> <Gold.Chemscore.Hbond.Weighted>
-13.7469

> <Gold.Chemscore.Metal.Weighted>
-0.0000

> <Gold.Chemscore.Lipo.Weighted>
-4.9214

> <Gold.Chemscore.Internal_Hbond.Weighted>
0.0000

> <Gold.Chemscore.DEClash.Weighted>
0.2434

> <Gold.Chemscore.DEInternal.Weighted>
0.1192

> <Gold.Chemscore.Rot.Weighted>
4.8592

> <Gold.Chemscore.Internal.Correction.Weighted>
   9.000000E+99

> <Gold.Protein.RotatedTorsions>
[ 6907 6896 6895 6894 ] final   85.11 input  -60.11 | X-H torsion
[ 7974 7965 7964 7962 ] final   59.97 input  175.53 | X-H torsion
[ 8008 7997 7996 7995 ] final -158.58 input   59.86 | X-H torsion
[ 10167 10162 10161 10158 ] final   88.22 input  -65.29 | X-H torsion
[ 10718 10713 10712 10709 ] final  -54.42 input   66.30 | X-H torsion
[ 10763 10752 10751 10750 ] final  146.61 input  -60.55 | X-H torsion
[ 11005 11000 10999 10996 ] final  166.12 input  -57.11 | X-H torsion

> <Gold.Protein.ActiveResidues>
 VAL166  LYS551  ARG553  GLY616  TRP617  ASP618  TYR619  PRO620  LYS621  CYS622 
 ASP623  PHE694  ASN695  SER759  ASP760  ASP761  ALA762  ILE779  LEU786  VAL792 
 PHE793  MET794  SER795  GLU796  ALA797  LYS798  CYS799  TRP800  GLU811  SER814 

> <Gold.Protein.RotatedAtoms>
  152.5368  134.2636  159.8944 H   0  0  0  0  0  0  0  0  0  0  0  0  # atno 6907 bound_to 6896
  151.2595  133.4302  159.2623 H   0  0  0  0  0  0  0  0  0  0  0  0  # atno 6908 bound_to 6896
  151.0466  134.9658  159.8246 H   0  0  0  0  0  0  0  0  0  0  0  0  # atno 6909 bound_to 6896
  145.9012  139.3583  143.0591 H   0  0  0  0  0  0  0  0  0  0  0  0  # atno 7974 bound_to 7965
  155.7498  140.0825  157.2207 H   0  0  0  0  0  0  0  0  0  0  0  0  # atno 8008 bound_to 7997
  154.4013  140.1562  156.2766 H   0  0  0  0  0  0  0  0  0  0  0  0  # atno 8009 bound_to 7997
  155.8941  140.3413  155.5981 H   0  0  0  0  0  0  0  0  0  0  0  0  # atno 8010 bound_to 7997
  139.8694  144.6501  150.8966 H   0  0  0  0  0  0  0  0  0  0  0  0  # atno 10167 bound_to 10162
  156.1452  130.4153  150.0035 H   0  0  0  0  0  0  0  0  0  0  0  0  # atno 10718 bound_to 10713
  154.0247  135.2903  155.3376 H   0  0  0  0  0  0  0  0  0  0  0  0  # atno 10763 bound_to 10752
  154.7025  135.5183  153.8550 H   0  0  0  0  0  0  0  0  0  0  0  0  # atno 10764 bound_to 10752
  153.0666  135.6633  154.0465 H   0  0  0  0  0  0  0  0  0  0  0  0  # atno 10765 bound_to 10752
  140.2632  134.7886  157.3608 H   0  0  0  0  0  0  0  0  0  0  0  0  # atno 11005 bound_to 11000
  145.8789  140.9375  143.0612 LP  0  0  0  0  0  0  0  0  0  0  0  0  # atno 17320 bound_to 7965
  144.6736  140.0753  143.7471 LP  0  0  0  0  0  0  0  0  0  0  0  0  # atno 17321 bound_to 7965
  140.7763  143.3676  151.1709 LP  0  0  0  0  0  0  0  0  0  0  0  0  # atno 17342 bound_to 10162
  139.7298  143.9091  152.3015 LP  0  0  0  0  0  0  0  0  0  0  0  0  # atno 17343 bound_to 10162
  156.7909  130.9256  151.3646 LP  0  0  0  0  0  0  0  0  0  0  0  0  # atno 17370 bound_to 10713
  157.6611  130.8966  149.9831 LP  0  0  0  0  0  0  0  0  0  0  0  0  # atno 17371 bound_to 10713
  140.1445  134.4929  155.8007 LP  0  0  0  0  0  0  0  0  0  0  0  0  # atno 17394 bound_to 11000
  141.2187  133.6838  156.7269 LP  0  0  0  0  0  0  0  0  0  0  0  0  # atno 17395 bound_to 11000

$$$$
