AV-unprocessed.smi:1570|AV-procd|sdf|6312|dock1
  -GOLD-   22720 6513D 1   1.00000     0.00000
 Structure written by MMmdl.
 51 53  0  0  0  0  0  0  0  0  1 V2000
  153.8307  141.8731  161.9793 C   0  0  0  0  0  0  0  0  0  0  0  0
  152.5003  141.2422  161.5498 C   0  0  0  0  0  0  0  0  0  0  0  0
  151.9142  141.9606  160.4209 N   0  0  0  0  0  0  0  0  0  0  0  0
  151.6383  141.4501  159.1977 C   0  0  0  0  0  0  0  0  0  0  0  0
  151.8322  140.2884  158.8397 O   0  0  0  0  0  0  0  0  0  0  0  0
  151.1369  142.4458  158.4288 N   0  0  0  0  0  0  0  0  0  0  0  0
  150.7444  142.3534  157.0226 C   0  0  0  0  0  0  0  0  0  0  0  0
  150.3091  140.9254  156.6367 C   0  0  2  0  0  0  0  0  0  0  0  0
  151.4753  140.1777  156.3642 O   0  0  0  0  0  0  0  0  0  0  0  0
  149.4033  140.8810  155.3860 C   0  0  0  0  0  0  0  0  0  0  0  0
  148.3080  141.8508  155.3709 N   0  0  0  0  0  0  0  0  0  0  0  0
  147.9051  142.2148  154.0131 C   0  0  0  0  0  0  0  0  0  0  0  0
  146.7300  143.2108  154.0055 C   0  0  1  0  0  0  0  0  0  0  0  0
  146.2524  143.5286  152.5849 C   0  0  0  0  0  0  0  0  0  0  0  0
  145.6388  142.6514  154.7309 O   0  0  0  0  0  0  0  0  0  0  0  0
  145.9687  142.3224  156.0773 C   0  0  1  0  0  0  0  0  0  0  0  0
  144.7194  141.7463  156.7520 C   0  0  0  0  0  0  0  0  0  0  0  0
  147.1436  141.3258  156.0756 C   0  0  0  0  0  0  0  0  0  0  0  0
  151.0996  143.6293  159.1803 C   0  0  0  0  0  0  0  0  0  0  0  0
  150.6779  144.9266  158.8410 C   0  0  0  0  0  0  0  0  0  0  0  0
  150.7809  145.9224  159.8404 C   0  0  0  0  0  0  0  0  0  0  0  0
  151.2911  145.6101  161.1272 C   0  0  0  0  0  0  0  0  0  0  0  0
  151.7082  144.2956  161.4424 C   0  0  0  0  0  0  0  0  0  0  0  0
  151.5923  143.3251  160.4319 C   0  0  0  0  0  0  0  0  0  0  0  0
  154.2629  141.3303  162.8200 H   0  0  0  0  0  0  0  0  0  0  0  0
  153.6945  142.9102  162.2875 H   0  0  0  0  0  0  0  0  0  0  0  0
  154.5568  141.8570  161.1660 H   0  0  0  0  0  0  0  0  0  0  0  0
  152.6560  140.1964  161.2810 H   0  0  0  0  0  0  0  0  0  0  0  0
  151.8015  141.2372  162.3865 H   0  0  0  0  0  0  0  0  0  0  0  0
  149.9486  143.0658  156.7989 H   0  0  0  0  0  0  0  0  0  0  0  0
  151.5983  142.6587  156.4161 H   0  0  0  0  0  0  0  0  0  0  0  0
  149.8225  140.4681  157.4963 H   0  0  0  0  0  0  0  0  0  0  0  0
  151.5443  139.4904  157.0099 H   0  0  0  0  0  0  0  0  0  0  0  0
  150.0039  141.0339  154.4898 H   0  0  0  0  0  0  0  0  0  0  0  0
  149.0021  139.8703  155.2942 H   0  0  0  0  0  0  0  0  0  0  0  0
  148.7380  142.6607  153.4721 H   0  0  0  0  0  0  0  0  0  0  0  0
  147.6215  141.3172  153.4606 H   0  0  0  0  0  0  0  0  0  0  0  0
  147.0358  144.1403  154.4888 H   0  0  0  0  0  0  0  0  0  0  0  0
  147.0512  143.9775  151.9940 H   0  0  0  0  0  0  0  0  0  0  0  0
  145.4177  144.2297  152.6024 H   0  0  0  0  0  0  0  0  0  0  0  0
  145.9203  142.6270  152.0695 H   0  0  0  0  0  0  0  0  0  0  0  0
  146.2622  143.2330  156.6024 H   0  0  0  0  0  0  0  0  0  0  0  0
  144.9181  141.4927  157.7934 H   0  0  0  0  0  0  0  0  0  0  0  0
  144.3786  140.8427  156.2460 H   0  0  0  0  0  0  0  0  0  0  0  0
  143.9009  142.4664  156.7355 H   0  0  0  0  0  0  0  0  0  0  0  0
  146.8249  140.3899  155.6134 H   0  0  0  0  0  0  0  0  0  0  0  0
  147.4135  141.0874  157.1051 H   0  0  0  0  0  0  0  0  0  0  0  0
  150.2927  145.1581  157.8589 H   0  0  0  0  0  0  0  0  0  0  0  0
  150.4686  146.9325  159.6208 H   0  0  0  0  0  0  0  0  0  0  0  0
  151.3624  146.3858  161.8752 H   0  0  0  0  0  0  0  0  0  0  0  0
  152.0999  144.0534  162.4191 H   0  0  0  0  0  0  0  0  0  0  0  0
  1  2  1  0  0  0  0
  1 25  1  0  0  0  0
  1 26  1  0  0  0  0
  1 27  1  0  0  0  0
  2  3  1  0  0  0  0
  2 28  1  0  0  0  0
  2 29  1  0  0  0  0
  3 24  1  0  0  0  0
  3  4  1  0  0  0  0
  4  5  2  0  0  0  0
  4  6  1  0  0  0  0
  6  7  1  0  0  0  0
  6 19  1  0  0  0  0
  7  8  1  0  0  0  0
  7 30  1  0  0  0  0
  7 31  1  0  0  0  0
  8  9  1  0  0  0  0
  8 10  1  0  0  0  0
  8 32  1  0  0  0  0
  9 33  1  0  0  0  0
 10 11  1  0  0  0  0
 10 34  1  0  0  0  0
 10 35  1  0  0  0  0
 11 18  1  0  0  0  0
 11 12  1  0  0  0  0
 12 13  1  0  0  0  0
 12 36  1  0  0  0  0
 12 37  1  0  0  0  0
 13 14  1  0  0  0  0
 13 15  1  0  0  0  0
 13 38  1  0  0  0  0
 14 39  1  0  0  0  0
 14 40  1  0  0  0  0
 14 41  1  0  0  0  0
 15 16  1  0  0  0  0
 16 17  1  0  0  0  0
 16 18  1  0  0  0  0
 16 42  1  0  0  0  0
 17 43  1  0  0  0  0
 17 44  1  0  0  0  0
 17 45  1  0  0  0  0
 18 46  1  0  0  0  0
 18 47  1  0  0  0  0
 19 24  2  0  0  0  0
 19 20  1  0  0  0  0
 20 21  2  0  0  0  0
 20 48  1  0  0  0  0
 21 22  1  0  0  0  0
 21 49  1  0  0  0  0
 22 23  2  0  0  0  0
 22 50  1  0  0  0  0
 23 24  1  0  0  0  0
 23 51  1  0  0  0  0
M  END
> <s_m_source_file>
AV-unprocessed.smi

> <i_m_source_file_index>
1570

> <i_lp_mmshare_version>
43012

> <i_f3d_flags>
0

> <s_epik_input>
W2NIXTFbY0hdW2NIXVtjSF1jKGMxMiluKFtDSDJdW0NIM10pYyg9TyluMltDSDJdW0NASF0oW09IXSlbQ0gyXU4zW0NIMl1bQ0BASF0oW0NIM10pT1tDQEBIXShbQ0gzXSlbQ0gyXTM=

> <s_epik_cmdline>
J2VwaWtfcHl0aG9uJywgJy1waCcsICc3LjAnLCAnLXRuJywgJzgnLCAnLW1hJywgJzIwMCcsICctbWV0YWxfYmluZGluZycsICctaW1hZScsICc8aW5maWxlLm1hZT4nLCAnLW9tYWUnLCAnPG91dGZpbGUubWFlPic=

> <r_epik_Ionization_Penalty>
0.214359

> <r_epik_Ionization_Penalty_Charging>
2.30976e-09

> <r_epik_Ionization_Penalty_Neutral>
0.214359

> <r_epik_State_Penalty>
0.204533

> <r_epik_Charging_Adjusted_Penalty>
0.204533

> <i_epik_Tot_Q>
0

> <i_epik_Tot_abs_Q>
0

> <r_epik_Metal_State_Penalty>
0.204533

> <b_epik_Metal_Only>
0

> <s_lp_Force_Field>
OPLS_2005

> <r_lp_Energy>
58.4553

> <b_lp_Chiralities_Consistent>
1

> <s_lp_Variant>
AV-unprocessed.smi:1570-1

> <Gold.Version>
5.8.1

> <Gold.Id.Protein>
6NUR|6NUR_protein|mol2

> <Gold.PLP.Fitness>
55.2429

> <Gold.PLP.PLP>
-51.0763

> <Gold.PLP.part.hbond>
-2.0000

> <Gold.PLP.part.metal>
0.0000

> <Gold.PLP.part.buried>
-6.7290

> <Gold.PLP.part.nonpolar>
-42.3312

> <Gold.PLP.part.repulsive>
0.2825

> <Gold.PLP.ligand.clash>
0.0000

> <Gold.PLP.ligand.torsion>
0.9811

> <Gold.PLP.Chemscore.Hbond>
1.9600

> <Gold.PLP.Chemscore.CHOScore>
0.0000

> <Gold.PLP.Chemscore.Metal>
0.0000

> <Gold.PLP.Chemscore.Internal.Correction>
0.2487

> <Gold.Rescore>
     Score         DG    S(hbond)    S(metal)    S(lipo)     H(rot)  DE(clash)    DE(int)     intcor
     17.61     -20.15       1.57        0.00     125.54       2.06       0.13       2.42       ----

> <Gold.Chemscore.Fitness>
17.6062

> <Gold.Chemscore.DG>
-20.1541

> <Gold.Chemscore.ZeroCoef>
-5.4800

> <Gold.Chemscore.Hbond>
1.5728

> <Gold.Chemscore.Metal>
0.0000

> <Gold.Chemscore.Lipo>
125.5368

> <Gold.Chemscore.Internal_Hbond>
0.0000

> <Gold.Chemscore.DEClash>
0.1291

> <Gold.Chemscore.DEInternal>
2.4188

> <Gold.Chemscore.Rot>
2.0574

> <Gold.Chemscore.Internal.Correction>
   9.000000E+99

> <Gold.Chemscore.Hbond.Weighted>
-5.2532

> <Gold.Chemscore.Metal.Weighted>
-0.0000

> <Gold.Chemscore.Lipo.Weighted>
-14.6878

> <Gold.Chemscore.Internal_Hbond.Weighted>
0.0000

> <Gold.Chemscore.DEClash.Weighted>
0.1291

> <Gold.Chemscore.DEInternal.Weighted>
2.4188

> <Gold.Chemscore.Rot.Weighted>
5.2669

> <Gold.Chemscore.Internal.Correction.Weighted>
   9.000000E+99

> <Gold.Protein.RotatedTorsions>
[ 6907 6896 6895 6894 ] final   42.83 input  -60.11 | X-H torsion
[ 7974 7965 7964 7962 ] final -147.12 input  175.53 | X-H torsion
[ 8008 7997 7996 7995 ] final   70.78 input   59.86 | X-H torsion
[ 10167 10162 10161 10158 ] final  -41.84 input  -65.29 | X-H torsion
[ 10718 10713 10712 10709 ] final  -39.59 input   66.30 | X-H torsion
[ 10763 10752 10751 10750 ] final  -13.10 input  -60.55 | X-H torsion
[ 11005 11000 10999 10996 ] final   97.08 input  -57.11 | X-H torsion

> <Gold.Protein.ActiveResidues>
 VAL166  LYS551  ARG553  GLY616  TRP617  ASP618  TYR619  PRO620  LYS621  CYS622 
 ASP623  PHE694  ASN695  SER759  ASP760  ASP761  ALA762  ILE779  LEU786  VAL792 
 PHE793  MET794  SER795  GLU796  ALA797  LYS798  CYS799  TRP800  GLU811  SER814 

> <Gold.Protein.RotatedAtoms>
  152.2127  134.8486  160.0495 H   0  0  0  0  0  0  0  0  0  0  0  0  # atno 6907 bound_to 6896
  151.9299  133.3603  159.3935 H   0  0  0  0  0  0  0  0  0  0  0  0  # atno 6908 bound_to 6896
  150.6980  134.4473  159.5364 H   0  0  0  0  0  0  0  0  0  0  0  0  # atno 6909 bound_to 6896
  144.8114  140.5367  143.5640 H   0  0  0  0  0  0  0  0  0  0  0  0  # atno 7974 bound_to 7965
  155.7440  140.3490  155.5118 H   0  0  0  0  0  0  0  0  0  0  0  0  # atno 8008 bound_to 7997
  155.9067  140.1043  157.1331 H   0  0  0  0  0  0  0  0  0  0  0  0  # atno 8009 bound_to 7997
  154.4050  140.1275  156.4492 H   0  0  0  0  0  0  0  0  0  0  0  0  # atno 8010 bound_to 7997
  140.6989  143.3071  151.3124 H   0  0  0  0  0  0  0  0  0  0  0  0  # atno 10167 bound_to 10162
  156.2908  130.4228  149.8241 H   0  0  0  0  0  0  0  0  0  0  0  0  # atno 10718 bound_to 10713
  153.5083  135.7016  153.5795 H   0  0  0  0  0  0  0  0  0  0  0  0  # atno 10763 bound_to 10752
  153.3896  135.3899  155.1914 H   0  0  0  0  0  0  0  0  0  0  0  0  # atno 10764 bound_to 10752
  154.8705  135.3855  154.4560 H   0  0  0  0  0  0  0  0  0  0  0  0  # atno 10765 bound_to 10752
  139.8778  134.8983  156.4254 H   0  0  0  0  0  0  0  0  0  0  0  0  # atno 11005 bound_to 11000
  145.5315  139.1475  143.3497 LP  0  0  0  0  0  0  0  0  0  0  0  0  # atno 17320 bound_to 7965
  146.2413  140.5456  142.8933 LP  0  0  0  0  0  0  0  0  0  0  0  0  # atno 17321 bound_to 7965
  139.6481  144.0414  152.2606 LP  0  0  0  0  0  0  0  0  0  0  0  0  # atno 17342 bound_to 10162
  139.9941  144.6340  150.7788 LP  0  0  0  0  0  0  0  0  0  0  0  0  # atno 17343 bound_to 10162
  156.5654  130.8402  151.3341 LP  0  0  0  0  0  0  0  0  0  0  0  0  # atno 17370 bound_to 10713
  157.7342  130.9742  150.2015 LP  0  0  0  0  0  0  0  0  0  0  0  0  # atno 17371 bound_to 10713
  140.9104  133.7715  155.9785 LP  0  0  0  0  0  0  0  0  0  0  0  0  # atno 17394 bound_to 11000
  140.8552  134.2906  157.5258 LP  0  0  0  0  0  0  0  0  0  0  0  0  # atno 17395 bound_to 11000

$$$$
