#       Name:                AV-unprocessed.smi:166
#       Creating user name   scv26
#       Creation time:       Thu Mar 26 19:13:02 2020


#       File generated by GOLD software.
#

@<TRIPOS>MOLECULE
AV-unprocessed.smi:166
    64    68     1
SMALL
NO_CHARGES


@<TRIPOS>ATOM
      1 ****        -4.6025  -0.0646   0.5479 O.3            1 S1                 0.0000
      2 ****        -4.7545  -1.3010  -0.1284 C.3            1 S1                 0.0000
      3 ****        -4.1080  -1.2034  -1.5306 C.3            1 S1                 0.0000
      4 ****        -2.6970  -0.8500  -1.5023 N.pl3          1 S1                 0.0000
      5 ****        -1.6258  -1.7149  -1.4725 C.2            1 S1                 0.0000
      6 ****        -0.4512  -1.1464  -1.4541 N.2            1 S1                 0.0000
      7 ****        -0.7332   0.2140  -1.4810 C.ar           1 S1                 0.0000
      8 ****         0.0593   1.3963  -1.4832 C.ar           1 S1                 0.0000
      9 ****         1.4079   1.4185  -1.4507 N.3            1 S1                 0.0000
     10 ****         2.0174   1.0091  -2.7122 C.3            1 S1                 0.0000
     11 ****         3.5298   1.2833  -2.6958 C.3            1 S1                 0.0000
     12 ****         4.1898   0.6239  -1.4747 C.3            1 S1                 0.0000
     13 ****         3.5009   1.0783  -0.1758 C.3            1 S1                 0.0000
     14 ****         4.0952   0.3594   0.8970 O.3            1 S1                 0.0000
     15 ****         3.8345   0.9001   2.1833 C.3            1 S1                 0.0000
     16 ****         4.5668   0.0713   3.2164 C.3            1 S1                 0.0000
     17 ****         4.7969   0.6174   4.6073 C.3            1 S1                 0.0000
     18 ****         5.9608   0.4476   3.6649 C.3            1 S1                 0.0000
     19 ****         1.9841   0.8057  -0.2562 C.3            1 S1                 0.0000
     20 ****        -0.5775   2.5914  -1.5333 N.ar           1 S1                 0.0000
     21 ****        -1.9129   2.6344  -1.5712 C.ar           1 S1                 0.0000
     22 ****        -2.7819   1.6208  -1.5684 N.ar           1 S1                 0.0000
     23 ****        -2.1409   0.4172  -1.5211 C.ar           1 S1                 0.0000
     24 ****        -6.2419  -1.6307  -0.1924 C.3            1 S1                 0.0000
     25 ****        -6.4697  -2.4370   1.0786 C.3            1 S1                 0.0000
     26 ****        -5.2964  -3.2272   1.1555 O.3            1 S1                 0.0000
     27 ****        -4.1873  -2.4231   0.7679 C.3            1 S1                 0.0000
     28 ****        -4.9697   0.6201   0.0098 H              1 S1                 0.0000
     29 ****        -4.2103  -2.1524  -2.0589 H              1 S1                 0.0000
     30 ****        -4.6327  -0.4615  -2.1340 H              1 S1                 0.0000
     31 ****        -1.7419  -2.7889  -1.4652 H              1 S1                 0.0000
     32 ****         1.8351  -0.0539  -2.8762 H              1 S1                 0.0000
     33 ****         1.5526   1.5453  -3.5410 H              1 S1                 0.0000
     34 ****         3.9869   0.9150  -3.6145 H              1 S1                 0.0000
     35 ****         3.7055   2.3595  -2.6699 H              1 S1                 0.0000
     36 ****         4.1231  -0.4611  -1.5671 H              1 S1                 0.0000
     37 ****         5.2516   0.8701  -1.4437 H              1 S1                 0.0000
     38 ****         3.6779   2.1479  -0.0469 H              1 S1                 0.0000
     39 ****         4.1648   1.9384   2.2406 H              1 S1                 0.0000
     40 ****         2.7690   0.8729   2.4105 H              1 S1                 0.0000
     41 ****         4.3465  -0.9933   3.1616 H              1 S1                 0.0000
     42 ****         4.4637   1.6323   4.8158 H              1 S1                 0.0000
     43 ****         4.7175  -0.0795   5.4392 H              1 S1                 0.0000
     44 ****         6.6581  -0.3633   3.8654 H              1 S1                 0.0000
     45 ****         6.4030   1.3493   3.2455 H              1 S1                 0.0000
     46 ****         1.4768   1.1993   0.6249 H              1 S1                 0.0000
     47 ****         1.8096  -0.2705  -0.2737 H              1 S1                 0.0000
     48 ****        -2.3473   3.6225  -1.6107 H              1 S1                 0.0000
     49 ****        -6.8854  -0.7529  -0.2643 H              1 S1                 0.0000
     50 ****        -6.4518  -2.2656  -1.0545 H              1 S1                 0.0000
     51 ****        -6.5351  -1.7863   1.9520 H              1 S1                 0.0000
     52 ****        -7.3687  -3.0519   1.0344 H              1 S1                 0.0000
     53 ****        -3.4683  -3.0551   0.2480 H              1 S1                 0.0000
     54 ****        -3.6922  -2.0281   1.6567 H              1 S1                 0.0000
     55 ****        -3.6318   0.1156   0.7066 LP             1 S1                 0.0000
     56 ****        -5.0829  -0.0986   1.4243 LP             1 S1                 0.0000
     57 ****         0.4455  -1.5882  -1.4269 LP             1 S1                 0.0000
     58 ****         1.6601   2.3815  -1.3556 LP             1 S1                 0.0000
     59 ****         5.0852   0.3506   0.7566 LP             1 S1                 0.0000
     60 ****         3.7472  -0.5778   0.8757 LP             1 S1                 0.0000
     61 ****        -0.0489   3.4403  -1.5419 LP             1 S1                 0.0000
     62 ****        -3.7755   1.7298  -1.5973 LP             1 S1                 0.0000
     63 ****        -5.3764  -4.0115   0.5403 LP             1 S1                 0.0000
     64 ****        -5.1679  -3.5507   2.0930 LP             1 S1                 0.0000
@<TRIPOS>BOND
    1    1    2 1     
    2    1   28 1     
    3    2   27 1     
    4    2    3 1     
    5    2   24 1     
    6    3    4 1     
    7    3   29 1     
    8    3   30 1     
    9    4   23 1     
   10    4    5 1     
   11    5    6 2     
   12    5   31 1     
   13    6    7 1     
   14    7   23 ar    
   15    7    8 ar    
   16    8    9 1     
   17    8   20 ar    
   18    9   19 1     
   19    9   10 1     
   20   10   11 1     
   21   10   32 1     
   22   10   33 1     
   23   11   12 1     
   24   11   34 1     
   25   11   35 1     
   26   12   13 1     
   27   12   36 1     
   28   12   37 1     
   29   13   14 1     
   30   13   19 1     
   31   13   38 1     
   32   14   15 1     
   33   15   16 1     
   34   15   39 1     
   35   15   40 1     
   36   16   18 1     
   37   16   17 1     
   38   16   41 1     
   39   17   18 1     
   40   17   42 1     
   41   17   43 1     
   42   18   44 1     
   43   18   45 1     
   44   19   46 1     
   45   19   47 1     
   46   20   21 ar    
   47   21   22 ar    
   48   21   48 1     
   49   22   23 ar    
   50   24   25 1     
   51   24   49 1     
   52   24   50 1     
   53   25   26 1     
   54   25   51 1     
   55   25   52 1     
   56   26   27 1     
   57   27   53 1     
   58   27   54 1     
   59    1   55 1     
   60    1   56 1     
   61    6   57 1     
   62    9   58 1     
   63   14   59 1     
   64   14   60 1     
   65   20   61 1     
   66   22   62 1     
   67   26   63 1     
   68   26   64 1     
@<TRIPOS>SUBSTRUCTURE
      1 S1             1
@<TRIPOS>SET
LONE_PAIRS      STATIC     ATOMS    <user>   **** ""
10 55 56 57 58 59 60 61 62 63 64
DONOR_HYDROGENS      STATIC     ATOMS    <user>   **** ""
1 28
ATOM$BLUE        STATIC     ATOMS    COLORGROUP SYSTEM
10 55 56 57 58 59 60 61 62 63 64
ATOM$RED        STATIC     ATOMS    COLORGROUP SYSTEM
1 28
