#       Name:                AV-unprocessed.smi:3255
#       Creating user name   scv26
#       Creation time:       Fri Mar 27 18:35:39 2020


#       File generated by GOLD software.
#

@<TRIPOS>MOLECULE
AV-unprocessed.smi:3255
    43    44     1
SMALL
NO_CHARGES


@<TRIPOS>ATOM
      1 ****        -2.4143  -1.5835  -2.5854 C.3            1 S1                 0.0000
      2 ****        -1.7000  -0.7397  -1.5199 C.3            1 S1                 0.0000
      3 ****        -0.2596  -0.9721  -1.6190 N.am           1 S1                 0.0000
      4 ****         0.6879  -0.0256  -1.5626 C.2            1 S1                 0.0000
      5 ****         0.4583   1.1771  -1.4323 O.2            1 S1                 0.0000
      6 ****         1.9204  -0.5478  -1.6363 N.am           1 S1                 0.0000
      7 ****         3.1614   0.2186  -1.5609 C.3            1 S1                 0.0000
      8 ****         3.7051   0.3120  -0.1214 C.3            1 S1                 0.0000
      9 ****         2.8389   1.0856   0.7744 N.pl3          1 S1                 0.0000
     10 ****         2.0725   0.6082   1.8065 C.2            1 S1                 0.0000
     11 ****         1.4245   1.6897   2.3453 C.2            1 S1                 0.0000
     12 ****         1.8301   2.7819   1.6264 N.pl3          1 S1                 1.0000
     13 ****         2.6958   2.4137   0.6764 C.2            1 S1                 0.0000
     14 ****        -2.2076  -1.0636  -0.0991 C.3            1 S1                 0.0000
     15 ****        -1.5387  -0.2794   1.0293 C.3            1 S1                 0.0000
     16 ****        -2.5439  -0.4092   2.1549 C.3            1 S1                 0.0000
     17 ****        -3.8820  -0.5512   1.4244 C.3            1 S1                 0.0000
     18 ****        -3.5697  -0.6860   0.0408 O.3            1 S1                 0.0000
     19 ****        -3.4905  -1.4098  -2.5680 H              1 S1                 0.0000
     20 ****        -2.2478  -2.6496  -2.4270 H              1 S1                 0.0000
     21 ****        -2.0594  -1.3353  -3.5862 H              1 S1                 0.0000
     22 ****        -1.9180   0.3083  -1.7325 H              1 S1                 0.0000
     23 ****         0.0348  -1.9317  -1.7267 H              1 S1                 0.0000
     24 ****         2.0079  -1.5479  -1.7452 H              1 S1                 0.0000
     25 ****         3.8961  -0.2881  -2.1871 H              1 S1                 0.0000
     26 ****         3.0339   1.2128  -1.9928 H              1 S1                 0.0000
     27 ****         3.8363  -0.6834   0.3052 H              1 S1                 0.0000
     28 ****         4.6862   0.7883  -0.1208 H              1 S1                 0.0000
     29 ****         2.0373  -0.4395   2.0680 H              1 S1                 0.0000
     30 ****         0.7229   1.7614   3.1636 H              1 S1                 0.0000
     31 ****         3.1720   3.0600  -0.0391 H              1 S1                 0.0000
     32 ****        -2.1198  -2.1333   0.1014 H              1 S1                 0.0000
     33 ****        -0.5563  -0.6697   1.2946 H              1 S1                 0.0000
     34 ****        -1.4272   0.7693   0.7498 H              1 S1                 0.0000
     35 ****        -2.3411  -1.3090   2.7371 H              1 S1                 0.0000
     36 ****        -2.5217   0.4441   2.8334 H              1 S1                 0.0000
     37 ****        -4.4260  -1.4293   1.7739 H              1 S1                 0.0000
     38 ****        -4.5181   0.3221   1.5709 H              1 S1                 0.0000
     39 ****         1.5183   3.7316   1.7859 H              1 S1                 0.0000
     40 ****        -0.4850   1.5012  -1.3611 LP             1 S1                 0.0000
     41 ****         1.2152   1.8297  -1.3976 LP             1 S1                 0.0000
     42 ****        -4.1542  -1.3876  -0.3667 LP             1 S1                 0.0000
     43 ****        -3.7236   0.1866  -0.4228 LP             1 S1                 0.0000
@<TRIPOS>BOND
    1    1    2 1     
    2    1   19 1     
    3    1   20 1     
    4    1   21 1     
    5    2    3 1     
    6    2   14 1     
    7    2   22 1     
    8    3    4 am    
    9    3   23 1     
   10    4    5 2     
   11    4    6 am    
   12    6    7 1     
   13    6   24 1     
   14    7    8 1     
   15    7   25 1     
   16    7   26 1     
   17    8    9 1     
   18    8   27 1     
   19    8   28 1     
   20    9   13 1     
   21    9   10 1     
   22   10   11 2     
   23   10   29 1     
   24   11   12 1     
   25   11   30 1     
   26   12   13 2     
   27   12   39 1     
   28   13   31 1     
   29   14   18 1     
   30   14   15 1     
   31   14   32 1     
   32   15   16 1     
   33   15   33 1     
   34   15   34 1     
   35   16   17 1     
   36   16   35 1     
   37   16   36 1     
   38   17   18 1     
   39   17   37 1     
   40   17   38 1     
   41    5   40 1     
   42    5   41 1     
   43   18   42 1     
   44   18   43 1     
@<TRIPOS>SUBSTRUCTURE
      1 S1             1
@<TRIPOS>SET
LONE_PAIRS      STATIC     ATOMS    <user>   **** ""
4 40 41 42 43
DONOR_HYDROGENS      STATIC     ATOMS    <user>   **** ""
3 23 24 39
ATOM$BLUE        STATIC     ATOMS    COLORGROUP SYSTEM
4 40 41 42 43
ATOM$RED        STATIC     ATOMS    COLORGROUP SYSTEM
3 23 24 39
