AV-unprocessed.smi:49|AV-procd|sdf|476|dock3
  -GOLD-   2262016343D 1   1.00000     0.00000
 Structure written by MMmdl.
 27 28  0  0  0  0  0  0  0  0  1 V2000
  152.5446  142.7533  160.7135 C   0  0  0  0  0  0  0  0  0  0  0  0
  152.5855  141.2670  160.3410 C   0  0  0  0  0  0  0  0  0  0  0  0
  151.9679  141.0003  159.0083 C   0  0  0  0  0  0  0  0  0  0  0  0
  152.6697  140.4716  157.9612 N   0  0  0  0  0  0  0  0  0  0  0  0
  151.7260  140.4639  157.0236 C   0  0  0  0  0  0  0  0  0  0  0  0
  151.8971  139.9917  155.6130 C   0  0  1  0  0  0  0  0  0  0  0  0
  152.2957  138.5113  155.5237 C   0  0  0  0  0  0  0  0  0  0  0  0
  151.6878  138.0784  154.1974 C   0  0  1  0  0  0  0  0  0  0  0  0
  151.4792  136.6848  154.1143 O   0  0  0  0  0  0  0  0  0  0  0  0
  150.3802  138.8637  154.1796 C   0  0  0  0  0  0  0  0  0  0  0  0
  150.6885  140.1517  154.7949 N   0  0  0  0  0  0  0  0  0  0  0  0
  150.5688  140.9618  157.4646 N   0  0  0  0  0  0  0  0  0  0  0  0
  150.7010  141.3268  158.7573 N   0  0  0  0  0  0  0  0  0  0  0  0
  152.6919  140.5827  155.1561 H   0  0  0  0  0  0  0  0  0  0  0  0
  152.3258  138.3989  153.3724 H   0  0  0  0  0  0  0  0  0  0  0  0
  149.7096  141.0722  156.9455 H   0  0  0  0  0  0  0  0  0  0  0  0
  152.9965  142.9213  161.6911 H   0  0  0  0  0  0  0  0  0  0  0  0
  151.5188  143.1209  160.7528 H   0  0  0  0  0  0  0  0  0  0  0  0
  153.0895  143.3556  159.9861 H   0  0  0  0  0  0  0  0  0  0  0  0
  153.6183  140.9167  160.3305 H   0  0  0  0  0  0  0  0  0  0  0  0
  152.0680  140.6800  161.1008 H   0  0  0  0  0  0  0  0  0  0  0  0
  153.3729  138.3541  155.5834 H   0  0  0  0  0  0  0  0  0  0  0  0
  151.8295  137.9483  156.3350 H   0  0  0  0  0  0  0  0  0  0  0  0
  151.1361  136.4824  153.2575 H   0  0  0  0  0  0  0  0  0  0  0  0
  149.9708  138.9774  153.1757 H   0  0  0  0  0  0  0  0  0  0  0  0
  149.6338  138.3472  154.7847 H   0  0  0  0  0  0  0  0  0  0  0  0
  150.8858  140.8218  154.0589 H   0  0  0  0  0  0  0  0  0  0  0  0
  1  2  1  0  0  0  0
  1 17  1  0  0  0  0
  1 18  1  0  0  0  0
  1 19  1  0  0  0  0
  2 20  1  0  0  0  0
  2 21  1  0  0  0  0
  2  3  1  0  0  0  0
  3  4  1  0  0  0  0
  3 13  2  0  0  0  0
  4  5  2  0  0  0  0
  5  6  1  0  0  0  0
  5 12  1  0  0  0  0
  6 14  1  0  0  0  0
  6 11  1  0  0  0  0
  6  7  1  0  0  0  0
  7  8  1  0  0  0  0
  7 22  1  0  0  0  0
  7 23  1  0  0  0  0
  8 15  1  0  0  0  0
  8  9  1  0  0  0  0
  8 10  1  0  0  0  0
  9 24  1  0  0  0  0
 10 11  1  0  0  0  0
 10 25  1  0  0  0  0
 10 26  1  0  0  0  0
 11 27  1  0  0  0  0
 12 13  1  0  0  0  0
 12 16  1  0  0  0  0
M  END
> <s_m_source_file>
AV-unprocessed.smi

> <i_m_source_file_index>
49

> <i_lp_mmshare_version>
43012

> <i_f3d_flags>
0

> <s_epik_input>
W0NIM11bQ0gyXWMxbmMobltuSF0xKVtDQEBIXTJbQ0gyXVtDQEBIXShbT0hdKVtDSDJdW05IXTI=

> <s_epik_cmdline>
J2VwaWtfcHl0aG9uJywgJy1waCcsICc3LjAnLCAnLXRuJywgJzgnLCAnLW1hJywgJzIwMCcsICctbWV0YWxfYmluZGluZycsICctaW1hZScsICc8aW5maWxlLm1hZT4nLCAnLW9tYWUnLCAnPG91dGZpbGUubWFlPic=

> <r_epik_Ionization_Penalty>
1.31544

> <r_epik_Ionization_Penalty_Charging>
0

> <r_epik_Ionization_Penalty_Neutral>
1.31544

> <r_epik_State_Penalty>
2.06074

> <r_epik_Charging_Adjusted_Penalty>
2.06074

> <i_epik_Tot_Q>
0

> <i_epik_Tot_abs_Q>
0

> <r_epik_Metal_State_Penalty>
2.32913

> <b_epik_Metal_Only>
0

> <s_lp_Force_Field>
OPLS_2005

> <r_lp_Energy>
18.1426

> <b_lp_Chiralities_Consistent>
1

> <s_lp_Variant>
AV-unprocessed.smi:49-14

> <Gold.Version>
5.8.1

> <Gold.Id.Protein>
6NUR|6NUR_protein|mol2

> <Gold.PLP.Fitness>
36.6799

> <Gold.PLP.PLP>
-28.1865

> <Gold.PLP.part.hbond>
-4.0000

> <Gold.PLP.part.metal>
0.0000

> <Gold.PLP.part.buried>
-2.6619

> <Gold.PLP.part.nonpolar>
-20.6552

> <Gold.PLP.part.repulsive>
0.0443

> <Gold.PLP.ligand.clash>
0.0000

> <Gold.PLP.ligand.torsion>
0.0058

> <Gold.PLP.Chemscore.Hbond>
2.8320

> <Gold.PLP.Chemscore.CHOScore>
0.0000

> <Gold.PLP.Chemscore.Metal>
0.0000

> <Gold.Chemscore.Hbonds>
donor molecule, donor type, donor heavy atom, donor atom, acceptor molecule, acceptor atom, score
      L1  H     9    24       P1  7949  1.00
      P1  H  7997  8009       L1     4  0.62
      P1  H 10752 10765       L1     9  1.00

> <Gold.PLP.Chemscore.Internal.Correction>
0.0090

> <Gold.Rescore>
     Score         DG    S(hbond)    S(metal)    S(lipo)     H(rot)  DE(clash)    DE(int)     intcor
     13.93     -14.60       2.29        0.00      53.03       1.86       0.50       0.16       ----

> <Gold.Chemscore.Fitness>
13.9334

> <Gold.Chemscore.DG>
-14.5965

> <Gold.Chemscore.ZeroCoef>
-5.4800

> <Gold.Chemscore.Hbond>
2.2942

> <Gold.Chemscore.Metal>
0.0000

> <Gold.Chemscore.Lipo>
53.0314

> <Gold.Chemscore.Internal_Hbond>
0.0000

> <Gold.Chemscore.DEClash>
0.5034

> <Gold.Chemscore.DEInternal>
0.1597

> <Gold.Chemscore.Rot>
1.8558

> <Gold.Chemscore.Internal.Correction>
   9.000000E+99

> <Gold.Chemscore.Hbonds>
donor molecule, donor type, donor heavy atom, donor atom, acceptor molecule, acceptor atom, score
      L1  H     9    24       P1  7949  0.39
      P1  H  7997  8009       L1     4  0.21
      P1  H 10752 10765       L1     9  0.31

> <Gold.Chemscore.Hbond.Weighted>
-7.6626

> <Gold.Chemscore.Metal.Weighted>
-0.0000

> <Gold.Chemscore.Lipo.Weighted>
-6.2047

> <Gold.Chemscore.Internal_Hbond.Weighted>
0.0000

> <Gold.Chemscore.DEClash.Weighted>
0.5034

> <Gold.Chemscore.DEInternal.Weighted>
0.1597

> <Gold.Chemscore.Rot.Weighted>
4.7507

> <Gold.Chemscore.Internal.Correction.Weighted>
   9.000000E+99

> <Gold.Protein.RotatedTorsions>
[ 6907 6896 6895 6894 ] final -152.62 input  -60.11 | X-H torsion
[ 7974 7965 7964 7962 ] final -105.05 input  175.53 | X-H torsion
[ 8008 7997 7996 7995 ] final  169.72 input   59.86 | X-H torsion
[ 10167 10162 10161 10158 ] final  -18.01 input  -65.29 | X-H torsion
[ 10718 10713 10712 10709 ] final  -82.31 input   66.30 | X-H torsion
[ 10763 10752 10751 10750 ] final  153.74 input  -60.55 | X-H torsion
[ 11005 11000 10999 10996 ] final   76.89 input  -57.11 | X-H torsion

> <Gold.Protein.ActiveResidues>
 VAL166  LYS551  ARG553  GLY616  TRP617  ASP618  TYR619  PRO620  LYS621  CYS622 
 ASP623  PHE694  ASN695  SER759  ASP760  ASP761  ALA762  ILE779  LEU786  VAL792 
 PHE793  MET794  SER795  GLU796  ALA797  LYS798  CYS799  TRP800  GLU811  SER814 

> <Gold.Protein.RotatedAtoms>
  151.2304  133.4453  159.2603 H   0  0  0  0  0  0  0  0  0  0  0  0  # atno 6907 bound_to 6896
  151.0800  134.9852  159.8361 H   0  0  0  0  0  0  0  0  0  0  0  0  # atno 6908 bound_to 6896
  152.5423  134.2245  159.8853 H   0  0  0  0  0  0  0  0  0  0  0  0  # atno 6909 bound_to 6896
  145.2354  140.9186  143.3181 H   0  0  0  0  0  0  0  0  0  0  0  0  # atno 7974 bound_to 7965
  156.1431  140.1556  156.8889 H   0  0  0  0  0  0  0  0  0  0  0  0  # atno 8008 bound_to 7997
  154.5005  140.0826  156.7825 H   0  0  0  0  0  0  0  0  0  0  0  0  # atno 8009 bound_to 7997
  155.4040  140.3416  155.4261 H   0  0  0  0  0  0  0  0  0  0  0  0  # atno 8010 bound_to 7997
  140.7254  143.4958  150.9932 H   0  0  0  0  0  0  0  0  0  0  0  0  # atno 10167 bound_to 10162
  156.0035  130.4630  150.4086 H   0  0  0  0  0  0  0  0  0  0  0  0  # atno 10718 bound_to 10713
  154.1410  135.2821  155.3161 H   0  0  0  0  0  0  0  0  0  0  0  0  # atno 10763 bound_to 10752
  154.6287  135.5443  153.7659 H   0  0  0  0  0  0  0  0  0  0  0  0  # atno 10764 bound_to 10752
  153.0250  135.6457  154.1557 H   0  0  0  0  0  0  0  0  0  0  0  0  # atno 10765 bound_to 10752
  139.9278  134.7638  156.1453 H   0  0  0  0  0  0  0  0  0  0  0  0  # atno 11005 bound_to 11000
  144.9638  139.3951  143.6342 LP  0  0  0  0  0  0  0  0  0  0  0  0  # atno 17320 bound_to 7965
  146.3342  139.8704  142.8841 LP  0  0  0  0  0  0  0  0  0  0  0  0  # atno 17321 bound_to 7965
  139.8665  143.7247  152.3170 LP  0  0  0  0  0  0  0  0  0  0  0  0  # atno 17342 bound_to 10162
  139.7481  144.7542  151.0549 LP  0  0  0  0  0  0  0  0  0  0  0  0  # atno 17343 bound_to 10162
  157.2150  131.0469  151.2578 LP  0  0  0  0  0  0  0  0  0  0  0  0  # atno 17370 bound_to 10713
  157.3853  130.7253  149.6659 LP  0  0  0  0  0  0  0  0  0  0  0  0  # atno 17371 bound_to 10713
  141.0847  133.6739  156.2412 LP  0  0  0  0  0  0  0  0  0  0  0  0  # atno 17394 bound_to 11000
  140.6286  134.5287  157.5557 LP  0  0  0  0  0  0  0  0  0  0  0  0  # atno 17395 bound_to 11000

$$$$
