AV-unprocessed.smi:2492|AV-procd|sdf|9816|dock3
  -GOLD-   2272013443D 1   1.00000     0.00000
 Structure written by MMmdl.
 32 33  0  0  0  0  0  0  0  0  2 V2000
  151.5361  144.8411  158.4191 C   0  0  0  0  0  0  0  0  0  0  0  0
  151.2145  144.5086  160.1712 S   0  0  0  0  0  0  0  0  0  0  0  0
  152.7803  143.7182  160.6444 C   0  0  1  0  0  0  0  0  0  0  0  0
  152.6812  142.9031  161.9326 C   0  0  0  0  0  0  0  0  0  0  0  0
  153.8874  141.9652  161.8727 C   0  0  0  0  0  0  0  0  0  0  0  0
  154.1414  141.6930  160.3786 C   0  0  1  0  0  0  0  0  0  0  0  0
  153.8059  140.3106  160.0439 N   0  0  0  0  0  0  0  0  0  0  0  0
  154.6138  139.4339  159.4299 C   0  0  0  0  0  0  0  0  0  0  0  0
  155.7519  139.7748  159.0986 O   0  0  0  0  0  0  0  0  0  0  0  0
  154.0518  138.2193  159.2352 N   0  5  0  0  0  0  0  0  0  0  0  0
  153.5079  137.9144  158.0455 C   0  0  0  0  0  0  0  0  0  0  0  0
  153.2609  138.7706  157.0532 N   0  0  0  0  0  0  0  0  0  0  0  0
  152.7342  137.9526  156.1030 C   0  0  0  0  0  0  0  0  0  0  0  0
  152.2858  138.4443  154.7695 C   0  0  0  0  0  0  0  0  0  0  0  0
  152.6479  136.6713  156.4273 N   0  0  0  0  0  0  0  0  0  0  0  0
  153.1697  136.6374  157.7278 O   0  0  0  0  0  0  0  0  0  0  0  0
  153.2642  142.7012  159.6071 C   0  0  0  0  0  0  0  0  0  0  0  0
  150.6555  145.2842  157.9545 H   0  0  0  0  0  0  0  0  0  0  0  0
  151.7762  143.9172  157.8931 H   0  0  0  0  0  0  0  0  0  0  0  0
  152.3693  145.5346  158.3061 H   0  0  0  0  0  0  0  0  0  0  0  0
  153.5431  144.4889  160.7637 H   0  0  0  0  0  0  0  0  0  0  0  0
  152.6833  143.5241  162.8285 H   0  0  0  0  0  0  0  0  0  0  0  0
  151.7618  142.3157  161.9338 H   0  0  0  0  0  0  0  0  0  0  0  0
  154.7560  142.4704  162.2973 H   0  0  0  0  0  0  0  0  0  0  0  0
  153.7281  141.0583  162.4578 H   0  0  0  0  0  0  0  0  0  0  0  0
  155.1971  141.8704  160.1646 H   0  0  0  0  0  0  0  0  0  0  0  0
  152.8826  139.9911  160.2973 H   0  0  0  0  0  0  0  0  0  0  0  0
  153.0942  138.3506  154.0444 H   0  0  0  0  0  0  0  0  0  0  0  0
  151.9914  139.4924  154.8280 H   0  0  0  0  0  0  0  0  0  0  0  0
  151.4315  137.8672  154.4145 H   0  0  0  0  0  0  0  0  0  0  0  0
  152.4038  142.1936  159.1673 H   0  0  0  0  0  0  0  0  0  0  0  0
  153.8078  143.1761  158.7898 H   0  0  0  0  0  0  0  0  0  0  0  0
  1  2  1  0  0  0  0
  1 18  1  0  0  0  0
  1 19  1  0  0  0  0
  1 20  1  0  0  0  0
  2  3  1  0  0  0  0
  3 17  1  0  0  0  0
  3  4  1  0  0  0  0
  3 21  1  0  0  0  0
  4  5  1  0  0  0  0
  4 22  1  0  0  0  0
  4 23  1  0  0  0  0
  5  6  1  0  0  0  0
  5 24  1  0  0  0  0
  5 25  1  0  0  0  0
  6  7  1  0  0  0  0
  6 17  1  0  0  0  0
  6 26  1  0  0  0  0
  7  8  1  0  0  0  0
  7 27  1  0  0  0  0
  8  9  2  0  0  0  0
  8 10  1  0  0  0  0
 10 11  1  0  0  0  0
 11 16  1  0  0  0  0
 11 12  2  0  0  0  0
 12 13  1  0  0  0  0
 13 14  1  0  0  0  0
 13 15  2  0  0  0  0
 14 28  1  0  0  0  0
 14 29  1  0  0  0  0
 14 30  1  0  0  0  0
 15 16  1  0  0  0  0
 17 31  1  0  0  0  0
 17 32  1  0  0  0  0
M  CHG  1  10  -1
M  END
> <s_m_source_file>
AV-unprocessed.smi

> <i_m_source_file_index>
2492

> <i_lp_mmshare_version>
43012

> <i_f3d_flags>
0

> <s_epik_input>
W0NIM11TW0NAQEhdMVtDSDJdW0NIMl1bQ0BIXShbQ0gyXTEpW05IXUMoPU8pW05IXWMybmMoW0NIM10pbm8y

> <s_epik_cmdline>
J2VwaWtfcHl0aG9uJywgJy1waCcsICc3LjAnLCAnLXRuJywgJzgnLCAnLW1hJywgJzIwMCcsICctbWV0YWxfYmluZGluZycsICctaW1hZScsICc8aW5maWxlLm1hZT4nLCAnLW9tYWUnLCAnPG91dGZpbGUubWFlPic=

> <r_lp_tautomer_probability>
1

> <r_epik_Ionization_Penalty>
6.26454

> <r_epik_Ionization_Penalty_Charging>
6.26445

> <r_epik_Ionization_Penalty_Neutral>
9.05726e-05

> <r_epik_State_Penalty>
6.26444

> <r_epik_Charging_Adjusted_Penalty>
12.5289

> <i_epik_Tot_Q>
-1

> <i_epik_Tot_abs_Q>
1

> <r_epik_Metal_State_Penalty>
2.20125

> <b_epik_Metal_Only>
1

> <s_lp_Force_Field>
OPLS_2005

> <r_lp_Energy>
11.8534

> <b_lp_Chiralities_Consistent>
1

> <s_lp_Variant>
AV-unprocessed.smi:2492-6

> <Gold.Version>
5.8.1

> <Gold.Id.Protein>
6NUR|6NUR_protein|mol2

> <Gold.PLP.Fitness>
43.7088

> <Gold.PLP.PLP>
-37.2488

> <Gold.PLP.part.hbond>
-3.0000

> <Gold.PLP.part.metal>
0.0000

> <Gold.PLP.part.buried>
-5.2459

> <Gold.PLP.part.nonpolar>
-27.8253

> <Gold.PLP.part.repulsive>
0.0726

> <Gold.PLP.ligand.clash>
0.0000

> <Gold.PLP.ligand.torsion>
0.9543

> <Gold.PLP.Chemscore.Hbond>
2.7760

> <Gold.PLP.Chemscore.CHOScore>
0.0000

> <Gold.PLP.Chemscore.Metal>
0.0000

> <Gold.Chemscore.Hbonds>
donor molecule, donor type, donor heavy atom, donor atom, acceptor molecule, acceptor atom, score
      P1  H  7997  8008       L1    12  0.70
      P1  H  7997  8010       L1     9  1.00
      P1  H 10752 10763       L1    15  1.00

> <Gold.PLP.Chemscore.Internal.Correction>
0.0407

> <Gold.Rescore>
     Score         DG    S(hbond)    S(metal)    S(lipo)     H(rot)  DE(clash)    DE(int)     intcor
     20.35     -21.34       2.50        0.00      92.03       1.27       0.15       0.84       ----

> <Gold.Chemscore.Fitness>
20.3508

> <Gold.Chemscore.DG>
-21.3357

> <Gold.Chemscore.ZeroCoef>
-5.4800

> <Gold.Chemscore.Hbond>
2.4978

> <Gold.Chemscore.Metal>
0.0000

> <Gold.Chemscore.Lipo>
92.0282

> <Gold.Chemscore.Internal_Hbond>
0.0000

> <Gold.Chemscore.DEClash>
0.1463

> <Gold.Chemscore.DEInternal>
0.8385

> <Gold.Chemscore.Rot>
1.2712

> <Gold.Chemscore.Internal.Correction>
   9.000000E+99

> <Gold.Chemscore.Hbonds>
donor molecule, donor type, donor heavy atom, donor atom, acceptor molecule, acceptor atom, score
      P1  H  7997  8008       L1    12  0.55
      P1  H  7997  8010       L1     9  0.58
      P1  H 10752 10763       L1    15  0.86

> <Gold.Chemscore.Hbond.Weighted>
-8.3426

> <Gold.Chemscore.Metal.Weighted>
-0.0000

> <Gold.Chemscore.Lipo.Weighted>
-10.7673

> <Gold.Chemscore.Internal_Hbond.Weighted>
0.0000

> <Gold.Chemscore.DEClash.Weighted>
0.1463

> <Gold.Chemscore.DEInternal.Weighted>
0.8385

> <Gold.Chemscore.Rot.Weighted>
3.2542

> <Gold.Chemscore.Internal.Correction.Weighted>
   9.000000E+99

> <Gold.Protein.RotatedTorsions>
[ 6907 6896 6895 6894 ] final -153.14 input  -60.11 | X-H torsion
[ 7974 7965 7964 7962 ] final   62.45 input  175.53 | X-H torsion
[ 8008 7997 7996 7995 ] final  -36.33 input   59.86 | X-H torsion
[ 10167 10162 10161 10158 ] final  -28.69 input  -65.29 | X-H torsion
[ 10718 10713 10712 10709 ] final  179.20 input   66.30 | X-H torsion
[ 10763 10752 10751 10750 ] final   96.52 input  -60.55 | X-H torsion
[ 11005 11000 10999 10996 ] final -175.39 input  -57.11 | X-H torsion

> <Gold.Protein.ActiveResidues>
 VAL166  LYS551  ARG553  GLY616  TRP617  ASP618  TYR619  PRO620  LYS621  CYS622 
 ASP623  PHE694  ASN695  SER759  ASP760  ASP761  ALA762  ILE779  LEU786  VAL792 
 PHE793  MET794  SER795  GLU796  ALA797  LYS798  CYS799  TRP800  GLU811  SER814 

> <Gold.Protein.RotatedAtoms>
  151.2381  133.4414  159.2606 H   0  0  0  0  0  0  0  0  0  0  0  0  # atno 6907 bound_to 6896
  151.0731  134.9811  159.8329 H   0  0  0  0  0  0  0  0  0  0  0  0  # atno 6908 bound_to 6896
  152.5415  134.2325  159.8883 H   0  0  0  0  0  0  0  0  0  0  0  0  # atno 6909 bound_to 6896
  145.8732  139.3392  143.0750 H   0  0  0  0  0  0  0  0  0  0  0  0  # atno 7974 bound_to 7965
  154.4075  140.1633  156.2356 H   0  0  0  0  0  0  0  0  0  0  0  0  # atno 8008 bound_to 7997
  155.9245  140.3419  155.6177 H   0  0  0  0  0  0  0  0  0  0  0  0  # atno 8009 bound_to 7997
  155.7181  140.0765  157.2333 H   0  0  0  0  0  0  0  0  0  0  0  0  # atno 8010 bound_to 7997
  140.7267  143.3989  151.1299 H   0  0  0  0  0  0  0  0  0  0  0  0  # atno 10167 bound_to 10162
  156.8792  130.9810  151.3064 H   0  0  0  0  0  0  0  0  0  0  0  0  # atno 10718 bound_to 10713
  153.2659  135.4215  155.0940 H   0  0  0  0  0  0  0  0  0  0  0  0  # atno 10763 bound_to 10752
  154.8438  135.3460  154.6312 H   0  0  0  0  0  0  0  0  0  0  0  0  # atno 10764 bound_to 10752
  153.6732  135.7042  153.5198 H   0  0  0  0  0  0  0  0  0  0  0  0  # atno 10765 bound_to 10752
  140.4638  134.6230  157.4854 H   0  0  0  0  0  0  0  0  0  0  0  0  # atno 11005 bound_to 11000
  145.9112  140.9179  143.0453 LP  0  0  0  0  0  0  0  0  0  0  0  0  # atno 17320 bound_to 7965
  144.6726  140.1162  143.7452 LP  0  0  0  0  0  0  0  0  0  0  0  0  # atno 17321 bound_to 7965
  139.7606  143.8641  152.3099 LP  0  0  0  0  0  0  0  0  0  0  0  0  # atno 17342 bound_to 10162
  139.8526  144.7157  150.9196 LP  0  0  0  0  0  0  0  0  0  0  0  0  # atno 17343 bound_to 10162
  157.6150  130.8611  149.9013 LP  0  0  0  0  0  0  0  0  0  0  0  0  # atno 17370 bound_to 10713
  156.0686  130.3688  150.0825 LP  0  0  0  0  0  0  0  0  0  0  0  0  # atno 17371 bound_to 10713
  139.9928  134.6958  155.9660 LP  0  0  0  0  0  0  0  0  0  0  0  0  # atno 17394 bound_to 11000
  141.1609  133.6539  156.4315 LP  0  0  0  0  0  0  0  0  0  0  0  0  # atno 17395 bound_to 11000

$$$$
