AV-unprocessed.smi:2240|AV-procd|sdf|9057|dock8
  -GOLD-   2272012263D 1   1.00000     0.00000
 Structure written by MMmdl.
 37 38  0  0  0  0  0  0  0  0  1 V2000
  147.1721  138.8915  152.5427 C   0  0  0  0  0  0  0  0  0  0  0  0
  146.8173  140.2681  152.5137 O   0  0  0  0  0  0  0  0  0  0  0  0
  147.2744  141.0564  153.6134 C   0  0  0  0  0  0  0  0  0  0  0  0
  148.8074  141.1817  153.6324 C   0  0  0  0  0  0  0  0  0  0  0  0
  149.2712  141.9350  154.7935 N   0  0  0  0  0  0  0  0  0  0  0  0
  150.2306  141.5468  155.6453 C   0  0  0  0  0  0  0  0  0  0  0  0
  150.8625  140.4965  155.5271 O   0  0  0  0  0  0  0  0  0  0  0  0
  150.3873  142.4409  156.6372 N   0  0  0  0  0  0  0  0  0  0  0  0
  151.2543  142.3711  157.7599 C   0  0  0  0  0  0  0  0  0  0  0  0
  151.5046  143.5193  158.5547 C   0  0  0  0  0  0  0  0  0  0  0  0
  152.3463  143.4119  159.6784 C   0  0  0  0  0  0  0  0  0  0  0  0
  152.9082  142.1600  159.9898 C   0  0  0  0  0  0  0  0  0  0  0  0
  153.8211  141.9950  161.1867 C   0  0  0  0  0  0  0  0  0  0  0  0
  152.5946  141.0687  159.1568 C   0  0  0  0  0  0  0  0  0  0  0  0
  151.7865  141.1690  158.0804 N   0  0  0  0  0  0  0  0  0  0  0  0
  146.4345  142.3485  153.6545 C   0  0  0  0  0  0  0  0  0  0  0  0
  146.2722  142.1483  155.1618 C   0  0  0  0  0  0  0  0  0  0  0  0
  146.5512  140.6648  154.9185 C   0  0  0  0  0  0  0  0  0  0  0  0
  146.6712  138.3764  151.7233 H   0  0  0  0  0  0  0  0  0  0  0  0
  146.8671  138.4094  153.4716 H   0  0  0  0  0  0  0  0  0  0  0  0
  148.2438  138.7481  152.4083 H   0  0  0  0  0  0  0  0  0  0  0  0
  149.2725  140.1948  153.6068 H   0  0  0  0  0  0  0  0  0  0  0  0
  149.1669  141.6857  152.7358 H   0  0  0  0  0  0  0  0  0  0  0  0
  148.8029  142.8104  154.9764 H   0  0  0  0  0  0  0  0  0  0  0  0
  149.7282  143.2050  156.6507 H   0  0  0  0  0  0  0  0  0  0  0  0
  151.0563  144.4751  158.3298 H   0  0  0  0  0  0  0  0  0  0  0  0
  152.5508  144.2768  160.2923 H   0  0  0  0  0  0  0  0  0  0  0  0
  153.9195  140.9451  161.4641 H   0  0  0  0  0  0  0  0  0  0  0  0
  153.4264  142.5374  162.0462 H   0  0  0  0  0  0  0  0  0  0  0  0
  154.8135  142.3847  160.9599 H   0  0  0  0  0  0  0  0  0  0  0  0
  152.9983  140.0871  159.3575 H   0  0  0  0  0  0  0  0  0  0  0  0
  146.9631  143.2605  153.3788 H   0  0  0  0  0  0  0  0  0  0  0  0
  145.4873  142.2635  153.1189 H   0  0  0  0  0  0  0  0  0  0  0  0
  147.0550  142.6390  155.7424 H   0  0  0  0  0  0  0  0  0  0  0  0
  145.2776  142.3701  155.5494 H   0  0  0  0  0  0  0  0  0  0  0  0
  145.6357  140.0940  154.7521 H   0  0  0  0  0  0  0  0  0  0  0  0
  147.1850  140.1944  155.6706 H   0  0  0  0  0  0  0  0  0  0  0  0
  1  2  1  0  0  0  0
  1 19  1  0  0  0  0
  1 20  1  0  0  0  0
  1 21  1  0  0  0  0
  2  3  1  0  0  0  0
  3 18  1  0  0  0  0
  3  4  1  0  0  0  0
  3 16  1  0  0  0  0
  4  5  1  0  0  0  0
  4 22  1  0  0  0  0
  4 23  1  0  0  0  0
  5  6  1  0  0  0  0
  5 24  1  0  0  0  0
  6  7  2  0  0  0  0
  6  8  1  0  0  0  0
  8  9  1  0  0  0  0
  8 25  1  0  0  0  0
  9 15  1  0  0  0  0
  9 10  2  0  0  0  0
 10 11  1  0  0  0  0
 10 26  1  0  0  0  0
 11 12  2  0  0  0  0
 11 27  1  0  0  0  0
 12 13  1  0  0  0  0
 12 14  1  0  0  0  0
 13 28  1  0  0  0  0
 13 29  1  0  0  0  0
 13 30  1  0  0  0  0
 14 15  2  0  0  0  0
 14 31  1  0  0  0  0
 16 17  1  0  0  0  0
 16 32  1  0  0  0  0
 16 33  1  0  0  0  0
 17 18  1  0  0  0  0
 17 34  1  0  0  0  0
 17 35  1  0  0  0  0
 18 36  1  0  0  0  0
 18 37  1  0  0  0  0
M  END
> <s_m_source_file>
AV-unprocessed.smi

> <i_m_source_file_index>
2240

> <i_lp_mmshare_version>
43012

> <i_f3d_flags>
0

> <s_epik_input>
W0NIMl0xW0NIMl1bQ0gyXUMxKE9bQ0gzXSlbQ0gyXVtOSF1DKD1PKVtOSF1jMltjSF1bY0hdYyhbQ0gzXSlbY0hdbjI=

> <s_epik_cmdline>
J2VwaWtfcHl0aG9uJywgJy1waCcsICc3LjAnLCAnLXRuJywgJzgnLCAnLW1hJywgJzIwMCcsICctbWV0YWxfYmluZGluZycsICctaW1hZScsICc8aW5maWxlLm1hZT4nLCAnLW9tYWUnLCAnPG91dGZpbGUubWFlPic=

> <r_lp_tautomer_probability>
1

> <r_epik_Ionization_Penalty>
5.83017e-05

> <r_epik_Ionization_Penalty_Charging>
0

> <r_epik_Ionization_Penalty_Neutral>
5.83017e-05

> <r_epik_State_Penalty>
-0

> <r_epik_Charging_Adjusted_Penalty>
0

> <i_epik_Tot_Q>
0

> <i_epik_Tot_abs_Q>
0

> <r_epik_Metal_State_Penalty>
-0

> <b_epik_Metal_Only>
0

> <s_lp_Force_Field>
OPLS_2005

> <r_lp_Energy>
21.5554

> <b_lp_Chiralities_Consistent>
1

> <s_lp_Variant>
AV-unprocessed.smi:2240-1

> <Gold.Version>
5.8.1

> <Gold.Id.Protein>
6NUR|6NUR_protein|mol2

> <Gold.PLP.Fitness>
43.4031

> <Gold.PLP.PLP>
-35.9897

> <Gold.PLP.part.hbond>
-2.9146

> <Gold.PLP.part.metal>
0.0000

> <Gold.PLP.part.buried>
-0.6170

> <Gold.PLP.part.nonpolar>
-32.9143

> <Gold.PLP.part.repulsive>
1.2502

> <Gold.PLP.ligand.clash>
0.0000

> <Gold.PLP.ligand.torsion>
0.2606

> <Gold.PLP.Chemscore.Hbond>
2.5561

> <Gold.PLP.Chemscore.CHOScore>
0.0000

> <Gold.PLP.Chemscore.Metal>
0.0000

> <Gold.Chemscore.Hbonds>
donor molecule, donor type, donor heavy atom, donor atom, acceptor molecule, acceptor atom, score
      L1  H     5    24       P1  8028  0.99
      L1  H     8    25       P1  8028  0.96
      P1  H  7989  7998       L1     7  0.47

> <Gold.PLP.Chemscore.Internal.Correction>
0.2664

> <Gold.Rescore>
     Score         DG    S(hbond)    S(metal)    S(lipo)     H(rot)  DE(clash)    DE(int)     intcor
     14.61     -18.72       1.91        0.00      90.46       1.45       1.56       2.55       ----

> <Gold.Chemscore.Fitness>
14.6070

> <Gold.Chemscore.DG>
-18.7241

> <Gold.Chemscore.ZeroCoef>
-5.4800

> <Gold.Chemscore.Hbond>
1.9097

> <Gold.Chemscore.Metal>
0.0000

> <Gold.Chemscore.Lipo>
90.4579

> <Gold.Chemscore.Internal_Hbond>
0.0000

> <Gold.Chemscore.DEClash>
1.5627

> <Gold.Chemscore.DEInternal>
2.5544

> <Gold.Chemscore.Rot>
1.4523

> <Gold.Chemscore.Internal.Correction>
   9.000000E+99

> <Gold.Chemscore.Hbonds>
donor molecule, donor type, donor heavy atom, donor atom, acceptor molecule, acceptor atom, score
      L1  H     5    24       P1  8028  0.89
      L1  H     8    25       P1  8028  0.89
      P1  H  7989  7998       L1     7  0.08

> <Gold.Chemscore.Hbond.Weighted>
-6.3784

> <Gold.Chemscore.Metal.Weighted>
-0.0000

> <Gold.Chemscore.Lipo.Weighted>
-10.5836

> <Gold.Chemscore.Internal_Hbond.Weighted>
0.0000

> <Gold.Chemscore.DEClash.Weighted>
1.5627

> <Gold.Chemscore.DEInternal.Weighted>
2.5544

> <Gold.Chemscore.Rot.Weighted>
3.7179

> <Gold.Chemscore.Internal.Correction.Weighted>
   9.000000E+99

> <Gold.Protein.RotatedTorsions>
[ 6907 6896 6895 6894 ] final  173.98 input  -60.11 | X-H torsion
[ 7974 7965 7964 7962 ] final  133.22 input  175.53 | X-H torsion
[ 8008 7997 7996 7995 ] final -120.75 input   59.86 | X-H torsion
[ 10167 10162 10161 10158 ] final  -37.54 input  -65.29 | X-H torsion
[ 10718 10713 10712 10709 ] final -163.56 input   66.30 | X-H torsion
[ 10763 10752 10751 10750 ] final -104.82 input  -60.55 | X-H torsion
[ 11005 11000 10999 10996 ] final -122.34 input  -57.11 | X-H torsion

> <Gold.Protein.ActiveResidues>
 VAL166  LYS551  ARG553  GLY616  TRP617  ASP618  TYR619  PRO620  LYS621  CYS622 
 ASP623  PHE694  ASN695  SER759  ASP760  ASP761  ALA762  ILE779  LEU786  VAL792 
 PHE793  MET794  SER795  GLU796  ALA797  LYS798  CYS799  TRP800  GLU811  SER814 

> <Gold.Protein.RotatedAtoms>
  151.7596  133.3333  159.3413 H   0  0  0  0  0  0  0  0  0  0  0  0  # atno 6907 bound_to 6896
  150.7503  134.6118  159.6099 H   0  0  0  0  0  0  0  0  0  0  0  0  # atno 6908 bound_to 6896
  152.3414  134.7131  160.0314 H   0  0  0  0  0  0  0  0  0  0  0  0  # atno 6909 bound_to 6896
  144.9888  139.4428  143.5349 H   0  0  0  0  0  0  0  0  0  0  0  0  # atno 7974 bound_to 7965
  155.1368  140.0401  157.2788 H   0  0  0  0  0  0  0  0  0  0  0  0  # atno 8008 bound_to 7997
  154.6502  140.2567  155.7196 H   0  0  0  0  0  0  0  0  0  0  0  0  # atno 8009 bound_to 7997
  156.2573  140.2838  156.0932 H   0  0  0  0  0  0  0  0  0  0  0  0  # atno 8010 bound_to 7997
  140.7115  143.3335  151.2515 H   0  0  0  0  0  0  0  0  0  0  0  0  # atno 10167 bound_to 10162
  156.6264  130.8911  151.2968 H   0  0  0  0  0  0  0  0  0  0  0  0  # atno 10718 bound_to 10713
  154.7905  135.4772  154.0041 H   0  0  0  0  0  0  0  0  0  0  0  0  # atno 10763 bound_to 10752
  153.1623  135.6811  153.8731 H   0  0  0  0  0  0  0  0  0  0  0  0  # atno 10764 bound_to 10752
  153.8341  135.3188  155.3399 H   0  0  0  0  0  0  0  0  0  0  0  0  # atno 10765 bound_to 10752
  141.0002  134.0413  157.3547 H   0  0  0  0  0  0  0  0  0  0  0  0  # atno 11005 bound_to 11000
  146.3426  139.9207  142.8767 LP  0  0  0  0  0  0  0  0  0  0  0  0  # atno 17320 bound_to 7965
  145.2315  140.9975  143.3988 LP  0  0  0  0  0  0  0  0  0  0  0  0  # atno 17321 bound_to 7965
  139.6824  143.9832  152.2815 LP  0  0  0  0  0  0  0  0  0  0  0  0  # atno 17342 bound_to 10162
  139.9466  144.6647  150.8213 LP  0  0  0  0  0  0  0  0  0  0  0  0  # atno 17343 bound_to 10162
  157.7213  130.9562  150.1449 LP  0  0  0  0  0  0  0  0  0  0  0  0  # atno 17370 bound_to 10713
  156.2270  130.3679  149.8489 LP  0  0  0  0  0  0  0  0  0  0  0  0  # atno 17371 bound_to 10713
  139.9035  135.0172  156.7379 LP  0  0  0  0  0  0  0  0  0  0  0  0  # atno 17394 bound_to 11000
  140.6901  133.9398  155.7961 LP  0  0  0  0  0  0  0  0  0  0  0  0  # atno 17395 bound_to 11000

$$$$
