AV-unprocessed.smi:2209|AV-procd|sdf|8948|dock7
  -GOLD-   2272012163D 1   1.00000     0.00000
 Structure written by MMmdl.
 26 27  0  0  0  0  0  0  0  0  2 V2000
  154.8826  138.8020  160.3335 C   0  0  0  0  0  0  0  0  0  0  0  0
  153.9426  139.7596  159.6838 C   0  0  0  0  0  0  0  0  0  0  0  0
  153.5347  139.5875  158.4324 N   0  0  0  0  0  0  0  0  0  0  0  0
  152.6823  140.6798  158.2162 O   0  0  0  0  0  0  0  0  0  0  0  0
  152.6802  141.3828  159.3742 C   0  0  0  0  0  0  0  0  0  0  0  0
  151.8546  142.6280  159.4640 C   0  0  1  0  0  0  0  0  0  0  0  0
  152.7069  143.8646  159.8066 C   0  0  0  0  0  0  0  0  0  0  0  0
  151.8274  145.1226  159.8759 C   0  0  0  0  0  0  0  0  0  0  0  0
  151.0170  145.2996  158.5811 C   0  0  0  0  0  0  0  0  0  0  0  0
  150.2076  144.0934  158.3023 N   0  3  0  0  0  0  0  0  0  0  0  0
  151.0219  142.8628  158.1872 C   0  0  0  0  0  0  0  0  0  0  0  0
  153.4517  140.8566  160.3235 N   0  0  0  0  0  0  0  0  0  0  0  0
  155.1508  137.9936  159.6523 H   0  0  0  0  0  0  0  0  0  0  0  0
  154.4222  138.3661  161.2202 H   0  0  0  0  0  0  0  0  0  0  0  0
  155.7958  139.3162  160.6338 H   0  0  0  0  0  0  0  0  0  0  0  0
  151.1523  142.4812  160.2865 H   0  0  0  0  0  0  0  0  0  0  0  0
  153.2227  143.7176  160.7563 H   0  0  0  0  0  0  0  0  0  0  0  0
  153.4805  144.0045  159.0503 H   0  0  0  0  0  0  0  0  0  0  0  0
  151.1477  145.0486  160.7259 H   0  0  0  0  0  0  0  0  0  0  0  0
  152.4478  146.0020  160.0516 H   0  0  0  0  0  0  0  0  0  0  0  0
  150.3542  146.1613  158.6647 H   0  0  0  0  0  0  0  0  0  0  0  0
  151.6832  145.4899  157.7384 H   0  0  0  0  0  0  0  0  0  0  0  0
  149.5445  143.9719  159.0547 H   0  0  0  0  0  0  0  0  0  0  0  0
  151.6727  142.9492  157.3157 H   0  0  0  0  0  0  0  0  0  0  0  0
  150.3575  142.0175  158.0054 H   0  0  0  0  0  0  0  0  0  0  0  0
  149.6994  144.2319  157.4404 H   0  0  0  0  0  0  0  0  0  0  0  0
  1  2  1  0  0  0  0
  1 13  1  0  0  0  0
  1 14  1  0  0  0  0
  1 15  1  0  0  0  0
  2 12  1  0  0  0  0
  2  3  2  0  0  0  0
  3  4  1  0  0  0  0
  4  5  1  0  0  0  0
  5  6  1  0  0  0  0
  5 12  2  0  0  0  0
  6 11  1  0  0  0  0
  6  7  1  0  0  0  0
  6 16  1  0  0  0  0
  7  8  1  0  0  0  0
  7 17  1  0  0  0  0
  7 18  1  0  0  0  0
  8  9  1  0  0  0  0
  8 19  1  0  0  0  0
  8 20  1  0  0  0  0
  9 10  1  0  0  0  0
  9 21  1  0  0  0  0
  9 22  1  0  0  0  0
 10 11  1  0  0  0  0
 10 23  1  0  0  0  0
 10 26  1  0  0  0  0
 11 24  1  0  0  0  0
 11 25  1  0  0  0  0
M  CHG  1  10   1
M  END
> <s_m_source_file>
AV-unprocessed.smi

> <i_m_source_file_index>
2209

> <i_lp_mmshare_version>
43012

> <i_f3d_flags>
0

> <s_epik_input>
W0NIM11jMW5vYyhuMSlbQ0BASF0yW0NIMl1bQ0gyXVtDSDJdW05IXVtDSDJdMg==

> <s_epik_cmdline>
J2VwaWtfcHl0aG9uJywgJy1waCcsICc3LjAnLCAnLXRuJywgJzgnLCAnLW1hJywgJzIwMCcsICctbWV0YWxfYmluZGluZycsICctaW1hZScsICc8aW5maWxlLm1hZT4nLCAnLW9tYWUnLCAnPG91dGZpbGUubWFlPic=

> <r_lp_tautomer_probability>
1

> <r_epik_Ionization_Penalty>
0.000532935

> <r_epik_Ionization_Penalty_Charging>
0.000532935

> <r_epik_Ionization_Penalty_Neutral>
4.97553e-13

> <r_epik_State_Penalty>
0.000332992

> <r_epik_Charging_Adjusted_Penalty>
0.000865928

> <i_epik_Tot_Q>
1

> <i_epik_Tot_abs_Q>
1

> <r_epik_Metal_State_Penalty>
-0

> <b_epik_Metal_Only>
0

> <s_lp_Force_Field>
OPLS_2005

> <r_lp_Energy>
10.4199

> <b_lp_Chiralities_Consistent>
1

> <s_lp_Variant>
AV-unprocessed.smi:2209-2

> <Gold.Version>
5.8.1

> <Gold.Id.Protein>
6NUR|6NUR_protein|mol2

> <Gold.PLP.Fitness>
33.6758

> <Gold.PLP.PLP>
-24.6812

> <Gold.PLP.part.hbond>
-3.3326

> <Gold.PLP.part.metal>
0.0000

> <Gold.PLP.part.buried>
-2.7520

> <Gold.PLP.part.nonpolar>
-17.9157

> <Gold.PLP.part.repulsive>
0.0733

> <Gold.PLP.ligand.clash>
0.0000

> <Gold.PLP.ligand.torsion>
0.0194

> <Gold.PLP.Chemscore.Hbond>
3.0000

> <Gold.PLP.Chemscore.CHOScore>
0.0000

> <Gold.PLP.Chemscore.Metal>
0.0000

> <Gold.Chemscore.Hbonds>
donor molecule, donor type, donor heavy atom, donor atom, acceptor molecule, acceptor atom, score
      L1  H    10    26       P1  8028  2.00
      P1  H  7997  8009       L1     3  1.00

> <Gold.PLP.Chemscore.Internal.Correction>
0.0335

> <Gold.Rescore>
     Score         DG    S(hbond)    S(metal)    S(lipo)     H(rot)  DE(clash)    DE(int)     intcor
     13.18     -13.22       0.95        0.00      61.01       1.00       0.00       0.03       ----

> <Gold.Chemscore.Fitness>
13.1835

> <Gold.Chemscore.DG>
-13.2163

> <Gold.Chemscore.ZeroCoef>
-5.4800

> <Gold.Chemscore.Hbond>
0.9455

> <Gold.Chemscore.Metal>
0.0000

> <Gold.Chemscore.Lipo>
61.0117

> <Gold.Chemscore.Internal_Hbond>
0.0000

> <Gold.Chemscore.DEClash>
0.0000

> <Gold.Chemscore.DEInternal>
0.0328

> <Gold.Chemscore.Rot>
1.0000

> <Gold.Chemscore.Internal.Correction>
   9.000000E+99

> <Gold.Chemscore.Hbonds>
donor molecule, donor type, donor heavy atom, donor atom, acceptor molecule, acceptor atom, score
      L1  H    10    26       P1  8028  0.25
      P1  H  7997  8009       L1     3  0.19

> <Gold.Chemscore.Hbond.Weighted>
-3.1579

> <Gold.Chemscore.Metal.Weighted>
-0.0000

> <Gold.Chemscore.Lipo.Weighted>
-7.1384

> <Gold.Chemscore.Internal_Hbond.Weighted>
0.0000

> <Gold.Chemscore.DEClash.Weighted>
0.0000

> <Gold.Chemscore.DEInternal.Weighted>
0.0328

> <Gold.Chemscore.Rot.Weighted>
2.5600

> <Gold.Chemscore.Internal.Correction.Weighted>
   9.000000E+99

> <Gold.Protein.RotatedTorsions>
[ 6907 6896 6895 6894 ] final  -92.07 input  -60.11 | X-H torsion
[ 7974 7965 7964 7962 ] final -154.54 input  175.53 | X-H torsion
[ 8008 7997 7996 7995 ] final  131.69 input   59.86 | X-H torsion
[ 10167 10162 10161 10158 ] final  139.92 input  -65.29 | X-H torsion
[ 10718 10713 10712 10709 ] final -160.95 input   66.30 | X-H torsion
[ 10763 10752 10751 10750 ] final  135.04 input  -60.55 | X-H torsion
[ 11005 11000 10999 10996 ] final   76.80 input  -57.11 | X-H torsion

> <Gold.Protein.ActiveResidues>
 VAL166  LYS551  ARG553  GLY616  TRP617  ASP618  TYR619  PRO620  LYS621  CYS622 
 ASP623  PHE694  ASN695  SER759  ASP760  ASP761  ALA762  ILE779  LEU786  VAL792 
 PHE793  MET794  SER795  GLU796  ALA797  LYS798  CYS799  TRP800  GLU811  SER814 

> <Gold.Protein.RotatedAtoms>
  150.6901  134.2179  159.4384 H   0  0  0  0  0  0  0  0  0  0  0  0  # atno 6907 bound_to 6896
  152.0137  134.9859  160.0578 H   0  0  0  0  0  0  0  0  0  0  0  0  # atno 6908 bound_to 6896
  152.1464  133.4460  159.4829 H   0  0  0  0  0  0  0  0  0  0  0  0  # atno 6909 bound_to 6896
  144.7684  140.4373  143.5925 H   0  0  0  0  0  0  0  0  0  0  0  0  # atno 7974 bound_to 7965
  156.2973  140.2565  156.2967 H   0  0  0  0  0  0  0  0  0  0  0  0  # atno 8008 bound_to 7997
  154.9457  140.0395  157.2138 H   0  0  0  0  0  0  0  0  0  0  0  0  # atno 8009 bound_to 7997
  154.8084  140.2840  155.5875 H   0  0  0  0  0  0  0  0  0  0  0  0  # atno 8010 bound_to 7997
  139.5064  144.6265  151.5923 H   0  0  0  0  0  0  0  0  0  0  0  0  # atno 10167 bound_to 10162
  156.5894  130.8763  151.2886 H   0  0  0  0  0  0  0  0  0  0  0  0  # atno 10718 bound_to 10713
  153.8335  135.3100  155.3420 H   0  0  0  0  0  0  0  0  0  0  0  0  # atno 10763 bound_to 10752
  154.7963  135.4753  154.0172 H   0  0  0  0  0  0  0  0  0  0  0  0  # atno 10764 bound_to 10752
  153.1620  135.6862  153.8821 H   0  0  0  0  0  0  0  0  0  0  0  0  # atno 10765 bound_to 10752
  139.9282  134.7631  156.1442 H   0  0  0  0  0  0  0  0  0  0  0  0  # atno 11005 bound_to 11000
  145.6399  139.1548  143.2921 LP  0  0  0  0  0  0  0  0  0  0  0  0  # atno 17320 bound_to 7965
  146.1811  140.6496  142.9189 LP  0  0  0  0  0  0  0  0  0  0  0  0  # atno 17321 bound_to 7965
  140.5984  143.9654  150.6370 LP  0  0  0  0  0  0  0  0  0  0  0  0  # atno 17342 bound_to 10162
  140.2857  143.3358  152.1109 LP  0  0  0  0  0  0  0  0  0  0  0  0  # atno 17343 bound_to 10162
  157.7307  130.9690  150.1846 LP  0  0  0  0  0  0  0  0  0  0  0  0  # atno 17370 bound_to 10713
  156.2563  130.3706  149.8178 LP  0  0  0  0  0  0  0  0  0  0  0  0  # atno 17371 bound_to 10713
  141.0854  133.6736  156.2424 LP  0  0  0  0  0  0  0  0  0  0  0  0  # atno 17394 bound_to 11000
  140.6276  134.5297  157.5555 LP  0  0  0  0  0  0  0  0  0  0  0  0  # atno 17395 bound_to 11000

$$$$
