AV-unprocessed.smi:2657|AV-procd|sdf|10307|dock5
  -GOLD-   2272014323D 1   1.00000     0.00000
 Structure written by MMmdl.
 46 48  0  0  0  0  0  0  0  0  1 V2000
  148.2663  135.5328  156.1422 O   0  0  0  0  0  0  0  0  0  0  0  0
  148.3987  135.8861  154.9709 C   0  0  0  0  0  0  0  0  0  0  0  0
  147.9337  135.1779  153.9322 N   0  0  0  0  0  0  0  0  0  0  0  0
  147.1840  133.9322  154.0426 C   0  0  0  0  0  0  0  0  0  0  0  0
  147.8276  132.8051  153.2086 C   0  0  0  0  0  0  0  0  0  0  0  0
  146.8308  132.0198  152.4716 N   0  0  0  0  0  0  0  0  0  0  0  0
  146.5723  130.7252  152.7061 C   0  0  0  0  0  0  0  0  0  0  0  0
  147.1035  130.0186  153.5623 O   0  0  0  0  0  0  0  0  0  0  0  0
  145.5095  130.1981  151.7520 C   0  0  0  0  0  0  0  0  0  0  0  0
  145.1681  131.4255  150.9018 C   0  0  0  0  0  0  0  0  0  0  0  0
  146.0852  132.5013  151.4672 C   0  0  0  0  0  0  0  0  0  0  0  0
  146.1117  133.6501  151.0271 O   0  0  0  0  0  0  0  0  0  0  0  0
  149.0022  137.0127  154.5547 N   0  0  0  0  0  0  0  0  0  0  0  0
  149.5804  138.0650  155.3180 C   0  0  0  0  0  0  0  0  0  0  0  0
  149.6308  138.1136  156.7312 C   0  0  0  0  0  0  0  0  0  0  0  0
  150.2378  139.2204  157.3548 C   0  0  0  0  0  0  0  0  0  0  0  0
  150.7866  140.2528  156.5583 C   0  0  0  0  0  0  0  0  0  0  0  0
  151.4001  141.3709  157.1646 N   0  0  0  0  0  0  0  0  0  0  0  0
  151.9371  141.2114  158.5150 C   0  0  0  0  0  0  0  0  0  0  0  0
  152.8146  142.4176  158.8899 C   0  0  0  0  0  0  0  0  0  0  0  0
  152.0689  143.6200  158.7334 O   0  0  0  0  0  0  0  0  0  0  0  0
  151.6512  143.8112  157.3859 C   0  0  0  0  0  0  0  0  0  0  0  0
  150.7339  142.6540  156.9543 C   0  0  0  0  0  0  0  0  0  0  0  0
  150.7353  140.2033  155.2049 N   0  0  0  0  0  0  0  0  0  0  0  0
  150.1531  139.1410  154.6110 C   0  0  0  0  0  0  0  0  0  0  0  0
  148.0857  135.5382  153.0014 H   0  0  0  0  0  0  0  0  0  0  0  0
  147.2160  133.6492  155.0949 H   0  0  0  0  0  0  0  0  0  0  0  0
  146.1276  134.0712  153.8056 H   0  0  0  0  0  0  0  0  0  0  0  0
  148.5992  133.2010  152.5455 H   0  0  0  0  0  0  0  0  0  0  0  0
  148.3562  132.1286  153.8824 H   0  0  0  0  0  0  0  0  0  0  0  0
  145.9118  129.3847  151.1471 H   0  0  0  0  0  0  0  0  0  0  0  0
  144.6446  129.8321  152.3060 H   0  0  0  0  0  0  0  0  0  0  0  0
  145.3792  131.2603  149.8450 H   0  0  0  0  0  0  0  0  0  0  0  0
  144.1233  131.7181  151.0113 H   0  0  0  0  0  0  0  0  0  0  0  0
  149.0130  137.1575  153.5556 H   0  0  0  0  0  0  0  0  0  0  0  0
  149.2245  137.3355  157.3563 H   0  0  0  0  0  0  0  0  0  0  0  0
  150.2619  139.2688  158.4331 H   0  0  0  0  0  0  0  0  0  0  0  0
  151.1124  141.1156  159.2227 H   0  0  0  0  0  0  0  0  0  0  0  0
  152.5317  140.2993  158.5804 H   0  0  0  0  0  0  0  0  0  0  0  0
  153.1427  142.3351  159.9262 H   0  0  0  0  0  0  0  0  0  0  0  0
  153.7141  142.4509  158.2730 H   0  0  0  0  0  0  0  0  0  0  0  0
  151.1186  144.7592  157.3110 H   0  0  0  0  0  0  0  0  0  0  0  0
  152.5212  143.8824  156.7312 H   0  0  0  0  0  0  0  0  0  0  0  0
  150.4506  142.7981  155.9127 H   0  0  0  0  0  0  0  0  0  0  0  0
  149.8129  142.6711  157.5384 H   0  0  0  0  0  0  0  0  0  0  0  0
  150.1430  139.1543  153.5309 H   0  0  0  0  0  0  0  0  0  0  0  0
  1  2  2  0  0  0  0
  2  3  1  0  0  0  0
  2 13  1  0  0  0  0
  3  4  1  0  0  0  0
  3 26  1  0  0  0  0
  4  5  1  0  0  0  0
  4 27  1  0  0  0  0
  4 28  1  0  0  0  0
  5  6  1  0  0  0  0
  5 29  1  0  0  0  0
  5 30  1  0  0  0  0
  6 11  1  0  0  0  0
  6  7  1  0  0  0  0
  7  8  2  0  0  0  0
  7  9  1  0  0  0  0
  9 10  1  0  0  0  0
  9 31  1  0  0  0  0
  9 32  1  0  0  0  0
 10 11  1  0  0  0  0
 10 33  1  0  0  0  0
 10 34  1  0  0  0  0
 11 12  2  0  0  0  0
 13 14  1  0  0  0  0
 13 35  1  0  0  0  0
 14 25  1  0  0  0  0
 14 15  2  0  0  0  0
 15 16  1  0  0  0  0
 15 36  1  0  0  0  0
 16 17  2  0  0  0  0
 16 37  1  0  0  0  0
 17 18  1  0  0  0  0
 17 24  1  0  0  0  0
 18 23  1  0  0  0  0
 18 19  1  0  0  0  0
 19 20  1  0  0  0  0
 19 38  1  0  0  0  0
 19 39  1  0  0  0  0
 20 21  1  0  0  0  0
 20 40  1  0  0  0  0
 20 41  1  0  0  0  0
 21 22  1  0  0  0  0
 22 23  1  0  0  0  0
 22 42  1  0  0  0  0
 22 43  1  0  0  0  0
 23 44  1  0  0  0  0
 23 45  1  0  0  0  0
 24 25  2  0  0  0  0
 25 46  1  0  0  0  0
M  END
> <s_m_source_file>
AV-unprocessed.smi

> <i_m_source_file_index>
2657

> <i_lp_mmshare_version>
43012

> <i_f3d_flags>
0

> <s_epik_input>
Tz1DMVtDSDJdW0NIMl1DKD1PKU4xW0NIMl1bQ0gyXVtOSF1DKD1PKVtOSF1jMltjSF1bY0hdYyhuW2NIXTIpTjNbQ0gyXVtDSDJdT1tDSDJdW0NIMl0z

> <s_epik_cmdline>
J2VwaWtfcHl0aG9uJywgJy1waCcsICc3LjAnLCAnLXRuJywgJzgnLCAnLW1hJywgJzIwMCcsICctbWV0YWxfYmluZGluZycsICctaW1hZScsICc8aW5maWxlLm1hZT4nLCAnLW9tYWUnLCAnPG91dGZpbGUubWFlPic=

> <r_lp_tautomer_probability>
1

> <r_epik_Ionization_Penalty>
0.00195667

> <r_epik_Ionization_Penalty_Charging>
0

> <r_epik_Ionization_Penalty_Neutral>
0.00195667

> <r_epik_State_Penalty>
0.0013118

> <r_epik_Charging_Adjusted_Penalty>
0.0013118

> <i_epik_Tot_Q>
0

> <i_epik_Tot_abs_Q>
0

> <r_epik_Metal_State_Penalty>
-0

> <b_epik_Metal_Only>
0

> <s_lp_Force_Field>
OPLS_2005

> <r_lp_Energy>
27.686

> <b_lp_Chiralities_Consistent>
1

> <s_lp_Variant>
AV-unprocessed.smi:2657-1

> <Gold.Version>
5.8.1

> <Gold.Id.Protein>
6NUR|6NUR_protein|mol2

> <Gold.PLP.Fitness>
45.5250

> <Gold.PLP.PLP>
-36.0887

> <Gold.PLP.part.hbond>
-2.8557

> <Gold.PLP.part.metal>
0.0000

> <Gold.PLP.part.buried>
-4.4299

> <Gold.PLP.part.nonpolar>
-29.0876

> <Gold.PLP.part.repulsive>
0.4210

> <Gold.PLP.ligand.clash>
0.0000

> <Gold.PLP.ligand.torsion>
0.7278

> <Gold.PLP.Chemscore.Hbond>
2.6074

> <Gold.PLP.Chemscore.CHOScore>
0.9060

> <Gold.PLP.Chemscore.Metal>
0.0000

> <Gold.Chemscore.Hbonds>
donor molecule, donor type, donor heavy atom, donor atom, acceptor molecule, acceptor atom, score
      L1  H     3    26       P1  7948  1.00
      L1  H    13    35       P1  7948  0.86
      P1  H  7989  7998       L1    24  0.73
      L1  C    25    46       P1  7957  0.88

> <Gold.PLP.Chemscore.Internal.Correction>
0.3515

> <Gold.Rescore>
     Score         DG    S(hbond)    S(metal)    S(lipo)     H(rot)  DE(clash)    DE(int)     intcor
     14.39     -16.47       1.72        0.00      88.09       1.97       0.35       1.73       ----

> <Gold.Chemscore.Fitness>
14.3854

> <Gold.Chemscore.DG>
-16.4734

> <Gold.Chemscore.ZeroCoef>
-5.4800

> <Gold.Chemscore.Hbond>
1.7187

> <Gold.Chemscore.Metal>
0.0000

> <Gold.Chemscore.Lipo>
88.0948

> <Gold.Chemscore.Internal_Hbond>
0.0000

> <Gold.Chemscore.DEClash>
0.3548

> <Gold.Chemscore.DEInternal>
1.7331

> <Gold.Chemscore.Rot>
1.9742

> <Gold.Chemscore.Internal.Correction>
   9.000000E+99

> <Gold.Chemscore.Hbonds>
donor molecule, donor type, donor heavy atom, donor atom, acceptor molecule, acceptor atom, score
      L1  H     3    26       P1  7948  0.95
      L1  H    13    35       P1  7948  0.85
      P1  H  7989  7998       L1    24  0.09

> <Gold.Chemscore.Hbond.Weighted>
-5.7403

> <Gold.Chemscore.Metal.Weighted>
-0.0000

> <Gold.Chemscore.Lipo.Weighted>
-10.3071

> <Gold.Chemscore.Internal_Hbond.Weighted>
0.0000

> <Gold.Chemscore.DEClash.Weighted>
0.3548

> <Gold.Chemscore.DEInternal.Weighted>
1.7331

> <Gold.Chemscore.Rot.Weighted>
5.0540

> <Gold.Chemscore.Internal.Correction.Weighted>
   9.000000E+99

> <Gold.Protein.RotatedTorsions>
[ 6907 6896 6895 6894 ] final   75.90 input  -60.11 | X-H torsion
[ 7974 7965 7964 7962 ] final   89.16 input  175.53 | X-H torsion
[ 8008 7997 7996 7995 ] final  -20.24 input   59.86 | X-H torsion
[ 10167 10162 10161 10158 ] final   98.04 input  -65.29 | X-H torsion
[ 10718 10713 10712 10709 ] final   60.63 input   66.30 | X-H torsion
[ 10763 10752 10751 10750 ] final    7.97 input  -60.55 | X-H torsion
[ 11005 11000 10999 10996 ] final   17.00 input  -57.11 | X-H torsion

> <Gold.Protein.ActiveResidues>
 VAL166  LYS551  ARG553  GLY616  TRP617  ASP618  TYR619  PRO620  LYS621  CYS622 
 ASP623  PHE694  ASN695  SER759  ASP760  ASP761  ALA762  ILE779  LEU786  VAL792 
 PHE793  MET794  SER795  GLU796  ALA797  LYS798  CYS799  TRP800  GLU811  SER814 

> <Gold.Protein.RotatedAtoms>
  152.5048  134.4050  159.9429 H   0  0  0  0  0  0  0  0  0  0  0  0  # atno 6907 bound_to 6896
  151.4016  133.3749  159.2740 H   0  0  0  0  0  0  0  0  0  0  0  0  # atno 6908 bound_to 6896
  150.9357  134.8791  159.7639 H   0  0  0  0  0  0  0  0  0  0  0  0  # atno 6909 bound_to 6896
  145.5361  139.2286  143.2592 H   0  0  0  0  0  0  0  0  0  0  0  0  # atno 7974 bound_to 7965
  154.4782  140.2067  155.9826 H   0  0  0  0  0  0  0  0  0  0  0  0  # atno 8008 bound_to 7997
  156.1124  140.3227  155.8061 H   0  0  0  0  0  0  0  0  0  0  0  0  # atno 8009 bound_to 7997
  155.4612  140.0524  157.2981 H   0  0  0  0  0  0  0  0  0  0  0  0  # atno 8010 bound_to 7997
  139.7745  144.6911  151.0109 H   0  0  0  0  0  0  0  0  0  0  0  0  # atno 10167 bound_to 10162
  157.5767  130.8949  149.9360 H   0  0  0  0  0  0  0  0  0  0  0  0  # atno 10718 bound_to 10713
  153.2302  135.6892  153.7898 H   0  0  0  0  0  0  0  0  0  0  0  0  # atno 10763 bound_to 10752
  153.7065  135.3289  155.3237 H   0  0  0  0  0  0  0  0  0  0  0  0  # atno 10764 bound_to 10752
  154.8310  135.4580  154.1185 H   0  0  0  0  0  0  0  0  0  0  0  0  # atno 10765 bound_to 10752
  140.4408  134.1324  155.7690 H   0  0  0  0  0  0  0  0  0  0  0  0  # atno 11005 bound_to 11000
  146.2012  140.6179  142.9101 LP  0  0  0  0  0  0  0  0  0  0  0  0  # atno 17320 bound_to 7965
  144.7601  140.5401  143.6742 LP  0  0  0  0  0  0  0  0  0  0  0  0  # atno 17321 bound_to 7965
  140.7815  143.4551  151.0357 LP  0  0  0  0  0  0  0  0  0  0  0  0  # atno 17342 bound_to 10162
  139.8234  143.7789  152.3178 LP  0  0  0  0  0  0  0  0  0  0  0  0  # atno 17343 bound_to 10162
  156.0812  130.3673  150.0576 LP  0  0  0  0  0  0  0  0  0  0  0  0  # atno 17370 bound_to 10713
  156.8722  130.9528  151.3608 LP  0  0  0  0  0  0  0  0  0  0  0  0  # atno 17371 bound_to 10713
  141.1706  133.8616  157.1582 LP  0  0  0  0  0  0  0  0  0  0  0  0  # atno 17394 bound_to 11000
  140.0071  135.0004  157.0316 LP  0  0  0  0  0  0  0  0  0  0  0  0  # atno 17395 bound_to 11000

$$$$
