#       Name:                AV-unprocessed.smi:2774
#       Creating user name   scv26
#       Creation time:       Fri Mar 27 15:13:00 2020


#       File generated by GOLD software.
#

@<TRIPOS>MOLECULE
AV-unprocessed.smi:2774
    38    39     1
SMALL
NO_CHARGES


@<TRIPOS>ATOM
      1 ****        -2.5701  -1.5648   0.6745 O.3            1 S1                 0.0000
      2 ****        -2.0984  -1.0818  -0.5683 C.3            1 S1                 0.0000
      3 ****        -0.5594  -1.1602  -0.5953 C.3            1 S1                 0.0000
      4 ****         0.0615  -0.1303   0.2420 N.3            1 S1                 0.0000
      5 ****         1.5267  -0.0969   0.2348 C.3            1 S1                 0.0000
      6 ****         2.1345  -1.3588   0.8922 C.3            1 S1                 0.0000
      7 ****         3.6719  -1.3684   0.8608 C.3            1 S1                 0.0000
      8 ****         4.2856  -0.1803   1.6117 C.3            1 S1                 0.0000
      9 ****         3.7960   1.3894   0.8518 S.3            1 S1                 0.0000
     10 ****         1.9975   1.1811   0.9538 C.3            1 S1                 0.0000
     11 ****        -2.6471   0.2897  -0.9441 C.ar           1 S1                 0.0000
     12 ****        -2.9741   1.2518   0.0375 C.ar           1 S1                 0.0000
     13 ****        -3.4725   2.5011  -0.3821 C.ar           1 S1                 0.0000
     14 ****        -3.6579   2.8287  -1.6787 N.ar           1 S1                 0.0000
     15 ****        -3.3429   1.9064  -2.6128 C.ar           1 S1                 0.0000
     16 ****        -2.8362   0.6292  -2.3003 C.ar           1 S1                 0.0000
     17 ****        -3.5120  -1.6286   0.6308 H              1 S1                 0.0000
     18 ****        -2.4740  -1.7879  -1.3098 H              1 S1                 0.0000
     19 ****        -0.2533  -2.1581  -0.2837 H              1 S1                 0.0000
     20 ****        -0.2176  -1.0386  -1.6238 H              1 S1                 0.0000
     21 ****        -0.2749  -0.2258   1.1951 H              1 S1                 0.0000
     22 ****         1.8692  -0.0453  -0.7997 H              1 S1                 0.0000
     23 ****         1.7897  -1.4428   1.9238 H              1 S1                 0.0000
     24 ****         1.7921  -2.2586   0.3829 H              1 S1                 0.0000
     25 ****         4.0331  -2.2968   1.3039 H              1 S1                 0.0000
     26 ****         4.0193  -1.3692  -0.1732 H              1 S1                 0.0000
     27 ****         3.9718  -0.1858   2.6561 H              1 S1                 0.0000
     28 ****         5.3737  -0.2485   1.6030 H              1 S1                 0.0000
     29 ****         1.5315   2.0606   0.5078 H              1 S1                 0.0000
     30 ****         1.7032   1.1637   2.0041 H              1 S1                 0.0000
     31 ****        -2.8403   1.0462   1.0893 H              1 S1                 0.0000
     32 ****        -3.7287   3.2578   0.3446 H              1 S1                 0.0000
     33 ****        -3.4996   2.1946  -3.6417 H              1 S1                 0.0000
     34 ****        -2.5981  -0.0715  -3.0870 H              1 S1                 0.0000
     35 ****        -2.3077  -0.9333   1.4041 LP             1 S1                 0.0000
     36 ****        -2.1784  -2.4666   0.8573 LP             1 S1                 0.0000
     37 ****        -0.2137   0.7403  -0.1657 LP             1 S1                 0.0000
     38 ****        -4.0168   3.7251  -1.9386 LP             1 S1                 0.0000
@<TRIPOS>BOND
    1    1    2 1     
    2    1   17 1     
    3    2    3 1     
    4    2   11 1     
    5    2   18 1     
    6    3    4 1     
    7    3   19 1     
    8    3   20 1     
    9    4    5 1     
   10    4   21 1     
   11    5   10 1     
   12    5    6 1     
   13    5   22 1     
   14    6    7 1     
   15    6   23 1     
   16    6   24 1     
   17    7    8 1     
   18    7   25 1     
   19    7   26 1     
   20    8    9 1     
   21    8   27 1     
   22    8   28 1     
   23    9   10 1     
   24   10   29 1     
   25   10   30 1     
   26   11   16 ar    
   27   11   12 ar    
   28   12   13 ar    
   29   12   31 1     
   30   13   14 ar    
   31   13   32 1     
   32   14   15 ar    
   33   15   16 ar    
   34   15   33 1     
   35   16   34 1     
   36    1   35 1     
   37    1   36 1     
   38    4   37 1     
   39   14   38 1     
@<TRIPOS>SUBSTRUCTURE
      1 S1             1
@<TRIPOS>SET
LONE_PAIRS      STATIC     ATOMS    <user>   **** ""
4 35 36 37 38
DONOR_HYDROGENS      STATIC     ATOMS    <user>   **** ""
2 17 21
ATOM$BLUE        STATIC     ATOMS    COLORGROUP SYSTEM
4 35 36 37 38
ATOM$RED        STATIC     ATOMS    COLORGROUP SYSTEM
2 17 21
