#       Name:                AV-unprocessed.smi:1817
#       Creating user name   scv26
#       Creation time:       Fri Mar 27 09:03:28 2020


#       File generated by GOLD software.
#

@<TRIPOS>MOLECULE
AV-unprocessed.smi:1817
    48    49     1
SMALL
NO_CHARGES


@<TRIPOS>ATOM
      1 ****        -3.3544   2.8773  -3.6371 C.3            1 S1                 0.0000
      2 ****        -2.3782   1.7161  -3.3999 C.3            1 S1                 0.0000
      3 ****        -2.5826   1.0566  -2.0862 N.4            1 S1                 1.0000
      4 ****        -2.1395   1.8768  -0.9304 C.3            1 S1                 0.0000
      5 ****        -2.4110   1.1320   0.3940 C.3            1 S1                 0.0000
      6 ****        -1.7107  -0.1598   0.4508 N.3            1 S1                 0.0000
      7 ****        -0.2340  -0.0855   0.5407 C.3            1 S1                 0.0000
      8 ****         0.1938   0.7884   1.7450 C.3            1 S1                 0.0000
      9 ****         0.3823  -1.5082   0.6414 C.3            1 S1                 0.0000
     10 ****         1.8394  -1.4925   0.7508 N.am           1 S1                 0.0000
     11 ****         2.5408  -1.7844   1.8564 C.2            1 S1                 0.0000
     12 ****         2.0215  -2.0879   2.9300 O.2            1 S1                 0.0000
     13 ****         3.8614  -1.6938   1.6311 N.am           1 S1                 0.0000
     14 ****         4.9194  -1.9154   2.5481 C.2            1 S1                 0.0000
     15 ****         6.1742  -1.7750   2.1045 N.2            1 S1                 0.0000
     16 ****         7.1095  -2.0197   3.1027 N.2            1 S1                 0.0000
     17 ****         6.5225  -2.3348   4.2614 C.2            1 S1                 0.0000
     18 ****         4.7680  -2.3642   4.2498 S.3            1 S1                 0.0000
     19 ****        -2.2422  -0.9571  -0.6646 C.3            1 S1                 0.0000
     20 ****        -1.9664  -0.2916  -2.0296 C.3            1 S1                 0.0000
     21 ****        -3.2364   3.2757  -4.6450 H              1 S1                 0.0000
     22 ****        -3.1871   3.7015  -2.9444 H              1 S1                 0.0000
     23 ****        -4.3895   2.5511  -3.5311 H              1 S1                 0.0000
     24 ****        -2.5335   0.9822  -4.1919 H              1 S1                 0.0000
     25 ****        -1.3457   2.0565  -3.4914 H              1 S1                 0.0000
     26 ****        -1.0843   2.1338  -1.0286 H              1 S1                 0.0000
     27 ****        -2.6875   2.8182  -0.9154 H              1 S1                 0.0000
     28 ****        -2.1641   1.7596   1.2481 H              1 S1                 0.0000
     29 ****        -3.4827   0.9497   0.4874 H              1 S1                 0.0000
     30 ****         0.1617   0.3830  -0.3594 H              1 S1                 0.0000
     31 ****         1.2756   0.8102   1.8686 H              1 S1                 0.0000
     32 ****        -0.2344   0.4182   2.6772 H              1 S1                 0.0000
     33 ****        -0.0955   1.8314   1.6259 H              1 S1                 0.0000
     34 ****        -0.0710  -2.0599   1.4670 H              1 S1                 0.0000
     35 ****         0.1813  -2.0848  -0.2595 H              1 S1                 0.0000
     36 ****         2.3532  -1.2509  -0.0840 H              1 S1                 0.0000
     37 ****         4.1455  -1.4359   0.6976 H              1 S1                 0.0000
     38 ****         7.1274  -2.5523   5.1289 H              1 S1                 0.0000
     39 ****        -1.8623  -1.9764  -0.6476 H              1 S1                 0.0000
     40 ****        -3.3199  -1.0632  -0.5307 H              1 S1                 0.0000
     41 ****        -2.3927  -0.9123  -2.8184 H              1 S1                 0.0000
     42 ****        -0.8962  -0.2279  -2.2296 H              1 S1                 0.0000
     43 ****        -3.5771   0.9152  -1.9812 H              1 S1                 0.0000
     44 ****        -1.8987  -0.6161   1.3205 LP             1 S1                 0.0000
     45 ****         1.0255  -2.1266   3.0104 LP             1 S1                 0.0000
     46 ****         2.5956  -2.2958   3.7220 LP             1 S1                 0.0000
     47 ****         6.4108  -1.5238   1.1659 LP             1 S1                 0.0000
     48 ****         8.0993  -1.9666   2.9704 LP             1 S1                 0.0000
@<TRIPOS>BOND
    1    1    2 1     
    2    1   21 1     
    3    1   22 1     
    4    1   23 1     
    5    2    3 1     
    6    2   24 1     
    7    2   25 1     
    8    3   20 1     
    9    3    4 1     
   10    3   43 1     
   11    4    5 1     
   12    4   26 1     
   13    4   27 1     
   14    5    6 1     
   15    5   28 1     
   16    5   29 1     
   17    6    7 1     
   18    6   19 1     
   19    7    8 1     
   20    7    9 1     
   21    7   30 1     
   22    8   31 1     
   23    8   32 1     
   24    8   33 1     
   25    9   10 1     
   26    9   34 1     
   27    9   35 1     
   28   10   11 am    
   29   10   36 1     
   30   11   12 2     
   31   11   13 am    
   32   13   14 1     
   33   13   37 1     
   34   14   18 1     
   35   14   15 2     
   36   15   16 1     
   37   16   17 2     
   38   17   18 1     
   39   17   38 1     
   40   19   20 1     
   41   19   39 1     
   42   19   40 1     
   43   20   41 1     
   44   20   42 1     
   45    6   44 1     
   46   12   45 1     
   47   12   46 1     
   48   15   47 1     
   49   16   48 1     
@<TRIPOS>SUBSTRUCTURE
      1 S1             1
@<TRIPOS>SET
LONE_PAIRS      STATIC     ATOMS    <user>   **** ""
5 44 45 46 47 48
DONOR_HYDROGENS      STATIC     ATOMS    <user>   **** ""
3 43 36 37
ATOM$BLUE        STATIC     ATOMS    COLORGROUP SYSTEM
5 44 45 46 47 48
ATOM$RED        STATIC     ATOMS    COLORGROUP SYSTEM
3 43 36 37
