#       Name:                AV-unprocessed.smi:919
#       Creating user name   scv26
#       Creation time:       Fri Mar 27 02:07:10 2020


#       File generated by GOLD software.
#

@<TRIPOS>MOLECULE
AV-unprocessed.smi:919
    48    50     1
SMALL
NO_CHARGES


@<TRIPOS>ATOM
      1 ****        -4.5147   1.9537   1.2237 C.3            1 S1                 0.0000
      2 ****        -4.8322   0.5128   0.9450 C.2            1 S1                 0.0000
      3 ****        -6.0935   0.1506   0.7815 N.2            1 S1                 0.0000
      4 ****        -6.0689  -1.2248   0.5309 O.3            1 S1                 0.0000
      5 ****        -4.7774  -1.6414   0.5530 C.2            1 S1                 0.0000
      6 ****        -4.5329  -3.0907   0.3001 C.3            1 S1                 0.0000
      7 ****        -3.9412  -0.5914   0.8135 C.2            1 S1                 0.0000
      8 ****        -2.4406  -0.6021   0.9232 C.3            1 S1                 0.0000
      9 ****        -1.7804  -0.2015  -0.4052 C.3            1 S1                 0.0000
     10 ****        -0.3262  -0.2400  -0.3146 N.am           1 S1                 0.0000
     11 ****         0.4236  -1.3477  -0.4450 C.2            1 S1                 0.0000
     12 ****        -0.0478  -2.4654  -0.6472 O.2            1 S1                 0.0000
     13 ****         1.7490  -1.1443  -0.3455 N.am           1 S1                 0.0000
     14 ****         2.8219  -2.1367  -0.4416 C.3            1 S1                 0.0000
     15 ****         2.9432  -3.0284   0.8173 C.3            1 S1                 0.0000
     16 ****         4.3941  -2.7852   1.2717 C.3            1 S1                 0.0000
     17 ****         5.3664  -3.4156   0.2557 C.3            1 S1                 0.0000
     18 ****         5.2527  -2.4722  -0.9584 C.3            1 S1                 0.0000
     19 ****         4.2034  -1.4476  -0.4888 C.3            1 S1                 0.0000
     20 ****         4.5611  -1.2991   0.9874 C.3            1 S1                 0.0000
     21 ****        -3.4498   2.1019   1.4021 H              1 S1                 0.0000
     22 ****        -5.0498   2.3108   2.1041 H              1 S1                 0.0000
     23 ****        -4.7984   2.5857   0.3820 H              1 S1                 0.0000
     24 ****        -3.7125  -3.2262  -0.4051 H              1 S1                 0.0000
     25 ****        -5.4177  -3.5731  -0.1157 H              1 S1                 0.0000
     26 ****        -4.2705  -3.6036   1.2254 H              1 S1                 0.0000
     27 ****        -2.1066   0.0725   1.7121 H              1 S1                 0.0000
     28 ****        -2.0907  -1.5917   1.2192 H              1 S1                 0.0000
     29 ****        -2.1202  -0.8534  -1.2121 H              1 S1                 0.0000
     30 ****        -2.0775   0.8112  -0.6792 H              1 S1                 0.0000
     31 ****         0.1462   0.6374  -0.1528 H              1 S1                 0.0000
     32 ****         2.0476  -0.1900  -0.2037 H              1 S1                 0.0000
     33 ****         2.6715  -2.7367  -1.3409 H              1 S1                 0.0000
     34 ****         2.2459  -2.7196   1.5979 H              1 S1                 0.0000
     35 ****         2.7495  -4.0792   0.5993 H              1 S1                 0.0000
     36 ****         4.5844  -3.0817   2.3035 H              1 S1                 0.0000
     37 ****         6.3862  -3.4197   0.6431 H              1 S1                 0.0000
     38 ****         5.0973  -4.4437   0.0106 H              1 S1                 0.0000
     39 ****         6.2088  -1.9847  -1.1543 H              1 S1                 0.0000
     40 ****         4.9521  -2.9940  -1.8676 H              1 S1                 0.0000
     41 ****         4.2200  -0.5207  -1.0639 H              1 S1                 0.0000
     42 ****         3.8632  -0.6707   1.5434 H              1 S1                 0.0000
     43 ****         5.5776  -0.9375   1.1532 H              1 S1                 0.0000
     44 ****        -6.9001   0.7399   0.8277 LP             1 S1                 0.0000
     45 ****        -6.4687  -1.4118  -0.3664 LP             1 S1                 0.0000
     46 ****        -6.5910  -1.7058   1.2353 LP             1 S1                 0.0000
     47 ****        -1.0378  -2.5843  -0.7227 LP             1 S1                 0.0000
     48 ****         0.5589  -3.2554  -0.7360 LP             1 S1                 0.0000
@<TRIPOS>BOND
    1    1    2 1     
    2    1   21 1     
    3    1   22 1     
    4    1   23 1     
    5    2    7 1     
    6    2    3 2     
    7    3    4 1     
    8    4    5 1     
    9    5    6 1     
   10    5    7 2     
   11    6   24 1     
   12    6   25 1     
   13    6   26 1     
   14    7    8 1     
   15    8    9 1     
   16    8   27 1     
   17    8   28 1     
   18    9   10 1     
   19    9   29 1     
   20    9   30 1     
   21   10   11 am    
   22   10   31 1     
   23   11   12 2     
   24   11   13 am    
   25   13   14 1     
   26   13   32 1     
   27   14   19 1     
   28   14   15 1     
   29   14   33 1     
   30   15   16 1     
   31   15   34 1     
   32   15   35 1     
   33   16   20 1     
   34   16   17 1     
   35   16   36 1     
   36   17   18 1     
   37   17   37 1     
   38   17   38 1     
   39   18   19 1     
   40   18   39 1     
   41   18   40 1     
   42   19   20 1     
   43   19   41 1     
   44   20   42 1     
   45   20   43 1     
   46    3   44 1     
   47    4   45 1     
   48    4   46 1     
   49   12   47 1     
   50   12   48 1     
@<TRIPOS>SUBSTRUCTURE
      1 S1             1
@<TRIPOS>SET
LONE_PAIRS      STATIC     ATOMS    <user>   **** ""
5 44 45 46 47 48
DONOR_HYDROGENS      STATIC     ATOMS    <user>   **** ""
2 31 32
ATOM$BLUE        STATIC     ATOMS    COLORGROUP SYSTEM
5 44 45 46 47 48
ATOM$RED        STATIC     ATOMS    COLORGROUP SYSTEM
2 31 32
