AV-unprocessed.smi:2086|AV-procd|sdf|8519|dock10
  -GOLD-   2272011233D 1   1.00000     0.00000
 Structure written by MMmdl.
 33 34  0  0  0  0  0  0  0  0  2 V2000
  150.4718  140.5286  158.2120 O   0  0  0  0  0  0  0  0  0  0  0  0
  150.2247  141.4491  157.4251 C   0  0  0  0  0  0  0  0  0  0  0  0
  150.4718  142.7836  157.5398 N   0  5  0  0  0  0  0  0  0  0  0  0
  150.3805  143.5252  158.7969 C   0  0  0  0  0  0  0  0  0  0  0  0
  151.7650  144.0508  159.2195 C   0  0  0  0  0  0  0  0  0  0  0  0
  152.5291  143.0224  159.5881 F   0  0  0  0  0  0  0  0  0  0  0  0
  152.3630  144.6793  158.2060 F   0  0  0  0  0  0  0  0  0  0  0  0
  151.6571  144.8880  160.2524 F   0  0  0  0  0  0  0  0  0  0  0  0
  149.6128  141.0878  156.0950 C   0  0  0  0  0  0  0  0  0  0  0  0
  148.7244  142.0086  155.4962 C   0  0  0  0  0  0  0  0  0  0  0  0
  148.1282  141.7000  154.2609 C   0  0  0  0  0  0  0  0  0  0  0  0
  148.4499  140.4726  153.6580 C   0  0  0  0  0  0  0  0  0  0  0  0
  149.3115  139.5885  154.1989 N   0  0  0  0  0  0  0  0  0  0  0  0
  149.8977  139.8780  155.3882 C   0  0  0  0  0  0  0  0  0  0  0  0
  150.8381  138.9400  155.8628 N   0  0  0  0  0  0  0  0  0  0  0  0
  150.3597  137.6034  156.1971 C   0  0  0  0  0  0  0  0  0  0  0  0
  151.4540  136.8359  156.9582 C   0  0  0  0  0  0  0  0  0  0  0  0
  152.6515  136.8147  156.1854 O   0  0  0  0  0  0  0  0  0  0  0  0
  153.1485  138.1266  155.9321 C   0  0  0  0  0  0  0  0  0  0  0  0
  152.1043  138.9331  155.1417 C   0  0  0  0  0  0  0  0  0  0  0  0
  149.6968  144.3720  158.7165 H   0  0  0  0  0  0  0  0  0  0  0  0
  149.9807  142.8992  159.5960 H   0  0  0  0  0  0  0  0  0  0  0  0
  148.4878  142.9430  155.9846 H   0  0  0  0  0  0  0  0  0  0  0  0
  147.4387  142.3854  153.7911 H   0  0  0  0  0  0  0  0  0  0  0  0
  148.0106  140.1963  152.7110 H   0  0  0  0  0  0  0  0  0  0  0  0
  149.4580  137.6730  156.8068 H   0  0  0  0  0  0  0  0  0  0  0  0
  150.0982  137.0675  155.2837 H   0  0  0  0  0  0  0  0  0  0  0  0
  151.6445  137.2936  157.9302 H   0  0  0  0  0  0  0  0  0  0  0  0
  151.1331  135.8113  157.1458 H   0  0  0  0  0  0  0  0  0  0  0  0
  153.3911  138.6239  156.8728 H   0  0  0  0  0  0  0  0  0  0  0  0
  154.0750  138.0524  155.3630 H   0  0  0  0  0  0  0  0  0  0  0  0
  151.9514  138.4871  154.1582 H   0  0  0  0  0  0  0  0  0  0  0  0
  152.4660  139.9481  154.9781 H   0  0  0  0  0  0  0  0  0  0  0  0
  1  2  2  0  0  0  0
  2  3  1  0  0  0  0
  2  9  1  0  0  0  0
  3  4  1  0  0  0  0
  4  5  1  0  0  0  0
  4 21  1  0  0  0  0
  4 22  1  0  0  0  0
  5  6  1  0  0  0  0
  5  7  1  0  0  0  0
  5  8  1  0  0  0  0
  9 14  1  0  0  0  0
  9 10  2  0  0  0  0
 10 11  1  0  0  0  0
 10 23  1  0  0  0  0
 11 12  2  0  0  0  0
 11 24  1  0  0  0  0
 12 13  1  0  0  0  0
 12 25  1  0  0  0  0
 13 14  2  0  0  0  0
 14 15  1  0  0  0  0
 15 20  1  0  0  0  0
 15 16  1  0  0  0  0
 16 17  1  0  0  0  0
 16 26  1  0  0  0  0
 16 27  1  0  0  0  0
 17 18  1  0  0  0  0
 17 28  1  0  0  0  0
 17 29  1  0  0  0  0
 18 19  1  0  0  0  0
 19 20  1  0  0  0  0
 19 30  1  0  0  0  0
 19 31  1  0  0  0  0
 20 32  1  0  0  0  0
 20 33  1  0  0  0  0
M  CHG  1   3  -1
M  END
> <s_m_source_file>
AV-unprocessed.smi

> <i_m_source_file_index>
2086

> <i_lp_mmshare_version>
43012

> <i_f3d_flags>
0

> <s_epik_input>
RkMoRikoRilbQ0gyXVtOSF1DKD1PKWMxW2NIXVtjSF1bY0hdbmMxTjJbQ0gyXVtDSDJdT1tDSDJdW0NIMl0y

> <s_epik_cmdline>
J2VwaWtfcHl0aG9uJywgJy1waCcsICc3LjAnLCAnLXRuJywgJzgnLCAnLW1hJywgJzIwMCcsICctbWV0YWxfYmluZGluZycsICctaW1hZScsICc8aW5maWxlLm1hZT4nLCAnLW9tYWUnLCAnPG91dGZpbGUubWFlPic=

> <r_lp_tautomer_probability>
1

> <r_epik_Ionization_Penalty>
6.70774

> <r_epik_Ionization_Penalty_Charging>
6.70732

> <r_epik_Ionization_Penalty_Neutral>
0.000422769

> <r_epik_State_Penalty>
6.70731

> <r_epik_Charging_Adjusted_Penalty>
13.4146

> <i_epik_Tot_Q>
-1

> <i_epik_Tot_abs_Q>
1

> <r_epik_Metal_State_Penalty>
2.62875

> <b_epik_Metal_Only>
1

> <s_lp_Force_Field>
OPLS_2005

> <r_lp_Energy>
34.3175

> <b_lp_Chiralities_Consistent>
1

> <s_lp_Variant>
AV-unprocessed.smi:2086-2

> <Gold.Version>
5.8.1

> <Gold.Id.Protein>
6NUR|6NUR_protein|mol2

> <Gold.PLP.Fitness>
39.5701

> <Gold.PLP.PLP>
-36.1183

> <Gold.PLP.part.hbond>
-1.0000

> <Gold.PLP.part.metal>
0.0000

> <Gold.PLP.part.buried>
0.0464

> <Gold.PLP.part.nonpolar>
-36.3208

> <Gold.PLP.part.repulsive>
0.4653

> <Gold.PLP.ligand.clash>
0.0000

> <Gold.PLP.ligand.torsion>
0.9775

> <Gold.PLP.Chemscore.Hbond>
0.9440

> <Gold.PLP.Chemscore.CHOScore>
0.5665

> <Gold.PLP.Chemscore.Metal>
0.0000

> <Gold.Chemscore.Hbonds>
donor molecule, donor type, donor heavy atom, donor atom, acceptor molecule, acceptor atom, score
      P1  H 10752 10765       L1    18  0.91
      L1  C    12    25       P1  7957  0.61

> <Gold.PLP.Chemscore.Internal.Correction>
0.8752

> <Gold.Rescore>
     Score         DG    S(hbond)    S(metal)    S(lipo)     H(rot)  DE(clash)    DE(int)     intcor
      9.44     -13.10       0.87        0.00      68.97       1.32       1.42       2.24       ----

> <Gold.Chemscore.Fitness>
9.4448

> <Gold.Chemscore.DG>
-13.1049

> <Gold.Chemscore.ZeroCoef>
-5.4800

> <Gold.Chemscore.Hbond>
0.8749

> <Gold.Chemscore.Metal>
0.0000

> <Gold.Chemscore.Lipo>
68.9750

> <Gold.Chemscore.Internal_Hbond>
0.0000

> <Gold.Chemscore.DEClash>
1.4229

> <Gold.Chemscore.DEInternal>
2.2371

> <Gold.Chemscore.Rot>
1.3154

> <Gold.Chemscore.Internal.Correction>
   9.000000E+99

> <Gold.Chemscore.Hbonds>
donor molecule, donor type, donor heavy atom, donor atom, acceptor molecule, acceptor atom, score
      P1  H 10752 10765       L1    18  0.84

> <Gold.Chemscore.Hbond.Weighted>
-2.9223

> <Gold.Chemscore.Metal.Weighted>
-0.0000

> <Gold.Chemscore.Lipo.Weighted>
-8.0701

> <Gold.Chemscore.Internal_Hbond.Weighted>
0.0000

> <Gold.Chemscore.DEClash.Weighted>
1.4229

> <Gold.Chemscore.DEInternal.Weighted>
2.2371

> <Gold.Chemscore.Rot.Weighted>
3.3675

> <Gold.Chemscore.Internal.Correction.Weighted>
   9.000000E+99

> <Gold.Protein.RotatedTorsions>
[ 6907 6896 6895 6894 ] final  -98.03 input  -60.11 | X-H torsion
[ 7974 7965 7964 7962 ] final  -93.55 input  175.53 | X-H torsion
[ 8008 7997 7996 7995 ] final  124.86 input   59.86 | X-H torsion
[ 10167 10162 10161 10158 ] final  -29.23 input  -65.29 | X-H torsion
[ 10718 10713 10712 10709 ] final   92.46 input   66.30 | X-H torsion
[ 10763 10752 10751 10750 ] final -147.43 input  -60.55 | X-H torsion
[ 11005 11000 10999 10996 ] final   71.07 input  -57.11 | X-H torsion

> <Gold.Protein.ActiveResidues>
 VAL166  LYS551  ARG553  GLY616  TRP617  ASP618  TYR619  PRO620  LYS621  CYS622 
 ASP623  PHE694  ASN695  SER759  ASP760  ASP761  ALA762  ILE779  LEU786  VAL792 
 PHE793  MET794  SER795  GLU796  ALA797  LYS798  CYS799  TRP800  GLU811  SER814 

> <Gold.Protein.RotatedAtoms>
  150.7034  134.1257  159.4051 H   0  0  0  0  0  0  0  0  0  0  0  0  # atno 6907 bound_to 6896
  151.9243  135.0282  160.0534 H   0  0  0  0  0  0  0  0  0  0  0  0  # atno 6908 bound_to 6896
  152.2229  133.4962  159.5209 H   0  0  0  0  0  0  0  0  0  0  0  0  # atno 6909 bound_to 6896
  145.3851  140.9522  143.2372 H   0  0  0  0  0  0  0  0  0  0  0  0  # atno 7974 bound_to 7965
  156.2815  140.2730  156.1857 H   0  0  0  0  0  0  0  0  0  0  0  0  # atno 8008 bound_to 7997
  155.0511  140.0386  157.2562 H   0  0  0  0  0  0  0  0  0  0  0  0  # atno 8009 bound_to 7997
  154.7195  140.2685  155.6560 H   0  0  0  0  0  0  0  0  0  0  0  0  # atno 8010 bound_to 7997
  140.7262  143.3945  151.1372 H   0  0  0  0  0  0  0  0  0  0  0  0  # atno 10167 bound_to 10162
  157.6958  131.0444  150.3886 H   0  0  0  0  0  0  0  0  0  0  0  0  # atno 10718 bound_to 10713
  154.8286  135.3360  154.6817 H   0  0  0  0  0  0  0  0  0  0  0  0  # atno 10763 bound_to 10752
  153.7440  135.6944  153.4965 H   0  0  0  0  0  0  0  0  0  0  0  0  # atno 10764 bound_to 10752
  153.2224  135.4444  155.0455 H   0  0  0  0  0  0  0  0  0  0  0  0  # atno 10765 bound_to 10752
  139.9563  134.7138  156.0745 H   0  0  0  0  0  0  0  0  0  0  0  0  # atno 11005 bound_to 11000
  144.8480  139.5366  143.6869 LP  0  0  0  0  0  0  0  0  0  0  0  0  # atno 17320 bound_to 7965
  146.2824  139.6912  142.9220 LP  0  0  0  0  0  0  0  0  0  0  0  0  # atno 17321 bound_to 7965
  139.7555  143.8714  152.3087 LP  0  0  0  0  0  0  0  0  0  0  0  0  # atno 17342 bound_to 10162
  139.8582  144.7130  150.9132 LP  0  0  0  0  0  0  0  0  0  0  0  0  # atno 17343 bound_to 10162
  156.4292  130.3968  149.6772 LP  0  0  0  0  0  0  0  0  0  0  0  0  # atno 17370 bound_to 10713
  156.3996  130.7668  151.2675 LP  0  0  0  0  0  0  0  0  0  0  0  0  # atno 17371 bound_to 10713
  141.1235  133.6606  156.3276 LP  0  0  0  0  0  0  0  0  0  0  0  0  # atno 17394 bound_to 11000
  140.5601  134.5942  157.5431 LP  0  0  0  0  0  0  0  0  0  0  0  0  # atno 17395 bound_to 11000

$$$$
