AV-unprocessed.smi:224|AV-procd|sdf|1716|dock1
  -GOLD-   2262020183D 1   1.00000     0.00000
 Structure written by MMmdl.
 56 59  0  0  0  0  0  0  0  0  2 V2000
  144.4523  131.9309  150.3616 C   0  0  0  0  0  0  0  0  0  0  0  0
  145.9247  132.2665  150.6327 C   0  0  1  0  0  0  0  0  0  0  0  0
  146.6863  131.7765  149.5474 O   0  0  0  0  0  0  0  0  0  0  0  0
  146.1474  133.7859  150.7716 C   0  0  0  0  0  0  0  0  0  0  0  0
  145.0786  134.4562  151.5579 N   0  3  2  0  0  0  0  0  0  0  0  0
  144.9300  135.9059  151.2563 C   0  0  0  0  0  0  0  0  0  0  0  0
  143.7172  136.5012  151.9942 C   0  0  0  0  0  0  0  0  0  0  0  0
  143.7765  136.2159  153.4266 N   0  0  0  0  0  0  0  0  0  0  0  0
  144.3715  137.1099  154.2623 C   0  0  0  0  0  0  0  0  0  0  0  0
  143.9927  137.1638  155.5677 N   0  0  0  0  0  0  0  0  0  0  0  0
  144.5450  138.0515  156.3991 C   0  0  0  0  0  0  0  0  0  0  0  0
  145.4844  138.9617  156.1410 N   0  0  0  0  0  0  0  0  0  0  0  0
  145.8870  138.9020  154.8399 C   0  0  0  0  0  0  0  0  0  0  0  0
  145.3878  138.0165  153.8424 C   0  0  0  0  0  0  0  0  0  0  0  0
  146.0459  138.2472  152.6394 N   0  0  0  0  0  0  0  0  0  0  0  0
  146.8755  139.2180  152.9075 C   0  0  0  0  0  0  0  0  0  0  0  0
  146.8505  139.6679  154.2079 N   0  0  0  0  0  0  0  0  0  0  0  0
  147.6657  140.7284  154.7797 C   0  0  0  0  0  0  0  0  0  0  0  0
  149.1774  140.5631  154.4976 C   0  0  1  0  0  0  0  0  0  0  0  0
  149.4811  141.1396  153.2392 O   0  0  0  0  0  0  0  0  0  0  0  0
  150.0811  141.1990  155.5509 C   0  0  0  0  0  0  0  0  0  0  0  0
  151.2914  140.2759  155.5630 C   0  0  0  0  0  0  0  0  0  0  0  0
  150.7007  138.9954  155.4253 O   0  0  0  0  0  0  0  0  0  0  0  0
  149.6368  139.0912  154.4838 C   0  0  0  0  0  0  0  0  0  0  0  0
  143.9259  134.7976  153.7495 C   0  0  0  0  0  0  0  0  0  0  0  0
  145.1338  134.1651  153.0219 C   0  0  2  0  0  0  0  0  0  0  0  0
  146.4788  134.5545  153.6735 C   0  0  0  0  0  0  0  0  0  0  0  0
  143.8166  132.2698  151.1801 H   0  0  0  0  0  0  0  0  0  0  0  0
  144.3064  130.8551  150.2566 H   0  0  0  0  0  0  0  0  0  0  0  0
  144.0969  132.4058  149.4465 H   0  0  0  0  0  0  0  0  0  0  0  0
  146.2332  131.7407  151.5354 H   0  0  0  0  0  0  0  0  0  0  0  0
  147.5013  131.4280  149.8740 H   0  0  0  0  0  0  0  0  0  0  0  0
  147.1160  133.9492  151.2470 H   0  0  0  0  0  0  0  0  0  0  0  0
  146.2090  134.2516  149.7868 H   0  0  0  0  0  0  0  0  0  0  0  0
  145.8420  136.4358  151.5327 H   0  0  0  0  0  0  0  0  0  0  0  0
  144.7986  136.0604  150.1864 H   0  0  0  0  0  0  0  0  0  0  0  0
  143.6357  137.5724  151.8054 H   0  0  0  0  0  0  0  0  0  0  0  0
  142.8004  136.0592  151.6021 H   0  0  0  0  0  0  0  0  0  0  0  0
  144.1824  138.0307  157.4162 H   0  0  0  0  0  0  0  0  0  0  0  0
  147.5366  139.6314  152.1599 H   0  0  0  0  0  0  0  0  0  0  0  0
  147.3125  141.6792  154.3778 H   0  0  0  0  0  0  0  0  0  0  0  0
  147.4824  140.7654  155.8543 H   0  0  0  0  0  0  0  0  0  0  0  0
  149.2730  140.5123  152.5636 H   0  0  0  0  0  0  0  0  0  0  0  0
  150.3340  142.2403  155.3458 H   0  0  0  0  0  0  0  0  0  0  0  0
  149.6044  141.1598  156.5309 H   0  0  0  0  0  0  0  0  0  0  0  0
  151.9471  140.4745  154.7140 H   0  0  0  0  0  0  0  0  0  0  0  0
  151.8753  140.3553  156.4800 H   0  0  0  0  0  0  0  0  0  0  0  0
  148.8411  138.4033  154.7716 H   0  0  0  0  0  0  0  0  0  0  0  0
  149.9932  138.7818  153.4998 H   0  0  0  0  0  0  0  0  0  0  0  0
  144.0093  134.6209  154.8205 H   0  0  0  0  0  0  0  0  0  0  0  0
  143.0113  134.2929  153.4364 H   0  0  0  0  0  0  0  0  0  0  0  0
  145.0329  133.0847  153.1343 H   0  0  0  0  0  0  0  0  0  0  0  0
  146.4615  134.3488  154.7440 H   0  0  0  0  0  0  0  0  0  0  0  0
  146.7083  135.6121  153.5511 H   0  0  0  0  0  0  0  0  0  0  0  0
  147.3104  133.9878  153.2555 H   0  0  0  0  0  0  0  0  0  0  0  0
  144.2173  134.0283  151.2501 H   0  0  0  0  0  0  0  0  0  0  0  0
  1  2  1  0  0  0  0
  1 28  1  0  0  0  0
  1 29  1  0  0  0  0
  1 30  1  0  0  0  0
  2  3  1  0  0  0  0
  2  4  1  0  0  0  0
  2 31  1  0  0  0  0
  3 32  1  0  0  0  0
  4  5  1  0  0  0  0
  4 33  1  0  0  0  0
  4 34  1  0  0  0  0
  5 26  1  0  0  0  0
  5  6  1  0  0  0  0
  5 56  1  0  0  0  0
  6  7  1  0  0  0  0
  6 35  1  0  0  0  0
  6 36  1  0  0  0  0
  7  8  1  0  0  0  0
  7 37  1  0  0  0  0
  7 38  1  0  0  0  0
  8  9  1  0  0  0  0
  8 25  1  0  0  0  0
  9 14  1  0  0  0  0
  9 10  2  0  0  0  0
 10 11  1  0  0  0  0
 11 12  2  0  0  0  0
 11 39  1  0  0  0  0
 12 13  1  0  0  0  0
 13 17  1  0  0  0  0
 13 14  2  0  0  0  0
 14 15  1  0  0  0  0
 15 16  2  0  0  0  0
 16 17  1  0  0  0  0
 16 40  1  0  0  0  0
 17 18  1  0  0  0  0
 18 19  1  0  0  0  0
 18 41  1  0  0  0  0
 18 42  1  0  0  0  0
 19 24  1  0  0  0  0
 19 20  1  0  0  0  0
 19 21  1  0  0  0  0
 20 43  1  0  0  0  0
 21 22  1  0  0  0  0
 21 44  1  0  0  0  0
 21 45  1  0  0  0  0
 22 23  1  0  0  0  0
 22 46  1  0  0  0  0
 22 47  1  0  0  0  0
 23 24  1  0  0  0  0
 24 48  1  0  0  0  0
 24 49  1  0  0  0  0
 25 26  1  0  0  0  0
 25 50  1  0  0  0  0
 25 51  1  0  0  0  0
 26 27  1  0  0  0  0
 26 52  1  0  0  0  0
 27 53  1  0  0  0  0
 27 54  1  0  0  0  0
 27 55  1  0  0  0  0
M  CHG  1   5   1
M  END
> <s_m_source_file>
AV-unprocessed.smi

> <i_m_source_file_index>
224

> <i_lp_mmshare_version>
43012

> <i_f3d_flags>
0

> <s_epik_input>
W0NIM11bQ0BIXShbT0hdKVtDSDJdTjFbQ0gyXVtDSDJdTihbQ0gyXVtDQEhdMVtDSDNdKWMobltjSF1uMiljKGMyMyluW2NIXW4zW0NIMl1bQ0BAXTQoW09IXSlbQ0gyXVtDSDJdT1tDSDJdNA==

> <s_epik_cmdline>
J2VwaWtfcHl0aG9uJywgJy1waCcsICc3LjAnLCAnLXRuJywgJzgnLCAnLW1hJywgJzIwMCcsICctbWV0YWxfYmluZGluZycsICctaW1hZScsICc8aW5maWxlLm1hZT4nLCAnLW9tYWUnLCAnPG91dGZpbGUubWFlPic=

> <r_lp_tautomer_probability>
1

> <r_epik_Ionization_Penalty>
0.00516958

> <r_epik_Ionization_Penalty_Charging>
0.00509693

> <r_epik_Ionization_Penalty_Neutral>
7.26542e-05

> <r_epik_State_Penalty>
-0

> <r_epik_Charging_Adjusted_Penalty>
0.00509693

> <i_epik_Tot_Q>
1

> <i_epik_Tot_abs_Q>
1

> <r_epik_Metal_State_Penalty>
-0

> <b_epik_Metal_Only>
0

> <s_lp_Force_Field>
OPLS_2005

> <r_lp_Energy>
50.5155

> <b_lp_Chiralities_Consistent>
1

> <s_lp_Variant>
AV-unprocessed.smi:224-10

> <Gold.Version>
5.8.1

> <Gold.Id.Protein>
6NUR|6NUR_protein|mol2

> <Gold.PLP.Fitness>
46.2583

> <Gold.PLP.PLP>
-37.1637

> <Gold.PLP.part.hbond>
-3.3050

> <Gold.PLP.part.metal>
0.0000

> <Gold.PLP.part.buried>
-4.6055

> <Gold.PLP.part.nonpolar>
-30.1563

> <Gold.PLP.part.repulsive>
0.3668

> <Gold.PLP.ligand.clash>
0.0000

> <Gold.PLP.ligand.torsion>
1.5848

> <Gold.PLP.Chemscore.Hbond>
2.9575

> <Gold.PLP.Chemscore.CHOScore>
1.0000

> <Gold.PLP.Chemscore.Metal>
0.0000

> <Gold.Chemscore.Hbonds>
donor molecule, donor type, donor heavy atom, donor atom, acceptor molecule, acceptor atom, score
      L1  H     3    32       P1 10747  1.00
      L1  H    20    43       P1  7957  0.84
      P1  H  7989  7998       L1    20  0.06
      P1  H  8011  8017       L1    20  0.95
      L1  C    16    40       P1  7957  1.00

> <Gold.PLP.Chemscore.Internal.Correction>
0.3918

> <Gold.Rescore>
     Score         DG    S(hbond)    S(metal)    S(lipo)     H(rot)  DE(clash)    DE(int)     intcor
     10.63     -14.66       2.42        0.00      75.41       3.02       0.33       3.70       ----

> <Gold.Chemscore.Fitness>
10.6252

> <Gold.Chemscore.DG>
-14.6554

> <Gold.Chemscore.ZeroCoef>
-5.4800

> <Gold.Chemscore.Hbond>
2.4227

> <Gold.Chemscore.Metal>
0.0000

> <Gold.Chemscore.Lipo>
75.4087

> <Gold.Chemscore.Internal_Hbond>
0.0000

> <Gold.Chemscore.DEClash>
0.3321

> <Gold.Chemscore.DEInternal>
3.6981

> <Gold.Chemscore.Rot>
3.0231

> <Gold.Chemscore.Internal.Correction>
   9.000000E+99

> <Gold.Chemscore.Hbonds>
donor molecule, donor type, donor heavy atom, donor atom, acceptor molecule, acceptor atom, score
      L1  H     3    32       P1 10747  0.99
      L1  H    20    43       P1  7957  0.79
      P1  H  8011  8017       L1    20  0.21

> <Gold.Chemscore.Hbond.Weighted>
-8.0917

> <Gold.Chemscore.Metal.Weighted>
-0.0000

> <Gold.Chemscore.Lipo.Weighted>
-8.8228

> <Gold.Chemscore.Internal_Hbond.Weighted>
0.0000

> <Gold.Chemscore.DEClash.Weighted>
0.3321

> <Gold.Chemscore.DEInternal.Weighted>
3.6981

> <Gold.Chemscore.Rot.Weighted>
7.7391

> <Gold.Chemscore.Internal.Correction.Weighted>
   9.000000E+99

> <Gold.Protein.RotatedTorsions>
[ 6907 6896 6895 6894 ] final -119.80 input  -60.11 | X-H torsion
[ 7974 7965 7964 7962 ] final   58.89 input  175.53 | X-H torsion
[ 8008 7997 7996 7995 ] final  -22.05 input   59.86 | X-H torsion
[ 10167 10162 10161 10158 ] final  153.38 input  -65.29 | X-H torsion
[ 10718 10713 10712 10709 ] final  -59.95 input   66.30 | X-H torsion
[ 10763 10752 10751 10750 ] final   62.71 input  -60.55 | X-H torsion
[ 11005 11000 10999 10996 ] final   19.18 input  -57.11 | X-H torsion

> <Gold.Protein.ActiveResidues>
 VAL166  LYS551  ARG553  GLY616  TRP617  ASP618  TYR619  PRO620  LYS621  CYS622 
 ASP623  PHE694  ASN695  SER759  ASP760  ASP761  ALA762  ILE779  LEU786  VAL792 
 PHE793  MET794  SER795  GLU796  ALA797  LYS798  CYS799  TRP800  GLU811  SER814 

> <Gold.Protein.RotatedAtoms>
  150.8337  133.8049  159.3088 H   0  0  0  0  0  0  0  0  0  0  0  0  # atno 6907 bound_to 6896
  151.5772  135.1058  160.0018 H   0  0  0  0  0  0  0  0  0  0  0  0  # atno 6908 bound_to 6896
  152.4412  133.7410  159.6697 H   0  0  0  0  0  0  0  0  0  0  0  0  # atno 6909 bound_to 6896
  145.9132  139.3671  143.0523 H   0  0  0  0  0  0  0  0  0  0  0  0  # atno 7974 bound_to 7965
  154.4667  140.2018  156.0099 H   0  0  0  0  0  0  0  0  0  0  0  0  # atno 8008 bound_to 7997
  156.0940  140.3254  155.7824 H   0  0  0  0  0  0  0  0  0  0  0  0  # atno 8009 bound_to 7997
  155.4909  140.0546  157.2944 H   0  0  0  0  0  0  0  0  0  0  0  0  # atno 8010 bound_to 7997
  139.4827  144.5278  151.7772 H   0  0  0  0  0  0  0  0  0  0  0  0  # atno 10167 bound_to 10162
  156.1025  130.4184  150.0787 H   0  0  0  0  0  0  0  0  0  0  0  0  # atno 10718 bound_to 10713
  152.9992  135.5455  154.6236 H   0  0  0  0  0  0  0  0  0  0  0  0  # atno 10763 bound_to 10752
  154.5530  135.2828  155.0993 H   0  0  0  0  0  0  0  0  0  0  0  0  # atno 10764 bound_to 10752
  154.2225  135.6448  153.5202 H   0  0  0  0  0  0  0  0  0  0  0  0  # atno 10765 bound_to 10752
  140.4166  134.1562  155.7670 H   0  0  0  0  0  0  0  0  0  0  0  0  # atno 11005 bound_to 11000
  145.8644  140.9456  143.0683 LP  0  0  0  0  0  0  0  0  0  0  0  0  # atno 17320 bound_to 7965
  144.6745  140.0573  143.7477 LP  0  0  0  0  0  0  0  0  0  0  0  0  # atno 17321 bound_to 7965
  140.4800  144.1463  150.5931 LP  0  0  0  0  0  0  0  0  0  0  0  0  # atno 17342 bound_to 10162
  140.4288  143.2578  151.9622 LP  0  0  0  0  0  0  0  0  0  0  0  0  # atno 17343 bound_to 10162
  156.8770  130.9544  151.3603 LP  0  0  0  0  0  0  0  0  0  0  0  0  # atno 17370 bound_to 10713
  157.6197  130.8645  149.9088 LP  0  0  0  0  0  0  0  0  0  0  0  0  # atno 17371 bound_to 10713
  141.1800  133.8433  157.1289 LP  0  0  0  0  0  0  0  0  0  0  0  0  # atno 17394 bound_to 11000
  140.0230  134.9937  157.0629 LP  0  0  0  0  0  0  0  0  0  0  0  0  # atno 17395 bound_to 11000

$$$$
