#       Name:                AV-unprocessed.smi:703
#       Creating user name   scv26
#       Creation time:       Fri Mar 27 00:42:21 2020


#       File generated by GOLD software.
#

@<TRIPOS>MOLECULE
AV-unprocessed.smi:703
    41    42     1
SMALL
NO_CHARGES


@<TRIPOS>ATOM
      1 ****        -4.5235  -1.0601  -0.7927 C.3            1 S1                 0.0000
      2 ****        -3.4438   0.0299  -0.8093 C.3            1 S1                 0.0000
      3 ****        -2.1653  -0.4413  -0.2242 N.4            1 S1                 1.0000
      4 ****        -2.2112  -0.7459   1.2263 C.3            1 S1                 0.0000
      5 ****        -0.7959  -0.4741   1.7573 C.3            1 S1                 0.0000
      6 ****         0.0906  -1.7379   1.6310 C.3            1 S1                 0.0000
      7 ****        -0.3774   0.7397   0.9032 C.3            1 S1                 0.0000
      8 ****         1.0650   0.9227   0.8380 N.pl3          1 S1                -1.0000
      9 ****         1.6827   2.2324   0.1055 S.o2           1 S1                 0.0000
     10 ****         1.3745   2.2750  -1.3337 O.2            1 S1                 0.0000
     11 ****         1.4424   3.4605   0.8797 O.2            1 S1                 0.0000
     12 ****         3.4910   1.8868   0.2464 C.3            1 S1                 0.0000
     13 ****         3.9088   0.8550  -0.7660 C.2            1 S1                 0.0000
     14 ****         3.7249  -0.5553  -0.7188 C.2            1 S1                 0.0000
     15 ****         4.2860  -0.9900  -1.8844 C.2            1 S1                 0.0000
     16 ****         4.7840   0.0556  -2.5909 O.3            1 S1                 0.0000
     17 ****         4.5420   1.2288  -1.8672 N.2            1 S1                 0.0000
     18 ****        -1.0112   0.4574  -0.4672 C.3            1 S1                 0.0000
     19 ****        -5.4356  -0.7058  -1.2735 H              1 S1                 0.0000
     20 ****        -4.7827  -1.3551   0.2243 H              1 S1                 0.0000
     21 ****        -4.1915  -1.9503  -1.3277 H              1 S1                 0.0000
     22 ****        -3.2663   0.3271  -1.8436 H              1 S1                 0.0000
     23 ****        -3.7896   0.9199  -0.2816 H              1 S1                 0.0000
     24 ****        -2.9364  -0.0971   1.7256 H              1 S1                 0.0000
     25 ****        -2.5358  -1.7727   1.4005 H              1 S1                 0.0000
     26 ****        -0.8371  -0.1956   2.8113 H              1 S1                 0.0000
     27 ****         0.1886  -2.0819   0.5996 H              1 S1                 0.0000
     28 ****        -0.3360  -2.5612   2.2044 H              1 S1                 0.0000
     29 ****         1.0950  -1.5736   2.0251 H              1 S1                 0.0000
     30 ****        -0.8715   1.6166   1.3245 H              1 S1                 0.0000
     31 ****         4.0197   2.8258   0.0817 H              1 S1                 0.0000
     32 ****         3.7087   1.5645   1.2643 H              1 S1                 0.0000
     33 ****         3.2489  -1.1497   0.0469 H              1 S1                 0.0000
     34 ****         4.4050  -1.9653  -2.3325 H              1 S1                 0.0000
     35 ****        -0.3183  -0.0658  -1.1282 H              1 S1                 0.0000
     36 ****        -1.2991   1.3855  -0.9635 H              1 S1                 0.0000
     37 ****        -1.9296  -1.3057  -0.6903 H              1 S1                 0.0000
     38 ****         1.6748   0.2421   1.2441 LP             1 S1                 0.0000
     39 ****         4.3320   0.1081  -3.4814 LP             1 S1                 0.0000
     40 ****         5.7681  -0.0634  -2.7231 LP             1 S1                 0.0000
     41 ****         4.7957   2.1601  -2.1286 LP             1 S1                 0.0000
@<TRIPOS>BOND
    1    1    2 1     
    2    1   19 1     
    3    1   20 1     
    4    1   21 1     
    5    2    3 1     
    6    2   22 1     
    7    2   23 1     
    8    3   18 1     
    9    3    4 1     
   10    3   37 1     
   11    4    5 1     
   12    4   24 1     
   13    4   25 1     
   14    5    6 1     
   15    5    7 1     
   16    5   26 1     
   17    6   27 1     
   18    6   28 1     
   19    6   29 1     
   20    7    8 1     
   21    7   18 1     
   22    7   30 1     
   23    8    9 1     
   24    9   10 2     
   25    9   11 2     
   26    9   12 1     
   27   12   13 1     
   28   12   31 1     
   29   12   32 1     
   30   13   17 2     
   31   13   14 1     
   32   14   15 2     
   33   14   33 1     
   34   15   16 1     
   35   15   34 1     
   36   16   17 1     
   37   18   35 1     
   38   18   36 1     
   39    8   38 1     
   40   16   39 1     
   41   16   40 1     
   42   17   41 1     
@<TRIPOS>SUBSTRUCTURE
      1 S1             1
@<TRIPOS>SET
LONE_PAIRS      STATIC     ATOMS    <user>   **** ""
6 38 10 11 39 40 41
DONOR_HYDROGENS      STATIC     ATOMS    <user>   **** ""
1 37
ATOM$BLUE        STATIC     ATOMS    COLORGROUP SYSTEM
6 38 10 11 39 40 41
ATOM$RED        STATIC     ATOMS    COLORGROUP SYSTEM
1 37
