AV-unprocessed.smi:1120|AV-procd|sdf|4818|dock1
  -GOLD-   22720 3373D 1   1.00000     0.00000
 Structure written by MMmdl.
 48 49  0  0  0  0  0  0  0  0  1 V2000
  148.6226  129.9989  155.8319 C   0  0  0  0  0  0  0  0  0  0  0  0
  149.2953  131.2816  155.3226 C   0  0  2  0  0  0  0  0  0  0  0  0
  149.7184  132.1970  156.4875 C   0  0  0  0  0  0  0  0  0  0  0  0
  150.3920  133.4818  155.9796 C   0  0  0  0  0  0  0  0  0  0  0  0
  149.4845  134.2444  154.9981 C   0  0  1  0  0  0  0  0  0  0  0  0
  150.1992  135.4195  154.4929 N   0  0  0  0  0  0  0  0  0  0  0  0
  150.6562  136.6745  155.5887 S   0  0  0  0  0  0  0  0  0  0  0  0
  149.7143  136.6454  156.7188 O   0  0  0  0  0  0  0  0  0  0  0  0
  152.1011  136.5394  155.8289 O   0  0  0  0  0  0  0  0  0  0  0  0
  150.3772  138.1975  154.5814 C   0  0  0  0  0  0  0  0  0  0  0  0
  150.8552  139.4317  155.3454 C   0  0  0  0  0  0  0  0  0  0  0  0
  151.8900  139.3775  156.0091 O   0  0  0  0  0  0  0  0  0  0  0  0
  150.0996  140.5361  155.2421 N   0  0  0  0  0  0  0  0  0  0  0  0
  150.3988  141.8161  155.8741 C   0  0  0  0  0  0  0  0  0  0  0  0
  150.1551  141.7730  157.3921 C   0  0  0  0  0  0  0  0  0  0  0  0
  150.9831  142.8038  158.1364 C   0  0  0  0  0  0  0  0  0  0  0  0
  151.6832  143.8090  157.4354 C   0  0  0  0  0  0  0  0  0  0  0  0
  152.4422  144.7373  158.1742 C   0  0  0  0  0  0  0  0  0  0  0  0
  152.4732  144.6252  159.5774 C   0  0  0  0  0  0  0  0  0  0  0  0
  151.7408  143.5845  160.1824 C   0  0  0  0  0  0  0  0  0  0  0  0
  151.0103  142.6889  159.4834 N   0  0  0  0  0  0  0  0  0  0  0  0
  149.0510  133.3336  153.8332 C   0  0  0  0  0  0  0  0  0  0  0  0
  148.3832  132.0472  154.3450 C   0  0  0  0  0  0  0  0  0  0  0  0
  147.7136  130.2227  156.3910 H   0  0  0  0  0  0  0  0  0  0  0  0
  149.2892  129.4404  156.4894 H   0  0  0  0  0  0  0  0  0  0  0  0
  148.3514  129.3428  155.0044 H   0  0  0  0  0  0  0  0  0  0  0  0
  150.1958  130.9874  154.7815 H   0  0  0  0  0  0  0  0  0  0  0  0
  148.8460  132.4578  157.0884 H   0  0  0  0  0  0  0  0  0  0  0  0
  150.4018  131.6655  157.1507 H   0  0  0  0  0  0  0  0  0  0  0  0
  150.6470  134.1209  156.8260 H   0  0  0  0  0  0  0  0  0  0  0  0
  151.3336  133.2255  155.4915 H   0  0  0  0  0  0  0  0  0  0  0  0
  148.5985  134.5803  155.5383 H   0  0  0  0  0  0  0  0  0  0  0  0
  149.7434  135.8030  153.6649 H   0  0  0  0  0  0  0  0  0  0  0  0
  150.9270  138.0938  153.6457 H   0  0  0  0  0  0  0  0  0  0  0  0
  149.3169  138.2730  154.3396 H   0  0  0  0  0  0  0  0  0  0  0  0
  149.2674  140.4931  154.6720 H   0  0  0  0  0  0  0  0  0  0  0  0
  151.4282  142.1069  155.6577 H   0  0  0  0  0  0  0  0  0  0  0  0
  149.7606  142.5736  155.4187 H   0  0  0  0  0  0  0  0  0  0  0  0
  149.0985  141.9405  157.6050 H   0  0  0  0  0  0  0  0  0  0  0  0
  150.3928  140.7835  157.7857 H   0  0  0  0  0  0  0  0  0  0  0  0
  151.6424  143.8688  156.3575 H   0  0  0  0  0  0  0  0  0  0  0  0
  152.9911  145.5209  157.6733 H   0  0  0  0  0  0  0  0  0  0  0  0
  153.0445  145.3188  160.1760 H   0  0  0  0  0  0  0  0  0  0  0  0
  151.7420  143.4679  161.2560 H   0  0  0  0  0  0  0  0  0  0  0  0
  148.3572  133.8595  153.1772 H   0  0  0  0  0  0  0  0  0  0  0  0
  149.9174  133.0739  153.2232 H   0  0  0  0  0  0  0  0  0  0  0  0
  148.1249  131.4100  153.4986 H   0  0  0  0  0  0  0  0  0  0  0  0
  147.4435  132.2996  154.8384 H   0  0  0  0  0  0  0  0  0  0  0  0
  1  2  1  0  0  0  0
  1 24  1  0  0  0  0
  1 25  1  0  0  0  0
  1 26  1  0  0  0  0
  2 23  1  0  0  0  0
  2  3  1  0  0  0  0
  2 27  1  0  0  0  0
  3  4  1  0  0  0  0
  3 28  1  0  0  0  0
  3 29  1  0  0  0  0
  4  5  1  0  0  0  0
  4 30  1  0  0  0  0
  4 31  1  0  0  0  0
  5  6  1  0  0  0  0
  5 22  1  0  0  0  0
  5 32  1  0  0  0  0
  6  7  1  0  0  0  0
  6 33  1  0  0  0  0
  7  8  2  0  0  0  0
  7  9  2  0  0  0  0
  7 10  1  0  0  0  0
 10 11  1  0  0  0  0
 10 34  1  0  0  0  0
 10 35  1  0  0  0  0
 11 12  2  0  0  0  0
 11 13  1  0  0  0  0
 13 14  1  0  0  0  0
 13 36  1  0  0  0  0
 14 15  1  0  0  0  0
 14 37  1  0  0  0  0
 14 38  1  0  0  0  0
 15 16  1  0  0  0  0
 15 39  1  0  0  0  0
 15 40  1  0  0  0  0
 16 21  1  0  0  0  0
 16 17  2  0  0  0  0
 17 18  1  0  0  0  0
 17 41  1  0  0  0  0
 18 19  2  0  0  0  0
 18 42  1  0  0  0  0
 19 20  1  0  0  0  0
 19 43  1  0  0  0  0
 20 21  2  0  0  0  0
 20 44  1  0  0  0  0
 22 23  1  0  0  0  0
 22 45  1  0  0  0  0
 22 46  1  0  0  0  0
 23 47  1  0  0  0  0
 23 48  1  0  0  0  0
M  END
> <s_m_source_file>
AV-unprocessed.smi

> <i_m_source_file_index>
1120

> <i_lp_mmshare_version>
43012

> <i_f3d_flags>
0

> <s_epik_input>
W0NIM11bQ0BASF0xW0NIMl1bQ0gyXVtDQEhdKFtDSDJdW0NIMl0xKVtOSF1TKD1PKSg9TylbQ0gyXUMoPU8pW05IXVtDSDJdW0NIMl1jMltjSF1bY0hdW2NIXVtjSF1uMg==

> <s_epik_cmdline>
J2VwaWtfcHl0aG9uJywgJy1waCcsICc3LjAnLCAnLXRuJywgJzgnLCAnLW1hJywgJzIwMCcsICctbWV0YWxfYmluZGluZycsICctaW1hZScsICc8aW5maWxlLm1hZT4nLCAnLW9tYWUnLCAnPG91dGZpbGUubWFlPic=

> <r_epik_Ionization_Penalty>
0.0216068

> <r_epik_Ionization_Penalty_Charging>
0

> <r_epik_Ionization_Penalty_Neutral>
0.0216068

> <r_epik_State_Penalty>
0.01735

> <r_epik_Charging_Adjusted_Penalty>
0.01735

> <i_epik_Tot_Q>
0

> <i_epik_Tot_abs_Q>
0

> <r_epik_Metal_State_Penalty>
0.0535325

> <b_epik_Metal_Only>
0

> <s_lp_Force_Field>
OPLS_2005

> <r_lp_Energy>
6.02559

> <b_lp_Chiralities_Consistent>
1

> <s_lp_Variant>
AV-unprocessed.smi:1120-1

> <Gold.Version>
5.8.1

> <Gold.Id.Protein>
6NUR|6NUR_protein|mol2

> <Gold.PLP.Fitness>
48.5677

> <Gold.PLP.PLP>
-45.7971

> <Gold.PLP.part.hbond>
-3.2677

> <Gold.PLP.part.metal>
0.0000

> <Gold.PLP.part.buried>
-6.0470

> <Gold.PLP.part.nonpolar>
-37.7366

> <Gold.PLP.part.repulsive>
0.1617

> <Gold.PLP.ligand.clash>
0.0000

> <Gold.PLP.ligand.torsion>
1.1354

> <Gold.PLP.Chemscore.Hbond>
1.5762

> <Gold.PLP.Chemscore.CHOScore>
0.0000

> <Gold.PLP.Chemscore.Metal>
0.0000

> <Gold.Chemscore.Hbonds>
donor molecule, donor type, donor heavy atom, donor atom, acceptor molecule, acceptor atom, score
      L1  H     6    33       P1  7948  0.85
      P1  H 10752 10765       L1     9  1.00

> <Gold.PLP.Chemscore.Internal.Correction>
0.3126

> <Gold.Rescore>
     Score         DG    S(hbond)    S(metal)    S(lipo)     H(rot)  DE(clash)    DE(int)     intcor
     16.12     -18.68       1.73        0.00     109.87       2.12       0.12       2.44       ----

> <Gold.Chemscore.Fitness>
16.1246

> <Gold.Chemscore.DG>
-18.6817

> <Gold.Chemscore.ZeroCoef>
-5.4800

> <Gold.Chemscore.Hbond>
1.7299

> <Gold.Chemscore.Metal>
0.0000

> <Gold.Chemscore.Lipo>
109.8651

> <Gold.Chemscore.Internal_Hbond>
0.0000

> <Gold.Chemscore.DEClash>
0.1213

> <Gold.Chemscore.DEInternal>
2.4358

> <Gold.Chemscore.Rot>
2.1213

> <Gold.Chemscore.Internal.Correction>
   9.000000E+99

> <Gold.Chemscore.Hbonds>
donor molecule, donor type, donor heavy atom, donor atom, acceptor molecule, acceptor atom, score
      L1  H     6    33       P1  7948  0.14
      P1  H 10752 10765       L1     9  0.99

> <Gold.Chemscore.Hbond.Weighted>
-5.7780

> <Gold.Chemscore.Metal.Weighted>
-0.0000

> <Gold.Chemscore.Lipo.Weighted>
-12.8542

> <Gold.Chemscore.Internal_Hbond.Weighted>
0.0000

> <Gold.Chemscore.DEClash.Weighted>
0.1213

> <Gold.Chemscore.DEInternal.Weighted>
2.4358

> <Gold.Chemscore.Rot.Weighted>
5.4305

> <Gold.Chemscore.Internal.Correction.Weighted>
   9.000000E+99

> <Gold.Protein.RotatedTorsions>
[ 6907 6896 6895 6894 ] final  -29.89 input  -60.11 | X-H torsion
[ 7974 7965 7964 7962 ] final -130.64 input  175.53 | X-H torsion
[ 8008 7997 7996 7995 ] final  151.40 input   59.86 | X-H torsion
[ 10167 10162 10161 10158 ] final  101.87 input  -65.29 | X-H torsion
[ 10718 10713 10712 10709 ] final  -77.04 input   66.30 | X-H torsion
[ 10763 10752 10751 10750 ] final -155.97 input  -60.55 | X-H torsion
[ 11005 11000 10999 10996 ] final   35.38 input  -57.11 | X-H torsion

> <Gold.Protein.ActiveResidues>
 VAL166  LYS551  ARG553  GLY616  TRP617  ASP618  TYR619  PRO620  LYS621  CYS622 
 ASP623  PHE694  ASN695  SER759  ASP760  ASP761  ALA762  ILE779  LEU786  VAL792 
 PHE793  MET794  SER795  GLU796  ALA797  LYS798  CYS799  TRP800  GLU811  SER814 

> <Gold.Protein.RotatedAtoms>
  151.1130  135.0037  159.8502 H   0  0  0  0  0  0  0  0  0  0  0  0  # atno 6907 bound_to 6896
  152.5444  134.1814  159.8647 H   0  0  0  0  0  0  0  0  0  0  0  0  # atno 6908 bound_to 6896
  151.1865  133.4648  159.2627 H   0  0  0  0  0  0  0  0  0  0  0  0  # atno 6909 bound_to 6896
  144.9456  140.7287  143.4820 H   0  0  0  0  0  0  0  0  0  0  0  0  # atno 7974 bound_to 7965
  156.2675  140.2049  156.6170 H   0  0  0  0  0  0  0  0  0  0  0  0  # atno 8008 bound_to 7997
  154.6787  140.0542  157.0267 H   0  0  0  0  0  0  0  0  0  0  0  0  # atno 8009 bound_to 7997
  155.1032  140.3208  155.4544 H   0  0  0  0  0  0  0  0  0  0  0  0  # atno 8010 bound_to 7997
  139.7399  144.7014  151.0591 H   0  0  0  0  0  0  0  0  0  0  0  0  # atno 10167 bound_to 10162
  156.0156  130.4481  150.3285 H   0  0  0  0  0  0  0  0  0  0  0  0  # atno 10718 bound_to 10713
  154.7748  135.3156  154.8115 H   0  0  0  0  0  0  0  0  0  0  0  0  # atno 10763 bound_to 10752
  153.8841  135.6832  153.4769 H   0  0  0  0  0  0  0  0  0  0  0  0  # atno 10764 bound_to 10752
  153.1369  135.4756  154.9372 H   0  0  0  0  0  0  0  0  0  0  0  0  # atno 10765 bound_to 10752
  140.2433  134.3390  155.7917 H   0  0  0  0  0  0  0  0  0  0  0  0  # atno 11005 bound_to 11000
  145.2923  139.1879  143.4733 LP  0  0  0  0  0  0  0  0  0  0  0  0  # atno 17320 bound_to 7965
  146.3302  140.2902  142.8615 LP  0  0  0  0  0  0  0  0  0  0  0  0  # atno 17321 bound_to 7965
  140.7784  143.4937  150.9860 LP  0  0  0  0  0  0  0  0  0  0  0  0  # atno 17342 bound_to 10162
  139.8625  143.7296  152.3172 LP  0  0  0  0  0  0  0  0  0  0  0  0  # atno 17343 bound_to 10162
  157.1384  131.0290  151.2939 LP  0  0  0  0  0  0  0  0  0  0  0  0  # atno 17370 bound_to 10713
  157.4492  130.7589  149.7137 LP  0  0  0  0  0  0  0  0  0  0  0  0  # atno 17371 bound_to 10713
  141.2208  133.7311  156.8919 LP  0  0  0  0  0  0  0  0  0  0  0  0  # atno 17394 bound_to 11000
  140.1632  134.9151  157.2740 LP  0  0  0  0  0  0  0  0  0  0  0  0  # atno 17395 bound_to 11000

$$$$
