AV-unprocessed.smi:763|AV-procd|sdf|3637|dock5
  -GOLD-   22720 1 33D 1   1.00000     0.00000
 Structure written by MMmdl.
 44 45  0  0  0  0  0  0  0  0  1 V2000
  146.7061  134.7362  162.2449 C   0  0  0  0  0  0  0  0  0  0  0  0
  146.1940  135.6663  161.3038 O   0  0  0  0  0  0  0  0  0  0  0  0
  147.1200  136.6748  160.9239 C   0  0  0  0  0  0  0  0  0  0  0  0
  148.2111  136.1326  159.9891 C   0  0  0  0  0  0  0  0  0  0  0  0
  148.9800  137.2295  159.5060 O   0  0  0  0  0  0  0  0  0  0  0  0
  148.4954  137.9602  158.4380 C   0  0  0  0  0  0  0  0  0  0  0  0
  147.2158  137.7534  158.0366 N   0  0  0  0  0  0  0  0  0  0  0  0
  146.7447  138.4746  156.9978 C   0  0  0  0  0  0  0  0  0  0  0  0
  147.5147  139.4316  156.3105 C   0  0  0  0  0  0  0  0  0  0  0  0
  148.8423  139.6451  156.7254 C   0  0  0  0  0  0  0  0  0  0  0  0
  149.3483  138.8954  157.8095 C   0  0  0  0  0  0  0  0  0  0  0  0
  150.6585  139.0585  158.2688 N   0  0  0  0  0  0  0  0  0  0  0  0
  151.8869  140.1276  157.6744 S   0  0  0  0  0  0  0  0  0  0  0  0
  153.1661  139.5494  158.1137 O   0  0  0  0  0  0  0  0  0  0  0  0
  151.5887  140.3119  156.2457 O   0  0  0  0  0  0  0  0  0  0  0  0
  151.5403  141.7033  158.5948 C   0  0  1  0  0  0  0  0  0  0  0  0
  152.7091  142.0139  159.5531 C   0  0  0  0  0  0  0  0  0  0  0  0
  152.4908  143.3286  160.3167 C   0  0  0  0  0  0  0  0  0  0  0  0
  152.2506  144.4956  159.3488 C   0  0  0  0  0  0  0  0  0  0  0  0
  151.0570  144.2053  158.4282 C   0  0  0  0  0  0  0  0  0  0  0  0
  151.2521  142.8934  157.6456 C   0  0  2  0  0  0  0  0  0  0  0  0
  150.0790  142.6685  156.8911 O   0  0  0  0  0  0  0  0  0  0  0  0
  145.9588  133.9663  162.4367 H   0  0  0  0  0  0  0  0  0  0  0  0
  146.9413  135.2112  163.1972 H   0  0  0  0  0  0  0  0  0  0  0  0
  147.6029  134.2438  161.8669 H   0  0  0  0  0  0  0  0  0  0  0  0
  146.6095  137.5308  160.4798 H   0  0  0  0  0  0  0  0  0  0  0  0
  147.5890  137.0364  161.8395 H   0  0  0  0  0  0  0  0  0  0  0  0
  148.8554  135.4450  160.5395 H   0  0  0  0  0  0  0  0  0  0  0  0
  147.7615  135.5874  159.1580 H   0  0  0  0  0  0  0  0  0  0  0  0
  145.7225  138.2836  156.7063 H   0  0  0  0  0  0  0  0  0  0  0  0
  147.0972  139.9881  155.4844 H   0  0  0  0  0  0  0  0  0  0  0  0
  149.4520  140.3740  156.2128 H   0  0  0  0  0  0  0  0  0  0  0  0
  150.9091  138.4853  159.0612 H   0  0  0  0  0  0  0  0  0  0  0  0
  150.6526  141.5142  159.1997 H   0  0  0  0  0  0  0  0  0  0  0  0
  152.8377  141.1977  160.2645 H   0  0  0  0  0  0  0  0  0  0  0  0
  153.6411  142.0798  158.9904 H   0  0  0  0  0  0  0  0  0  0  0  0
  151.6369  143.2254  160.9875 H   0  0  0  0  0  0  0  0  0  0  0  0
  153.3555  143.5399  160.9462 H   0  0  0  0  0  0  0  0  0  0  0  0
  152.0724  145.4136  159.9096 H   0  0  0  0  0  0  0  0  0  0  0  0
  153.1449  144.6670  158.7482 H   0  0  0  0  0  0  0  0  0  0  0  0
  150.1479  144.1464  159.0289 H   0  0  0  0  0  0  0  0  0  0  0  0
  150.9160  145.0366  157.7364 H   0  0  0  0  0  0  0  0  0  0  0  0
  152.0822  143.0191  156.9498 H   0  0  0  0  0  0  0  0  0  0  0  0
  149.8239  143.4792  156.4781 H   0  0  0  0  0  0  0  0  0  0  0  0
  1  2  1  0  0  0  0
  1 23  1  0  0  0  0
  1 24  1  0  0  0  0
  1 25  1  0  0  0  0
  2  3  1  0  0  0  0
  3  4  1  0  0  0  0
  3 26  1  0  0  0  0
  3 27  1  0  0  0  0
  4  5  1  0  0  0  0
  4 28  1  0  0  0  0
  4 29  1  0  0  0  0
  5  6  1  0  0  0  0
  6 11  1  0  0  0  0
  6  7  2  0  0  0  0
  7  8  1  0  0  0  0
  8  9  2  0  0  0  0
  8 30  1  0  0  0  0
  9 10  1  0  0  0  0
  9 31  1  0  0  0  0
 10 11  2  0  0  0  0
 10 32  1  0  0  0  0
 11 12  1  0  0  0  0
 12 13  1  0  0  0  0
 12 33  1  0  0  0  0
 13 14  2  0  0  0  0
 13 15  2  0  0  0  0
 13 16  1  0  0  0  0
 16 21  1  0  0  0  0
 16 17  1  0  0  0  0
 16 34  1  0  0  0  0
 17 18  1  0  0  0  0
 17 35  1  0  0  0  0
 17 36  1  0  0  0  0
 18 19  1  0  0  0  0
 18 37  1  0  0  0  0
 18 38  1  0  0  0  0
 19 20  1  0  0  0  0
 19 39  1  0  0  0  0
 19 40  1  0  0  0  0
 20 21  1  0  0  0  0
 20 41  1  0  0  0  0
 20 42  1  0  0  0  0
 21 22  1  0  0  0  0
 21 43  1  0  0  0  0
 22 44  1  0  0  0  0
M  END
> <s_m_source_file>
AV-unprocessed.smi

> <i_m_source_file_index>
763

> <i_lp_mmshare_version>
43012

> <i_f3d_flags>
0

> <s_epik_input>
W0NIM11PW0NIMl1bQ0gyXU9jMW5bY0hdW2NIXVtjSF1jMVtOSF1TKD1PKSg9TylbQ0BASF0yW0NIMl1bQ0gyXVtDSDJdW0NIMl1bQ0BIXTJbT0hd

> <s_epik_cmdline>
J2VwaWtfcHl0aG9uJywgJy1waCcsICc3LjAnLCAnLXRuJywgJzgnLCAnLW1hJywgJzIwMCcsICctbWV0YWxfYmluZGluZycsICctaW1hZScsICc8aW5maWxlLm1hZT4nLCAnLW9tYWUnLCAnPG91dGZpbGUubWFlPic=

> <r_epik_Ionization_Penalty>
0.124685

> <r_epik_Ionization_Penalty_Charging>
0

> <r_epik_Ionization_Penalty_Neutral>
0.124685

> <r_epik_State_Penalty>
0.114154

> <r_epik_Charging_Adjusted_Penalty>
0.114154

> <i_epik_Tot_Q>
0

> <i_epik_Tot_abs_Q>
0

> <r_epik_Metal_State_Penalty>
0.443785

> <b_epik_Metal_Only>
0

> <s_lp_Force_Field>
OPLS_2005

> <r_lp_Energy>
9.80168

> <b_lp_Chiralities_Consistent>
1

> <s_lp_Variant>
AV-unprocessed.smi:763-4

> <Gold.Version>
5.8.1

> <Gold.Id.Protein>
6NUR|6NUR_protein|mol2

> <Gold.PLP.Fitness>
43.7356

> <Gold.PLP.PLP>
-38.2339

> <Gold.PLP.part.hbond>
-3.0000

> <Gold.PLP.part.metal>
0.0000

> <Gold.PLP.part.buried>
-5.6050

> <Gold.PLP.part.nonpolar>
-30.5302

> <Gold.PLP.part.repulsive>
0.1183

> <Gold.PLP.ligand.clash>
0.0000

> <Gold.PLP.ligand.torsion>
0.9615

> <Gold.PLP.Chemscore.Hbond>
2.0263

> <Gold.PLP.Chemscore.CHOScore>
0.0000

> <Gold.PLP.Chemscore.Metal>
0.0000

> <Gold.Chemscore.Hbonds>
donor molecule, donor type, donor heavy atom, donor atom, acceptor molecule, acceptor atom, score
      L1  H    22    44       P1  8028  1.00
      P1  H  7997  8008       L1    14  1.00

> <Gold.PLP.Chemscore.Internal.Correction>
1.3457

> <Gold.Rescore>
     Score         DG    S(hbond)    S(metal)    S(lipo)     H(rot)  DE(clash)    DE(int)     intcor
     14.50     -17.06       2.15        0.00      90.27       2.41       0.03       2.53       ----

> <Gold.Chemscore.Fitness>
14.5019

> <Gold.Chemscore.DG>
-17.0609

> <Gold.Chemscore.ZeroCoef>
-5.4800

> <Gold.Chemscore.Hbond>
2.1489

> <Gold.Chemscore.Metal>
0.0000

> <Gold.Chemscore.Lipo>
90.2660

> <Gold.Chemscore.Internal_Hbond>
0.0000

> <Gold.Chemscore.DEClash>
0.0260

> <Gold.Chemscore.DEInternal>
2.5330

> <Gold.Chemscore.Rot>
2.4052

> <Gold.Chemscore.Internal.Correction>
   9.000000E+99

> <Gold.Chemscore.Hbonds>
donor molecule, donor type, donor heavy atom, donor atom, acceptor molecule, acceptor atom, score
      L1  H    22    44       P1  8028  1.00
      P1  H  7997  8008       L1    14  0.70

> <Gold.Chemscore.Hbond.Weighted>
-7.1772

> <Gold.Chemscore.Metal.Weighted>
-0.0000

> <Gold.Chemscore.Lipo.Weighted>
-10.5611

> <Gold.Chemscore.Internal_Hbond.Weighted>
0.0000

> <Gold.Chemscore.DEClash.Weighted>
0.0260

> <Gold.Chemscore.DEInternal.Weighted>
2.5330

> <Gold.Chemscore.Rot.Weighted>
6.1574

> <Gold.Chemscore.Internal.Correction.Weighted>
   9.000000E+99

> <Gold.Protein.RotatedTorsions>
[ 6907 6896 6895 6894 ] final -127.06 input  -60.11 | X-H torsion
[ 7974 7965 7964 7962 ] final  129.85 input  175.53 | X-H torsion
[ 8008 7997 7996 7995 ] final  -77.42 input   59.86 | X-H torsion
[ 10167 10162 10161 10158 ] final   16.86 input  -65.29 | X-H torsion
[ 10718 10713 10712 10709 ] final  129.27 input   66.30 | X-H torsion
[ 10763 10752 10751 10750 ] final  -45.31 input  -60.55 | X-H torsion
[ 11005 11000 10999 10996 ] final  -31.87 input  -57.11 | X-H torsion

> <Gold.Protein.ActiveResidues>
 VAL166  LYS551  ARG553  GLY616  TRP617  ASP618  TYR619  PRO620  LYS621  CYS622 
 ASP623  PHE694  ASN695  SER759  ASP760  ASP761  ALA762  ILE779  LEU786  VAL792 
 PHE793  MET794  SER795  GLU796  ALA797  LYS798  CYS799  TRP800  GLU811  SER814 

> <Gold.Protein.RotatedAtoms>
  150.9034  133.7089  159.2872 H   0  0  0  0  0  0  0  0  0  0  0  0  # atno 6907 bound_to 6896
  151.4601  135.1036  159.9732 H   0  0  0  0  0  0  0  0  0  0  0  0  # atno 6908 bound_to 6896
  152.4889  133.8399  159.7202 H   0  0  0  0  0  0  0  0  0  0  0  0  # atno 6909 bound_to 6896
  145.0242  139.4104  143.5182 H   0  0  0  0  0  0  0  0  0  0  0  0  # atno 7974 bound_to 7965
  154.5595  140.0711  156.8796 H   0  0  0  0  0  0  0  0  0  0  0  0  # atno 8008 bound_to 7997
  155.2839  140.3373  155.4238 H   0  0  0  0  0  0  0  0  0  0  0  0  # atno 8009 bound_to 7997
  156.2030  140.1729  156.7845 H   0  0  0  0  0  0  0  0  0  0  0  0  # atno 8010 bound_to 7997
  140.5767  143.9059  150.6756 H   0  0  0  0  0  0  0  0  0  0  0  0  # atno 10167 bound_to 10162
  157.5170  131.1097  150.9210 H   0  0  0  0  0  0  0  0  0  0  0  0  # atno 10718 bound_to 10713
  154.0264  135.6662  153.4777 H   0  0  0  0  0  0  0  0  0  0  0  0  # atno 10763 bound_to 10752
  153.0558  135.5056  154.7974 H   0  0  0  0  0  0  0  0  0  0  0  0  # atno 10764 bound_to 10752
  154.6905  135.3060  154.9450 H   0  0  0  0  0  0  0  0  0  0  0  0  # atno 10765 bound_to 10752
  140.9505  133.7224  156.1212 H   0  0  0  0  0  0  0  0  0  0  0  0  # atno 11005 bound_to 11000
  146.3490  139.9756  142.8701 LP  0  0  0  0  0  0  0  0  0  0  0  0  # atno 17320 bound_to 7965
  145.1855  140.9787  143.4241 LP  0  0  0  0  0  0  0  0  0  0  0  0  # atno 17321 bound_to 7965
  140.2548  143.3567  152.1375 LP  0  0  0  0  0  0  0  0  0  0  0  0  # atno 17342 bound_to 10162
  139.5147  144.6951  151.5652 LP  0  0  0  0  0  0  0  0  0  0  0  0  # atno 17343 bound_to 10162
  156.9833  130.5535  149.5298 LP  0  0  0  0  0  0  0  0  0  0  0  0  # atno 17370 bound_to 10713
  156.0327  130.5417  150.8575 LP  0  0  0  0  0  0  0  0  0  0  0  0  # atno 17371 bound_to 10713
  140.7610  134.3940  157.5525 LP  0  0  0  0  0  0  0  0  0  0  0  0  # atno 17394 bound_to 11000
  139.8846  134.8961  156.2694 LP  0  0  0  0  0  0  0  0  0  0  0  0  # atno 17395 bound_to 11000

$$$$
