AV-unprocessed.smi:158|AV-procd|sdf|1326|dock5
  -GOLD-   2262019 23D 1   1.00000     0.00000
 Structure written by MMmdl.
 31 33  0  0  0  0  0  0  0  0  1 V2000
  150.1940  144.9832  158.9829 N   0  0  0  0  0  0  0  0  0  0  0  0
  150.7527  143.7864  159.2103 C   0  0  0  0  0  0  0  0  0  0  0  0
  151.5889  143.6551  160.2666 N   0  0  0  0  0  0  0  0  0  0  0  0
  152.1676  142.4766  160.5293 C   0  0  0  0  0  0  0  0  0  0  0  0
  153.2155  142.4268  161.8977 Cl  0  0  0  0  0  0  0  0  0  0  0  0
  152.0263  141.3333  159.8492 N   0  0  0  0  0  0  0  0  0  0  0  0
  151.1856  141.4649  158.7827 C   0  0  0  0  0  0  0  0  0  0  0  0
  150.5106  142.6527  158.3970 C   0  0  0  0  0  0  0  0  0  0  0  0
  149.7402  142.4128  157.2674 N   0  0  0  0  0  0  0  0  0  0  0  0
  149.9535  141.1507  157.0045 C   0  0  0  0  0  0  0  0  0  0  0  0
  150.8187  140.5060  157.8648 N   0  0  0  0  0  0  0  0  0  0  0  0
  151.2818  139.0828  157.8635 C   0  0  1  0  0  0  0  0  0  0  0  0
  150.4743  138.3692  156.9731 O   0  0  0  0  0  0  0  0  0  0  0  0
  151.2158  137.9362  155.8313 C   0  0  1  0  0  0  0  0  0  0  0  0
  150.3813  138.0451  154.5425 C   0  0  0  0  0  0  0  0  0  0  0  0
  149.3084  137.1294  154.5825 O   0  0  0  0  0  0  0  0  0  0  0  0
  152.5176  138.7521  155.8523 C   0  0  1  0  0  0  0  0  0  0  0  0
  152.4217  139.9707  155.1366 O   0  0  0  0  0  0  0  0  0  0  0  0
  152.7178  139.0068  157.3345 C   0  0  2  0  0  0  0  0  0  0  0  0
  153.3270  137.9638  157.9001 F   0  0  0  0  0  0  0  0  0  0  0  0
  151.1583  138.7529  158.8957 H   0  0  0  0  0  0  0  0  0  0  0  0
  151.4871  136.8930  156.0042 H   0  0  0  0  0  0  0  0  0  0  0  0
  153.3476  138.1877  155.4261 H   0  0  0  0  0  0  0  0  0  0  0  0
  153.3031  139.8969  157.5700 H   0  0  0  0  0  0  0  0  0  0  0  0
  149.5675  145.1046  158.2000 H   0  0  0  0  0  0  0  0  0  0  0  0
  150.4019  145.7613  159.5918 H   0  0  0  0  0  0  0  0  0  0  0  0
  149.4816  140.6592  156.1673 H   0  0  0  0  0  0  0  0  0  0  0  0
  150.0088  139.0575  154.3877 H   0  0  0  0  0  0  0  0  0  0  0  0
  150.9922  137.7877  153.6768 H   0  0  0  0  0  0  0  0  0  0  0  0
  149.1783  136.7795  153.7143 H   0  0  0  0  0  0  0  0  0  0  0  0
  153.2702  140.3867  155.1342 H   0  0  0  0  0  0  0  0  0  0  0  0
  1  2  1  0  0  0  0
  1 25  1  0  0  0  0
  1 26  1  0  0  0  0
  2  8  1  0  0  0  0
  2  3  2  0  0  0  0
  3  4  1  0  0  0  0
  4  5  1  0  0  0  0
  4  6  2  0  0  0  0
  6  7  1  0  0  0  0
  7 11  1  0  0  0  0
  7  8  2  0  0  0  0
  8  9  1  0  0  0  0
  9 10  2  0  0  0  0
 10 11  1  0  0  0  0
 10 27  1  0  0  0  0
 11 12  1  0  0  0  0
 12 21  1  0  0  0  0
 12 19  1  0  0  0  0
 12 13  1  0  0  0  0
 13 14  1  0  0  0  0
 14 22  1  0  0  0  0
 14 15  1  0  0  0  0
 14 17  1  0  0  0  0
 15 16  1  0  0  0  0
 15 28  1  0  0  0  0
 15 29  1  0  0  0  0
 16 30  1  0  0  0  0
 17 23  1  0  0  0  0
 17 18  1  0  0  0  0
 17 19  1  0  0  0  0
 18 31  1  0  0  0  0
 19 24  1  0  0  0  0
 19 20  1  0  0  0  0
M  END
> <s_m_source_file>
AV-unprocessed.smi

> <i_m_source_file_index>
158

> <i_lp_mmshare_version>
43012

> <i_f3d_flags>
0

> <s_epik_input>
Q2xjKG4xKW5jKFtOSDJdKWMoYzEyKW5bY0hdbjJbQ0BASF0zT1tDQEhdKFtDSDJdW09IXSlbQ0BASF0oW09IXSlbQ0BASF0zRg==

> <s_epik_cmdline>
J2VwaWtfcHl0aG9uJywgJy1waCcsICc3LjAnLCAnLXRuJywgJzgnLCAnLW1hJywgJzIwMCcsICctbWV0YWxfYmluZGluZycsICctaW1hZScsICc8aW5maWxlLm1hZT4nLCAnLW9tYWUnLCAnPG91dGZpbGUubWFlPic=

> <r_lp_tautomer_probability>
1

> <r_epik_Ionization_Penalty>
6.51543e-05

> <r_epik_Ionization_Penalty_Charging>
0

> <r_epik_Ionization_Penalty_Neutral>
6.51543e-05

> <r_epik_State_Penalty>
-0

> <r_epik_Charging_Adjusted_Penalty>
0

> <i_epik_Tot_Q>
0

> <i_epik_Tot_abs_Q>
0

> <r_epik_Metal_State_Penalty>
-0

> <b_epik_Metal_Only>
0

> <s_epik_Chemistry_Notes>
This compound contains an acetal/aminal-like group ( X-CH(R)-Y where X, Y are N, S, or O) that may be acid/base labile, releasing an aldehyde.

> <s_lp_Force_Field>
OPLS_2005

> <r_lp_Energy>
31.9678

> <b_lp_Chiralities_Consistent>
1

> <s_lp_Variant>
AV-unprocessed.smi:158-4

> <Gold.Version>
5.8.1

> <Gold.Id.Protein>
6NUR|6NUR_protein|mol2

> <Gold.PLP.Fitness>
34.9073

> <Gold.PLP.PLP>
-28.1177

> <Gold.PLP.part.hbond>
-3.5619

> <Gold.PLP.part.metal>
0.0000

> <Gold.PLP.part.buried>
-5.0934

> <Gold.PLP.part.nonpolar>
-21.4520

> <Gold.PLP.part.repulsive>
2.1804

> <Gold.PLP.ligand.clash>
0.0000

> <Gold.PLP.ligand.torsion>
0.3680

> <Gold.PLP.Chemscore.Hbond>
2.5040

> <Gold.PLP.Chemscore.CHOScore>
0.0000

> <Gold.PLP.Chemscore.Metal>
0.0000

> <Gold.Chemscore.Hbonds>
donor molecule, donor type, donor heavy atom, donor atom, acceptor molecule, acceptor atom, score
      L1  H     1    25       P1  8029  0.89
      L1  H    16    30       P1  7948  1.00
      P1  H  7989  7998       L1    18  0.53

> <Gold.PLP.Chemscore.Internal.Correction>
0.0136

> <Gold.Rescore>
     Score         DG    S(hbond)    S(metal)    S(lipo)     H(rot)  DE(clash)    DE(int)     intcor
      7.67      -7.99       1.69        0.00      41.43       3.12       0.01       0.31       ----

> <Gold.Chemscore.Fitness>
7.6734

> <Gold.Chemscore.DG>
-7.9872

> <Gold.Chemscore.ZeroCoef>
-5.4800

> <Gold.Chemscore.Hbond>
1.6932

> <Gold.Chemscore.Metal>
0.0000

> <Gold.Chemscore.Lipo>
41.4250

> <Gold.Chemscore.Internal_Hbond>
0.0000

> <Gold.Chemscore.DEClash>
0.0050

> <Gold.Chemscore.DEInternal>
0.3087

> <Gold.Chemscore.Rot>
3.1230

> <Gold.Chemscore.Internal.Correction>
   9.000000E+99

> <Gold.Chemscore.Hbonds>
donor molecule, donor type, donor heavy atom, donor atom, acceptor molecule, acceptor atom, score
      L1  H     1    25       P1  8029  0.29
      L1  H    16    30       P1  7948  0.98
      P1  H  7989  7998       L1    18  0.09

> <Gold.Chemscore.Hbond.Weighted>
-5.6554

> <Gold.Chemscore.Metal.Weighted>
-0.0000

> <Gold.Chemscore.Lipo.Weighted>
-4.8467

> <Gold.Chemscore.Internal_Hbond.Weighted>
0.0000

> <Gold.Chemscore.DEClash.Weighted>
0.0050

> <Gold.Chemscore.DEInternal.Weighted>
0.3087

> <Gold.Chemscore.Rot.Weighted>
7.9950

> <Gold.Chemscore.Internal.Correction.Weighted>
   9.000000E+99

> <Gold.Protein.RotatedTorsions>
[ 6907 6896 6895 6894 ] final  156.45 input  -60.11 | X-H torsion
[ 7974 7965 7964 7962 ] final   72.58 input  175.53 | X-H torsion
[ 8008 7997 7996 7995 ] final   76.12 input   59.86 | X-H torsion
[ 10167 10162 10161 10158 ] final   -1.37 input  -65.29 | X-H torsion
[ 10718 10713 10712 10709 ] final  147.75 input   66.30 | X-H torsion
[ 10763 10752 10751 10750 ] final -135.93 input  -60.55 | X-H torsion
[ 11005 11000 10999 10996 ] final   49.73 input  -57.11 | X-H torsion

> <Gold.Protein.ActiveResidues>
 VAL166  LYS551  ARG553  GLY616  TRP617  ASP618  TYR619  PRO620  LYS621  CYS622 
 ASP623  PHE694  ASN695  SER759  ASP760  ASP761  ALA762  ILE779  LEU786  VAL792 
 PHE793  MET794  SER795  GLU796  ALA797  LYS798  CYS799  TRP800  GLU811  SER814 

> <Gold.Protein.RotatedAtoms>
  152.0295  133.3931  159.4291 H   0  0  0  0  0  0  0  0  0  0  0  0  # atno 6907 bound_to 6896
  150.6883  134.3536  159.4929 H   0  0  0  0  0  0  0  0  0  0  0  0  # atno 6908 bound_to 6896
  152.1321  134.9126  160.0609 H   0  0  0  0  0  0  0  0  0  0  0  0  # atno 6909 bound_to 6896
  145.7516  139.2762  143.1428 H   0  0  0  0  0  0  0  0  0  0  0  0  # atno 7974 bound_to 7965
  155.8228  140.3469  155.5524 H   0  0  0  0  0  0  0  0  0  0  0  0  # atno 8008 bound_to 7997
  155.8324  140.0929  157.1804 H   0  0  0  0  0  0  0  0  0  0  0  0  # atno 8009 bound_to 7997
  154.4004  140.1409  156.3618 H   0  0  0  0  0  0  0  0  0  0  0  0  # atno 8010 bound_to 7997
  140.6807  143.6783  150.8126 H   0  0  0  0  0  0  0  0  0  0  0  0  # atno 10167 bound_to 10162
  157.3171  131.0898  151.1270 H   0  0  0  0  0  0  0  0  0  0  0  0  # atno 10718 bound_to 10713
  154.8694  135.3688  154.4978 H   0  0  0  0  0  0  0  0  0  0  0  0  # atno 10763 bound_to 10752
  153.5621  135.7022  153.5547 H   0  0  0  0  0  0  0  0  0  0  0  0  # atno 10764 bound_to 10752
  153.3619  135.4044  155.1688 H   0  0  0  0  0  0  0  0  0  0  0  0  # atno 10765 bound_to 10752
  140.1078  134.4995  155.8705 H   0  0  0  0  0  0  0  0  0  0  0  0  # atno 11005 bound_to 11000
  146.0351  140.8220  142.9856 LP  0  0  0  0  0  0  0  0  0  0  0  0  # atno 17320 bound_to 7965
  144.6848  140.2827  143.7290 LP  0  0  0  0  0  0  0  0  0  0  0  0  # atno 17321 bound_to 7965
  140.0483  143.5275  152.2685 LP  0  0  0  0  0  0  0  0  0  0  0  0  # atno 17342 bound_to 10162
  139.6128  144.7612  151.2914 LP  0  0  0  0  0  0  0  0  0  0  0  0  # atno 17343 bound_to 10162
  157.2569  130.6640  149.5957 LP  0  0  0  0  0  0  0  0  0  0  0  0  # atno 17370 bound_to 10713
  155.9682  130.4521  150.5760 LP  0  0  0  0  0  0  0  0  0  0  0  0  # atno 17371 bound_to 10713
  141.2122  133.6717  156.6645 LP  0  0  0  0  0  0  0  0  0  0  0  0  # atno 17394 bound_to 11000
  140.3132  134.8069  157.4193 LP  0  0  0  0  0  0  0  0  0  0  0  0  # atno 17395 bound_to 11000

$$$$
