AV-unprocessed.smi:1412|AV-procd|sdf|5743|dock2
  -GOLD-   22720 5373D 1   1.00000     0.00000
 Structure written by MMmdl.
 42 43  0  0  0  0  0  0  0  0  2 V2000
  148.2991  140.2789  156.1376 C   0  0  0  0  0  0  0  0  0  0  0  0
  147.3731  139.0878  155.8350 C   0  0  0  0  0  0  0  0  0  0  0  0
  147.6298  138.3453  154.4878 C   0  0  2  0  0  0  0  0  0  0  0  0
  147.5610  139.3669  153.3226 C   0  0  0  0  0  0  0  0  0  0  0  0
  146.5068  137.2860  154.2536 C   0  0  0  0  0  0  0  0  0  0  0  0
  146.7581  136.3894  153.1236 N   0  0  0  0  0  0  0  0  0  0  0  0
  145.8626  135.5565  152.5739 C   0  0  0  0  0  0  0  0  0  0  0  0
  144.6931  135.4754  152.9491 O   0  0  0  0  0  0  0  0  0  0  0  0
  146.4122  134.8400  151.5774 N   0  0  0  0  0  0  0  0  0  0  0  0
  145.7957  133.8561  150.7591 C   0  0  0  0  0  0  0  0  0  0  0  0
  146.4448  132.7952  150.2544 N   0  0  0  0  0  0  0  0  0  0  0  0
  145.6099  131.9909  149.4899 N   0  0  0  0  0  0  0  0  0  0  0  0
  144.3655  132.4753  149.4485 C   0  0  0  0  0  0  0  0  0  0  0  0
  144.0907  133.9602  150.3432 S   0  0  0  0  0  0  0  0  0  0  0  0
  148.9833  137.6763  154.4893 N   0  3  0  0  0  0  0  0  0  0  0  0
  150.1675  138.5812  154.4552 C   0  0  0  0  0  0  0  0  0  0  0  0
  151.4595  137.7698  154.2584 C   0  0  0  0  0  0  0  0  0  0  0  0
  151.5863  136.8043  155.2929 O   0  0  0  0  0  0  0  0  0  0  0  0
  150.5068  135.8811  155.2878 C   0  0  0  0  0  0  0  0  0  0  0  0
  149.1887  136.6325  155.5333 C   0  0  0  0  0  0  0  0  0  0  0  0
  148.0410  140.7230  157.0992 H   0  0  0  0  0  0  0  0  0  0  0  0
  148.2102  141.0651  155.3886 H   0  0  0  0  0  0  0  0  0  0  0  0
  149.3453  139.9796  156.1945 H   0  0  0  0  0  0  0  0  0  0  0  0
  147.4589  138.3895  156.6669 H   0  0  0  0  0  0  0  0  0  0  0  0
  146.3503  139.4620  155.8660 H   0  0  0  0  0  0  0  0  0  0  0  0
  146.5376  139.6841  153.1210 H   0  0  0  0  0  0  0  0  0  0  0  0
  147.9500  138.9469  152.3946 H   0  0  0  0  0  0  0  0  0  0  0  0
  148.1257  140.2743  153.5372 H   0  0  0  0  0  0  0  0  0  0  0  0
  146.3890  136.6596  155.1378 H   0  0  0  0  0  0  0  0  0  0  0  0
  145.5363  137.7688  154.1302 H   0  0  0  0  0  0  0  0  0  0  0  0
  147.6989  136.3768  152.7576 H   0  0  0  0  0  0  0  0  0  0  0  0
  147.3891  135.0075  151.3876 H   0  0  0  0  0  0  0  0  0  0  0  0
  143.6042  131.9542  148.8873 H   0  0  0  0  0  0  0  0  0  0  0  0
  150.1046  139.2998  153.6405 H   0  0  0  0  0  0  0  0  0  0  0  0
  150.2354  139.1502  155.3824 H   0  0  0  0  0  0  0  0  0  0  0  0
  151.4665  137.2800  153.2832 H   0  0  0  0  0  0  0  0  0  0  0  0
  152.3252  138.4316  154.2874 H   0  0  0  0  0  0  0  0  0  0  0  0
  150.4768  135.3370  154.3422 H   0  0  0  0  0  0  0  0  0  0  0  0
  150.6708  135.1439  156.0741 H   0  0  0  0  0  0  0  0  0  0  0  0
  149.2178  137.0877  156.5234 H   0  0  0  0  0  0  0  0  0  0  0  0
  148.3792  135.9050  155.5398 H   0  0  0  0  0  0  0  0  0  0  0  0
  149.0127  137.1798  153.6102 H   0  0  0  0  0  0  0  0  0  0  0  0
  1  2  1  0  0  0  0
  1 21  1  0  0  0  0
  1 22  1  0  0  0  0
  1 23  1  0  0  0  0
  2  3  1  0  0  0  0
  2 24  1  0  0  0  0
  2 25  1  0  0  0  0
  3  4  1  0  0  0  0
  3  5  1  0  0  0  0
  3 15  1  0  0  0  0
  4 26  1  0  0  0  0
  4 27  1  0  0  0  0
  4 28  1  0  0  0  0
  5  6  1  0  0  0  0
  5 29  1  0  0  0  0
  5 30  1  0  0  0  0
  6  7  1  0  0  0  0
  6 31  1  0  0  0  0
  7  8  2  0  0  0  0
  7  9  1  0  0  0  0
  9 10  1  0  0  0  0
  9 32  1  0  0  0  0
 10 14  1  0  0  0  0
 10 11  2  0  0  0  0
 11 12  1  0  0  0  0
 12 13  2  0  0  0  0
 13 14  1  0  0  0  0
 13 33  1  0  0  0  0
 15 20  1  0  0  0  0
 15 16  1  0  0  0  0
 15 42  1  0  0  0  0
 16 17  1  0  0  0  0
 16 34  1  0  0  0  0
 16 35  1  0  0  0  0
 17 18  1  0  0  0  0
 17 36  1  0  0  0  0
 17 37  1  0  0  0  0
 18 19  1  0  0  0  0
 19 20  1  0  0  0  0
 19 38  1  0  0  0  0
 19 39  1  0  0  0  0
 20 40  1  0  0  0  0
 20 41  1  0  0  0  0
M  CHG  1  15   1
M  END
> <s_m_source_file>
AV-unprocessed.smi

> <i_m_source_file_index>
1412

> <i_lp_mmshare_version>
43012

> <i_f3d_flags>
0

> <s_epik_input>
W0NIMl0xW0NIMl1PW0NIMl1bQ0gyXU4xW0NAQF0oW0NIM10pKFtDSDJdW0NIM10pW0NIMl1bTkhdQyg9TylbTkhdYzJubltjSF1zMg==

> <s_epik_cmdline>
J2VwaWtfcHl0aG9uJywgJy1waCcsICc3LjAnLCAnLXRuJywgJzgnLCAnLW1hJywgJzIwMCcsICctbWV0YWxfYmluZGluZycsICctaW1hZScsICc8aW5maWxlLm1hZT4nLCAnLW9tYWUnLCAnPG91dGZpbGUubWFlPic=

> <r_lp_tautomer_probability>
1

> <r_epik_Ionization_Penalty>
0.554649

> <r_epik_Ionization_Penalty_Charging>
0.553838

> <r_epik_Ionization_Penalty_Neutral>
0.000811527

> <r_epik_State_Penalty>
0.564424

> <r_epik_Charging_Adjusted_Penalty>
1.11826

> <i_epik_Tot_Q>
1

> <i_epik_Tot_abs_Q>
1

> <r_epik_Metal_State_Penalty>
0.786249

> <b_epik_Metal_Only>
0

> <s_lp_Force_Field>
OPLS_2005

> <r_lp_Energy>
32.8849

> <b_lp_Chiralities_Consistent>
1

> <s_lp_Variant>
AV-unprocessed.smi:1412-4

> <Gold.Version>
5.8.1

> <Gold.Id.Protein>
6NUR|6NUR_protein|mol2

> <Gold.PLP.Fitness>
38.8564

> <Gold.PLP.PLP>
-25.4067

> <Gold.PLP.part.hbond>
-3.9677

> <Gold.PLP.part.metal>
0.0000

> <Gold.PLP.part.buried>
-4.6747

> <Gold.PLP.part.nonpolar>
-18.3779

> <Gold.PLP.part.repulsive>
0.7616

> <Gold.PLP.ligand.clash>
0.0000

> <Gold.PLP.ligand.torsion>
0.4463

> <Gold.PLP.Chemscore.Hbond>
4.6960

> <Gold.PLP.Chemscore.CHOScore>
0.0000

> <Gold.PLP.Chemscore.Metal>
0.0000

> <Gold.Chemscore.Hbonds>
donor molecule, donor type, donor heavy atom, donor atom, acceptor molecule, acceptor atom, score
      L1  H     6    31       P1  7948  1.00
      L1  H     9    32       P1  7948  0.90
      L1  H    15    42       P1  7948  2.00
      P1  H 10752 10765       L1    18  0.85

> <Gold.PLP.Chemscore.Internal.Correction>
0.2543

> <Gold.Rescore>
     Score         DG    S(hbond)    S(metal)    S(lipo)     H(rot)  DE(clash)    DE(int)     intcor
     15.41     -16.36       2.69        0.00      57.99       1.91       0.27       0.69       ----

> <Gold.Chemscore.Fitness>
15.4077

> <Gold.Chemscore.DG>
-16.3617

> <Gold.Chemscore.ZeroCoef>
-5.4800

> <Gold.Chemscore.Hbond>
2.6937

> <Gold.Chemscore.Metal>
0.0000

> <Gold.Chemscore.Lipo>
57.9882

> <Gold.Chemscore.Internal_Hbond>
0.0000

> <Gold.Chemscore.DEClash>
0.2680

> <Gold.Chemscore.DEInternal>
0.6860

> <Gold.Chemscore.Rot>
1.9140

> <Gold.Chemscore.Internal.Correction>
   9.000000E+99

> <Gold.Chemscore.Hbonds>
donor molecule, donor type, donor heavy atom, donor atom, acceptor molecule, acceptor atom, score
      L1  H     6    31       P1  7948  0.94
      L1  H     9    32       P1  7948  0.52
      L1  H    15    42       P1  7948  0.98
      P1  H 10752 10765       L1    18  0.05

> <Gold.Chemscore.Hbond.Weighted>
-8.9969

> <Gold.Chemscore.Metal.Weighted>
-0.0000

> <Gold.Chemscore.Lipo.Weighted>
-6.7846

> <Gold.Chemscore.Internal_Hbond.Weighted>
0.0000

> <Gold.Chemscore.DEClash.Weighted>
0.2680

> <Gold.Chemscore.DEInternal.Weighted>
0.6860

> <Gold.Chemscore.Rot.Weighted>
4.8998

> <Gold.Chemscore.Internal.Correction.Weighted>
   9.000000E+99

> <Gold.Protein.RotatedTorsions>
[ 6907 6896 6895 6894 ] final   90.68 input  -60.11 | X-H torsion
[ 7974 7965 7964 7962 ] final  -66.17 input  175.53 | X-H torsion
[ 8008 7997 7996 7995 ] final  131.78 input   59.86 | X-H torsion
[ 10167 10162 10161 10158 ] final    6.23 input  -65.29 | X-H torsion
[ 10718 10713 10712 10709 ] final -171.52 input   66.30 | X-H torsion
[ 10763 10752 10751 10750 ] final  177.49 input  -60.55 | X-H torsion
[ 11005 11000 10999 10996 ] final  159.46 input  -57.11 | X-H torsion

> <Gold.Protein.ActiveResidues>
 VAL166  LYS551  ARG553  GLY616  TRP617  ASP618  TYR619  PRO620  LYS621  CYS622 
 ASP623  PHE694  ASN695  SER759  ASP760  ASP761  ALA762  ILE779  LEU786  VAL792 
 PHE793  MET794  SER795  GLU796  ALA797  LYS798  CYS799  TRP800  GLU811  SER814 

> <Gold.Protein.RotatedAtoms>
  152.5446  134.1773  159.8620 H   0  0  0  0  0  0  0  0  0  0  0  0  # atno 6907 bound_to 6896
  151.1779  133.4736  159.2601 H   0  0  0  0  0  0  0  0  0  0  0  0  # atno 6908 bound_to 6896
  151.1209  135.0090  159.8593 H   0  0  0  0  0  0  0  0  0  0  0  0  # atno 6909 bound_to 6896
  145.7451  140.8935  143.0509 H   0  0  0  0  0  0  0  0  0  0  0  0  # atno 7974 bound_to 7965
  156.2974  140.2562  156.2982 H   0  0  0  0  0  0  0  0  0  0  0  0  # atno 8008 bound_to 7997
  154.9443  140.0395  157.2131 H   0  0  0  0  0  0  0  0  0  0  0  0  # atno 8009 bound_to 7997
  154.8096  140.2842  155.5867 H   0  0  0  0  0  0  0  0  0  0  0  0  # atno 8010 bound_to 7997
  140.6439  143.7708  150.7469 H   0  0  0  0  0  0  0  0  0  0  0  0  # atno 10167 bound_to 10162
  156.7421  130.9346  151.3110 H   0  0  0  0  0  0  0  0  0  0  0  0  # atno 10718 bound_to 10713
  154.4951  135.2781  155.1465 H   0  0  0  0  0  0  0  0  0  0  0  0  # atno 10763 bound_to 10752
  154.3121  135.6227  153.5474 H   0  0  0  0  0  0  0  0  0  0  0  0  # atno 10764 bound_to 10752
  152.9894  135.5722  154.5381 H   0  0  0  0  0  0  0  0  0  0  0  0  # atno 10765 bound_to 10752
  140.1964  134.8370  157.2969 H   0  0  0  0  0  0  0  0  0  0  0  0  # atno 11005 bound_to 11000
  144.6862  139.9514  143.7478 LP  0  0  0  0  0  0  0  0  0  0  0  0  # atno 17320 bound_to 7965
  146.0411  139.3422  143.0697 LP  0  0  0  0  0  0  0  0  0  0  0  0  # atno 17321 bound_to 7965
  140.1345  143.4496  152.2233 LP  0  0  0  0  0  0  0  0  0  0  0  0  # atno 17342 bound_to 10162
  139.5649  144.7429  151.4051 LP  0  0  0  0  0  0  0  0  0  0  0  0  # atno 17343 bound_to 10162
  157.6814  130.9143  150.0276 LP  0  0  0  0  0  0  0  0  0  0  0  0  # atno 17370 bound_to 10713
  156.1457  130.3642  149.9513 LP  0  0  0  0  0  0  0  0  0  0  0  0  # atno 17371 bound_to 10713
  140.2103  134.4147  155.7616 LP  0  0  0  0  0  0  0  0  0  0  0  0  # atno 17394 bound_to 11000
  141.2227  133.7115  156.8326 LP  0  0  0  0  0  0  0  0  0  0  0  0  # atno 17395 bound_to 11000

$$$$
