AV-unprocessed.smi:1008|AV-procd|sdf|4411|dock10
  -GOLD-   22720 2353D 1   1.00000     0.00000
 Structure written by MMmdl.
 23 23  0  0  0  0  0  0  0  0  1 V2000
  151.8679  145.2678  158.9214 C   0  0  0  0  0  0  0  0  0  0  0  0
  151.7761  143.8116  158.5002 C   0  0  0  0  0  0  0  0  0  0  0  0
  150.9462  143.5777  157.4181 N   0  0  0  0  0  0  0  0  0  0  0  0
  150.7938  142.2775  156.9613 C   0  0  0  0  0  0  0  0  0  0  0  0
  149.9482  142.1504  155.8792 N   0  0  0  0  0  0  0  0  0  0  0  0
  151.3859  141.2500  157.4911 N   0  0  0  0  0  0  0  0  0  0  0  0
  152.2382  141.4239  158.5928 C   0  0  0  0  0  0  0  0  0  0  0  0
  152.8013  140.4573  159.1046 O   0  0  0  0  0  0  0  0  0  0  0  0
  152.4284  142.7946  159.1140 C   0  0  0  0  0  0  0  0  0  0  0  0
  153.3612  142.9977  160.3045 C   0  0  0  0  0  0  0  0  0  0  0  0
  152.8781  142.2467  161.5536 C   0  0  0  0  0  0  0  0  0  0  0  0
  151.7489  142.8966  162.0952 O   0  0  0  0  0  0  0  0  0  0  0  0
  149.7345  141.2711  155.4315 H   0  0  0  0  0  0  0  0  0  0  0  0
  151.5929  145.3784  159.9708 H   0  0  0  0  0  0  0  0  0  0  0  0
  151.2026  145.9005  158.3326 H   0  0  0  0  0  0  0  0  0  0  0  0
  152.8847  145.6384  158.7895 H   0  0  0  0  0  0  0  0  0  0  0  0
  149.4773  142.9353  155.4521 H   0  0  0  0  0  0  0  0  0  0  0  0
  150.4804  144.3688  156.9983 H   0  0  0  0  0  0  0  0  0  0  0  0
  153.4527  144.0595  160.5315 H   0  0  0  0  0  0  0  0  0  0  0  0
  154.3683  142.6740  160.0366 H   0  0  0  0  0  0  0  0  0  0  0  0
  152.6112  141.2188  161.3063 H   0  0  0  0  0  0  0  0  0  0  0  0
  153.6612  142.2083  162.3114 H   0  0  0  0  0  0  0  0  0  0  0  0
  151.5865  143.6827  161.5961 H   0  0  0  0  0  0  0  0  0  0  0  0
  1 14  1  0  0  0  0
  1 15  1  0  0  0  0
  1 16  1  0  0  0  0
  1  2  1  0  0  0  0
  2  9  2  0  0  0  0
  2  3  1  0  0  0  0
  3 18  1  0  0  0  0
  3  4  1  0  0  0  0
  4  5  1  0  0  0  0
  4  6  2  0  0  0  0
  5 17  1  0  0  0  0
  5 13  1  0  0  0  0
  6  7  1  0  0  0  0
  7  8  2  0  0  0  0
  7  9  1  0  0  0  0
  9 10  1  0  0  0  0
 10 11  1  0  0  0  0
 10 19  1  0  0  0  0
 10 20  1  0  0  0  0
 11 12  1  0  0  0  0
 11 21  1  0  0  0  0
 11 22  1  0  0  0  0
 12 23  1  0  0  0  0
M  END
> <s_m_source_file>
AV-unprocessed.smi

> <i_m_source_file_index>
1008

> <i_lp_mmshare_version>
43012

> <i_f3d_flags>
0

> <s_epik_input>
W0NIM11jMW5jKFtOSDJdKVtuSF1jKD1PKWMxW0NIMl1bQ0gyXVtPSF0=

> <s_epik_cmdline>
J2VwaWtfcHl0aG9uJywgJy1waCcsICc3LjAnLCAnLXRuJywgJzgnLCAnLW1hJywgJzIwMCcsICctbWV0YWxfYmluZGluZycsICctaW1hZScsICc8aW5maWxlLm1hZT4nLCAnLW9tYWUnLCAnPG91dGZpbGUubWFlPic=

> <r_lp_tautomer_probability>
0.108277

> <r_epik_Ionization_Penalty>
0.666207

> <r_epik_Ionization_Penalty_Charging>
0.00797854

> <r_epik_Ionization_Penalty_Neutral>
0.658229

> <r_epik_State_Penalty>
1.38976

> <r_epik_Charging_Adjusted_Penalty>
1.39774

> <i_epik_Tot_Q>
0

> <i_epik_Tot_abs_Q>
0

> <r_epik_Metal_State_Penalty>
0.86313

> <b_epik_Metal_Only>
0

> <s_lp_Force_Field>
OPLS_2005

> <r_lp_Energy>
8.84659

> <b_lp_Chiralities_Consistent>
1

> <s_lp_Variant>
AV-unprocessed.smi:1008-2

> <Gold.Version>
5.8.1

> <Gold.Id.Protein>
6NUR|6NUR_protein|mol2

> <Gold.PLP.Fitness>
37.6343

> <Gold.PLP.PLP>
-30.0987

> <Gold.PLP.part.hbond>
-4.0000

> <Gold.PLP.part.metal>
0.0000

> <Gold.PLP.part.buried>
-5.5416

> <Gold.PLP.part.nonpolar>
-21.4080

> <Gold.PLP.part.repulsive>
0.1554

> <Gold.PLP.ligand.clash>
0.0000

> <Gold.PLP.ligand.torsion>
0.0430

> <Gold.PLP.Chemscore.Hbond>
2.5404

> <Gold.PLP.Chemscore.CHOScore>
0.0000

> <Gold.PLP.Chemscore.Metal>
0.0000

> <Gold.Chemscore.Hbonds>
donor molecule, donor type, donor heavy atom, donor atom, acceptor molecule, acceptor atom, score
      L1  H     3    18       P1  8028  0.69
      L1  H     5    17       P1  8028  0.94
      P1  H  6933  6945       L1    12  0.83

> <Gold.PLP.Chemscore.Internal.Correction>
0.0003

> <Gold.Rescore>
     Score         DG    S(hbond)    S(metal)    S(lipo)     H(rot)  DE(clash)    DE(int)     intcor
     15.15     -15.27       2.41        0.00      60.00       2.06       0.06       0.07       ----

> <Gold.Chemscore.Fitness>
15.1519

> <Gold.Chemscore.DG>
-15.2733

> <Gold.Chemscore.ZeroCoef>
-5.4800

> <Gold.Chemscore.Hbond>
2.4089

> <Gold.Chemscore.Metal>
0.0000

> <Gold.Chemscore.Lipo>
59.9996

> <Gold.Chemscore.Internal_Hbond>
0.0000

> <Gold.Chemscore.DEClash>
0.0558

> <Gold.Chemscore.DEInternal>
0.0657

> <Gold.Chemscore.Rot>
2.0595

> <Gold.Chemscore.Internal.Correction>
   9.000000E+99

> <Gold.Chemscore.Hbonds>
donor molecule, donor type, donor heavy atom, donor atom, acceptor molecule, acceptor atom, score
      L1  H     3    18       P1  8028  0.60
      L1  H     5    17       P1  8028  0.91
      P1  H  6933  6945       L1    12  0.53

> <Gold.Chemscore.Hbond.Weighted>
-8.0458

> <Gold.Chemscore.Metal.Weighted>
-0.0000

> <Gold.Chemscore.Lipo.Weighted>
-7.0200

> <Gold.Chemscore.Internal_Hbond.Weighted>
0.0000

> <Gold.Chemscore.DEClash.Weighted>
0.0558

> <Gold.Chemscore.DEInternal.Weighted>
0.0657

> <Gold.Chemscore.Rot.Weighted>
5.2724

> <Gold.Chemscore.Internal.Correction.Weighted>
   9.000000E+99

> <Gold.Protein.RotatedTorsions>
[ 6907 6896 6895 6894 ] final   99.93 input  -60.11 | X-H torsion
[ 7974 7965 7964 7962 ] final  -53.64 input  175.53 | X-H torsion
[ 8008 7997 7996 7995 ] final   29.16 input   59.86 | X-H torsion
[ 10167 10162 10161 10158 ] final   40.74 input  -65.29 | X-H torsion
[ 10718 10713 10712 10709 ] final  -25.63 input   66.30 | X-H torsion
[ 10763 10752 10751 10750 ] final  -94.56 input  -60.55 | X-H torsion
[ 11005 11000 10999 10996 ] final   71.70 input  -57.11 | X-H torsion

> <Gold.Protein.ActiveResidues>
 VAL166  LYS551  ARG553  GLY616  TRP617  ASP618  TYR619  PRO620  LYS621  CYS622 
 ASP623  PHE694  ASN695  SER759  ASP760  ASP761  ALA762  ILE779  LEU786  VAL792 
 PHE793  MET794  SER795  GLU796  ALA797  LYS798  CYS799  TRP800  GLU811  SER814 

> <Gold.Protein.RotatedAtoms>
  152.5382  134.0353  159.8043 H   0  0  0  0  0  0  0  0  0  0  0  0  # atno 6907 bound_to 6896
  151.0518  133.5610  159.2649 H   0  0  0  0  0  0  0  0  0  0  0  0  # atno 6908 bound_to 6896
  151.2542  135.0640  159.9127 H   0  0  0  0  0  0  0  0  0  0  0  0  # atno 6909 bound_to 6896
  145.8946  140.8043  142.9774 H   0  0  0  0  0  0  0  0  0  0  0  0  # atno 7974 bound_to 7965
  155.0701  140.3199  155.4633 H   0  0  0  0  0  0  0  0  0  0  0  0  # atno 8008 bound_to 7997
  156.2792  140.2113  156.5773 H   0  0  0  0  0  0  0  0  0  0  0  0  # atno 8009 bound_to 7997
  154.7062  140.0502  157.0493 H   0  0  0  0  0  0  0  0  0  0  0  0  # atno 8010 bound_to 7997
  140.3712  144.2103  150.6133 H   0  0  0  0  0  0  0  0  0  0  0  0  # atno 10167 bound_to 10162
  156.4618  130.4505  149.6924 H   0  0  0  0  0  0  0  0  0  0  0  0  # atno 10718 bound_to 10713
  154.7067  135.5153  153.8605 H   0  0  0  0  0  0  0  0  0  0  0  0  # atno 10763 bound_to 10752
  153.0747  135.6612  154.0181 H   0  0  0  0  0  0  0  0  0  0  0  0  # atno 10764 bound_to 10752
  154.0030  135.3009  155.3380 H   0  0  0  0  0  0  0  0  0  0  0  0  # atno 10765 bound_to 10752
  139.9529  134.7195  156.0820 H   0  0  0  0  0  0  0  0  0  0  0  0  # atno 11005 bound_to 11000
  144.6732  140.1582  143.7424 LP  0  0  0  0  0  0  0  0  0  0  0  0  # atno 17320 bound_to 7965
  145.8867  139.2352  143.1574 LP  0  0  0  0  0  0  0  0  0  0  0  0  # atno 17321 bound_to 7965
  140.5032  143.2312  151.8648 LP  0  0  0  0  0  0  0  0  0  0  0  0  # atno 17342 bound_to 10162
  139.4803  144.5036  151.9028 LP  0  0  0  0  0  0  0  0  0  0  0  0  # atno 17343 bound_to 10162
  156.3709  130.7530  151.2513 LP  0  0  0  0  0  0  0  0  0  0  0  0  # atno 17370 bound_to 10713
  157.7497  131.0323  150.4222 LP  0  0  0  0  0  0  0  0  0  0  0  0  # atno 17371 bound_to 10713
  141.1195  133.6617  156.3180 LP  0  0  0  0  0  0  0  0  0  0  0  0  # atno 17394 bound_to 11000
  140.5676  134.5872  157.5449 LP  0  0  0  0  0  0  0  0  0  0  0  0  # atno 17395 bound_to 11000

$$$$
