AV-unprocessed.smi:3202|AV-procd|sdf|12248|dock10
  -GOLD-   2272018 83D 1   1.00000     0.00000
 Structure written by MMmdl.
 43 44  0  0  0  0  0  0  0  0  2 V2000
  152.3150  140.8831  158.6525 C   0  0  0  0  0  0  0  0  0  0  0  0
  152.0037  140.0892  157.4181 C   0  0  0  0  0  0  0  0  0  0  0  0
  151.0427  140.3774  156.4052 C   0  0  0  0  0  0  0  0  0  0  0  0
  151.1599  139.3402  155.5231 C   0  0  0  0  0  0  0  0  0  0  0  0
  150.4290  139.0381  154.2550 C   0  0  0  0  0  0  0  0  0  0  0  0
  148.9101  139.2875  154.3280 C   0  0  1  0  0  0  0  0  0  0  0  0
  148.5573  140.7772  154.4685 C   0  0  0  0  0  0  0  0  0  0  0  0
  148.2557  138.7369  153.1202 N   0  3  0  0  0  0  0  0  0  0  0  0
  146.7783  138.6593  153.1729 C   0  0  1  0  0  0  0  0  0  0  0  0
  146.1639  137.9967  151.9314 C   0  0  0  0  0  0  0  0  0  0  0  0
  144.8320  137.3972  152.4004 C   0  0  0  0  0  0  0  0  0  0  0  0
  144.7989  137.5596  153.9271 C   0  0  0  0  0  0  0  0  0  0  0  0
  146.2470  137.8392  154.3683 C   0  0  0  0  0  0  0  0  0  0  0  0
  147.0025  136.5040  154.5645 C   0  0  0  0  0  0  0  0  0  0  0  0
  146.2834  138.6489  155.6780 C   0  0  0  0  0  0  0  0  0  0  0  0
  152.1444  138.5193  156.0244 N   0  0  0  0  0  0  0  0  0  0  0  0
  152.6658  138.9667  157.1815 N   0  0  0  0  0  0  0  0  0  0  0  0
  152.4677  137.6633  155.5961 H   0  0  0  0  0  0  0  0  0  0  0  0
  151.7734  141.8293  158.6598 H   0  0  0  0  0  0  0  0  0  0  0  0
  153.3794  141.1105  158.7180 H   0  0  0  0  0  0  0  0  0  0  0  0
  152.0339  140.3346  159.5517 H   0  0  0  0  0  0  0  0  0  0  0  0
  150.3661  141.2168  156.3415 H   0  0  0  0  0  0  0  0  0  0  0  0
  150.6117  137.9981  153.9810 H   0  0  0  0  0  0  0  0  0  0  0  0
  150.8566  139.6363  153.4493 H   0  0  0  0  0  0  0  0  0  0  0  0
  148.5267  138.7762  155.2123 H   0  0  0  0  0  0  0  0  0  0  0  0
  148.9684  141.2017  155.3847 H   0  0  0  0  0  0  0  0  0  0  0  0
  147.4767  140.9209  154.5048 H   0  0  0  0  0  0  0  0  0  0  0  0
  148.9425  141.3581  153.6299 H   0  0  0  0  0  0  0  0  0  0  0  0
  148.5132  139.3046  152.3256 H   0  0  0  0  0  0  0  0  0  0  0  0
  146.3830  139.6742  153.2520 H   0  0  0  0  0  0  0  0  0  0  0  0
  146.0270  138.7060  151.1146 H   0  0  0  0  0  0  0  0  0  0  0  0
  146.8105  137.1991  151.5622 H   0  0  0  0  0  0  0  0  0  0  0  0
  143.9814  137.8994  151.9386 H   0  0  0  0  0  0  0  0  0  0  0  0
  144.7774  136.3438  152.1229 H   0  0  0  0  0  0  0  0  0  0  0  0
  144.1649  138.4138  154.1702 H   0  0  0  0  0  0  0  0  0  0  0  0
  144.3627  136.6928  154.4253 H   0  0  0  0  0  0  0  0  0  0  0  0
  146.5307  135.8983  155.3392 H   0  0  0  0  0  0  0  0  0  0  0  0
  148.0355  136.6669  154.8731 H   0  0  0  0  0  0  0  0  0  0  0  0
  147.0215  135.9047  153.6540 H   0  0  0  0  0  0  0  0  0  0  0  0
  145.8304  138.0911  156.4984 H   0  0  0  0  0  0  0  0  0  0  0  0
  145.7415  139.5907  155.5853 H   0  0  0  0  0  0  0  0  0  0  0  0
  147.3072  138.8877  155.9675 H   0  0  0  0  0  0  0  0  0  0  0  0
  148.6146  137.8045  152.9720 H   0  0  0  0  0  0  0  0  0  0  0  0
  1 19  1  0  0  0  0
  1 20  1  0  0  0  0
  1 21  1  0  0  0  0
  1  2  1  0  0  0  0
  2 17  2  0  0  0  0
  2  3  1  0  0  0  0
  3  4  2  0  0  0  0
  3 22  1  0  0  0  0
  4 16  1  0  0  0  0
  4  5  1  0  0  0  0
  5  6  1  0  0  0  0
  5 23  1  0  0  0  0
  5 24  1  0  0  0  0
  6  7  1  0  0  0  0
  6  8  1  0  0  0  0
  6 25  1  0  0  0  0
  7 26  1  0  0  0  0
  7 27  1  0  0  0  0
  7 28  1  0  0  0  0
  8  9  1  0  0  0  0
  8 29  1  0  0  0  0
  8 43  1  0  0  0  0
  9 13  1  0  0  0  0
  9 10  1  0  0  0  0
  9 30  1  0  0  0  0
 10 11  1  0  0  0  0
 10 31  1  0  0  0  0
 10 32  1  0  0  0  0
 11 12  1  0  0  0  0
 11 33  1  0  0  0  0
 11 34  1  0  0  0  0
 12 13  1  0  0  0  0
 12 35  1  0  0  0  0
 12 36  1  0  0  0  0
 13 14  1  0  0  0  0
 13 15  1  0  0  0  0
 14 37  1  0  0  0  0
 14 38  1  0  0  0  0
 14 39  1  0  0  0  0
 15 40  1  0  0  0  0
 15 41  1  0  0  0  0
 15 42  1  0  0  0  0
 16 17  1  0  0  0  0
 16 18  1  0  0  0  0
M  CHG  1   8   1
M  END
> <s_m_source_file>
AV-unprocessed.smi

> <i_m_source_file_index>
3202

> <i_lp_mmshare_version>
43012

> <i_f3d_flags>
0

> <s_epik_input>
W0NIM11jMVtjSF1jKG5bbkhdMSlbQ0gyXVtDQEhdKFtDSDNdKVtOSF1bQ0BASF0oQzIoW0NIM10pW0NIM10pW0NIMl1bQ0gyXVtDSDJdMg==

> <s_epik_cmdline>
J2VwaWtfcHl0aG9uJywgJy1waCcsICc3LjAnLCAnLXRuJywgJzgnLCAnLW1hJywgJzIwMCcsICctbWV0YWxfYmluZGluZycsICctaW1hZScsICc8aW5maWxlLm1hZT4nLCAnLW9tYWUnLCAnPG91dGZpbGUubWFlPic=

> <r_lp_tautomer_probability>
0.5

> <r_epik_Ionization_Penalty>
0.000449684

> <r_epik_Ionization_Penalty_Charging>
0.000404963

> <r_epik_Ionization_Penalty_Neutral>
4.47208e-05

> <r_epik_State_Penalty>
0.41068

> <r_epik_Charging_Adjusted_Penalty>
0.411085

> <i_epik_Tot_Q>
1

> <i_epik_Tot_abs_Q>
1

> <r_epik_Metal_State_Penalty>
0.410687

> <b_epik_Metal_Only>
0

> <s_lp_Force_Field>
OPLS_2005

> <r_lp_Energy>
32.3918

> <b_lp_Chiralities_Consistent>
1

> <s_lp_Variant>
AV-unprocessed.smi:3202-8

> <Gold.Version>
5.8.1

> <Gold.Id.Protein>
6NUR|6NUR_protein|mol2

> <Gold.PLP.Fitness>
37.2305

> <Gold.PLP.PLP>
-26.0224

> <Gold.PLP.part.hbond>
-3.0000

> <Gold.PLP.part.metal>
0.0000

> <Gold.PLP.part.buried>
-1.3782

> <Gold.PLP.part.nonpolar>
-22.3429

> <Gold.PLP.part.repulsive>
0.2216

> <Gold.PLP.ligand.clash>
0.0000

> <Gold.PLP.ligand.torsion>
0.3301

> <Gold.PLP.Chemscore.Hbond>
3.9520

> <Gold.PLP.Chemscore.CHOScore>
0.0000

> <Gold.PLP.Chemscore.Metal>
0.0000

> <Gold.Chemscore.Hbonds>
donor molecule, donor type, donor heavy atom, donor atom, acceptor molecule, acceptor atom, score
      L1  H     8    29       P1  7957  1.00
      L1  H     8    43       P1  7948  2.00
      P1  H  7997  8009       L1    17  0.41

> <Gold.PLP.Chemscore.Internal.Correction>
0.0123

> <Gold.Rescore>
     Score         DG    S(hbond)    S(metal)    S(lipo)     H(rot)  DE(clash)    DE(int)     intcor
     18.38     -19.07       2.55        0.00      75.37       1.46       0.39       0.30       ----

> <Gold.Chemscore.Fitness>
18.3810

> <Gold.Chemscore.DG>
-19.0714

> <Gold.Chemscore.ZeroCoef>
-5.4800

> <Gold.Chemscore.Hbond>
2.5477

> <Gold.Chemscore.Metal>
0.0000

> <Gold.Chemscore.Lipo>
75.3720

> <Gold.Chemscore.Internal_Hbond>
0.0000

> <Gold.Chemscore.DEClash>
0.3946

> <Gold.Chemscore.DEInternal>
0.2958

> <Gold.Chemscore.Rot>
1.4596

> <Gold.Chemscore.Internal.Correction>
   9.000000E+99

> <Gold.Chemscore.Hbonds>
donor molecule, donor type, donor heavy atom, donor atom, acceptor molecule, acceptor atom, score
      L1  H     8    29       P1  7957  0.99
      L1  H     8    43       P1  7948  0.96
      P1  H  7997  8009       L1    17  0.02

> <Gold.Chemscore.Hbond.Weighted>
-8.5094

> <Gold.Chemscore.Metal.Weighted>
-0.0000

> <Gold.Chemscore.Lipo.Weighted>
-8.8185

> <Gold.Chemscore.Internal_Hbond.Weighted>
0.0000

> <Gold.Chemscore.DEClash.Weighted>
0.3946

> <Gold.Chemscore.DEInternal.Weighted>
0.2958

> <Gold.Chemscore.Rot.Weighted>
3.7365

> <Gold.Chemscore.Internal.Correction.Weighted>
   9.000000E+99

> <Gold.Protein.RotatedTorsions>
[ 6907 6896 6895 6894 ] final -162.38 input  -60.11 | X-H torsion
[ 7974 7965 7964 7962 ] final -177.40 input  175.53 | X-H torsion
[ 8008 7997 7996 7995 ] final  159.93 input   59.86 | X-H torsion
[ 10167 10162 10161 10158 ] final   44.38 input  -65.29 | X-H torsion
[ 10718 10713 10712 10709 ] final -154.63 input   66.30 | X-H torsion
[ 10763 10752 10751 10750 ] final  -51.38 input  -60.55 | X-H torsion
[ 11005 11000 10999 10996 ] final   29.29 input  -57.11 | X-H torsion

> <Gold.Protein.ActiveResidues>
 VAL166  LYS551  ARG553  GLY616  TRP617  ASP618  TYR619  PRO620  LYS621  CYS622 
 ASP623  PHE694  ASN695  SER759  ASP760  ASP761  ALA762  ILE779  LEU786  VAL792 
 PHE793  MET794  SER795  GLU796  ALA797  LYS798  CYS799  TRP800  GLU811  SER814 

> <Gold.Protein.RotatedAtoms>
  151.3794  133.3826  159.2708 H   0  0  0  0  0  0  0  0  0  0  0  0  # atno 6907 bound_to 6896
  150.9589  134.8981  159.7729 H   0  0  0  0  0  0  0  0  0  0  0  0  # atno 6908 bound_to 6896
  152.5142  134.3752  159.9384 H   0  0  0  0  0  0  0  0  0  0  0  0  # atno 6909 bound_to 6896
  144.7127  140.1025  143.6415 H   0  0  0  0  0  0  0  0  0  0  0  0  # atno 7974 bound_to 7965
  156.2206  140.1818  156.7485 H   0  0  0  0  0  0  0  0  0  0  0  0  # atno 8008 bound_to 7997
  154.5860  140.0658  156.9200 H   0  0  0  0  0  0  0  0  0  0  0  0  # atno 8009 bound_to 7997
  155.2419  140.3322  155.4294 H   0  0  0  0  0  0  0  0  0  0  0  0  # atno 8010 bound_to 7997
  140.3349  144.2543  150.6163 H   0  0  0  0  0  0  0  0  0  0  0  0  # atno 10167 bound_to 10162
  156.5019  130.8395  151.2612 H   0  0  0  0  0  0  0  0  0  0  0  0  # atno 10718 bound_to 10713
  154.1257  135.6528  153.4912 H   0  0  0  0  0  0  0  0  0  0  0  0  # atno 10763 bound_to 10752
  153.0211  135.5281  154.7052 H   0  0  0  0  0  0  0  0  0  0  0  0  # atno 10764 bound_to 10752
  154.6272  135.2972  155.0228 H   0  0  0  0  0  0  0  0  0  0  0  0  # atno 10765 bound_to 10752
  140.3065  134.2697  155.7743 H   0  0  0  0  0  0  0  0  0  0  0  0  # atno 11005 bound_to 11000
  145.9525  139.2744  143.1203 LP  0  0  0  0  0  0  0  0  0  0  0  0  # atno 17320 bound_to 7965
  145.9307  140.9050  143.0358 LP  0  0  0  0  0  0  0  0  0  0  0  0  # atno 17321 bound_to 7965
  140.5363  143.2232  151.8157 LP  0  0  0  0  0  0  0  0  0  0  0  0  # atno 17342 bound_to 10162
  139.4850  144.4657  151.9487 LP  0  0  0  0  0  0  0  0  0  0  0  0  # atno 17343 bound_to 10162
  157.7462  130.9979  150.2832 LP  0  0  0  0  0  0  0  0  0  0  0  0  # atno 17370 bound_to 10713
  156.3324  130.3802  149.7479 LP  0  0  0  0  0  0  0  0  0  0  0  0  # atno 17371 bound_to 10713
  141.2117  133.7680  156.9845 LP  0  0  0  0  0  0  0  0  0  0  0  0  # atno 17394 bound_to 11000
  140.1062  134.9505  157.1998 LP  0  0  0  0  0  0  0  0  0  0  0  0  # atno 17395 bound_to 11000

$$$$
