AV-unprocessed.smi:1920|AV-procd|sdf|7782|dock4
  -GOLD-   22720 9523D 1   1.00000     0.00000
 Structure written by MMmdl.
 36 37  0  0  0  0  0  0  0  0  1 V2000
  146.5339  142.0610  154.5712 C   0  0  0  0  0  0  0  0  0  0  0  0
  147.7526  141.3464  155.1757 C   0  0  1  0  0  0  0  0  0  0  0  0
  148.7637  140.9389  154.0874 C   0  0  0  0  0  0  0  0  0  0  0  0
  149.7636  140.0111  154.5836 N   0  0  0  0  0  0  0  0  0  0  0  0
  150.0632  138.7533  154.0771 C   0  0  0  0  0  0  0  0  0  0  0  0
  151.0697  138.2419  154.8648 C   0  0  0  0  0  0  0  0  0  0  0  0
  151.4048  139.1634  155.8542 N   0  0  0  0  0  0  0  0  0  0  0  0
  150.5912  140.1856  155.6230 C   0  0  0  0  0  0  0  0  0  0  0  0
  148.3966  142.2125  156.1611 N   0  0  0  0  0  0  0  0  0  0  0  0
  148.6616  141.8798  157.4335 C   0  0  0  0  0  0  0  0  0  0  0  0
  148.3930  140.7798  157.9165 O   0  0  0  0  0  0  0  0  0  0  0  0
  149.3290  142.9563  158.2956 C   0  0  0  0  0  0  0  0  0  0  0  0
  150.8043  143.2143  157.9192 C   0  0  2  0  0  0  0  0  0  0  0  0
  151.7586  142.1675  158.4430 C   0  0  0  0  0  0  0  0  0  0  0  0
  152.7795  142.6942  159.1153 C   0  0  0  0  0  0  0  0  0  0  0  0
  152.7145  144.1950  159.1766 C   0  0  0  0  0  0  0  0  0  0  0  0
  151.3643  144.5347  158.5072 C   0  0  0  0  0  0  0  0  0  0  0  0
  146.0251  141.4232  153.8481 H   0  0  0  0  0  0  0  0  0  0  0  0
  146.8254  142.9786  154.0590 H   0  0  0  0  0  0  0  0  0  0  0  0
  145.8078  142.3256  155.3405 H   0  0  0  0  0  0  0  0  0  0  0  0
  147.4021  140.4373  155.6682 H   0  0  0  0  0  0  0  0  0  0  0  0
  148.2470  140.4587  153.2553 H   0  0  0  0  0  0  0  0  0  0  0  0
  149.2662  141.8168  153.6780 H   0  0  0  0  0  0  0  0  0  0  0  0
  149.5479  138.3371  153.2241 H   0  0  0  0  0  0  0  0  0  0  0  0
  151.5747  137.2897  154.7954 H   0  0  0  0  0  0  0  0  0  0  0  0
  150.5947  141.0815  156.2265 H   0  0  0  0  0  0  0  0  0  0  0  0
  148.6552  143.1387  155.8528 H   0  0  0  0  0  0  0  0  0  0  0  0
  148.7571  143.8782  158.1845 H   0  0  0  0  0  0  0  0  0  0  0  0
  149.2602  142.6774  159.3485 H   0  0  0  0  0  0  0  0  0  0  0  0
  150.9091  143.2333  156.8333 H   0  0  0  0  0  0  0  0  0  0  0  0
  151.6166  141.1119  158.2622 H   0  0  0  0  0  0  0  0  0  0  0  0
  153.5867  142.1331  159.5625 H   0  0  0  0  0  0  0  0  0  0  0  0
  152.7565  144.5433  160.2089 H   0  0  0  0  0  0  0  0  0  0  0  0
  153.5548  144.6222  158.6286 H   0  0  0  0  0  0  0  0  0  0  0  0
  151.4818  145.2961  157.7353 H   0  0  0  0  0  0  0  0  0  0  0  0
  150.6829  144.9437  159.2544 H   0  0  0  0  0  0  0  0  0  0  0  0
  1  2  1  0  0  0  0
  1 18  1  0  0  0  0
  1 19  1  0  0  0  0
  1 20  1  0  0  0  0
  2  3  1  0  0  0  0
  2  9  1  0  0  0  0
  2 21  1  0  0  0  0
  3  4  1  0  0  0  0
  3 22  1  0  0  0  0
  3 23  1  0  0  0  0
  4  8  1  0  0  0  0
  4  5  1  0  0  0  0
  5  6  2  0  0  0  0
  5 24  1  0  0  0  0
  6  7  1  0  0  0  0
  6 25  1  0  0  0  0
  7  8  2  0  0  0  0
  8 26  1  0  0  0  0
  9 10  1  0  0  0  0
  9 27  1  0  0  0  0
 10 11  2  0  0  0  0
 10 12  1  0  0  0  0
 12 13  1  0  0  0  0
 12 28  1  0  0  0  0
 12 29  1  0  0  0  0
 13 17  1  0  0  0  0
 13 14  1  0  0  0  0
 13 30  1  0  0  0  0
 14 15  2  0  0  0  0
 14 31  1  0  0  0  0
 15 16  1  0  0  0  0
 15 32  1  0  0  0  0
 16 17  1  0  0  0  0
 16 33  1  0  0  0  0
 16 34  1  0  0  0  0
 17 35  1  0  0  0  0
 17 36  1  0  0  0  0
M  END
> <s_m_source_file>
AV-unprocessed.smi

> <i_m_source_file_index>
1920

> <i_lp_mmshare_version>
43012

> <i_f3d_flags>
0

> <s_epik_input>
W2NIXTFuW2NIXVtjSF1uMVtDSDJdW0NAQEhdKFtDSDNdKVtOSF1DKD1PKVtDSDJdW0NAQEhdMltDSF09W0NIXVtDSDJdW0NIMl0y

> <s_epik_cmdline>
J2VwaWtfcHl0aG9uJywgJy1waCcsICc3LjAnLCAnLXRuJywgJzgnLCAnLW1hJywgJzIwMCcsICctbWV0YWxfYmluZGluZycsICctaW1hZScsICc8aW5maWxlLm1hZT4nLCAnLW9tYWUnLCAnPG91dGZpbGUubWFlPic=

> <r_lp_tautomer_probability>
1

> <r_epik_Ionization_Penalty>
0.635367

> <r_epik_Ionization_Penalty_Charging>
0.635367

> <r_epik_Ionization_Penalty_Neutral>
2.1249e-08

> <r_epik_State_Penalty>
0.65258

> <r_epik_Charging_Adjusted_Penalty>
1.28795

> <i_epik_Tot_Q>
0

> <i_epik_Tot_abs_Q>
0

> <r_epik_Metal_State_Penalty>
0.310403

> <b_epik_Metal_Only>
0

> <s_lp_Force_Field>
OPLS_2005

> <r_lp_Energy>
19.6981

> <b_lp_Chiralities_Consistent>
1

> <s_lp_Variant>
AV-unprocessed.smi:1920-6

> <Gold.Version>
5.8.1

> <Gold.Id.Protein>
6NUR|6NUR_protein|mol2

> <Gold.PLP.Fitness>
44.5175

> <Gold.PLP.PLP>
-37.4256

> <Gold.PLP.part.hbond>
-1.0000

> <Gold.PLP.part.metal>
0.0000

> <Gold.PLP.part.buried>
-1.7622

> <Gold.PLP.part.nonpolar>
-34.3563

> <Gold.PLP.part.repulsive>
0.0676

> <Gold.PLP.ligand.clash>
0.0000

> <Gold.PLP.ligand.torsion>
0.3958

> <Gold.PLP.Chemscore.Hbond>
1.0000

> <Gold.PLP.Chemscore.CHOScore>
1.6129

> <Gold.PLP.Chemscore.Metal>
0.0000

> <Gold.Chemscore.Hbonds>
donor molecule, donor type, donor heavy atom, donor atom, acceptor molecule, acceptor atom, score
      L1  H     9    27       P1  8028  1.00
      L1  C     5    24       P1  7948  0.98
      L1  C     5    24       P1  7957  0.42

> <Gold.PLP.Chemscore.Internal.Correction>
0.0448

> <Gold.Rescore>
     Score         DG    S(hbond)    S(metal)    S(lipo)     H(rot)  DE(clash)    DE(int)     intcor
     14.73     -15.10       1.00        0.00      96.00       1.93       0.07       0.30       ----

> <Gold.Chemscore.Fitness>
14.7299

> <Gold.Chemscore.DG>
-15.1004

> <Gold.Chemscore.ZeroCoef>
-5.4800

> <Gold.Chemscore.Hbond>
0.9972

> <Gold.Chemscore.Metal>
0.0000

> <Gold.Chemscore.Lipo>
96.0011

> <Gold.Chemscore.Internal_Hbond>
0.0000

> <Gold.Chemscore.DEClash>
0.0683

> <Gold.Chemscore.DEInternal>
0.3022

> <Gold.Chemscore.Rot>
1.9306

> <Gold.Chemscore.Internal.Correction>
   9.000000E+99

> <Gold.Chemscore.Hbonds>
donor molecule, donor type, donor heavy atom, donor atom, acceptor molecule, acceptor atom, score
      L1  H     9    27       P1  8028  0.98

> <Gold.Chemscore.Hbond.Weighted>
-3.3307

> <Gold.Chemscore.Metal.Weighted>
-0.0000

> <Gold.Chemscore.Lipo.Weighted>
-11.2321

> <Gold.Chemscore.Internal_Hbond.Weighted>
0.0000

> <Gold.Chemscore.DEClash.Weighted>
0.0683

> <Gold.Chemscore.DEInternal.Weighted>
0.3022

> <Gold.Chemscore.Rot.Weighted>
4.9424

> <Gold.Chemscore.Internal.Correction.Weighted>
   9.000000E+99

> <Gold.Protein.RotatedTorsions>
[ 6907 6896 6895 6894 ] final  173.22 input  -60.11 | X-H torsion
[ 7974 7965 7964 7962 ] final  -82.35 input  175.53 | X-H torsion
[ 8008 7997 7996 7995 ] final -125.66 input   59.86 | X-H torsion
[ 10167 10162 10161 10158 ] final -135.14 input  -65.29 | X-H torsion
[ 10718 10713 10712 10709 ] final  -32.89 input   66.30 | X-H torsion
[ 10763 10752 10751 10750 ] final   29.09 input  -60.55 | X-H torsion
[ 11005 11000 10999 10996 ] final  179.54 input  -57.11 | X-H torsion

> <Gold.Protein.ActiveResidues>
 VAL166  LYS551  ARG553  GLY616  TRP617  ASP618  TYR619  PRO620  LYS621  CYS622 
 ASP623  PHE694  ASN695  SER759  ASP760  ASP761  ALA762  ILE779  LEU786  VAL792 
 PHE793  MET794  SER795  GLU796  ALA797  LYS798  CYS799  TRP800  GLU811  SER814 

> <Gold.Protein.RotatedAtoms>
  151.7718  133.3342  159.3446 H   0  0  0  0  0  0  0  0  0  0  0  0  # atno 6907 bound_to 6896
  150.7459  134.6012  159.6047 H   0  0  0  0  0  0  0  0  0  0  0  0  # atno 6908 bound_to 6896
  152.3336  134.7229  160.0334 H   0  0  0  0  0  0  0  0  0  0  0  0  # atno 6909 bound_to 6896
  145.5345  140.9517  143.1585 H   0  0  0  0  0  0  0  0  0  0  0  0  # atno 7974 bound_to 7965
  155.2169  140.0420  157.2942 H   0  0  0  0  0  0  0  0  0  0  0  0  # atno 8008 bound_to 7997
  154.5975  140.2443  155.7808 H   0  0  0  0  0  0  0  0  0  0  0  0  # atno 8009 bound_to 7997
  156.2299  140.2941  156.0172 H   0  0  0  0  0  0  0  0  0  0  0  0  # atno 8010 bound_to 7997
  139.8809  143.6840  152.2627 H   0  0  0  0  0  0  0  0  0  0  0  0  # atno 10167 bound_to 10162
  156.3694  130.4337  149.7558 H   0  0  0  0  0  0  0  0  0  0  0  0  # atno 10718 bound_to 10713
  153.0451  135.6497  154.0837 H   0  0  0  0  0  0  0  0  0  0  0  0  # atno 10763 bound_to 10752
  154.0536  135.2893  155.3338 H   0  0  0  0  0  0  0  0  0  0  0  0  # atno 10764 bound_to 10752
  154.6703  135.5358  153.8196 H   0  0  0  0  0  0  0  0  0  0  0  0  # atno 10765 bound_to 10752
  140.4073  134.6723  157.4595 H   0  0  0  0  0  0  0  0  0  0  0  0  # atno 11005 bound_to 11000
  144.7609  139.6960  143.7235 LP  0  0  0  0  0  0  0  0  0  0  0  0  # atno 17320 bound_to 7965
  146.2022  139.5324  142.9735 LP  0  0  0  0  0  0  0  0  0  0  0  0  # atno 17321 bound_to 7965
  139.7196  144.7605  151.0976 LP  0  0  0  0  0  0  0  0  0  0  0  0  # atno 17342 bound_to 10162
  140.7744  143.5224  150.9520 LP  0  0  0  0  0  0  0  0  0  0  0  0  # atno 17343 bound_to 10162
  156.4691  130.7988  151.3006 LP  0  0  0  0  0  0  0  0  0  0  0  0  # atno 17370 bound_to 10713
  157.7482  131.0041  150.3065 LP  0  0  0  0  0  0  0  0  0  0  0  0  # atno 17371 bound_to 10713
  140.0293  134.6431  155.9129 LP  0  0  0  0  0  0  0  0  0  0  0  0  # atno 17394 bound_to 11000
  141.1834  133.6551  156.5116 LP  0  0  0  0  0  0  0  0  0  0  0  0  # atno 17395 bound_to 11000

$$$$
