AV-unprocessed.smi:844|AV-procd|sdf|3924|dock6
  -GOLD-   22720 1383D 1   1.00000     0.00000
 Structure written by MMmdl.
 32 34  0  0  0  0  0  0  0  0  1 V2000
  149.5316  141.0377  153.5310 O   0  0  0  0  0  0  0  0  0  0  0  0
  150.3146  140.4877  154.5713 C   0  0  1  0  0  0  0  0  0  0  0  0
  149.9740  141.2371  155.8750 C   0  0  0  0  0  0  0  0  0  0  0  0
  151.0468  141.1582  156.8504 N   0  0  0  0  0  0  0  0  0  0  0  0
  151.8837  140.1224  157.0516 C   0  0  0  0  0  0  0  0  0  0  0  0
  152.7937  140.2514  158.0131 N   0  0  0  0  0  0  0  0  0  0  0  0
  152.5147  141.5196  158.4930 C   0  0  0  0  0  0  0  0  0  0  0  0
  153.1214  142.2611  159.5319 C   0  0  0  0  0  0  0  0  0  0  0  0
  152.6573  143.5541  159.8521 C   0  0  0  0  0  0  0  0  0  0  0  0
  151.5832  144.1255  159.1394 C   0  0  0  0  0  0  0  0  0  0  0  0
  150.9642  143.4067  158.0990 C   0  0  0  0  0  0  0  0  0  0  0  0
  151.4287  142.1160  157.7838 C   0  0  0  0  0  0  0  0  0  0  0  0
  150.1246  138.9801  154.7024 C   0  0  0  0  0  0  0  0  0  0  0  0
  148.8333  138.4387  154.8922 C   0  0  0  0  0  0  0  0  0  0  0  0
  148.6573  137.0495  155.0390 C   0  0  0  0  0  0  0  0  0  0  0  0
  149.7713  136.1905  154.9984 C   0  0  0  0  0  0  0  0  0  0  0  0
  149.6022  134.8546  155.1412 F   0  0  0  0  0  0  0  0  0  0  0  0
  151.0614  136.7219  154.8114 C   0  0  0  0  0  0  0  0  0  0  0  0
  151.2400  138.1114  154.6649 C   0  0  0  0  0  0  0  0  0  0  0  0
  152.4905  138.6060  154.4998 F   0  0  0  0  0  0  0  0  0  0  0  0
  149.3042  140.3452  152.9294 H   0  0  0  0  0  0  0  0  0  0  0  0
  151.3522  140.6944  154.3068 H   0  0  0  0  0  0  0  0  0  0  0  0
  149.7921  142.2921  155.6646 H   0  0  0  0  0  0  0  0  0  0  0  0
  149.0585  140.8472  156.3219 H   0  0  0  0  0  0  0  0  0  0  0  0
  151.8180  139.2199  156.4615 H   0  0  0  0  0  0  0  0  0  0  0  0
  153.9444  141.8331  160.0850 H   0  0  0  0  0  0  0  0  0  0  0  0
  153.1279  144.1104  160.6494 H   0  0  0  0  0  0  0  0  0  0  0  0
  151.2343  145.1159  159.3924 H   0  0  0  0  0  0  0  0  0  0  0  0
  150.1393  143.8401  157.5534 H   0  0  0  0  0  0  0  0  0  0  0  0
  147.9716  139.0889  154.9348 H   0  0  0  0  0  0  0  0  0  0  0  0
  147.6673  136.6434  155.1857 H   0  0  0  0  0  0  0  0  0  0  0  0
  151.9164  136.0629  154.7838 H   0  0  0  0  0  0  0  0  0  0  0  0
  1  2  1  0  0  0  0
  1 21  1  0  0  0  0
  2  3  1  0  0  0  0
  2 13  1  0  0  0  0
  2 22  1  0  0  0  0
  3  4  1  0  0  0  0
  3 23  1  0  0  0  0
  3 24  1  0  0  0  0
  4 12  1  0  0  0  0
  4  5  1  0  0  0  0
  5  6  2  0  0  0  0
  5 25  1  0  0  0  0
  6  7  1  0  0  0  0
  7 12  2  0  0  0  0
  7  8  1  0  0  0  0
  8  9  2  0  0  0  0
  8 26  1  0  0  0  0
  9 10  1  0  0  0  0
  9 27  1  0  0  0  0
 10 11  2  0  0  0  0
 10 28  1  0  0  0  0
 11 12  1  0  0  0  0
 11 29  1  0  0  0  0
 13 19  1  0  0  0  0
 13 14  2  0  0  0  0
 14 15  1  0  0  0  0
 14 30  1  0  0  0  0
 15 16  2  0  0  0  0
 15 31  1  0  0  0  0
 16 17  1  0  0  0  0
 16 18  1  0  0  0  0
 18 19  2  0  0  0  0
 18 32  1  0  0  0  0
 19 20  1  0  0  0  0
M  END
> <s_m_source_file>
AV-unprocessed.smi

> <i_m_source_file_index>
844

> <i_lp_mmshare_version>
43012

> <i_f3d_flags>
0

> <s_epik_input>
RmMxW2NIXWMoRilbY0hdW2NIXWMxW0NASF0oW09IXSlbQ0gyXW4oW2NIXW4yKWMoYzIzKVtjSF1bY0hdW2NIXVtjSF0z

> <s_epik_cmdline>
J2VwaWtfcHl0aG9uJywgJy1waCcsICc3LjAnLCAnLXRuJywgJzgnLCAnLW1hJywgJzIwMCcsICctbWV0YWxfYmluZGluZycsICctaW1hZScsICc8aW5maWxlLm1hZT4nLCAnLW9tYWUnLCAnPG91dGZpbGUubWFlPic=

> <r_epik_Ionization_Penalty>
0.0696514

> <r_epik_Ionization_Penalty_Charging>
0

> <r_epik_Ionization_Penalty_Neutral>
0.0696514

> <r_epik_State_Penalty>
0.0610247

> <r_epik_Charging_Adjusted_Penalty>
0.0610247

> <i_epik_Tot_Q>
0

> <i_epik_Tot_abs_Q>
0

> <r_epik_Metal_State_Penalty>
6.42746e-05

> <b_epik_Metal_Only>
0

> <s_lp_Force_Field>
OPLS_2005

> <r_lp_Energy>
12.0275

> <b_lp_Chiralities_Consistent>
1

> <s_lp_Variant>
AV-unprocessed.smi:844-2

> <Gold.Version>
5.8.1

> <Gold.Id.Protein>
6NUR|6NUR_protein|mol2

> <Gold.PLP.Fitness>
49.5720

> <Gold.PLP.PLP>
-42.9203

> <Gold.PLP.part.hbond>
-4.0000

> <Gold.PLP.part.metal>
0.0000

> <Gold.PLP.part.buried>
-0.2058

> <Gold.PLP.part.nonpolar>
-36.7649

> <Gold.PLP.part.repulsive>
0.0000

> <Gold.PLP.ligand.clash>
0.0000

> <Gold.PLP.ligand.torsion>
0.6424

> <Gold.PLP.Chemscore.Hbond>
2.6395

> <Gold.PLP.Chemscore.CHOScore>
0.0000

> <Gold.PLP.Chemscore.Metal>
0.0000

> <Gold.Chemscore.Hbonds>
donor molecule, donor type, donor heavy atom, donor atom, acceptor molecule, acceptor atom, score
      L1  H     1    21       P1  7957  0.69
      P1  H  7997  8008       L1     6  0.95
      P1  H  8011  8017       L1     1  1.00

> <Gold.PLP.Chemscore.Internal.Correction>
0.0181

> <Gold.Rescore>
     Score         DG    S(hbond)    S(metal)    S(lipo)     H(rot)  DE(clash)    DE(int)     intcor
     17.00     -19.68       1.90        0.00     110.98       2.00       2.09       0.59       ----

> <Gold.Chemscore.Fitness>
16.9974

> <Gold.Chemscore.DG>
-19.6818

> <Gold.Chemscore.ZeroCoef>
-5.4800

> <Gold.Chemscore.Hbond>
1.9004

> <Gold.Chemscore.Metal>
0.0000

> <Gold.Chemscore.Lipo>
110.9810

> <Gold.Chemscore.Internal_Hbond>
0.0000

> <Gold.Chemscore.DEClash>
2.0896

> <Gold.Chemscore.DEInternal>
0.5948

> <Gold.Chemscore.Rot>
2.0040

> <Gold.Chemscore.Internal.Correction>
   9.000000E+99

> <Gold.Chemscore.Hbonds>
donor molecule, donor type, donor heavy atom, donor atom, acceptor molecule, acceptor atom, score
      L1  H     1    21       P1  7957  0.68
      P1  H  7997  8008       L1     6  0.20
      P1  H  8011  8017       L1     1  0.25

> <Gold.Chemscore.Hbond.Weighted>
-6.3474

> <Gold.Chemscore.Metal.Weighted>
-0.0000

> <Gold.Chemscore.Lipo.Weighted>
-12.9848

> <Gold.Chemscore.Internal_Hbond.Weighted>
0.0000

> <Gold.Chemscore.DEClash.Weighted>
2.0896

> <Gold.Chemscore.DEInternal.Weighted>
0.5948

> <Gold.Chemscore.Rot.Weighted>
5.1303

> <Gold.Chemscore.Internal.Correction.Weighted>
   9.000000E+99

> <Gold.Protein.RotatedTorsions>
[ 6907 6896 6895 6894 ] final  133.24 input  -60.11 | X-H torsion
[ 7974 7965 7964 7962 ] final   -2.47 input  175.53 | X-H torsion
[ 8008 7997 7996 7995 ] final  -76.29 input   59.86 | X-H torsion
[ 10167 10162 10161 10158 ] final -111.79 input  -65.29 | X-H torsion
[ 10718 10713 10712 10709 ] final   -2.11 input   66.30 | X-H torsion
[ 10763 10752 10751 10750 ] final   -2.62 input  -60.55 | X-H torsion
[ 11005 11000 10999 10996 ] final  -95.53 input  -57.11 | X-H torsion

> <Gold.Protein.ActiveResidues>
 VAL166  LYS551  ARG553  GLY616  TRP617  ASP618  TYR619  PRO620  LYS621  CYS622 
 ASP623  PHE694  ASN695  SER759  ASP760  ASP761  ALA762  ILE779  LEU786  VAL792 
 PHE793  MET794  SER795  GLU796  ALA797  LYS798  CYS799  TRP800  GLU811  SER814 

> <Gold.Protein.RotatedAtoms>
  152.3240  133.5885  159.5763 H   0  0  0  0  0  0  0  0  0  0  0  0  # atno 6907 bound_to 6896
  150.7387  133.9968  159.3634 H   0  0  0  0  0  0  0  0  0  0  0  0  # atno 6908 bound_to 6896
  151.7849  135.0752  160.0430 H   0  0  0  0  0  0  0  0  0  0  0  0  # atno 6909 bound_to 6896
  146.2404  140.1576  142.8333 H   0  0  0  0  0  0  0  0  0  0  0  0  # atno 7974 bound_to 7965
  154.5492  140.0729  156.8640 H   0  0  0  0  0  0  0  0  0  0  0  0  # atno 8008 bound_to 7997
  155.3026  140.3385  155.4229 H   0  0  0  0  0  0  0  0  0  0  0  0  # atno 8009 bound_to 7997
  156.1946  140.1699  156.8010 H   0  0  0  0  0  0  0  0  0  0  0  0  # atno 8010 bound_to 7997
  140.1297  143.4371  152.1635 H   0  0  0  0  0  0  0  0  0  0  0  0  # atno 10167 bound_to 10162
  156.7957  130.5376  149.5729 H   0  0  0  0  0  0  0  0  0  0  0  0  # atno 10718 bound_to 10713
  153.3604  135.6990  153.6717 H   0  0  0  0  0  0  0  0  0  0  0  0  # atno 10763 bound_to 10752
  153.5407  135.3573  155.2718 H   0  0  0  0  0  0  0  0  0  0  0  0  # atno 10764 bound_to 10752
  154.8667  135.4203  154.2860 H   0  0  0  0  0  0  0  0  0  0  0  0  # atno 10765 bound_to 10752
  141.1439  133.8032  157.0447 H   0  0  0  0  0  0  0  0  0  0  0  0  # atno 11005 bound_to 11000
  145.0116  140.8719  143.5220 LP  0  0  0  0  0  0  0  0  0  0  0  0  # atno 17320 bound_to 7965
  145.1610  139.2458  143.5391 LP  0  0  0  0  0  0  0  0  0  0  0  0  # atno 17321 bound_to 7965
  139.5526  144.7349  151.4390 LP  0  0  0  0  0  0  0  0  0  0  0  0  # atno 17342 bound_to 10162
  140.6824  143.8052  150.7139 LP  0  0  0  0  0  0  0  0  0  0  0  0  # atno 17343 bound_to 10162
  156.1132  130.6055  151.0079 LP  0  0  0  0  0  0  0  0  0  0  0  0  # atno 17370 bound_to 10713
  157.6578  131.0886  150.7906 LP  0  0  0  0  0  0  0  0  0  0  0  0  # atno 17371 bound_to 10713
  140.0670  134.9723  157.1403 LP  0  0  0  0  0  0  0  0  0  0  0  0  # atno 17394 bound_to 11000
  140.3765  134.2333  155.7174 LP  0  0  0  0  0  0  0  0  0  0  0  0  # atno 17395 bound_to 11000

$$$$
