AV-unprocessed.smi:419|AV-procd|sdf|2530|dock1
  -GOLD-   2262022483D 1   1.00000     0.00000
 Structure written by MMmdl.
 44 46  0  0  0  0  0  0  0  0  1 V2000
  144.2997  141.7105  156.2284 C   0  0  0  0  0  0  0  0  0  0  0  0
  145.5152  141.4906  156.9292 O   0  0  0  0  0  0  0  0  0  0  0  0
  146.6465  141.2100  156.1933 C   0  0  0  0  0  0  0  0  0  0  0  0
  147.7957  140.8168  156.9066 C   0  0  0  0  0  0  0  0  0  0  0  0
  148.9933  140.5117  156.2327 C   0  0  0  0  0  0  0  0  0  0  0  0
  149.0713  140.5917  154.8286 C   0  0  0  0  0  0  0  0  0  0  0  0
  150.2809  140.2746  154.2483 O   0  0  0  0  0  0  0  0  0  0  0  0
  151.1152  139.3291  154.9053 C   0  0  0  0  0  0  0  0  0  0  0  0
  152.0064  140.0692  155.9163 C   0  0  2  0  0  0  0  0  0  0  0  0
  153.3460  139.7187  155.6308 O   0  0  0  0  0  0  0  0  0  0  0  0
  151.7062  139.6371  157.3665 C   0  0  0  0  0  0  0  0  0  0  0  0
  152.2477  140.5839  158.3406 N   0  0  0  0  0  0  0  0  0  0  0  0
  153.1723  140.3176  159.2938 C   0  0  0  0  0  0  0  0  0  0  0  0
  153.7060  139.2269  159.4957 O   0  0  0  0  0  0  0  0  0  0  0  0
  153.4058  141.4592  159.9824 N   0  0  0  0  0  0  0  0  0  0  0  0
  154.3310  141.6399  161.0945 C   0  0  0  0  0  0  0  0  0  0  0  0
  152.6112  142.4849  159.4547 C   0  0  0  0  0  0  0  0  0  0  0  0
  152.4936  143.8379  159.8155 C   0  0  0  0  0  0  0  0  0  0  0  0
  151.5830  144.6268  159.0743 C   0  0  0  0  0  0  0  0  0  0  0  0
  150.8262  144.0614  158.0152 C   0  0  0  0  0  0  0  0  0  0  0  0
  150.9655  142.6957  157.6728 C   0  0  0  0  0  0  0  0  0  0  0  0
  151.8796  141.9351  158.4230 C   0  0  0  0  0  0  0  0  0  0  0  0
  147.9182  140.9866  154.1065 C   0  0  0  0  0  0  0  0  0  0  0  0
  146.7198  141.2923  154.7809 C   0  0  0  0  0  0  0  0  0  0  0  0
  143.5044  141.9191  156.9438 H   0  0  0  0  0  0  0  0  0  0  0  0
  144.0047  140.8303  155.6554 H   0  0  0  0  0  0  0  0  0  0  0  0
  144.3748  142.5692  155.5598 H   0  0  0  0  0  0  0  0  0  0  0  0
  147.7590  140.7473  157.9840 H   0  0  0  0  0  0  0  0  0  0  0  0
  149.8617  140.2116  156.8007 H   0  0  0  0  0  0  0  0  0  0  0  0
  150.4748  138.6234  155.4369 H   0  0  0  0  0  0  0  0  0  0  0  0
  151.7199  138.7613  154.1954 H   0  0  0  0  0  0  0  0  0  0  0  0
  151.8681  141.1456  155.8046 H   0  0  0  0  0  0  0  0  0  0  0  0
  153.4100  138.7758  155.6149 H   0  0  0  0  0  0  0  0  0  0  0  0
  150.6269  139.5953  157.5212 H   0  0  0  0  0  0  0  0  0  0  0  0
  152.0659  138.6256  157.5584 H   0  0  0  0  0  0  0  0  0  0  0  0
  153.8287  142.1283  161.9297 H   0  0  0  0  0  0  0  0  0  0  0  0
  155.1696  142.2648  160.7869 H   0  0  0  0  0  0  0  0  0  0  0  0
  154.7292  140.6902  161.4540 H   0  0  0  0  0  0  0  0  0  0  0  0
  153.0722  144.2601  160.6238 H   0  0  0  0  0  0  0  0  0  0  0  0
  151.4620  145.6721  159.3179 H   0  0  0  0  0  0  0  0  0  0  0  0
  150.1348  144.6810  157.4635 H   0  0  0  0  0  0  0  0  0  0  0  0
  150.3900  142.2613  156.8690 H   0  0  0  0  0  0  0  0  0  0  0  0
  147.9249  141.0633  153.0301 H   0  0  0  0  0  0  0  0  0  0  0  0
  145.8676  141.5880  154.1882 H   0  0  0  0  0  0  0  0  0  0  0  0
  1  2  1  0  0  0  0
  1 25  1  0  0  0  0
  1 26  1  0  0  0  0
  1 27  1  0  0  0  0
  2  3  1  0  0  0  0
  3 24  1  0  0  0  0
  3  4  2  0  0  0  0
  4  5  1  0  0  0  0
  4 28  1  0  0  0  0
  5  6  2  0  0  0  0
  5 29  1  0  0  0  0
  6  7  1  0  0  0  0
  6 23  1  0  0  0  0
  7  8  1  0  0  0  0
  8  9  1  0  0  0  0
  8 30  1  0  0  0  0
  8 31  1  0  0  0  0
  9 10  1  0  0  0  0
  9 11  1  0  0  0  0
  9 32  1  0  0  0  0
 10 33  1  0  0  0  0
 11 12  1  0  0  0  0
 11 34  1  0  0  0  0
 11 35  1  0  0  0  0
 12 22  1  0  0  0  0
 12 13  1  0  0  0  0
 13 14  2  0  0  0  0
 13 15  1  0  0  0  0
 15 16  1  0  0  0  0
 15 17  1  0  0  0  0
 16 36  1  0  0  0  0
 16 37  1  0  0  0  0
 16 38  1  0  0  0  0
 17 22  2  0  0  0  0
 17 18  1  0  0  0  0
 18 19  2  0  0  0  0
 18 39  1  0  0  0  0
 19 20  1  0  0  0  0
 19 40  1  0  0  0  0
 20 21  2  0  0  0  0
 20 41  1  0  0  0  0
 21 22  1  0  0  0  0
 21 42  1  0  0  0  0
 23 24  2  0  0  0  0
 23 43  1  0  0  0  0
 24 44  1  0  0  0  0
M  END
> <s_m_source_file>
AV-unprocessed.smi

> <i_m_source_file_index>
419

> <i_lp_mmshare_version>
43012

> <i_f3d_flags>
0

> <s_epik_input>
W0NIM11PYzFbY0hdW2NIXWMoW2NIXVtjSF0xKU9bQ0gyXVtDQEhdKFtPSF0pW0NIMl1uKGMoPU8pbjJbQ0gzXSljKGMyMylbY0hdW2NIXVtjSF1bY0hdMw==

> <s_epik_cmdline>
J2VwaWtfcHl0aG9uJywgJy1waCcsICc3LjAnLCAnLXRuJywgJzgnLCAnLW1hJywgJzIwMCcsICctbWV0YWxfYmluZGluZycsICctaW1hZScsICc8aW5maWxlLm1hZT4nLCAnLW9tYWUnLCAnPG91dGZpbGUubWFlPic=

> <r_lp_tautomer_probability>
1

> <r_epik_Ionization_Penalty>
2.40131e-06

> <r_epik_Ionization_Penalty_Charging>
2.01037e-09

> <r_epik_Ionization_Penalty_Neutral>
2.3993e-06

> <r_epik_State_Penalty>
-0

> <r_epik_Charging_Adjusted_Penalty>
2.01037e-09

> <i_epik_Tot_Q>
0

> <i_epik_Tot_abs_Q>
0

> <r_epik_Metal_State_Penalty>
-0

> <b_epik_Metal_Only>
0

> <s_lp_Force_Field>
OPLS_2005

> <r_lp_Energy>
51.0107

> <b_lp_Chiralities_Consistent>
1

> <s_lp_Variant>
AV-unprocessed.smi:419-1

> <Gold.Version>
5.8.1

> <Gold.Id.Protein>
6NUR|6NUR_protein|mol2

> <Gold.PLP.Fitness>
58.6753

> <Gold.PLP.PLP>
-55.2269

> <Gold.PLP.part.hbond>
-2.0000

> <Gold.PLP.part.metal>
0.0000

> <Gold.PLP.part.buried>
-6.0991

> <Gold.PLP.part.nonpolar>
-48.2446

> <Gold.PLP.part.repulsive>
0.2533

> <Gold.PLP.ligand.clash>
0.0000

> <Gold.PLP.ligand.torsion>
1.4975

> <Gold.PLP.Chemscore.Hbond>
2.0000

> <Gold.PLP.Chemscore.CHOScore>
0.0000

> <Gold.PLP.Chemscore.Metal>
0.0000

> <Gold.Chemscore.Hbonds>
donor molecule, donor type, donor heavy atom, donor atom, acceptor molecule, acceptor atom, score
      P1  H  7989  7998       L1     7  0.45
      P1  H  7997  8010       L1    10  0.40

> <Gold.PLP.Chemscore.Internal.Correction>
0.4434

> <Gold.Rescore>
     Score         DG    S(hbond)    S(metal)    S(lipo)     H(rot)  DE(clash)    DE(int)     intcor
     18.79     -20.45       1.72        0.00     131.31       2.40       0.12       1.54       ----

> <Gold.Chemscore.Fitness>
18.7904

> <Gold.Chemscore.DG>
-20.4490

> <Gold.Chemscore.ZeroCoef>
-5.4800

> <Gold.Chemscore.Hbond>
1.7177

> <Gold.Chemscore.Metal>
0.0000

> <Gold.Chemscore.Lipo>
131.3113

> <Gold.Chemscore.Internal_Hbond>
0.0000

> <Gold.Chemscore.DEClash>
0.1187

> <Gold.Chemscore.DEInternal>
1.5399

> <Gold.Chemscore.Rot>
2.3952

> <Gold.Chemscore.Internal.Correction>
   9.000000E+99

> <Gold.Chemscore.Hbonds>
donor molecule, donor type, donor heavy atom, donor atom, acceptor molecule, acceptor atom, score
      P1  H  7989  7998       L1     7  0.01
      P1  H  7997  8010       L1    10  0.20

> <Gold.Chemscore.Hbond.Weighted>
-5.7372

> <Gold.Chemscore.Metal.Weighted>
-0.0000

> <Gold.Chemscore.Lipo.Weighted>
-15.3634

> <Gold.Chemscore.Internal_Hbond.Weighted>
0.0000

> <Gold.Chemscore.DEClash.Weighted>
0.1187

> <Gold.Chemscore.DEInternal.Weighted>
1.5399

> <Gold.Chemscore.Rot.Weighted>
6.1316

> <Gold.Chemscore.Internal.Correction.Weighted>
   9.000000E+99

> <Gold.Protein.RotatedTorsions>
[ 6907 6896 6895 6894 ] final   69.06 input  -60.11 | X-H torsion
[ 7974 7965 7964 7962 ] final  -62.72 input  175.53 | X-H torsion
[ 8008 7997 7996 7995 ] final   72.97 input   59.86 | X-H torsion
[ 10167 10162 10161 10158 ] final  165.17 input  -65.29 | X-H torsion
[ 10718 10713 10712 10709 ] final   55.79 input   66.30 | X-H torsion
[ 10763 10752 10751 10750 ] final  111.00 input  -60.55 | X-H torsion
[ 11005 11000 10999 10996 ] final -111.16 input  -57.11 | X-H torsion

> <Gold.Protein.ActiveResidues>
 VAL166  LYS551  ARG553  GLY616  TRP617  ASP618  TYR619  PRO620  LYS621  CYS622 
 ASP623  PHE694  ASN695  SER759  ASP760  ASP761  ALA762  ILE779  LEU786  VAL792 
 PHE793  MET794  SER795  GLU796  ALA797  LYS798  CYS799  TRP800  GLU811  SER814 

> <Gold.Protein.RotatedAtoms>
  152.4662  134.5071  159.9742 H   0  0  0  0  0  0  0  0  0  0  0  0  # atno 6907 bound_to 6896
  151.5108  133.3479  159.2892 H   0  0  0  0  0  0  0  0  0  0  0  0  # atno 6908 bound_to 6896
  150.8647  134.8036  159.7171 H   0  0  0  0  0  0  0  0  0  0  0  0  # atno 6909 bound_to 6896
  145.7879  140.8726  143.0296 H   0  0  0  0  0  0  0  0  0  0  0  0  # atno 7974 bound_to 7965
  155.7767  140.3483  155.5275 H   0  0  0  0  0  0  0  0  0  0  0  0  # atno 8008 bound_to 7997
  155.8769  140.0995  157.1533 H   0  0  0  0  0  0  0  0  0  0  0  0  # atno 8009 bound_to 7997
  154.4021  140.1330  156.4135 H   0  0  0  0  0  0  0  0  0  0  0  0  # atno 8010 bound_to 7997
  139.4901  144.4160  151.9243 H   0  0  0  0  0  0  0  0  0  0  0  0  # atno 10167 bound_to 10162
  157.5375  130.8673  149.8774 H   0  0  0  0  0  0  0  0  0  0  0  0  # atno 10718 bound_to 10713
  153.4571  135.3730  155.2317 H   0  0  0  0  0  0  0  0  0  0  0  0  # atno 10763 bound_to 10752
  154.8757  135.3899  154.3969 H   0  0  0  0  0  0  0  0  0  0  0  0  # atno 10764 bound_to 10752
  153.4537  135.7086  153.6157 H   0  0  0  0  0  0  0  0  0  0  0  0  # atno 10765 bound_to 10752
  141.0750  133.9316  157.2408 H   0  0  0  0  0  0  0  0  0  0  0  0  # atno 11005 bound_to 11000
  144.6786  140.0081  143.7484 LP  0  0  0  0  0  0  0  0  0  0  0  0  # atno 17320 bound_to 7965
  146.0007  139.3089  143.0929 LP  0  0  0  0  0  0  0  0  0  0  0  0  # atno 17321 bound_to 7965
  140.3602  144.2982  150.5934 LP  0  0  0  0  0  0  0  0  0  0  0  0  # atno 17342 bound_to 10162
  140.5409  143.2224  151.8086 LP  0  0  0  0  0  0  0  0  0  0  0  0  # atno 17343 bound_to 10162
  156.0470  130.3726  150.1293 LP  0  0  0  0  0  0  0  0  0  0  0  0  # atno 17370 bound_to 10713
  156.9475  130.9764  151.3504 LP  0  0  0  0  0  0  0  0  0  0  0  0  # atno 17371 bound_to 10713
  139.9563  135.0165  156.9136 LP  0  0  0  0  0  0  0  0  0  0  0  0  # atno 17394 bound_to 11000
  140.5592  134.0551  155.7393 LP  0  0  0  0  0  0  0  0  0  0  0  0  # atno 17395 bound_to 11000

$$$$
