#       Name:                AV-unprocessed.smi:961
#       Creating user name   scv26
#       Creation time:       Fri Mar 27 02:18:20 2020


#       File generated by GOLD software.
#

@<TRIPOS>MOLECULE
AV-unprocessed.smi:961
    40    41     1
SMALL
NO_CHARGES


@<TRIPOS>ATOM
      1 ****        -2.3023   3.3475  -2.2343 C.3            1 S1                 0.0000
      2 ****        -1.1409   3.7022  -1.2849 C.3            1 S1                 0.0000
      3 ****         0.1759   3.8006  -2.0801 C.3            1 S1                 0.0000
      4 ****        -1.4323   5.0897  -0.6736 C.3            1 S1                 0.0000
      5 ****        -1.0153   2.6448  -0.2060 C.2            1 S1                 0.0000
      6 ****        -1.1322   2.8041   1.1562 C.2            1 S1                 0.0000
      7 ****        -0.9082   1.3084   2.0202 S.3            1 S1                 0.0000
      8 ****        -0.6736   0.4930   0.4821 C.2            1 S1                 0.0000
      9 ****        -0.3624  -0.9609   0.3674 C.3            1 S1                 0.0000
     10 ****         1.1483  -1.2401   0.4161 C.3            1 S1                 0.0000
     11 ****         1.4365  -2.6642   0.2917 N.am           1 S1                 0.0000
     12 ****         1.3437  -3.5589   1.2871 C.2            1 S1                 0.0000
     13 ****         0.9983  -3.2568   2.4304 O.2            1 S1                 0.0000
     14 ****         1.6924  -4.9540   0.8831 C.3            1 S1                 0.0000
     15 ****         0.9138  -6.0843   1.5252 C.3            1 S1                 0.0000
     16 ****         2.3499  -5.8440   1.9185 C.3            1 S1                 0.0000
     17 ****        -0.7456   1.3172  -0.5654 N.2            1 S1                 0.0000
     18 ****        -2.4239   4.1010  -3.0132 H              1 S1                 0.0000
     19 ****        -3.2474   3.2768  -1.6945 H              1 S1                 0.0000
     20 ****        -2.1374   2.3916  -2.7327 H              1 S1                 0.0000
     21 ****         0.4160   2.8610  -2.5788 H              1 S1                 0.0000
     22 ****         1.0142   4.0493  -1.4283 H              1 S1                 0.0000
     23 ****         0.1187   4.5700  -2.8509 H              1 S1                 0.0000
     24 ****        -1.5227   5.8529  -1.4474 H              1 S1                 0.0000
     25 ****        -0.6349   5.4062   0.0001 H              1 S1                 0.0000
     26 ****        -2.3651   5.0912  -0.1083 H              1 S1                 0.0000
     27 ****        -1.3342   3.7090   1.7094 H              1 S1                 0.0000
     28 ****        -0.8734  -1.4850   1.1758 H              1 S1                 0.0000
     29 ****        -0.7852  -1.3381  -0.5649 H              1 S1                 0.0000
     30 ****         1.6477  -0.7205  -0.4019 H              1 S1                 0.0000
     31 ****         1.5793  -0.8513   1.3404 H              1 S1                 0.0000
     32 ****         1.7273  -2.9934  -0.6175 H              1 S1                 0.0000
     33 ****         1.9997  -5.0989  -0.1518 H              1 S1                 0.0000
     34 ****         0.1467  -5.8375   2.2575 H              1 S1                 0.0000
     35 ****         0.6915  -6.9469   0.9005 H              1 S1                 0.0000
     36 ****         3.1020  -6.5441   1.5606 H              1 S1                 0.0000
     37 ****         2.5349  -5.4394   2.9123 H              1 S1                 0.0000
     38 ****         0.7719  -2.3078   2.6500 LP             1 S1                 0.0000
     39 ****         0.9443  -3.9605   3.1388 LP             1 S1                 0.0000
     40 ****        -0.6198   1.0177  -1.5112 LP             1 S1                 0.0000
@<TRIPOS>BOND
    1    1    2 1     
    2    1   18 1     
    3    1   19 1     
    4    1   20 1     
    5    2    3 1     
    6    2    4 1     
    7    2    5 1     
    8    3   21 1     
    9    3   22 1     
   10    3   23 1     
   11    4   24 1     
   12    4   25 1     
   13    4   26 1     
   14    5   17 1     
   15    5    6 2     
   16    6    7 1     
   17    6   27 1     
   18    7    8 1     
   19    8    9 1     
   20    8   17 2     
   21    9   10 1     
   22    9   28 1     
   23    9   29 1     
   24   10   11 1     
   25   10   30 1     
   26   10   31 1     
   27   11   12 am    
   28   11   32 1     
   29   12   13 2     
   30   12   14 1     
   31   14   16 1     
   32   14   15 1     
   33   14   33 1     
   34   15   16 1     
   35   15   34 1     
   36   15   35 1     
   37   16   36 1     
   38   16   37 1     
   39   13   38 1     
   40   13   39 1     
   41   17   40 1     
@<TRIPOS>SUBSTRUCTURE
      1 S1             1
@<TRIPOS>SET
LONE_PAIRS      STATIC     ATOMS    <user>   **** ""
3 38 39 40
DONOR_HYDROGENS      STATIC     ATOMS    <user>   **** ""
1 32
ATOM$BLUE        STATIC     ATOMS    COLORGROUP SYSTEM
3 38 39 40
ATOM$RED        STATIC     ATOMS    COLORGROUP SYSTEM
1 32
