#       Name:                AV-unprocessed.smi:1259
#       Creating user name   scv26
#       Creation time:       Fri Mar 27 04:41:17 2020


#       File generated by GOLD software.
#

@<TRIPOS>MOLECULE
AV-unprocessed.smi:1259
    37    38     1
SMALL
NO_CHARGES


@<TRIPOS>ATOM
      1 ****        -5.4631  -0.2638   0.0130 C.3            1 S1                 0.0000
      2 ****        -4.1107   0.2990  -0.3112 C.2            1 S1                 0.0000
      3 ****        -2.8361  -0.3029  -0.1004 C.2            1 S1                 0.0000
      4 ****        -1.9727   0.6450  -0.5780 C.2            1 S1                 0.0000
      5 ****        -0.6148   0.6127  -0.6371 N.am           1 S1                 0.0000
      6 ****         0.2231  -0.3473  -0.2087 C.2            1 S1                 0.0000
      7 ****        -0.1152  -1.4050   0.3228 O.2            1 S1                 0.0000
      8 ****         1.5007  -0.0072  -0.4336 N.am           1 S1                 0.0000
      9 ****         2.6658  -0.8119  -0.0800 C.3            1 S1                 0.0000
     10 ****         3.8192  -0.4473  -1.0248 C.3            1 S1                 0.0000
     11 ****         3.0871  -0.6591   1.3722 C.3            1 S1                 0.0000
     12 ****         3.9778  -1.6832   2.0348 C.3            1 S1                 0.0000
     13 ****         2.5309  -1.5569   2.4524 C.3            1 S1                 0.0000
     14 ****        -2.7015   1.7217  -1.0329 N.pl3          1 S1                 0.0000
     15 ****        -2.2433   2.9614  -1.6292 C.3            1 S1                 0.0000
     16 ****        -4.0237   1.5023  -0.8671 N.2            1 S1                 0.0000
     17 ****        -5.3788  -1.2307   0.5095 H              1 S1                 0.0000
     18 ****        -6.0555  -0.4058  -0.8911 H              1 S1                 0.0000
     19 ****        -6.0174   0.4017   0.6752 H              1 S1                 0.0000
     20 ****        -2.6164  -1.2690   0.3285 H              1 S1                 0.0000
     21 ****        -0.1837   1.4261  -1.0509 H              1 S1                 0.0000
     22 ****         1.6834   0.8810  -0.8772 H              1 S1                 0.0000
     23 ****         2.4266  -1.8628  -0.2536 H              1 S1                 0.0000
     24 ****         4.6964  -1.0651  -0.8301 H              1 S1                 0.0000
     25 ****         4.1152   0.5957  -0.9072 H              1 S1                 0.0000
     26 ****         3.5375  -0.5993  -2.0673 H              1 S1                 0.0000
     27 ****         3.2711   0.3738   1.6629 H              1 S1                 0.0000
     28 ****         4.2574  -2.5622   1.4578 H              1 S1                 0.0000
     29 ****         4.7351  -1.3178   2.7254 H              1 S1                 0.0000
     30 ****         2.3223  -1.1059   3.4204 H              1 S1                 0.0000
     31 ****         1.8532  -2.3544   2.1542 H              1 S1                 0.0000
     32 ****        -1.9635   2.7848  -2.6679 H              1 S1                 0.0000
     33 ****        -1.3771   3.3370  -1.0842 H              1 S1                 0.0000
     34 ****        -3.0309   3.7153  -1.5954 H              1 S1                 0.0000
     35 ****        -1.0844  -1.6050   0.4660 LP             1 S1                 0.0000
     36 ****         0.5793  -2.0641   0.6113 LP             1 S1                 0.0000
     37 ****        -4.7759   2.1145  -1.1107 LP             1 S1                 0.0000
@<TRIPOS>BOND
    1    1    2 1     
    2    1   17 1     
    3    1   18 1     
    4    1   19 1     
    5    2   16 2     
    6    2    3 1     
    7    3    4 2     
    8    3   20 1     
    9    4    5 1     
   10    4   14 1     
   11    5    6 am    
   12    5   21 1     
   13    6    7 2     
   14    6    8 am    
   15    8    9 1     
   16    8   22 1     
   17    9   10 1     
   18    9   11 1     
   19    9   23 1     
   20   10   24 1     
   21   10   25 1     
   22   10   26 1     
   23   11   13 1     
   24   11   12 1     
   25   11   27 1     
   26   12   13 1     
   27   12   28 1     
   28   12   29 1     
   29   13   30 1     
   30   13   31 1     
   31   14   15 1     
   32   14   16 1     
   33   15   32 1     
   34   15   33 1     
   35   15   34 1     
   36    7   35 1     
   37    7   36 1     
   38   16   37 1     
@<TRIPOS>SUBSTRUCTURE
      1 S1             1
@<TRIPOS>SET
LONE_PAIRS      STATIC     ATOMS    <user>   **** ""
3 35 36 37
DONOR_HYDROGENS      STATIC     ATOMS    <user>   **** ""
2 21 22
ATOM$BLUE        STATIC     ATOMS    COLORGROUP SYSTEM
3 35 36 37
ATOM$RED        STATIC     ATOMS    COLORGROUP SYSTEM
2 21 22
