AV-unprocessed.smi:997|AV-procd|sdf|4348|dock2
  -GOLD-   22720 2243D 1   1.00000     0.00000
 Structure written by MMmdl.
 33 35  0  0  0  0  0  0  0  0  2 V2000
  152.7884  138.1175  156.7950 C   0  0  0  0  0  0  0  0  0  0  0  0
  152.0871  139.4414  156.7423 C   0  0  0  0  0  0  0  0  0  0  0  0
  151.2372  139.6759  155.7683 N   0  0  0  0  0  0  0  0  0  0  0  0
  150.7272  140.9123  155.9826 N   0  0  0  0  0  0  0  0  0  0  0  0
  149.7499  141.4385  155.0473 C   0  0  0  0  0  0  0  0  0  0  0  0
  148.6228  140.4299  154.7893 C   0  0  0  0  0  0  0  0  0  0  0  0
  149.0527  139.4577  153.8612 O   0  0  0  0  0  0  0  0  0  0  0  0
  151.2485  141.5155  157.1122 C   0  0  0  0  0  0  0  0  0  0  0  0
  150.9363  142.7486  157.6030 N   0  0  0  0  0  0  0  0  0  0  0  0
  151.5860  143.0856  158.7357 C   0  0  0  0  0  0  0  0  0  0  0  0
  151.2438  144.4392  159.2765 C   0  0  0  0  0  0  0  0  0  0  0  0
  152.2185  145.5925  159.1837 C   0  0  0  0  0  0  0  0  0  0  0  0
  151.9157  144.9687  160.5231 C   0  0  0  0  0  0  0  0  0  0  0  0
  152.5367  142.2595  159.3692 C   0  0  0  0  0  0  0  0  0  0  0  0
  152.8546  140.9913  158.8257 C   0  0  0  0  0  0  0  0  0  0  0  0
  153.8966  140.1498  159.5143 C   0  0  0  0  0  0  0  0  0  0  0  0
  154.4347  139.2046  158.9008 O   0  0  0  0  0  0  0  0  0  0  0  0
  154.2201  140.4428  160.6873 O   0  5  0  0  0  0  0  0  0  0  0  0
  152.1750  140.5727  157.6422 C   0  0  0  0  0  0  0  0  0  0  0  0
  152.7049  137.6647  157.7830 H   0  0  0  0  0  0  0  0  0  0  0  0
  153.8463  138.2211  156.5543 H   0  0  0  0  0  0  0  0  0  0  0  0
  152.3654  137.4074  156.0834 H   0  0  0  0  0  0  0  0  0  0  0  0
  149.3454  142.3720  155.4419 H   0  0  0  0  0  0  0  0  0  0  0  0
  150.2606  141.6865  154.1160 H   0  0  0  0  0  0  0  0  0  0  0  0
  148.3322  139.9326  155.7154 H   0  0  0  0  0  0  0  0  0  0  0  0
  147.7386  140.9321  154.3956 H   0  0  0  0  0  0  0  0  0  0  0  0
  149.3833  139.9003  153.0945 H   0  0  0  0  0  0  0  0  0  0  0  0
  150.1869  144.6592  159.1380 H   0  0  0  0  0  0  0  0  0  0  0  0
  153.2028  145.4029  158.7596 H   0  0  0  0  0  0  0  0  0  0  0  0
  151.8138  146.5857  159.0020 H   0  0  0  0  0  0  0  0  0  0  0  0
  151.3140  145.5553  161.2141 H   0  0  0  0  0  0  0  0  0  0  0  0
  152.6950  144.3610  160.9788 H   0  0  0  0  0  0  0  0  0  0  0  0
  153.0297  142.6113  160.2642 H   0  0  0  0  0  0  0  0  0  0  0  0
  1  2  1  0  0  0  0
  1 20  1  0  0  0  0
  1 21  1  0  0  0  0
  1 22  1  0  0  0  0
  2 19  1  0  0  0  0
  2  3  2  0  0  0  0
  3  4  1  0  0  0  0
  4  5  1  0  0  0  0
  4  8  1  0  0  0  0
  5  6  1  0  0  0  0
  5 23  1  0  0  0  0
  5 24  1  0  0  0  0
  6  7  1  0  0  0  0
  6 25  1  0  0  0  0
  6 26  1  0  0  0  0
  7 27  1  0  0  0  0
  8 19  1  0  0  0  0
  8  9  2  0  0  0  0
  9 10  1  0  0  0  0
 10 11  1  0  0  0  0
 10 14  2  0  0  0  0
 11 13  1  0  0  0  0
 11 12  1  0  0  0  0
 11 28  1  0  0  0  0
 12 13  1  0  0  0  0
 12 29  1  0  0  0  0
 12 30  1  0  0  0  0
 13 31  1  0  0  0  0
 13 32  1  0  0  0  0
 14 15  1  0  0  0  0
 14 33  1  0  0  0  0
 15 16  1  0  0  0  0
 15 19  2  0  0  0  0
 16 17  2  0  0  0  0
 16 18  1  0  0  0  0
M  CHG  1  18  -1
M  END
> <s_m_source_file>
AV-unprocessed.smi

> <i_m_source_file_index>
997

> <i_lp_mmshare_version>
43012

> <i_f3d_flags>
0

> <s_epik_input>
W09IXVtDSDJdW0NIMl1uMW5jKFtDSDNdKWMoYzEyKWMoQyg9TylbT0hdKVtjSF1jKG4yKVtDSF0zW0NIMl1bQ0gyXTM=

> <s_epik_cmdline>
J2VwaWtfcHl0aG9uJywgJy1waCcsICc3LjAnLCAnLXRuJywgJzgnLCAnLW1hJywgJzIwMCcsICctbWV0YWxfYmluZGluZycsICctaW1hZScsICc8aW5maWxlLm1hZT4nLCAnLW9tYWUnLCAnPG91dGZpbGUubWFlPic=

> <r_epik_Ionization_Penalty>
0.00209497

> <r_epik_Ionization_Penalty_Charging>
0.0019185

> <r_epik_Ionization_Penalty_Neutral>
0.000176473

> <r_epik_State_Penalty>
0.00130684

> <r_epik_Charging_Adjusted_Penalty>
0.00322534

> <i_epik_Tot_Q>
-1

> <i_epik_Tot_abs_Q>
1

> <r_epik_Metal_State_Penalty>
-0

> <b_epik_Metal_Only>
0

> <s_lp_Force_Field>
OPLS_2005

> <r_lp_Energy>
10.3232

> <b_lp_Chiralities_Consistent>
1

> <s_lp_Variant>
AV-unprocessed.smi:997-1

> <Gold.Version>
5.8.1

> <Gold.Id.Protein>
6NUR|6NUR_protein|mol2

> <Gold.PLP.Fitness>
45.9884

> <Gold.PLP.PLP>
-37.7503

> <Gold.PLP.part.hbond>
-2.0000

> <Gold.PLP.part.metal>
0.0000

> <Gold.PLP.part.buried>
-5.1174

> <Gold.PLP.part.nonpolar>
-29.2511

> <Gold.PLP.part.repulsive>
0.1166

> <Gold.PLP.ligand.clash>
0.0000

> <Gold.PLP.ligand.torsion>
0.4506

> <Gold.PLP.Chemscore.Hbond>
3.0000

> <Gold.PLP.Chemscore.CHOScore>
0.0000

> <Gold.PLP.Chemscore.Metal>
0.0000

> <Gold.Chemscore.Hbonds>
donor molecule, donor type, donor heavy atom, donor atom, acceptor molecule, acceptor atom, score
      L1  H     7    27       P1  7957  1.00
      P1  H  7997  8008       L1    17  2.00

> <Gold.PLP.Chemscore.Internal.Correction>
0.1393

> <Gold.Rescore>
     Score         DG    S(hbond)    S(metal)    S(lipo)     H(rot)  DE(clash)    DE(int)     intcor
     15.70     -17.35       1.93        0.00      90.84       2.04       0.00       1.64       ----

> <Gold.Chemscore.Fitness>
15.7046

> <Gold.Chemscore.DG>
-17.3458

> <Gold.Chemscore.ZeroCoef>
-5.4800

> <Gold.Chemscore.Hbond>
1.9318

> <Gold.Chemscore.Metal>
0.0000

> <Gold.Chemscore.Lipo>
90.8436

> <Gold.Chemscore.Internal_Hbond>
0.0000

> <Gold.Chemscore.DEClash>
0.0000

> <Gold.Chemscore.DEInternal>
1.6412

> <Gold.Chemscore.Rot>
2.0372

> <Gold.Chemscore.Internal.Correction>
   9.000000E+99

> <Gold.Chemscore.Hbonds>
donor molecule, donor type, donor heavy atom, donor atom, acceptor molecule, acceptor atom, score
      L1  H     7    27       P1  7957  0.94
      P1  H  7997  8008       L1    17  0.45

> <Gold.Chemscore.Hbond.Weighted>
-6.4523

> <Gold.Chemscore.Metal.Weighted>
-0.0000

> <Gold.Chemscore.Lipo.Weighted>
-10.6287

> <Gold.Chemscore.Internal_Hbond.Weighted>
0.0000

> <Gold.Chemscore.DEClash.Weighted>
0.0000

> <Gold.Chemscore.DEInternal.Weighted>
1.6412

> <Gold.Chemscore.Rot.Weighted>
5.2152

> <Gold.Chemscore.Internal.Correction.Weighted>
   9.000000E+99

> <Gold.Protein.RotatedTorsions>
[ 6907 6896 6895 6894 ] final -119.29 input  -60.11 | X-H torsion
[ 7974 7965 7964 7962 ] final -120.84 input  175.53 | X-H torsion
[ 8008 7997 7996 7995 ] final -120.52 input   59.86 | X-H torsion
[ 10167 10162 10161 10158 ] final   61.16 input  -65.29 | X-H torsion
[ 10718 10713 10712 10709 ] final -103.89 input   66.30 | X-H torsion
[ 10763 10752 10751 10750 ] final   55.43 input  -60.55 | X-H torsion
[ 11005 11000 10999 10996 ] final  -61.08 input  -57.11 | X-H torsion

> <Gold.Protein.ActiveResidues>
 VAL166  LYS551  ARG553  GLY616  TRP617  ASP618  TYR619  PRO620  LYS621  CYS622 
 ASP623  PHE694  ASN695  SER759  ASP760  ASP761  ALA762  ILE779  LEU786  VAL792 
 PHE793  MET794  SER795  GLU796  ALA797  LYS798  CYS799  TRP800  GLU811  SER814 

> <Gold.Protein.RotatedAtoms>
  150.8293  133.8119  159.3105 H   0  0  0  0  0  0  0  0  0  0  0  0  # atno 6907 bound_to 6896
  151.5854  135.1054  160.0036 H   0  0  0  0  0  0  0  0  0  0  0  0  # atno 6908 bound_to 6896
  152.4374  133.7344  159.6662 H   0  0  0  0  0  0  0  0  0  0  0  0  # atno 6909 bound_to 6896
  145.0469  140.8188  143.4233 H   0  0  0  0  0  0  0  0  0  0  0  0  # atno 7974 bound_to 7965
  155.1332  140.0400  157.2780 H   0  0  0  0  0  0  0  0  0  0  0  0  # atno 8008 bound_to 7997
  154.6527  140.2573  155.7169 H   0  0  0  0  0  0  0  0  0  0  0  0  # atno 8009 bound_to 7997
  156.2584  140.2833  156.0967 H   0  0  0  0  0  0  0  0  0  0  0  0  # atno 8010 bound_to 7997
  140.1578  144.4400  150.6725 H   0  0  0  0  0  0  0  0  0  0  0  0  # atno 10167 bound_to 10162
  156.0283  130.5489  150.7317 H   0  0  0  0  0  0  0  0  0  0  0  0  # atno 10718 bound_to 10713
  152.9817  135.5711  154.5065 H   0  0  0  0  0  0  0  0  0  0  0  0  # atno 10763 bound_to 10752
  154.4576  135.2780  155.1738 H   0  0  0  0  0  0  0  0  0  0  0  0  # atno 10764 bound_to 10752
  154.3340  135.6243  153.5618 H   0  0  0  0  0  0  0  0  0  0  0  0  # atno 10765 bound_to 10752
  141.1311  133.6627  156.5321 H   0  0  0  0  0  0  0  0  0  0  0  0  # atno 11005 bound_to 11000
  145.1576  139.2477  143.5408 LP  0  0  0  0  0  0  0  0  0  0  0  0  # atno 17320 bound_to 7965
  146.3514  140.1295  142.8597 LP  0  0  0  0  0  0  0  0  0  0  0  0  # atno 17321 bound_to 7965
  140.6662  143.2269  151.5737 LP  0  0  0  0  0  0  0  0  0  0  0  0  # atno 17342 bound_to 10162
  139.5395  144.2686  152.1322 LP  0  0  0  0  0  0  0  0  0  0  0  0  # atno 17343 bound_to 10162
  157.4908  131.0910  151.0429 LP  0  0  0  0  0  0  0  0  0  0  0  0  # atno 17370 bound_to 10713
  157.0836  130.5913  149.5425 LP  0  0  0  0  0  0  0  0  0  0  0  0  # atno 17371 bound_to 10713
  140.4207  134.7190  157.4888 LP  0  0  0  0  0  0  0  0  0  0  0  0  # atno 17394 bound_to 11000
  140.0362  134.6334  155.9041 LP  0  0  0  0  0  0  0  0  0  0  0  0  # atno 17395 bound_to 11000

$$$$
