AV-unprocessed.smi:1379|AV-procd|sdf|5598|dock1
  -GOLD-   22720 5203D 1   1.00000     0.00000
 Structure written by MMmdl.
 34 35  0  0  0  0  0  0  0  0  1 V2000
  149.7294  135.2784  154.9134 C   0  0  0  0  0  0  0  0  0  0  0  0
  149.8021  136.6419  155.2899 O   0  0  0  0  0  0  0  0  0  0  0  0
  150.7155  137.3786  154.4910 C   0  0  0  0  0  0  0  0  0  0  0  0
  150.9521  138.7567  155.1127 C   0  0  0  0  0  0  0  0  0  0  0  0
  150.7646  139.7760  154.4481 O   0  0  0  0  0  0  0  0  0  0  0  0
  151.3846  138.7424  156.3869 N   0  0  0  0  0  0  0  0  0  0  0  0
  151.6947  139.8410  157.2340 C   0  0  0  0  0  0  0  0  0  0  0  0
  152.4004  139.7341  158.4562 C   0  0  0  0  0  0  0  0  0  0  0  0
  152.6590  140.9029  159.1974 C   0  0  0  0  0  0  0  0  0  0  0  0
  152.2167  142.1430  158.6933 C   0  0  0  0  0  0  0  0  0  0  0  0
  152.4730  143.3042  159.4381 N   0  0  0  0  0  0  0  0  0  0  0  0
  151.9188  144.5357  158.8998 C   0  0  0  0  0  0  0  0  0  0  0  0
  151.9967  145.5493  160.0441 C   0  0  0  0  0  0  0  0  0  0  0  0
  152.0600  144.6982  161.3184 C   0  0  0  0  0  0  0  0  0  0  0  0
  152.0434  143.2485  160.8253 C   0  0  0  0  0  0  0  0  0  0  0  0
  151.5526  142.2539  157.5180 N   0  0  0  0  0  0  0  0  0  0  0  0
  151.3065  141.1296  156.8127 C   0  0  0  0  0  0  0  0  0  0  0  0
  149.0132  134.7601  155.5507 H   0  0  0  0  0  0  0  0  0  0  0  0
  150.6967  134.7870  155.0248 H   0  0  0  0  0  0  0  0  0  0  0  0
  149.3990  135.1716  153.8794 H   0  0  0  0  0  0  0  0  0  0  0  0
  151.6666  136.8485  154.4173 H   0  0  0  0  0  0  0  0  0  0  0  0
  150.3192  137.5038  153.4820 H   0  0  0  0  0  0  0  0  0  0  0  0
  151.5681  137.8299  156.7787 H   0  0  0  0  0  0  0  0  0  0  0  0
  152.7587  138.7893  158.8335 H   0  0  0  0  0  0  0  0  0  0  0  0
  153.1935  140.8461  160.1345 H   0  0  0  0  0  0  0  0  0  0  0  0
  152.4802  144.8710  158.0273 H   0  0  0  0  0  0  0  0  0  0  0  0
  150.8803  144.3922  158.5980 H   0  0  0  0  0  0  0  0  0  0  0  0
  152.9024  146.1507  159.9558 H   0  0  0  0  0  0  0  0  0  0  0  0
  151.1440  146.2290  160.0388 H   0  0  0  0  0  0  0  0  0  0  0  0
  152.9845  144.9062  161.8584 H   0  0  0  0  0  0  0  0  0  0  0  0
  151.2278  144.8998  161.9934 H   0  0  0  0  0  0  0  0  0  0  0  0
  151.0345  142.8392  160.8959 H   0  0  0  0  0  0  0  0  0  0  0  0
  152.7051  142.6150  161.4167 H   0  0  0  0  0  0  0  0  0  0  0  0
  150.7761  141.2650  155.8813 H   0  0  0  0  0  0  0  0  0  0  0  0
  1  2  1  0  0  0  0
  1 18  1  0  0  0  0
  1 19  1  0  0  0  0
  1 20  1  0  0  0  0
  2  3  1  0  0  0  0
  3  4  1  0  0  0  0
  3 21  1  0  0  0  0
  3 22  1  0  0  0  0
  4  5  2  0  0  0  0
  4  6  1  0  0  0  0
  6  7  1  0  0  0  0
  6 23  1  0  0  0  0
  7 17  1  0  0  0  0
  7  8  2  0  0  0  0
  8  9  1  0  0  0  0
  8 24  1  0  0  0  0
  9 10  2  0  0  0  0
  9 25  1  0  0  0  0
 10 11  1  0  0  0  0
 10 16  1  0  0  0  0
 11 15  1  0  0  0  0
 11 12  1  0  0  0  0
 12 13  1  0  0  0  0
 12 26  1  0  0  0  0
 12 27  1  0  0  0  0
 13 14  1  0  0  0  0
 13 28  1  0  0  0  0
 13 29  1  0  0  0  0
 14 15  1  0  0  0  0
 14 30  1  0  0  0  0
 14 31  1  0  0  0  0
 15 32  1  0  0  0  0
 15 33  1  0  0  0  0
 16 17  2  0  0  0  0
 17 34  1  0  0  0  0
M  END
> <s_m_source_file>
AV-unprocessed.smi

> <i_m_source_file_index>
1379

> <i_lp_mmshare_version>
43012

> <i_f3d_flags>
0

> <s_epik_input>
W0NIM11PW0NIMl1DKD1PKVtOSF1jMVtjSF1bY0hdYyhuW2NIXTEpTjJbQ0gyXVtDSDJdW0NIMl1bQ0gyXTI=

> <s_epik_cmdline>
J2VwaWtfcHl0aG9uJywgJy1waCcsICc3LjAnLCAnLXRuJywgJzgnLCAnLW1hJywgJzIwMCcsICctbWV0YWxfYmluZGluZycsICctaW1hZScsICc8aW5maWxlLm1hZT4nLCAnLW9tYWUnLCAnPG91dGZpbGUubWFlPic=

> <r_lp_tautomer_probability>
1

> <r_epik_Ionization_Penalty>
0.0264378

> <r_epik_Ionization_Penalty_Charging>
0

> <r_epik_Ionization_Penalty_Neutral>
0.0264378

> <r_epik_State_Penalty>
0.0211097

> <r_epik_Charging_Adjusted_Penalty>
0.0211097

> <i_epik_Tot_Q>
0

> <i_epik_Tot_abs_Q>
0

> <r_epik_Metal_State_Penalty>
0.0201313

> <b_epik_Metal_Only>
0

> <s_lp_Force_Field>
OPLS_2005

> <r_lp_Energy>
37.8316

> <b_lp_Chiralities_Consistent>
1

> <s_lp_Variant>
AV-unprocessed.smi:1379-1

> <Gold.Version>
5.8.1

> <Gold.Id.Protein>
6NUR|6NUR_protein|mol2

> <Gold.PLP.Fitness>
36.8942

> <Gold.PLP.PLP>
-34.1774

> <Gold.PLP.part.hbond>
-1.0000

> <Gold.PLP.part.metal>
0.0000

> <Gold.PLP.part.buried>
-3.4265

> <Gold.PLP.part.nonpolar>
-29.1619

> <Gold.PLP.part.repulsive>
0.3851

> <Gold.PLP.ligand.clash>
0.0000

> <Gold.PLP.ligand.torsion>
0.1541

> <Gold.PLP.Chemscore.Hbond>
1.0000

> <Gold.PLP.Chemscore.CHOScore>
0.0000

> <Gold.PLP.Chemscore.Metal>
0.0000

> <Gold.Chemscore.Hbonds>
donor molecule, donor type, donor heavy atom, donor atom, acceptor molecule, acceptor atom, score
      P1  H  7989  7998       L1     5  1.00

> <Gold.PLP.Chemscore.Internal.Correction>
0.0249

> <Gold.Rescore>
     Score         DG    S(hbond)    S(metal)    S(lipo)     H(rot)  DE(clash)    DE(int)     intcor
     13.98     -15.55       1.00        0.00      88.55       1.42       0.09       1.48       ----

> <Gold.Chemscore.Fitness>
13.9773

> <Gold.Chemscore.DG>
-15.5512

> <Gold.Chemscore.ZeroCoef>
-5.4800

> <Gold.Chemscore.Hbond>
0.9983

> <Gold.Chemscore.Metal>
0.0000

> <Gold.Chemscore.Lipo>
88.5479

> <Gold.Chemscore.Internal_Hbond>
0.0000

> <Gold.Chemscore.DEClash>
0.0929

> <Gold.Chemscore.DEInternal>
1.4810

> <Gold.Chemscore.Rot>
1.4153

> <Gold.Chemscore.Internal.Correction>
   9.000000E+99

> <Gold.Chemscore.Hbonds>
donor molecule, donor type, donor heavy atom, donor atom, acceptor molecule, acceptor atom, score
      P1  H  7989  7998       L1     5  1.00

> <Gold.Chemscore.Hbond.Weighted>
-3.3342

> <Gold.Chemscore.Metal.Weighted>
-0.0000

> <Gold.Chemscore.Lipo.Weighted>
-10.3601

> <Gold.Chemscore.Internal_Hbond.Weighted>
0.0000

> <Gold.Chemscore.DEClash.Weighted>
0.0929

> <Gold.Chemscore.DEInternal.Weighted>
1.4810

> <Gold.Chemscore.Rot.Weighted>
3.6231

> <Gold.Chemscore.Internal.Correction.Weighted>
   9.000000E+99

> <Gold.Protein.RotatedTorsions>
[ 6907 6896 6895 6894 ] final  128.14 input  -60.11 | X-H torsion
[ 7974 7965 7964 7962 ] final   77.08 input  175.53 | X-H torsion
[ 8008 7997 7996 7995 ] final  -72.78 input   59.86 | X-H torsion
[ 10167 10162 10161 10158 ] final  -94.54 input  -65.29 | X-H torsion
[ 10718 10713 10712 10709 ] final   16.75 input   66.30 | X-H torsion
[ 10763 10752 10751 10750 ] final  -83.45 input  -60.55 | X-H torsion
[ 11005 11000 10999 10996 ] final  -81.78 input  -57.11 | X-H torsion

> <Gold.Protein.ActiveResidues>
 VAL166  LYS551  ARG553  GLY616  TRP617  ASP618  TYR619  PRO620  LYS621  CYS622 
 ASP623  PHE694  ASN695  SER759  ASP760  ASP761  ALA762  ILE779  LEU786  VAL792 
 PHE793  MET794  SER795  GLU796  ALA797  LYS798  CYS799  TRP800  GLU811  SER814 

> <Gold.Protein.RotatedAtoms>
  152.3747  133.6466  159.6114 H   0  0  0  0  0  0  0  0  0  0  0  0  # atno 6907 bound_to 6896
  150.7695  133.9212  159.3407 H   0  0  0  0  0  0  0  0  0  0  0  0  # atno 6908 bound_to 6896
  151.7028  135.0928  160.0305 H   0  0  0  0  0  0  0  0  0  0  0  0  # atno 6909 bound_to 6896
  145.6945  139.2563  143.1740 H   0  0  0  0  0  0  0  0  0  0  0  0  # atno 7974 bound_to 7965
  154.5194  140.0791  156.8143 H   0  0  0  0  0  0  0  0  0  0  0  0  # atno 8008 bound_to 7997
  155.3609  140.3418  155.4222 H   0  0  0  0  0  0  0  0  0  0  0  0  # atno 8009 bound_to 7997
  156.1664  140.1605  156.8511 H   0  0  0  0  0  0  0  0  0  0  0  0  # atno 8010 bound_to 7997
  140.3134  143.3091  152.0124 H   0  0  0  0  0  0  0  0  0  0  0  0  # atno 10167 bound_to 10162
  157.0723  130.6353  149.5808 H   0  0  0  0  0  0  0  0  0  0  0  0  # atno 10718 bound_to 10713
  154.5878  135.5556  153.7248 H   0  0  0  0  0  0  0  0  0  0  0  0  # atno 10763 bound_to 10752
  153.0105  135.6336  154.1892 H   0  0  0  0  0  0  0  0  0  0  0  0  # atno 10764 bound_to 10752
  154.1832  135.2886  155.3025 H   0  0  0  0  0  0  0  0  0  0  0  0  # atno 10765 bound_to 10752
  141.1665  133.7213  156.8474 H   0  0  0  0  0  0  0  0  0  0  0  0  # atno 11005 bound_to 11000
  146.0852  140.7719  142.9622 LP  0  0  0  0  0  0  0  0  0  0  0  0  # atno 17320 bound_to 7965
  144.6986  140.3551  143.7174 LP  0  0  0  0  0  0  0  0  0  0  0  0  # atno 17321 bound_to 7965
  139.4889  144.6367  151.6961 LP  0  0  0  0  0  0  0  0  0  0  0  0  # atno 17342 bound_to 10162
  140.5548  144.0366  150.6143 LP  0  0  0  0  0  0  0  0  0  0  0  0  # atno 17343 bound_to 10162
  155.9947  130.5011  150.7430 LP  0  0  0  0  0  0  0  0  0  0  0  0  # atno 17370 bound_to 10713
  157.4868  131.0907  151.0473 LP  0  0  0  0  0  0  0  0  0  0  0  0  # atno 17371 bound_to 10713
  140.1940  134.8945  157.3093 LP  0  0  0  0  0  0  0  0  0  0  0  0  # atno 17394 bound_to 11000
  140.2259  134.3967  155.7544 LP  0  0  0  0  0  0  0  0  0  0  0  0  # atno 17395 bound_to 11000

$$$$
