AV-unprocessed.smi:54|AV-procd|sdf|538|dock10
  -GOLD-   2262016423D 1   1.00000     0.00000
 Structure written by MMmdl.
 44 46  0  0  0  0  0  0  0  0  1 V2000
  145.5903  136.1101  161.3762 C   0  0  0  0  0  0  0  0  0  0  0  0
  146.8252  135.3251  160.9054 C   0  0  0  0  0  0  0  0  0  0  0  0
  147.6223  134.7729  162.0984 C   0  0  0  0  0  0  0  0  0  0  0  0
  147.7157  136.2036  160.0193 C   0  0  0  0  0  0  0  0  0  0  0  0
  148.2469  137.2309  160.4428 O   0  0  0  0  0  0  0  0  0  0  0  0
  147.8809  135.7427  158.6518 N   0  0  0  0  0  0  0  0  0  0  0  0
  148.6028  136.3291  157.6687 C   0  0  0  0  0  0  0  0  0  0  0  0
  148.0993  137.2322  156.8396 N   0  0  0  0  0  0  0  0  0  0  0  0
  148.9812  137.7073  155.9093 C   0  0  0  0  0  0  0  0  0  0  0  0
  150.3071  137.3517  155.7781 C   0  0  0  0  0  0  0  0  0  0  0  0
  150.8894  138.0568  154.7315 N   0  0  0  0  0  0  0  0  0  0  0  0
  149.9215  138.8012  154.2735 C   0  0  0  0  0  0  0  0  0  0  0  0
  148.7169  138.6283  154.9173 N   0  0  0  0  0  0  0  0  0  0  0  0
  147.4025  139.3172  154.6938 C   0  0  1  0  0  0  0  0  0  0  0  0
  147.0248  139.9575  155.8717 O   0  0  0  0  0  0  0  0  0  0  0  0
  147.5671  141.2715  155.8839 C   0  0  2  0  0  0  0  0  0  0  0  0
  146.7971  142.1455  156.8848 C   0  0  0  0  0  0  0  0  0  0  0  0
  147.0112  141.6775  158.1990 O   0  0  0  0  0  0  0  0  0  0  0  0
  147.3943  141.7125  154.4260 C   0  0  1  0  0  0  0  0  0  0  0  0
  148.4073  142.6351  154.0769 O   0  0  0  0  0  0  0  0  0  0  0  0
  147.5399  140.4179  153.6242 C   0  0  2  0  0  0  0  0  0  0  0  0
  146.5214  140.3178  152.6497 O   0  0  0  0  0  0  0  0  0  0  0  0
  150.8707  136.3829  156.6739 C   0  0  0  0  0  0  0  0  0  0  0  0
  152.0209  135.9504  156.7032 O   0  0  0  0  0  0  0  0  0  0  0  0
  149.9331  135.9145  157.6036 N   0  0  0  0  0  0  0  0  0  0  0  0
  146.7191  138.5072  154.4344 H   0  0  0  0  0  0  0  0  0  0  0  0
  148.6286  141.2315  156.1368 H   0  0  0  0  0  0  0  0  0  0  0  0
  146.4095  142.1586  154.2770 H   0  0  0  0  0  0  0  0  0  0  0  0
  148.5116  140.3502  153.1321 H   0  0  0  0  0  0  0  0  0  0  0  0
  145.0195  136.4963  160.5309 H   0  0  0  0  0  0  0  0  0  0  0  0
  145.8688  136.9569  162.0050 H   0  0  0  0  0  0  0  0  0  0  0  0
  144.9227  135.4734  161.9573 H   0  0  0  0  0  0  0  0  0  0  0  0
  146.4808  134.4782  160.3101 H   0  0  0  0  0  0  0  0  0  0  0  0
  148.5013  134.2190  161.7664 H   0  0  0  0  0  0  0  0  0  0  0  0
  147.0125  134.0918  162.6928 H   0  0  0  0  0  0  0  0  0  0  0  0
  147.9618  135.5722  162.7586 H   0  0  0  0  0  0  0  0  0  0  0  0
  147.3783  134.9029  158.4055 H   0  0  0  0  0  0  0  0  0  0  0  0
  150.0673  139.4912  153.4550 H   0  0  0  0  0  0  0  0  0  0  0  0
  147.1597  143.1726  156.8403 H   0  0  0  0  0  0  0  0  0  0  0  0
  145.7311  142.1673  156.6564 H   0  0  0  0  0  0  0  0  0  0  0  0
  147.3827  140.8098  158.1523 H   0  0  0  0  0  0  0  0  0  0  0  0
  148.4130  143.3316  154.7157 H   0  0  0  0  0  0  0  0  0  0  0  0
  145.6855  140.2971  153.0896 H   0  0  0  0  0  0  0  0  0  0  0  0
  150.2603  135.2260  158.2651 H   0  0  0  0  0  0  0  0  0  0  0  0
  1  2  1  0  0  0  0
  1 30  1  0  0  0  0
  1 31  1  0  0  0  0
  1 32  1  0  0  0  0
  2  3  1  0  0  0  0
  2  4  1  0  0  0  0
  2 33  1  0  0  0  0
  3 34  1  0  0  0  0
  3 35  1  0  0  0  0
  3 36  1  0  0  0  0
  4  5  2  0  0  0  0
  4  6  1  0  0  0  0
  6 37  1  0  0  0  0
  6  7  1  0  0  0  0
  7 25  1  0  0  0  0
  7  8  2  0  0  0  0
  8  9  1  0  0  0  0
  9 13  1  0  0  0  0
  9 10  2  0  0  0  0
 10 11  1  0  0  0  0
 10 23  1  0  0  0  0
 11 12  2  0  0  0  0
 12 13  1  0  0  0  0
 12 38  1  0  0  0  0
 13 14  1  0  0  0  0
 14 26  1  0  0  0  0
 14 21  1  0  0  0  0
 14 15  1  0  0  0  0
 15 16  1  0  0  0  0
 16 27  1  0  0  0  0
 16 17  1  0  0  0  0
 16 19  1  0  0  0  0
 17 18  1  0  0  0  0
 17 39  1  0  0  0  0
 17 40  1  0  0  0  0
 18 41  1  0  0  0  0
 19 28  1  0  0  0  0
 19 20  1  0  0  0  0
 19 21  1  0  0  0  0
 20 42  1  0  0  0  0
 21 29  1  0  0  0  0
 21 22  1  0  0  0  0
 22 43  1  0  0  0  0
 23 24  2  0  0  0  0
 23 25  1  0  0  0  0
 25 44  1  0  0  0  0
M  END
> <s_m_source_file>
AV-unprocessed.smi

> <i_m_source_file_index>
54

> <i_lp_mmshare_version>
43012

> <i_f3d_flags>
0

> <s_epik_input>
W0NIM11bQ0hdKFtDSDNdKUMoPU8pW05IXWMobjEpW25IXWMoPU8pYyhjMTIpbltjSF1uMltDQEBIXTNPW0NASF0oW0NIMl1bT0hdKVtDQEBIXShbT0hdKVtDQEhdM1tPSF0=

> <s_epik_cmdline>
J2VwaWtfcHl0aG9uJywgJy1waCcsICc3LjAnLCAnLXRuJywgJzgnLCAnLW1hJywgJzIwMCcsICctbWV0YWxfYmluZGluZycsICctaW1hZScsICc8aW5maWxlLm1hZT4nLCAnLW9tYWUnLCAnPG91dGZpbGUubWFlPic=

> <r_lp_tautomer_probability>
0.85571

> <r_epik_Ionization_Penalty>
0.0316551

> <r_epik_Ionization_Penalty_Charging>
0.0316043

> <r_epik_Ionization_Penalty_Neutral>
5.07097e-05

> <r_epik_State_Penalty>
3.15494e-07

> <r_epik_Charging_Adjusted_Penalty>
0.0316047

> <i_epik_Tot_Q>
0

> <i_epik_Tot_abs_Q>
0

> <r_epik_Metal_State_Penalty>
0.421206

> <b_epik_Metal_Only>
0

> <s_epik_Chemistry_Notes>
This compound contains an acetal/aminal-like group ( X-CH(R)-Y where X, Y are N, S, or O) that may be acid/base labile, releasing an aldehyde.

> <s_lp_Force_Field>
OPLS_2005

> <r_lp_Energy>
36.3126

> <b_lp_Chiralities_Consistent>
1

> <s_lp_Variant>
AV-unprocessed.smi:54-10

> <Gold.Version>
5.8.1

> <Gold.Id.Protein>
6NUR|6NUR_protein|mol2

> <Gold.PLP.Fitness>
41.2515

> <Gold.PLP.PLP>
-28.4349

> <Gold.PLP.part.hbond>
-7.1619

> <Gold.PLP.part.metal>
0.0000

> <Gold.PLP.part.buried>
-4.9417

> <Gold.PLP.part.nonpolar>
-17.0234

> <Gold.PLP.part.repulsive>
0.2998

> <Gold.PLP.ligand.clash>
0.0000

> <Gold.PLP.ligand.torsion>
0.8157

> <Gold.PLP.Chemscore.Hbond>
3.7981

> <Gold.PLP.Chemscore.CHOScore>
1.0000

> <Gold.PLP.Chemscore.Metal>
0.0000

> <Gold.Chemscore.Hbonds>
donor molecule, donor type, donor heavy atom, donor atom, acceptor molecule, acceptor atom, score
      L1  H    20    42       P1  8028  1.00
      L1  H    22    43       P1 10175  0.57
      P1  H  6931  6943       L1     5  0.72
      P1  H  6934  6947       L1     5  0.48
      P1  H  8011  8017       L1    20  0.04
      P1  H 10752 10765       L1    24  0.94
      L1  C    12    38       P1  7957  1.00

> <Gold.PLP.Chemscore.Internal.Correction>
0.0538

> <Gold.Rescore>
     Score         DG    S(hbond)    S(metal)    S(lipo)     H(rot)  DE(clash)    DE(int)     intcor
     11.88     -12.86       3.85        0.00      41.75       4.05       0.13       0.84       ----

> <Gold.Chemscore.Fitness>
11.8846

> <Gold.Chemscore.DG>
-12.8642

> <Gold.Chemscore.ZeroCoef>
-5.4800

> <Gold.Chemscore.Hbond>
3.8519

> <Gold.Chemscore.Metal>
0.0000

> <Gold.Chemscore.Lipo>
41.7531

> <Gold.Chemscore.Internal_Hbond>
0.0000

> <Gold.Chemscore.DEClash>
0.1349

> <Gold.Chemscore.DEInternal>
0.8448

> <Gold.Chemscore.Rot>
4.0493

> <Gold.Chemscore.Internal.Correction>
   9.000000E+99

> <Gold.Chemscore.Hbonds>
donor molecule, donor type, donor heavy atom, donor atom, acceptor molecule, acceptor atom, score
      L1  H    20    42       P1  8028  1.00
      L1  H    22    43       P1 10175  0.52
      P1  H  6931  6943       L1     5  0.71
      P1  H  6934  6947       L1     5  0.48
      P1  H  8011  8017       L1    20  0.06
      P1  H 10752 10765       L1    24  0.90

> <Gold.Chemscore.Hbond.Weighted>
-12.8653

> <Gold.Chemscore.Metal.Weighted>
-0.0000

> <Gold.Chemscore.Lipo.Weighted>
-4.8851

> <Gold.Chemscore.Internal_Hbond.Weighted>
0.0000

> <Gold.Chemscore.DEClash.Weighted>
0.1349

> <Gold.Chemscore.DEInternal.Weighted>
0.8448

> <Gold.Chemscore.Rot.Weighted>
10.3662

> <Gold.Chemscore.Internal.Correction.Weighted>
   9.000000E+99

> <Gold.Protein.RotatedTorsions>
[ 6907 6896 6895 6894 ] final  119.72 input  -60.11 | X-H torsion
[ 7974 7965 7964 7962 ] final -126.85 input  175.53 | X-H torsion
[ 8008 7997 7996 7995 ] final  -31.63 input   59.86 | X-H torsion
[ 10167 10162 10161 10158 ] final  131.40 input  -65.29 | X-H torsion
[ 10718 10713 10712 10709 ] final   12.48 input   66.30 | X-H torsion
[ 10763 10752 10751 10750 ] final -151.67 input  -60.55 | X-H torsion
[ 11005 11000 10999 10996 ] final   39.42 input  -57.11 | X-H torsion

> <Gold.Protein.ActiveResidues>
 VAL166  LYS551  ARG553  GLY616  TRP617  ASP618  TYR619  PRO620  LYS621  CYS622 
 ASP623  PHE694  ASN695  SER759  ASP760  ASP761  ALA762  ILE779  LEU786  VAL792 
 PHE793  MET794  SER795  GLU796  ALA797  LYS798  CYS799  TRP800  GLU811  SER814 

> <Gold.Protein.RotatedAtoms>
  152.4451  133.7522  159.6699 H   0  0  0  0  0  0  0  0  0  0  0  0  # atno 6907 bound_to 6896
  150.8350  133.8018  159.3089 H   0  0  0  0  0  0  0  0  0  0  0  0  # atno 6908 bound_to 6896
  151.5661  135.1066  160.0036 H   0  0  0  0  0  0  0  0  0  0  0  0  # atno 6909 bound_to 6896
  144.9830  140.7659  143.4600 H   0  0  0  0  0  0  0  0  0  0  0  0  # atno 7974 bound_to 7965
  154.4207  140.1759  156.1597 H   0  0  0  0  0  0  0  0  0  0  0  0  # atno 8008 bound_to 7997
  155.9848  140.3374  155.6672 H   0  0  0  0  0  0  0  0  0  0  0  0  # atno 8009 bound_to 7997
  155.6452  140.0684  157.2596 H   0  0  0  0  0  0  0  0  0  0  0  0  # atno 8010 bound_to 7997
  139.5385  144.6707  151.4703 H   0  0  0  0  0  0  0  0  0  0  0  0  # atno 10167 bound_to 10162
  157.0107  130.6116  149.5708 H   0  0  0  0  0  0  0  0  0  0  0  0  # atno 10718 bound_to 10713
  154.8043  135.3254  154.7471 H   0  0  0  0  0  0  0  0  0  0  0  0  # atno 10763 bound_to 10752
  153.8133  135.6894  153.4842 H   0  0  0  0  0  0  0  0  0  0  0  0  # atno 10764 bound_to 10752
  153.1778  135.4598  154.9933 H   0  0  0  0  0  0  0  0  0  0  0  0  # atno 10765 bound_to 10752
  140.2029  134.3848  155.8087 H   0  0  0  0  0  0  0  0  0  0  0  0  # atno 11005 bound_to 11000
  145.2393  139.2079  143.5001 LP  0  0  0  0  0  0  0  0  0  0  0  0  # atno 17320 bound_to 7965
  146.3413  140.2285  142.8593 LP  0  0  0  0  0  0  0  0  0  0  0  0  # atno 17321 bound_to 7965
  140.6604  143.8510  150.6882 LP  0  0  0  0  0  0  0  0  0  0  0  0  # atno 17342 bound_to 10162
  140.1903  143.4042  152.1868 LP  0  0  0  0  0  0  0  0  0  0  0  0  # atno 17343 bound_to 10162
  156.0137  130.5230  150.8068 LP  0  0  0  0  0  0  0  0  0  0  0  0  # atno 17370 bound_to 10713
  157.5322  131.0937  150.9940 LP  0  0  0  0  0  0  0  0  0  0  0  0  # atno 17371 bound_to 10713
  141.2227  133.7103  156.8289 LP  0  0  0  0  0  0  0  0  0  0  0  0  # atno 17394 bound_to 11000
  140.2034  134.8880  157.3194 LP  0  0  0  0  0  0  0  0  0  0  0  0  # atno 17395 bound_to 11000

$$$$
