AV-unprocessed.smi:34|AV-procd|sdf|217|dock4
  -GOLD-   2262015533D 1   1.00000     0.00000
 Structure written by MMmdl.
 55 59  0  0  0  0  0  0  0  0  1 V2000
  150.5983  141.3059  157.3735 O   0  0  0  0  0  0  0  0  0  0  0  0
  151.4586  141.3153  158.2544 C   0  0  0  0  0  0  0  0  0  0  0  0
  152.2433  140.1371  158.5802 N   0  0  0  0  0  0  0  0  0  0  0  0
  152.2257  138.9267  157.9734 C   0  0  0  0  0  0  0  0  0  0  0  0
  153.2633  138.4714  157.2230 N   0  0  0  0  0  0  0  0  0  0  0  0
  153.1968  137.2707  156.6412 C   0  0  0  0  0  0  0  0  0  0  0  0
  152.2033  136.3808  156.6791 N   0  0  0  0  0  0  0  0  0  0  0  0
  151.1577  136.8276  157.4319 C   0  0  0  0  0  0  0  0  0  0  0  0
  151.0950  138.0790  158.1066 C   0  0  0  0  0  0  0  0  0  0  0  0
  149.8831  138.1926  158.7746 N   0  0  0  0  0  0  0  0  0  0  0  0
  149.2695  137.0710  158.5079 C   0  0  0  0  0  0  0  0  0  0  0  0
  149.9608  136.1948  157.7007 N   0  0  0  0  0  0  0  0  0  0  0  0
  149.5111  134.8483  157.2336 C   0  0  2  0  0  0  0  0  0  0  0  0
  150.3582  133.8854  157.7878 O   0  0  0  0  0  0  0  0  0  0  0  0
  150.6859  132.8886  156.8162 C   0  0  2  0  0  0  0  0  0  0  0  0
  152.1923  132.9397  156.5237 C   0  0  0  0  0  0  0  0  0  0  0  0
  152.6074  131.7063  155.9592 O   0  0  0  0  0  0  0  0  0  0  0  0
  153.9027  131.5132  155.6412 C   0  0  0  0  0  0  0  0  0  0  0  0
  154.7926  132.3329  155.8773 O   0  0  0  0  0  0  0  0  0  0  0  0
  154.1473  130.2035  154.9706 C   0  0  0  0  0  0  0  0  0  0  0  0
  153.0499  129.3619  154.6731 C   0  0  0  0  0  0  0  0  0  0  0  0
  153.2497  128.1183  154.0422 C   0  0  0  0  0  0  0  0  0  0  0  0
  154.5495  127.7011  153.7017 C   0  0  0  0  0  0  0  0  0  0  0  0
  155.6495  128.5288  153.9926 C   0  0  0  0  0  0  0  0  0  0  0  0
  155.4517  129.7729  154.6231 C   0  0  0  0  0  0  0  0  0  0  0  0
  149.8216  133.2113  155.5935 C   0  0  1  0  0  0  0  0  0  0  0  0
  148.6610  132.5646  155.7357 F   0  0  0  0  0  0  0  0  0  0  0  0
  149.6236  134.7128  155.7157 C   0  0  1  0  0  0  0  0  0  0  0  0
  148.4642  135.1219  155.0181 O   0  0  0  0  0  0  0  0  0  0  0  0
  151.6982  142.5260  159.1093 C   0  0  0  0  0  0  0  0  0  0  0  0
  152.5426  142.4371  160.2391 C   0  0  0  0  0  0  0  0  0  0  0  0
  152.7590  143.5619  161.0584 C   0  0  0  0  0  0  0  0  0  0  0  0
  152.1283  144.7841  160.7589 C   0  0  0  0  0  0  0  0  0  0  0  0
  151.2772  144.8794  159.6417 C   0  0  0  0  0  0  0  0  0  0  0  0
  151.0591  143.7548  158.8221 C   0  0  0  0  0  0  0  0  0  0  0  0
  152.8941  140.2382  159.3454 H   0  0  0  0  0  0  0  0  0  0  0  0
  154.0617  136.9824  156.0623 H   0  0  0  0  0  0  0  0  0  0  0  0
  148.2844  136.8521  158.8936 H   0  0  0  0  0  0  0  0  0  0  0  0
  148.4964  134.7193  157.6137 H   0  0  0  0  0  0  0  0  0  0  0  0
  150.4361  131.9084  157.2251 H   0  0  0  0  0  0  0  0  0  0  0  0
  152.4262  133.7593  155.8440 H   0  0  0  0  0  0  0  0  0  0  0  0
  152.7441  133.1098  157.4491 H   0  0  0  0  0  0  0  0  0  0  0  0
  152.0427  129.6608  154.9255 H   0  0  0  0  0  0  0  0  0  0  0  0
  152.4041  127.4842  153.8201 H   0  0  0  0  0  0  0  0  0  0  0  0
  154.7025  126.7475  153.2180 H   0  0  0  0  0  0  0  0  0  0  0  0
  156.6479  128.2095  153.7322 H   0  0  0  0  0  0  0  0  0  0  0  0
  156.3180  130.3833  154.8325 H   0  0  0  0  0  0  0  0  0  0  0  0
  150.2591  132.9002  154.6441 H   0  0  0  0  0  0  0  0  0  0  0  0
  150.5032  135.2438  155.3502 H   0  0  0  0  0  0  0  0  0  0  0  0
  148.7193  135.4021  154.1523 H   0  0  0  0  0  0  0  0  0  0  0  0
  153.0337  141.5059  160.4835 H   0  0  0  0  0  0  0  0  0  0  0  0
  153.4089  143.4863  161.9176 H   0  0  0  0  0  0  0  0  0  0  0  0
  152.2943  145.6468  161.3873 H   0  0  0  0  0  0  0  0  0  0  0  0
  150.7879  145.8153  159.4153 H   0  0  0  0  0  0  0  0  0  0  0  0
  150.3940  143.8477  157.9760 H   0  0  0  0  0  0  0  0  0  0  0  0
  1  2  2  0  0  0  0
  2  3  1  0  0  0  0
  2 30  1  0  0  0  0
  3  4  1  0  0  0  0
  3 36  1  0  0  0  0
  4  9  1  0  0  0  0
  4  5  2  0  0  0  0
  5  6  1  0  0  0  0
  6  7  2  0  0  0  0
  6 37  1  0  0  0  0
  7  8  1  0  0  0  0
  8 12  1  0  0  0  0
  8  9  2  0  0  0  0
  9 10  1  0  0  0  0
 10 11  2  0  0  0  0
 11 12  1  0  0  0  0
 11 38  1  0  0  0  0
 12 13  1  0  0  0  0
 13 28  1  0  0  0  0
 13 14  1  0  0  0  0
 13 39  1  0  0  0  0
 14 15  1  0  0  0  0
 15 16  1  0  0  0  0
 15 26  1  0  0  0  0
 15 40  1  0  0  0  0
 16 17  1  0  0  0  0
 16 41  1  0  0  0  0
 16 42  1  0  0  0  0
 17 18  1  0  0  0  0
 18 19  2  0  0  0  0
 18 20  1  0  0  0  0
 20 25  1  0  0  0  0
 20 21  2  0  0  0  0
 21 22  1  0  0  0  0
 21 43  1  0  0  0  0
 22 23  2  0  0  0  0
 22 44  1  0  0  0  0
 23 24  1  0  0  0  0
 23 45  1  0  0  0  0
 24 25  2  0  0  0  0
 24 46  1  0  0  0  0
 25 47  1  0  0  0  0
 26 27  1  0  0  0  0
 26 28  1  0  0  0  0
 26 48  1  0  0  0  0
 28 29  1  0  0  0  0
 28 49  1  0  0  0  0
 29 50  1  0  0  0  0
 30 35  1  0  0  0  0
 30 31  2  0  0  0  0
 31 32  1  0  0  0  0
 31 51  1  0  0  0  0
 32 33  2  0  0  0  0
 32 52  1  0  0  0  0
 33 34  1  0  0  0  0
 33 53  1  0  0  0  0
 34 35  2  0  0  0  0
 34 54  1  0  0  0  0
 35 55  1  0  0  0  0
M  END
> <s_m_source_file>
AV-unprocessed.smi

> <i_m_source_file_index>
34

> <i_lp_mmshare_version>
43012

> <i_f3d_flags>
0

> <s_epik_input>
W2NIXTFbY0hdW2NIXVtjSF1bY0hdYzFDKD1PKVtOSF1jKG5bY0hdbjIpYyhjMjMpbltjSF1uM1tDQEBIXTRPW0NASF0oW0NAQEhdKEYpW0NASF00W09IXSlbQ0gyXU9DKD1PKWM1W2NIXVtjSF1bY0hdW2NIXVtjSF01

> <s_epik_cmdline>
J2VwaWtfcHl0aG9uJywgJy1waCcsICc3LjAnLCAnLXRuJywgJzgnLCAnLW1hJywgJzIwMCcsICctbWV0YWxfYmluZGluZycsICctaW1hZScsICc8aW5maWxlLm1hZT4nLCAnLW9tYWUnLCAnPG91dGZpbGUubWFlPic=

> <r_lp_tautomer_probability>
1

> <r_epik_Ionization_Penalty>
0.00257489

> <r_epik_Ionization_Penalty_Charging>
0

> <r_epik_Ionization_Penalty_Neutral>
0.00257489

> <r_epik_State_Penalty>
0.00519398

> <r_epik_Charging_Adjusted_Penalty>
0.00519398

> <i_epik_Tot_Q>
0

> <i_epik_Tot_abs_Q>
0

> <r_epik_Metal_State_Penalty>
0.335891

> <b_epik_Metal_Only>
0

> <s_epik_Chemistry_Notes>
This compound has an ester and may undergo hydrolysis at high or low pH. This compound contains an acetal/aminal-like group ( X-CH(R)-Y where X, Y are N, S, or O) that may be acid/base labile, releasing an aldehyde.

> <s_lp_Force_Field>
OPLS_2005

> <r_lp_Energy>
51.1648

> <b_lp_Chiralities_Consistent>
1

> <s_lp_Variant>
AV-unprocessed.smi:34-3

> <Gold.Version>
5.8.1

> <Gold.Id.Protein>
6NUR|6NUR_protein|mol2

> <Gold.PLP.Fitness>
56.4759

> <Gold.PLP.PLP>
-49.3147

> <Gold.PLP.part.hbond>
-4.0000

> <Gold.PLP.part.metal>
0.0000

> <Gold.PLP.part.buried>
-7.4633

> <Gold.PLP.part.nonpolar>
-37.3446

> <Gold.PLP.part.repulsive>
0.1419

> <Gold.PLP.ligand.clash>
0.0000

> <Gold.PLP.ligand.torsion>
1.0068

> <Gold.PLP.Chemscore.Hbond>
2.9821

> <Gold.PLP.Chemscore.CHOScore>
0.0000

> <Gold.PLP.Chemscore.Metal>
0.0000

> <Gold.Chemscore.Hbonds>
donor molecule, donor type, donor heavy atom, donor atom, acceptor molecule, acceptor atom, score
      L1  H    29    50       P1  7948  0.02
      P1  H  6896  6907       L1    14  0.87
      P1  H  7997  8010       L1     5  0.86
      P1  H 10752 10765       L1     7  0.14

> <Gold.PLP.Chemscore.Internal.Correction>
0.2285

> <Gold.Rescore>
     Score         DG    S(hbond)    S(metal)    S(lipo)     H(rot)  DE(clash)    DE(int)     intcor
     16.18     -17.49       1.74        0.00     112.66       2.72       0.41       0.91       ----

> <Gold.Chemscore.Fitness>
16.1801

> <Gold.Chemscore.DG>
-17.4932

> <Gold.Chemscore.ZeroCoef>
-5.4800

> <Gold.Chemscore.Hbond>
1.7364

> <Gold.Chemscore.Metal>
0.0000

> <Gold.Chemscore.Lipo>
112.6562

> <Gold.Chemscore.Internal_Hbond>
0.0000

> <Gold.Chemscore.DEClash>
0.4056

> <Gold.Chemscore.DEInternal>
0.9076

> <Gold.Chemscore.Rot>
2.7215

> <Gold.Chemscore.Internal.Correction>
   9.000000E+99

> <Gold.Chemscore.Hbonds>
donor molecule, donor type, donor heavy atom, donor atom, acceptor molecule, acceptor atom, score
      L1  H    29    50       P1  7948  0.07
      P1  H  6896  6907       L1    14  0.79
      P1  H  7997  8010       L1     5  0.53

> <Gold.Chemscore.Hbond.Weighted>
-5.7995

> <Gold.Chemscore.Metal.Weighted>
-0.0000

> <Gold.Chemscore.Lipo.Weighted>
-13.1808

> <Gold.Chemscore.Internal_Hbond.Weighted>
0.0000

> <Gold.Chemscore.DEClash.Weighted>
0.4056

> <Gold.Chemscore.DEInternal.Weighted>
0.9076

> <Gold.Chemscore.Rot.Weighted>
6.9670

> <Gold.Chemscore.Internal.Correction.Weighted>
   9.000000E+99

> <Gold.Protein.RotatedTorsions>
[ 6907 6896 6895 6894 ] final -116.06 input  -60.11 | X-H torsion
[ 7974 7965 7964 7962 ] final  118.62 input  175.53 | X-H torsion
[ 8008 7997 7996 7995 ] final   31.80 input   59.86 | X-H torsion
[ 10167 10162 10161 10158 ] final  -70.72 input  -65.29 | X-H torsion
[ 10718 10713 10712 10709 ] final  -77.04 input   66.30 | X-H torsion
[ 10763 10752 10751 10750 ] final -136.63 input  -60.55 | X-H torsion
[ 11005 11000 10999 10996 ] final -147.53 input  -57.11 | X-H torsion

> <Gold.Protein.ActiveResidues>
 VAL166  LYS551  ARG553  GLY616  TRP617  ASP618  TYR619  PRO620  LYS621  CYS622 
 ASP623  PHE694  ASN695  SER759  ASP760  ASP761  ALA762  ILE779  LEU786  VAL792 
 PHE793  MET794  SER795  GLU796  ALA797  LYS798  CYS799  TRP800  GLU811  SER814 

> <Gold.Protein.RotatedAtoms>
  150.8026  133.8570  159.3221 H   0  0  0  0  0  0  0  0  0  0  0  0  # atno 6907 bound_to 6896
  151.6378  135.1014  160.0144 H   0  0  0  0  0  0  0  0  0  0  0  0  # atno 6908 bound_to 6896
  152.4115  133.6930  159.6436 H   0  0  0  0  0  0  0  0  0  0  0  0  # atno 6909 bound_to 6896
  145.1529  139.3199  143.4557 H   0  0  0  0  0  0  0  0  0  0  0  0  # atno 7974 bound_to 7965
  155.1123  140.3240  155.4518 H   0  0  0  0  0  0  0  0  0  0  0  0  # atno 8008 bound_to 7997
  156.2687  140.2042  156.6194 H   0  0  0  0  0  0  0  0  0  0  0  0  # atno 8009 bound_to 7997
  154.6747  140.0532  157.0189 H   0  0  0  0  0  0  0  0  0  0  0  0  # atno 8010 bound_to 7997
  140.5330  143.2320  151.7228 H   0  0  0  0  0  0  0  0  0  0  0  0  # atno 10167 bound_to 10162
  156.0157  130.4481  150.3284 H   0  0  0  0  0  0  0  0  0  0  0  0  # atno 10718 bound_to 10713
  154.8680  135.3667  154.5092 H   0  0  0  0  0  0  0  0  0  0  0  0  # atno 10763 bound_to 10752
  153.5728  135.7020  153.5502 H   0  0  0  0  0  0  0  0  0  0  0  0  # atno 10764 bound_to 10752
  153.3527  135.4068  155.1621 H   0  0  0  0  0  0  0  0  0  0  0  0  # atno 10765 bound_to 10752
  140.7707  134.3192  157.5075 H   0  0  0  0  0  0  0  0  0  0  0  0  # atno 11005 bound_to 11000
  146.3492  140.1611  142.8591 LP  0  0  0  0  0  0  0  0  0  0  0  0  # atno 17320 bound_to 7965
  145.0411  140.8946  143.5052 LP  0  0  0  0  0  0  0  0  0  0  0  0  # atno 17321 bound_to 7965
  139.4961  144.4085  152.0106 LP  0  0  0  0  0  0  0  0  0  0  0  0  # atno 17342 bound_to 10162
  140.3189  144.3451  150.6014 LP  0  0  0  0  0  0  0  0  0  0  0  0  # atno 17343 bound_to 10162
  157.1383  131.0290  151.2939 LP  0  0  0  0  0  0  0  0  0  0  0  0  # atno 17370 bound_to 10713
  157.4493  130.7589  149.7137 LP  0  0  0  0  0  0  0  0  0  0  0  0  # atno 17371 bound_to 10713
  139.8756  134.9259  156.3387 LP  0  0  0  0  0  0  0  0  0  0  0  0  # atno 17394 bound_to 11000
  140.9576  133.7410  156.0357 LP  0  0  0  0  0  0  0  0  0  0  0  0  # atno 17395 bound_to 11000

$$$$
