AV-unprocessed.smi:34|AV-procd|sdf|227|dock2
  -GOLD-   2262015553D 1   1.00000     0.00000
 Structure written by MMmdl.
 55 59  0  0  0  0  0  0  0  0  1 V2000
  153.0861  140.0499  158.0110 O   0  0  0  0  0  0  0  0  0  0  0  0
  152.2305  140.8637  157.6613 C   0  0  0  0  0  0  0  0  0  0  0  0
  151.2629  140.5675  156.6199 N   0  0  0  0  0  0  0  0  0  0  0  0
  151.0711  139.3964  155.9689 C   0  0  0  0  0  0  0  0  0  0  0  0
  151.2132  139.2805  154.6220 N   0  0  0  0  0  0  0  0  0  0  0  0
  151.0214  138.1013  154.0234 C   0  0  0  0  0  0  0  0  0  0  0  0
  150.6926  136.9301  154.5731 N   0  0  0  0  0  0  0  0  0  0  0  0
  150.5549  137.0389  155.9264 C   0  0  0  0  0  0  0  0  0  0  0  0
  150.7262  138.2250  156.6919 C   0  0  0  0  0  0  0  0  0  0  0  0
  150.5041  137.9516  158.0354 N   0  0  0  0  0  0  0  0  0  0  0  0
  150.2182  136.6771  158.0561 C   0  0  0  0  0  0  0  0  0  0  0  0
  150.2348  136.0477  156.8285 N   0  0  0  0  0  0  0  0  0  0  0  0
  149.9577  134.6136  156.4876 C   0  0  2  0  0  0  0  0  0  0  0  0
  150.5122  134.3560  155.2300 O   0  0  0  0  0  0  0  0  0  0  0  0
  149.4951  134.2269  154.2318 C   0  0  1  0  0  0  0  0  0  0  0  0
  149.4786  132.7625  153.7697 C   0  0  0  0  0  0  0  0  0  0  0  0
  148.5712  132.6202  152.6888 O   0  0  0  0  0  0  0  0  0  0  0  0
  147.5579  131.7357  152.7662 C   0  0  0  0  0  0  0  0  0  0  0  0
  147.5765  130.7378  153.4896 O   0  0  0  0  0  0  0  0  0  0  0  0
  146.4065  132.0961  151.8895 C   0  0  0  0  0  0  0  0  0  0  0  0
  146.3337  133.3981  151.3413 C   0  0  0  0  0  0  0  0  0  0  0  0
  145.2600  133.7665  150.5073 C   0  0  0  0  0  0  0  0  0  0  0  0
  144.2455  132.8375  150.2120 C   0  0  0  0  0  0  0  0  0  0  0  0
  144.3059  131.5394  150.7514 C   0  0  0  0  0  0  0  0  0  0  0  0
  145.3792  131.1689  151.5850 C   0  0  0  0  0  0  0  0  0  0  0  0
  148.1865  134.6600  154.9043 C   0  0  2  0  0  0  0  0  0  0  0  0
  148.0269  135.9722  154.7184 F   0  0  0  0  0  0  0  0  0  0  0  0
  148.4524  134.3326  156.3628 C   0  0  2  0  0  0  0  0  0  0  0  0
  147.6136  135.0564  157.2439 O   0  0  0  0  0  0  0  0  0  0  0  0
  152.1908  142.2558  158.2213 C   0  0  0  0  0  0  0  0  0  0  0  0
  151.4969  143.2756  157.5318 C   0  0  0  0  0  0  0  0  0  0  0  0
  151.4693  144.5889  158.0405 C   0  0  0  0  0  0  0  0  0  0  0  0
  152.1422  144.8951  159.2382 C   0  0  0  0  0  0  0  0  0  0  0  0
  152.8462  143.8881  159.9253 C   0  0  0  0  0  0  0  0  0  0  0  0
  152.8738  142.5741  159.4180 C   0  0  0  0  0  0  0  0  0  0  0  0
  150.6524  141.3263  156.3546 H   0  0  0  0  0  0  0  0  0  0  0  0
  151.1513  138.0960  152.9511 H   0  0  0  0  0  0  0  0  0  0  0  0
  149.9888  136.1607  158.9769 H   0  0  0  0  0  0  0  0  0  0  0  0
  150.4558  134.0425  157.2719 H   0  0  0  0  0  0  0  0  0  0  0  0
  149.7348  134.8703  153.3840 H   0  0  0  0  0  0  0  0  0  0  0  0
  150.4734  132.4624  153.4382 H   0  0  0  0  0  0  0  0  0  0  0  0
  149.1996  132.1093  154.5977 H   0  0  0  0  0  0  0  0  0  0  0  0
  147.1018  134.1281  151.5528 H   0  0  0  0  0  0  0  0  0  0  0  0
  145.2153  134.7631  150.0938 H   0  0  0  0  0  0  0  0  0  0  0  0
  143.4220  133.1200  149.5728 H   0  0  0  0  0  0  0  0  0  0  0  0
  143.5276  130.8256  150.5258 H   0  0  0  0  0  0  0  0  0  0  0  0
  145.3940  130.1647  151.9825 H   0  0  0  0  0  0  0  0  0  0  0  0
  147.2987  134.1683  154.5054 H   0  0  0  0  0  0  0  0  0  0  0  0
  148.3023  133.2652  156.5298 H   0  0  0  0  0  0  0  0  0  0  0  0
  147.6883  135.9767  157.0417 H   0  0  0  0  0  0  0  0  0  0  0  0
  150.9765  143.0569  156.6104 H   0  0  0  0  0  0  0  0  0  0  0  0
  150.9324  145.3615  157.5103 H   0  0  0  0  0  0  0  0  0  0  0  0
  152.1218  145.9024  159.6276 H   0  0  0  0  0  0  0  0  0  0  0  0
  153.3682  144.1242  160.8410 H   0  0  0  0  0  0  0  0  0  0  0  0
  153.4278  141.8185  159.9560 H   0  0  0  0  0  0  0  0  0  0  0  0
  1  2  2  0  0  0  0
  2  3  1  0  0  0  0
  2 30  1  0  0  0  0
  3  4  1  0  0  0  0
  3 36  1  0  0  0  0
  4  9  1  0  0  0  0
  4  5  2  0  0  0  0
  5  6  1  0  0  0  0
  6  7  2  0  0  0  0
  6 37  1  0  0  0  0
  7  8  1  0  0  0  0
  8 12  1  0  0  0  0
  8  9  2  0  0  0  0
  9 10  1  0  0  0  0
 10 11  2  0  0  0  0
 11 12  1  0  0  0  0
 11 38  1  0  0  0  0
 12 13  1  0  0  0  0
 13 28  1  0  0  0  0
 13 14  1  0  0  0  0
 13 39  1  0  0  0  0
 14 15  1  0  0  0  0
 15 16  1  0  0  0  0
 15 26  1  0  0  0  0
 15 40  1  0  0  0  0
 16 17  1  0  0  0  0
 16 41  1  0  0  0  0
 16 42  1  0  0  0  0
 17 18  1  0  0  0  0
 18 19  2  0  0  0  0
 18 20  1  0  0  0  0
 20 25  1  0  0  0  0
 20 21  2  0  0  0  0
 21 22  1  0  0  0  0
 21 43  1  0  0  0  0
 22 23  2  0  0  0  0
 22 44  1  0  0  0  0
 23 24  1  0  0  0  0
 23 45  1  0  0  0  0
 24 25  2  0  0  0  0
 24 46  1  0  0  0  0
 25 47  1  0  0  0  0
 26 27  1  0  0  0  0
 26 28  1  0  0  0  0
 26 48  1  0  0  0  0
 28 29  1  0  0  0  0
 28 49  1  0  0  0  0
 29 50  1  0  0  0  0
 30 35  1  0  0  0  0
 30 31  2  0  0  0  0
 31 32  1  0  0  0  0
 31 51  1  0  0  0  0
 32 33  2  0  0  0  0
 32 52  1  0  0  0  0
 33 34  1  0  0  0  0
 33 53  1  0  0  0  0
 34 35  2  0  0  0  0
 34 54  1  0  0  0  0
 35 55  1  0  0  0  0
M  END
> <s_m_source_file>
AV-unprocessed.smi

> <i_m_source_file_index>
34

> <i_lp_mmshare_version>
43012

> <i_f3d_flags>
0

> <s_epik_input>
W2NIXTFbY0hdW2NIXVtjSF1bY0hdYzFDKD1PKVtOSF1jKG5bY0hdbjIpYyhjMjMpbltjSF1uM1tDQEBIXTRPW0NASF0oW0NAQEhdKEYpW0NASF00W09IXSlbQ0gyXU9DKD1PKWM1W2NIXVtjSF1bY0hdW2NIXVtjSF01

> <s_epik_cmdline>
J2VwaWtfcHl0aG9uJywgJy1waCcsICc3LjAnLCAnLXRuJywgJzgnLCAnLW1hJywgJzIwMCcsICctbWV0YWxfYmluZGluZycsICctaW1hZScsICc8aW5maWxlLm1hZT4nLCAnLW9tYWUnLCAnPG91dGZpbGUubWFlPic=

> <r_lp_tautomer_probability>
1

> <r_epik_Ionization_Penalty>
0.00257489

> <r_epik_Ionization_Penalty_Charging>
0

> <r_epik_Ionization_Penalty_Neutral>
0.00257489

> <r_epik_State_Penalty>
0.00519398

> <r_epik_Charging_Adjusted_Penalty>
0.00519398

> <i_epik_Tot_Q>
0

> <i_epik_Tot_abs_Q>
0

> <r_epik_Metal_State_Penalty>
0.335891

> <b_epik_Metal_Only>
0

> <s_epik_Chemistry_Notes>
This compound has an ester and may undergo hydrolysis at high or low pH. This compound contains an acetal/aminal-like group ( X-CH(R)-Y where X, Y are N, S, or O) that may be acid/base labile, releasing an aldehyde.

> <s_lp_Force_Field>
OPLS_2005

> <r_lp_Energy>
52.3338

> <b_lp_Chiralities_Consistent>
1

> <s_lp_Variant>
AV-unprocessed.smi:34-13

> <Gold.Version>
5.8.1

> <Gold.Id.Protein>
6NUR|6NUR_protein|mol2

> <Gold.PLP.Fitness>
61.1389

> <Gold.PLP.PLP>
-55.8120

> <Gold.PLP.part.hbond>
-1.7532

> <Gold.PLP.part.metal>
0.0000

> <Gold.PLP.part.buried>
-7.9694

> <Gold.PLP.part.nonpolar>
-45.5564

> <Gold.PLP.part.repulsive>
0.7437

> <Gold.PLP.ligand.clash>
0.0688

> <Gold.PLP.ligand.torsion>
2.1311

> <Gold.PLP.Chemscore.Hbond>
1.7883

> <Gold.PLP.Chemscore.CHOScore>
1.0000

> <Gold.PLP.Chemscore.Metal>
0.0000

> <Gold.Chemscore.Hbonds>
donor molecule, donor type, donor heavy atom, donor atom, acceptor molecule, acceptor atom, score
      P1  H  7989  7998       L1     5  1.00
      P1  H  7997  8010       L1     1  0.94
      L1  C     6    37       P1  7949  0.85

> <Gold.PLP.Chemscore.Internal.Correction>
1.2932

> <Gold.Rescore>
     Score         DG    S(hbond)    S(metal)    S(lipo)     H(rot)  DE(clash)    DE(int)     intcor
     13.15     -20.55       1.67        0.00     140.56       2.72       0.21       7.19       ----

> <Gold.Chemscore.Fitness>
13.1522

> <Gold.Chemscore.DG>
-20.5523

> <Gold.Chemscore.ZeroCoef>
-5.4800

> <Gold.Chemscore.Hbond>
1.6749

> <Gold.Chemscore.Metal>
0.0000

> <Gold.Chemscore.Lipo>
140.5578

> <Gold.Chemscore.Internal_Hbond>
0.0000

> <Gold.Chemscore.DEClash>
0.2145

> <Gold.Chemscore.DEInternal>
7.1856

> <Gold.Chemscore.Rot>
2.7215

> <Gold.Chemscore.Internal.Correction>
   9.000000E+99

> <Gold.Chemscore.Hbonds>
donor molecule, donor type, donor heavy atom, donor atom, acceptor molecule, acceptor atom, score
      P1  H  7989  7998       L1     5  0.92
      P1  H  7997  8010       L1     1  0.87

> <Gold.Chemscore.Hbond.Weighted>
-5.5940

> <Gold.Chemscore.Metal.Weighted>
-0.0000

> <Gold.Chemscore.Lipo.Weighted>
-16.4453

> <Gold.Chemscore.Internal_Hbond.Weighted>
0.0000

> <Gold.Chemscore.DEClash.Weighted>
0.2145

> <Gold.Chemscore.DEInternal.Weighted>
7.1856

> <Gold.Chemscore.Rot.Weighted>
6.9670

> <Gold.Chemscore.Internal.Correction.Weighted>
   9.000000E+99

> <Gold.Protein.RotatedTorsions>
[ 6907 6896 6895 6894 ] final  127.73 input  -60.11 | X-H torsion
[ 7974 7965 7964 7962 ] final -155.07 input  175.53 | X-H torsion
[ 8008 7997 7996 7995 ] final   27.01 input   59.86 | X-H torsion
[ 10167 10162 10161 10158 ] final  176.19 input  -65.29 | X-H torsion
[ 10718 10713 10712 10709 ] final   70.73 input   66.30 | X-H torsion
[ 10763 10752 10751 10750 ] final -103.11 input  -60.55 | X-H torsion
[ 11005 11000 10999 10996 ] final  -69.73 input  -57.11 | X-H torsion

> <Gold.Protein.ActiveResidues>
 VAL166  LYS551  ARG553  GLY616  TRP617  ASP618  TYR619  PRO620  LYS621  CYS622 
 ASP623  PHE694  ASN695  SER759  ASP760  ASP761  ALA762  ILE779  LEU786  VAL792 
 PHE793  MET794  SER795  GLU796  ALA797  LYS798  CYS799  TRP800  GLU811  SER814 

> <Gold.Protein.RotatedAtoms>
  152.3786  133.6514  159.6142 H   0  0  0  0  0  0  0  0  0  0  0  0  # atno 6907 bound_to 6896
  150.7723  133.9152  159.3390 H   0  0  0  0  0  0  0  0  0  0  0  0  # atno 6908 bound_to 6896
  151.6962  135.0939  160.0294 H   0  0  0  0  0  0  0  0  0  0  0  0  # atno 6909 bound_to 6896
  144.7658  140.4300  143.5943 H   0  0  0  0  0  0  0  0  0  0  0  0  # atno 7974 bound_to 7965
  155.0362  140.3164  155.4740 H   0  0  0  0  0  0  0  0  0  0  0  0  # atno 8008 bound_to 7997
  156.2864  140.2171  156.5428 H   0  0  0  0  0  0  0  0  0  0  0  0  # atno 8009 bound_to 7997
  154.7328  140.0480  157.0730 H   0  0  0  0  0  0  0  0  0  0  0  0  # atno 8010 bound_to 7997
  139.5205  144.2944  152.0435 H   0  0  0  0  0  0  0  0  0  0  0  0  # atno 10167 bound_to 10162
  157.6415  130.9492  150.0691 H   0  0  0  0  0  0  0  0  0  0  0  0  # atno 10718 bound_to 10713
  154.7783  135.4836  153.9791 H   0  0  0  0  0  0  0  0  0  0  0  0  # atno 10763 bound_to 10752
  153.1459  135.6782  153.8963 H   0  0  0  0  0  0  0  0  0  0  0  0  # atno 10764 bound_to 10752
  153.8623  135.3154  155.3416 H   0  0  0  0  0  0  0  0  0  0  0  0  # atno 10765 bound_to 10752
  141.1560  133.6772  156.6644 H   0  0  0  0  0  0  0  0  0  0  0  0  # atno 11005 bound_to 11000
  145.6475  139.1559  143.2880 LP  0  0  0  0  0  0  0  0  0  0  0  0  # atno 17320 bound_to 7965
  146.1763  140.6567  142.9209 LP  0  0  0  0  0  0  0  0  0  0  0  0  # atno 17321 bound_to 7965
  140.2394  144.4285  150.6266 LP  0  0  0  0  0  0  0  0  0  0  0  0  # atno 17342 bound_to 10162
  140.6301  143.2186  151.6513 LP  0  0  0  0  0  0  0  0  0  0  0  0  # atno 17343 bound_to 10162
  156.1700  130.3646  149.9178 LP  0  0  0  0  0  0  0  0  0  0  0  0  # atno 17370 bound_to 10713
  156.7156  130.8987  151.3613 LP  0  0  0  0  0  0  0  0  0  0  0  0  # atno 17371 bound_to 10713
  140.3223  134.7998  157.4262 LP  0  0  0  0  0  0  0  0  0  0  0  0  # atno 17394 bound_to 11000
  140.1087  134.5375  155.8286 LP  0  0  0  0  0  0  0  0  0  0  0  0  # atno 17395 bound_to 11000

$$$$
