#       Name:                AV-unprocessed.smi:1308
#       Creating user name   scv26
#       Creation time:       Fri Mar 27 05:00:27 2020


#       File generated by GOLD software.
#

@<TRIPOS>MOLECULE
AV-unprocessed.smi:1308
    50    50     1
SMALL
NO_CHARGES


@<TRIPOS>ATOM
      1 ****        -2.8945  -1.8650   2.6492 C.3            1 S1                 0.0000
      2 ****        -2.6260  -0.9446   1.4780 C.2            1 S1                 0.0000
      3 ****        -2.4265   0.3268   1.5915 N.2            1 S1                 0.0000
      4 ****        -2.1760   1.0758   0.4338 C.2            1 S1                 0.0000
      5 ****        -1.9148   2.5548   0.6587 C.3            1 S1                 0.0000
      6 ****        -2.1453   0.4959  -0.8025 C.2            1 S1                 0.0000
      7 ****        -1.8211   1.2752  -2.0784 C.3            1 S1                 0.0000
      8 ****        -0.3305   1.5388  -2.2930 C.2            1 S1                 0.0000
      9 ****         0.0918   2.6927  -2.3570 O.2            1 S1                 0.0000
     10 ****         0.4530   0.4503  -2.3446 N.am           1 S1                 0.0000
     11 ****         1.9082   0.4339  -2.2299 C.3            1 S1                 0.0000
     12 ****         2.5145  -0.2122  -3.4829 C.3            1 S1                 0.0000
     13 ****         2.3117  -0.3142  -0.9427 C.3            1 S1                 0.0000
     14 ****         1.7567   0.3297   0.3456 C.3            1 S1                 0.0000
     15 ****         2.1665  -0.3845   1.6481 C.3            1 S1                 0.0000
     16 ****         1.5338  -1.7812   1.7733 C.3            1 S1                 0.0000
     17 ****         1.7984   0.4739   2.8680 C.3            1 S1                 0.0000
     18 ****        -2.3839  -0.9560  -0.9202 C.2            1 S1                 0.0000
     19 ****        -2.3715  -1.5804  -1.9796 O.2            1 S1                 0.0000
     20 ****        -2.6109  -1.5981   0.2474 N.am           1 S1                 0.0000
     21 ****        -2.7745  -2.5940   0.2203 H              1 S1                 0.0000
     22 ****        -2.0423  -1.8637   3.3291 H              1 S1                 0.0000
     23 ****        -3.0706  -2.8910   2.3231 H              1 S1                 0.0000
     24 ****        -3.7729  -1.5263   3.1989 H              1 S1                 0.0000
     25 ****        -2.6102   3.1633   0.0808 H              1 S1                 0.0000
     26 ****        -0.8972   2.8122   0.3648 H              1 S1                 0.0000
     27 ****        -2.0346   2.8219   1.7094 H              1 S1                 0.0000
     28 ****        -2.2148   0.7653  -2.9583 H              1 S1                 0.0000
     29 ****        -2.3450   2.2308  -2.0524 H              1 S1                 0.0000
     30 ****        -0.0049  -0.4495  -2.3165 H              1 S1                 0.0000
     31 ****         2.2937   1.4526  -2.1631 H              1 S1                 0.0000
     32 ****         3.6035  -0.2222  -3.4306 H              1 S1                 0.0000
     33 ****         2.2337   0.3365  -4.3825 H              1 S1                 0.0000
     34 ****         2.1776  -1.2426  -3.6022 H              1 S1                 0.0000
     35 ****         1.9727  -1.3477  -1.0166 H              1 S1                 0.0000
     36 ****         3.3996  -0.3549  -0.8789 H              1 S1                 0.0000
     37 ****         2.0994   1.3646   0.3818 H              1 S1                 0.0000
     38 ****         0.6690   0.3778   0.3074 H              1 S1                 0.0000
     39 ****         3.2509  -0.5022   1.6463 H              1 S1                 0.0000
     40 ****         0.4454  -1.7278   1.7348 H              1 S1                 0.0000
     41 ****         1.8086  -2.2513   2.7179 H              1 S1                 0.0000
     42 ****         1.8639  -2.4481   0.9777 H              1 S1                 0.0000
     43 ****         0.7214   0.6366   2.9265 H              1 S1                 0.0000
     44 ****         2.2802   1.4510   2.8228 H              1 S1                 0.0000
     45 ****         2.1140  -0.0037   3.7960 H              1 S1                 0.0000
     46 ****        -2.4504   0.7681   2.4885 LP             1 S1                 0.0000
     47 ****        -0.5407   3.4622  -2.2685 LP             1 S1                 0.0000
     48 ****         1.0675   2.8610  -2.4974 LP             1 S1                 0.0000
     49 ****        -2.1906  -1.1028  -2.8394 LP             1 S1                 0.0000
     50 ****        -2.5423  -2.5657  -1.9813 LP             1 S1                 0.0000
@<TRIPOS>BOND
    1    1    2 1     
    2    1   22 1     
    3    1   23 1     
    4    1   24 1     
    5    2   20 1     
    6    2    3 2     
    7    3    4 1     
    8    4    5 1     
    9    4    6 2     
   10    5   25 1     
   11    5   26 1     
   12    5   27 1     
   13    6    7 1     
   14    6   18 1     
   15    7    8 1     
   16    7   28 1     
   17    7   29 1     
   18    8    9 2     
   19    8   10 am    
   20   10   11 1     
   21   10   30 1     
   22   11   12 1     
   23   11   13 1     
   24   11   31 1     
   25   12   32 1     
   26   12   33 1     
   27   12   34 1     
   28   13   14 1     
   29   13   35 1     
   30   13   36 1     
   31   14   15 1     
   32   14   37 1     
   33   14   38 1     
   34   15   16 1     
   35   15   17 1     
   36   15   39 1     
   37   16   40 1     
   38   16   41 1     
   39   16   42 1     
   40   17   43 1     
   41   17   44 1     
   42   17   45 1     
   43   18   19 2     
   44   18   20 am    
   45   20   21 1     
   46    3   46 1     
   47    9   47 1     
   48    9   48 1     
   49   19   49 1     
   50   19   50 1     
@<TRIPOS>SUBSTRUCTURE
      1 S1             1
@<TRIPOS>SET
LONE_PAIRS      STATIC     ATOMS    <user>   **** ""
5 46 47 48 49 50
DONOR_HYDROGENS      STATIC     ATOMS    <user>   **** ""
2 30 21
ATOM$BLUE        STATIC     ATOMS    COLORGROUP SYSTEM
5 46 47 48 49 50
ATOM$RED        STATIC     ATOMS    COLORGROUP SYSTEM
2 30 21
