AV-unprocessed.smi:1047|AV-procd|sdf|4602|dock4
  -GOLD-   22720 3 93D 1   1.00000     0.00000
 Structure written by MMmdl.
 57 59  0  0  0  0  0  0  0  0  3 V2000
  146.6421  130.2754  152.7358 C   0  0  0  0  0  0  0  0  0  0  0  0
  147.8694  131.0510  153.2342 C   0  0  0  0  0  0  0  0  0  0  0  0
  148.0827  132.3158  152.4818 N   0  3  1  0  0  0  0  0  0  0  0  0
  146.8720  133.1640  152.3378 C   0  0  0  0  0  0  0  0  0  0  0  0
  146.5763  133.9490  153.6298 C   0  0  0  0  0  0  0  0  0  0  0  0
  147.7231  134.7011  154.0063 O   0  0  0  0  0  0  0  0  0  0  0  0
  148.8511  133.8757  154.2805 C   0  0  2  0  0  0  0  0  0  0  0  0
  149.9961  134.7802  154.7584 C   0  0  0  0  0  0  0  0  0  0  0  0
  149.6758  136.1877  154.5456 N   0  0  0  0  0  0  0  0  0  0  0  0
  150.8093  137.0808  154.7642 C   0  0  0  0  0  0  0  0  0  0  0  0
  150.3462  138.4681  155.2408 C   0  0  1  0  0  0  0  0  0  0  0  0
  149.3612  138.2963  156.2408 O   0  0  0  0  0  0  0  0  0  0  0  0
  151.5167  139.2890  155.8157 C   0  0  0  0  0  0  0  0  0  0  0  0
  151.1172  140.6432  156.2256 N   0  0  0  0  0  0  0  0  0  0  0  0
  150.3470  141.5531  155.5696 C   0  0  0  0  0  0  0  0  0  0  0  0
  150.2685  142.6653  156.3507 N   0  3  0  0  0  0  0  0  0  0  0  0
  150.9974  142.4626  157.5242 C   0  0  0  0  0  0  0  0  0  0  0  0
  151.2144  143.2966  158.6144 C   0  0  0  0  0  0  0  0  0  0  0  0
  152.0097  142.7893  159.6664 C   0  0  0  0  0  0  0  0  0  0  0  0
  152.2681  143.6766  160.8724 C   0  0  0  0  0  0  0  0  0  0  0  0
  152.5560  141.4813  159.6028 C   0  0  0  0  0  0  0  0  0  0  0  0
  153.4034  140.9431  160.7431 C   0  0  0  0  0  0  0  0  0  0  0  0
  152.3257  140.6494  158.4837 C   0  0  0  0  0  0  0  0  0  0  0  0
  151.5425  141.1655  157.4534 C   0  0  0  0  0  0  0  0  0  0  0  0
  149.2223  133.1217  152.9859 C   0  0  0  0  0  0  0  0  0  0  0  0
  146.5670  129.3123  153.2415 H   0  0  0  0  0  0  0  0  0  0  0  0
  146.7078  130.0805  151.6650 H   0  0  0  0  0  0  0  0  0  0  0  0
  145.7127  130.8118  152.9245 H   0  0  0  0  0  0  0  0  0  0  0  0
  147.7901  131.2420  154.3043 H   0  0  0  0  0  0  0  0  0  0  0  0
  148.7401  130.4075  153.1025 H   0  0  0  0  0  0  0  0  0  0  0  0
  147.0497  133.8703  151.5259 H   0  0  0  0  0  0  0  0  0  0  0  0
  146.0067  132.5732  152.0401 H   0  0  0  0  0  0  0  0  0  0  0  0
  145.7467  134.6367  153.4654 H   0  0  0  0  0  0  0  0  0  0  0  0
  146.2765  133.2860  154.4421 H   0  0  0  0  0  0  0  0  0  0  0  0
  148.6082  133.1600  155.0684 H   0  0  0  0  0  0  0  0  0  0  0  0
  150.1740  134.6095  155.8208 H   0  0  0  0  0  0  0  0  0  0  0  0
  150.9187  134.5144  154.2405 H   0  0  0  0  0  0  0  0  0  0  0  0
  149.3132  136.3184  153.6064 H   0  0  0  0  0  0  0  0  0  0  0  0
  151.5177  136.6463  155.4710 H   0  0  0  0  0  0  0  0  0  0  0  0
  151.3481  137.1959  153.8228 H   0  0  0  0  0  0  0  0  0  0  0  0
  149.9070  139.0218  154.4095 H   0  0  0  0  0  0  0  0  0  0  0  0
  148.8526  137.5276  156.0332 H   0  0  0  0  0  0  0  0  0  0  0  0
  151.9889  138.7773  156.6544 H   0  0  0  0  0  0  0  0  0  0  0  0
  152.2915  139.4054  155.0568 H   0  0  0  0  0  0  0  0  0  0  0  0
  149.8835  141.4176  154.6030 H   0  0  0  0  0  0  0  0  0  0  0  0
  150.7932  144.2905  158.6568 H   0  0  0  0  0  0  0  0  0  0  0  0
  153.3379  143.8382  161.0079 H   0  0  0  0  0  0  0  0  0  0  0  0
  151.8690  143.2182  161.7777 H   0  0  0  0  0  0  0  0  0  0  0  0
  151.7961  144.6530  160.7575 H   0  0  0  0  0  0  0  0  0  0  0  0
  153.7397  139.9248  160.5444 H   0  0  0  0  0  0  0  0  0  0  0  0
  152.8313  140.9292  161.6710 H   0  0  0  0  0  0  0  0  0  0  0  0
  154.2878  141.5636  160.8898 H   0  0  0  0  0  0  0  0  0  0  0  0
  152.7402  139.6535  158.4395 H   0  0  0  0  0  0  0  0  0  0  0  0
  150.0969  132.4884  153.1401 H   0  0  0  0  0  0  0  0  0  0  0  0
  149.4998  133.8405  152.2134 H   0  0  0  0  0  0  0  0  0  0  0  0
  148.3433  132.0251  151.5502 H   0  0  0  0  0  0  0  0  0  0  0  0
  149.7537  143.4996  156.0993 H   0  0  0  0  0  0  0  0  0  0  0  0
  1  2  1  0  0  0  0
  1 26  1  0  0  0  0
  1 27  1  0  0  0  0
  1 28  1  0  0  0  0
  2  3  1  0  0  0  0
  2 29  1  0  0  0  0
  2 30  1  0  0  0  0
  3 25  1  0  0  0  0
  3  4  1  0  0  0  0
  3 56  1  0  0  0  0
  4  5  1  0  0  0  0
  4 31  1  0  0  0  0
  4 32  1  0  0  0  0
  5  6  1  0  0  0  0
  5 33  1  0  0  0  0
  5 34  1  0  0  0  0
  6  7  1  0  0  0  0
  7  8  1  0  0  0  0
  7 25  1  0  0  0  0
  7 35  1  0  0  0  0
  8  9  1  0  0  0  0
  8 36  1  0  0  0  0
  8 37  1  0  0  0  0
  9 10  1  0  0  0  0
  9 38  1  0  0  0  0
 10 11  1  0  0  0  0
 10 39  1  0  0  0  0
 10 40  1  0  0  0  0
 11 12  1  0  0  0  0
 11 13  1  0  0  0  0
 11 41  1  0  0  0  0
 12 42  1  0  0  0  0
 13 14  1  0  0  0  0
 13 43  1  0  0  0  0
 13 44  1  0  0  0  0
 14 24  1  0  0  0  0
 14 15  1  0  0  0  0
 15 16  2  0  0  0  0
 15 45  1  0  0  0  0
 16 17  1  0  0  0  0
 16 57  1  0  0  0  0
 17 24  2  0  0  0  0
 17 18  1  0  0  0  0
 18 19  2  0  0  0  0
 18 46  1  0  0  0  0
 19 20  1  0  0  0  0
 19 21  1  0  0  0  0
 20 47  1  0  0  0  0
 20 48  1  0  0  0  0
 20 49  1  0  0  0  0
 21 22  1  0  0  0  0
 21 23  2  0  0  0  0
 22 50  1  0  0  0  0
 22 51  1  0  0  0  0
 22 52  1  0  0  0  0
 23 24  1  0  0  0  0
 23 53  1  0  0  0  0
 25 54  1  0  0  0  0
 25 55  1  0  0  0  0
M  CHG  1   3   1
M  CHG  1  16   1
M  END
> <s_m_source_file>
AV-unprocessed.smi

> <i_m_source_file_index>
1047

> <i_lp_mmshare_version>
43012

> <i_f3d_flags>
0

> <s_epik_input>
W0NIM11bQ0gyXU4xW0NIMl1bQ0gyXU9bQ0BIXShbQ0gyXTEpW0NIMl1bTkhdW0NIMl1bQ0BIXShbT0hdKVtDSDJdbihbY0hdbjIpYyhjMjMpW2NIXWMoW0NIM10pYyhbY0hdMylbQ0gzXQ==

> <s_epik_cmdline>
J2VwaWtfcHl0aG9uJywgJy1waCcsICc3LjAnLCAnLXRuJywgJzgnLCAnLW1hJywgJzIwMCcsICctbWV0YWxfYmluZGluZycsICctaW1hZScsICc8aW5maWxlLm1hZT4nLCAnLW9tYWUnLCAnPG91dGZpbGUubWFlPic=

> <r_epik_Ionization_Penalty>
2.03028

> <r_epik_Ionization_Penalty_Charging>
1.21256

> <r_epik_Ionization_Penalty_Neutral>
0.817715

> <r_epik_State_Penalty>
2.54959

> <r_epik_Charging_Adjusted_Penalty>
3.76215

> <i_epik_Tot_Q>
2

> <i_epik_Tot_abs_Q>
2

> <r_epik_Metal_State_Penalty>
6.52811

> <b_epik_Metal_Only>
0

> <s_lp_Force_Field>
OPLS_2005

> <r_lp_Energy>
36.7228

> <b_lp_Chiralities_Consistent>
1

> <s_lp_Variant>
AV-unprocessed.smi:1047-43

> <Gold.Version>
5.8.1

> <Gold.Id.Protein>
6NUR|6NUR_protein|mol2

> <Gold.PLP.Fitness>
59.0293

> <Gold.PLP.PLP>
-49.3073

> <Gold.PLP.part.hbond>
-3.0000

> <Gold.PLP.part.metal>
0.0000

> <Gold.PLP.part.buried>
-7.3016

> <Gold.PLP.part.nonpolar>
-40.1393

> <Gold.PLP.part.repulsive>
0.3754

> <Gold.PLP.ligand.clash>
0.0000

> <Gold.PLP.ligand.torsion>
1.2181

> <Gold.PLP.Chemscore.Hbond>
4.0000

> <Gold.PLP.Chemscore.CHOScore>
0.0000

> <Gold.PLP.Chemscore.Metal>
0.0000

> <Gold.Chemscore.Hbonds>
donor molecule, donor type, donor heavy atom, donor atom, acceptor molecule, acceptor atom, score
      L1  H     3    56       P1 10747  1.00
      L1  H     9    38       P1  7948  1.00
      L1  H    16    57       P1  8028  2.00

> <Gold.PLP.Chemscore.Internal.Correction>
0.1582

> <Gold.Rescore>
     Score         DG    S(hbond)    S(metal)    S(lipo)     H(rot)  DE(clash)    DE(int)     intcor
     22.17     -23.50       2.89        0.00     130.78       2.71       0.05       1.27       ----

> <Gold.Chemscore.Fitness>
22.1713

> <Gold.Chemscore.DG>
-23.4970

> <Gold.Chemscore.ZeroCoef>
-5.4800

> <Gold.Chemscore.Hbond>
2.8893

> <Gold.Chemscore.Metal>
0.0000

> <Gold.Chemscore.Lipo>
130.7818

> <Gold.Chemscore.Internal_Hbond>
0.0000

> <Gold.Chemscore.DEClash>
0.0533

> <Gold.Chemscore.DEInternal>
1.2723

> <Gold.Chemscore.Rot>
2.7088

> <Gold.Chemscore.Internal.Correction>
   9.000000E+99

> <Gold.Chemscore.Hbonds>
donor molecule, donor type, donor heavy atom, donor atom, acceptor molecule, acceptor atom, score
      L1  H     3    56       P1 10747  0.98
      L1  H     9    38       P1  7948  0.85
      L1  H    16    57       P1  8028  0.96

> <Gold.Chemscore.Hbond.Weighted>
-9.6501

> <Gold.Chemscore.Metal.Weighted>
-0.0000

> <Gold.Chemscore.Lipo.Weighted>
-15.3015

> <Gold.Chemscore.Internal_Hbond.Weighted>
0.0000

> <Gold.Chemscore.DEClash.Weighted>
0.0533

> <Gold.Chemscore.DEInternal.Weighted>
1.2723

> <Gold.Chemscore.Rot.Weighted>
6.9346

> <Gold.Chemscore.Internal.Correction.Weighted>
   9.000000E+99

> <Gold.Protein.RotatedTorsions>
[ 6907 6896 6895 6894 ] final  -19.80 input  -60.11 | X-H torsion
[ 7974 7965 7964 7962 ] final  -81.32 input  175.53 | X-H torsion
[ 8008 7997 7996 7995 ] final  -22.91 input   59.86 | X-H torsion
[ 10167 10162 10161 10158 ] final -176.37 input  -65.29 | X-H torsion
[ 10718 10713 10712 10709 ] final   95.58 input   66.30 | X-H torsion
[ 10763 10752 10751 10750 ] final   46.18 input  -60.55 | X-H torsion
[ 11005 11000 10999 10996 ] final  -63.11 input  -57.11 | X-H torsion

> <Gold.Protein.ActiveResidues>
 VAL166  LYS551  ARG553  GLY616  TRP617  ASP618  TYR619  PRO620  LYS621  CYS622 
 ASP623  PHE694  ASN695  SER759  ASP760  ASP761  ALA762  ILE779  LEU786  VAL792 
 PHE793  MET794  SER795  GLU796  ALA797  LYS798  CYS799  TRP800  GLU811  SER814 

> <Gold.Protein.RotatedAtoms>
  151.2576  135.0643  159.9085 H   0  0  0  0  0  0  0  0  0  0  0  0  # atno 6907 bound_to 6896
  152.5371  134.0265  159.8015 H   0  0  0  0  0  0  0  0  0  0  0  0  # atno 6908 bound_to 6896
  151.0483  133.5596  159.2676 H   0  0  0  0  0  0  0  0  0  0  0  0  # atno 6909 bound_to 6896
  145.5482  140.9500  143.1513 H   0  0  0  0  0  0  0  0  0  0  0  0  # atno 7974 bound_to 7965
  154.4616  140.1995  156.0230 H   0  0  0  0  0  0  0  0  0  0  0  0  # atno 8008 bound_to 7997
  156.0850  140.3266  155.7713 H   0  0  0  0  0  0  0  0  0  0  0  0  # atno 8009 bound_to 7997
  155.5050  140.0557  157.2923 H   0  0  0  0  0  0  0  0  0  0  0  0  # atno 8010 bound_to 7997
  139.5533  144.2053  152.1116 H   0  0  0  0  0  0  0  0  0  0  0  0  # atno 10167 bound_to 10162
  157.6937  131.0550  150.4361 H   0  0  0  0  0  0  0  0  0  0  0  0  # atno 10718 bound_to 10713
  152.9814  135.6016  154.3557 H   0  0  0  0  0  0  0  0  0  0  0  0  # atno 10763 bound_to 10752
  154.3243  135.2769  155.2506 H   0  0  0  0  0  0  0  0  0  0  0  0  # atno 10764 bound_to 10752
  154.4658  135.5954  153.6343 H   0  0  0  0  0  0  0  0  0  0  0  0  # atno 10765 bound_to 10752
  141.1382  133.6648  156.5630 H   0  0  0  0  0  0  0  0  0  0  0  0  # atno 11005 bound_to 11000
  144.7542  139.7115  143.7260 LP  0  0  0  0  0  0  0  0  0  0  0  0  # atno 17320 bound_to 7965
  146.1935  139.5188  142.9790 LP  0  0  0  0  0  0  0  0  0  0  0  0  # atno 17321 bound_to 7965
  140.1552  144.5077  150.6664 LP  0  0  0  0  0  0  0  0  0  0  0  0  # atno 17342 bound_to 10162
  140.6801  143.2322  151.5407 LP  0  0  0  0  0  0  0  0  0  0  0  0  # atno 17343 bound_to 10162
  156.4724  130.4055  149.6510 LP  0  0  0  0  0  0  0  0  0  0  0  0  # atno 17370 bound_to 10713
  156.3586  130.7469  151.2439 LP  0  0  0  0  0  0  0  0  0  0  0  0  # atno 17371 bound_to 10713
  140.3973  134.7387  157.4758 LP  0  0  0  0  0  0  0  0  0  0  0  0  # atno 17394 bound_to 11000
  140.0522  134.6115  155.8848 LP  0  0  0  0  0  0  0  0  0  0  0  0  # atno 17395 bound_to 11000

$$$$
