AV-unprocessed.smi:244|AV-procd|sdf|1874|dock7
  -GOLD-   2262020513D 1   1.00000     0.00000
 Structure written by MMmdl.
 56 60  0  0  0  0  0  0  0  0  1 V2000
  154.6207  140.2364  159.8282 C   0  0  0  0  0  0  0  0  0  0  0  0
  153.3025  140.5756  160.3524 N   0  0  0  0  0  0  0  0  0  0  0  0
  153.2617  141.8914  160.9939 C   0  0  0  0  0  0  0  0  0  0  0  0
  153.3674  143.0488  159.9805 C   0  0  0  0  0  0  0  0  0  0  0  0
  152.2965  142.9463  158.8855 C   0  0  2  0  0  0  0  0  0  0  0  0
  151.0144  143.2237  159.4446 O   0  0  0  0  0  0  0  0  0  0  0  0
  149.9888  143.2170  158.4577 C   0  0  0  0  0  0  0  0  0  0  0  0
  149.8982  141.8246  157.8140 C   0  0  0  0  0  0  0  0  0  0  0  0
  151.2056  141.4212  157.2960 N   0  0  0  0  0  0  0  0  0  0  0  0
  151.2570  140.3514  156.4586 C   0  0  0  0  0  0  0  0  0  0  0  0
  152.4510  139.9622  155.9357 N   0  0  0  0  0  0  0  0  0  0  0  0
  152.5172  138.9267  155.0944 C   0  0  0  0  0  0  0  0  0  0  0  0
  151.5294  138.1484  154.6504 N   0  0  0  0  0  0  0  0  0  0  0  0
  150.3300  138.5219  155.1803 C   0  0  0  0  0  0  0  0  0  0  0  0
  150.1053  139.6019  156.0814 C   0  0  0  0  0  0  0  0  0  0  0  0
  148.7549  139.6684  156.4059 N   0  0  0  0  0  0  0  0  0  0  0  0
  148.2124  138.6961  155.7264 C   0  0  0  0  0  0  0  0  0  0  0  0
  149.0875  137.9489  154.9716 N   0  0  0  0  0  0  0  0  0  0  0  0
  148.7572  136.8081  154.1312 C   0  0  0  0  0  0  0  0  0  0  0  0
  149.2067  135.4447  154.7137 C   0  0  0  0  0  0  0  0  0  0  0  0
  149.1034  134.4781  153.6828 O   0  0  0  0  0  0  0  0  0  0  0  0
  150.6668  135.4630  155.2174 C   0  0  0  0  0  0  0  0  0  0  0  0
  151.0320  134.1774  155.9807 C   0  0  0  0  0  0  0  0  0  0  0  0
  150.1140  133.9612  157.0455 O   0  0  0  0  0  0  0  0  0  0  0  0
  148.7813  133.7612  156.5903 C   0  0  0  0  0  0  0  0  0  0  0  0
  148.2775  135.0243  155.8701 C   0  0  0  0  0  0  0  0  0  0  0  0
  152.3039  141.5359  158.2585 C   0  0  2  0  0  0  0  0  0  0  0  0
  152.2423  140.4386  159.3530 C   0  0  0  0  0  0  0  0  0  0  0  0
  155.3652  140.2771  160.6237 H   0  0  0  0  0  0  0  0  0  0  0  0
  154.9402  140.9091  159.0330 H   0  0  0  0  0  0  0  0  0  0  0  0
  154.6185  139.2215  159.4297 H   0  0  0  0  0  0  0  0  0  0  0  0
  152.3220  141.9759  161.5412 H   0  0  0  0  0  0  0  0  0  0  0  0
  154.0570  141.9627  161.7366 H   0  0  0  0  0  0  0  0  0  0  0  0
  153.2755  144.0037  160.4984 H   0  0  0  0  0  0  0  0  0  0  0  0
  154.3568  143.0519  159.5231 H   0  0  0  0  0  0  0  0  0  0  0  0
  152.5104  143.6939  158.1195 H   0  0  0  0  0  0  0  0  0  0  0  0
  149.0404  143.4761  158.9283 H   0  0  0  0  0  0  0  0  0  0  0  0
  150.1887  143.9806  157.7045 H   0  0  0  0  0  0  0  0  0  0  0  0
  149.5477  141.0960  158.5461 H   0  0  0  0  0  0  0  0  0  0  0  0
  149.1648  141.8473  157.0068 H   0  0  0  0  0  0  0  0  0  0  0  0
  153.5028  138.6887  154.7225 H   0  0  0  0  0  0  0  0  0  0  0  0
  147.1529  138.4886  155.7655 H   0  0  0  0  0  0  0  0  0  0  0  0
  147.6776  136.8094  153.9768 H   0  0  0  0  0  0  0  0  0  0  0  0
  149.2029  136.9658  153.1481 H   0  0  0  0  0  0  0  0  0  0  0  0
  148.9593  134.9258  152.8633 H   0  0  0  0  0  0  0  0  0  0  0  0
  151.3632  135.6038  154.3900 H   0  0  0  0  0  0  0  0  0  0  0  0
  150.8060  136.3147  155.8845 H   0  0  0  0  0  0  0  0  0  0  0  0
  151.0421  133.3143  155.3133 H   0  0  0  0  0  0  0  0  0  0  0  0
  152.0361  134.2646  156.3962 H   0  0  0  0  0  0  0  0  0  0  0  0
  148.7336  132.8885  155.9369 H   0  0  0  0  0  0  0  0  0  0  0  0
  148.1461  133.5454  157.4496 H   0  0  0  0  0  0  0  0  0  0  0  0
  148.2193  135.8341  156.5986 H   0  0  0  0  0  0  0  0  0  0  0  0
  147.2608  134.8680  155.5070 H   0  0  0  0  0  0  0  0  0  0  0  0
  153.2469  141.4345  157.7262 H   0  0  0  0  0  0  0  0  0  0  0  0
  152.2987  139.4458  158.9049 H   0  0  0  0  0  0  0  0  0  0  0  0
  151.2862  140.4850  159.8749 H   0  0  0  0  0  0  0  0  0  0  0  0
  1  2  1  0  0  0  0
  1 29  1  0  0  0  0
  1 30  1  0  0  0  0
  1 31  1  0  0  0  0
  2 28  1  0  0  0  0
  2  3  1  0  0  0  0
  3  4  1  0  0  0  0
  3 32  1  0  0  0  0
  3 33  1  0  0  0  0
  4  5  1  0  0  0  0
  4 34  1  0  0  0  0
  4 35  1  0  0  0  0
  5 27  1  0  0  0  0
  5  6  1  0  0  0  0
  5 36  1  0  0  0  0
  6  7  1  0  0  0  0
  7  8  1  0  0  0  0
  7 37  1  0  0  0  0
  7 38  1  0  0  0  0
  8  9  1  0  0  0  0
  8 39  1  0  0  0  0
  8 40  1  0  0  0  0
  9 10  1  0  0  0  0
  9 27  1  0  0  0  0
 10 15  1  0  0  0  0
 10 11  2  0  0  0  0
 11 12  1  0  0  0  0
 12 13  2  0  0  0  0
 12 41  1  0  0  0  0
 13 14  1  0  0  0  0
 14 18  1  0  0  0  0
 14 15  2  0  0  0  0
 15 16  1  0  0  0  0
 16 17  2  0  0  0  0
 17 18  1  0  0  0  0
 17 42  1  0  0  0  0
 18 19  1  0  0  0  0
 19 20  1  0  0  0  0
 19 43  1  0  0  0  0
 19 44  1  0  0  0  0
 20 26  1  0  0  0  0
 20 21  1  0  0  0  0
 20 22  1  0  0  0  0
 21 45  1  0  0  0  0
 22 23  1  0  0  0  0
 22 46  1  0  0  0  0
 22 47  1  0  0  0  0
 23 24  1  0  0  0  0
 23 48  1  0  0  0  0
 23 49  1  0  0  0  0
 24 25  1  0  0  0  0
 25 26  1  0  0  0  0
 25 50  1  0  0  0  0
 25 51  1  0  0  0  0
 26 52  1  0  0  0  0
 26 53  1  0  0  0  0
 27 28  1  0  0  0  0
 27 54  1  0  0  0  0
 28 55  1  0  0  0  0
 28 56  1  0  0  0  0
M  END
> <s_m_source_file>
AV-unprocessed.smi

> <i_m_source_file_index>
244

> <i_lp_mmshare_version>
43012

> <i_f3d_flags>
0

> <s_epik_input>
W0NIMl0xW0NIMl1OKFtDSDNdKVtDSDJdW0NAQEhdKFtDQEhdMTIpTihbQ0gyXVtDSDJdTzIpYyhuW2NIXW4zKWMoYzM0KW5bY0hdbjRbQ0gyXUM1KFtPSF0pW0NIMl1bQ0gyXU9bQ0gyXVtDSDJdNQ==

> <s_epik_cmdline>
J2VwaWtfcHl0aG9uJywgJy1waCcsICc3LjAnLCAnLXRuJywgJzgnLCAnLW1hJywgJzIwMCcsICctbWV0YWxfYmluZGluZycsICctaW1hZScsICc8aW5maWxlLm1hZT4nLCAnLW9tYWUnLCAnPG91dGZpbGUubWFlPic=

> <r_lp_tautomer_probability>
1

> <r_epik_Ionization_Penalty>
2.27765

> <r_epik_Ionization_Penalty_Charging>
0

> <r_epik_Ionization_Penalty_Neutral>
2.27765

> <r_epik_State_Penalty>
2.4114

> <r_epik_Charging_Adjusted_Penalty>
2.4114

> <i_epik_Tot_Q>
0

> <i_epik_Tot_abs_Q>
0

> <r_epik_Metal_State_Penalty>
2.39769

> <b_epik_Metal_Only>
0

> <s_lp_Force_Field>
OPLS_2005

> <r_lp_Energy>
43.9701

> <b_lp_Chiralities_Consistent>
1

> <s_lp_Variant>
AV-unprocessed.smi:244-11

> <Gold.Version>
5.8.1

> <Gold.Id.Protein>
6NUR|6NUR_protein|mol2

> <Gold.PLP.Fitness>
42.1077

> <Gold.PLP.PLP>
-33.9950

> <Gold.PLP.part.hbond>
-3.0000

> <Gold.PLP.part.metal>
0.0000

> <Gold.PLP.part.buried>
-4.0059

> <Gold.PLP.part.nonpolar>
-27.6024

> <Gold.PLP.part.repulsive>
0.1815

> <Gold.PLP.ligand.clash>
0.0000

> <Gold.PLP.ligand.torsion>
0.5766

> <Gold.PLP.Chemscore.Hbond>
2.9440

> <Gold.PLP.Chemscore.CHOScore>
0.0000

> <Gold.PLP.Chemscore.Metal>
0.0000

> <Gold.Chemscore.Hbonds>
donor molecule, donor type, donor heavy atom, donor atom, acceptor molecule, acceptor atom, score
      L1  H    21    45       P1  7948  0.70
      P1  H  6896  6908       L1    24  0.26
      P1  H  7997  8008       L1    11  0.95

> <Gold.PLP.Chemscore.Internal.Correction>
0.4339

> <Gold.Rescore>
     Score         DG    S(hbond)    S(metal)    S(lipo)     H(rot)  DE(clash)    DE(int)     intcor
     14.42     -18.83       2.36        0.00      91.97       2.06       1.31       3.10       ----

> <Gold.Chemscore.Fitness>
14.4166

> <Gold.Chemscore.DG>
-18.8328

> <Gold.Chemscore.ZeroCoef>
-5.4800

> <Gold.Chemscore.Hbond>
2.3561

> <Gold.Chemscore.Metal>
0.0000

> <Gold.Chemscore.Lipo>
91.9655

> <Gold.Chemscore.Internal_Hbond>
0.0000

> <Gold.Chemscore.DEClash>
1.3123

> <Gold.Chemscore.DEInternal>
3.1038

> <Gold.Chemscore.Rot>
2.0611

> <Gold.Chemscore.Internal.Correction>
   9.000000E+99

> <Gold.Chemscore.Hbonds>
donor molecule, donor type, donor heavy atom, donor atom, acceptor molecule, acceptor atom, score
      L1  H    21    45       P1  7948  0.07
      P1  H  6896  6908       L1    24  0.26
      P1  H  7997  8008       L1    11  0.21

> <Gold.Chemscore.Hbond.Weighted>
-7.8694

> <Gold.Chemscore.Metal.Weighted>
-0.0000

> <Gold.Chemscore.Lipo.Weighted>
-10.7600

> <Gold.Chemscore.Internal_Hbond.Weighted>
0.0000

> <Gold.Chemscore.DEClash.Weighted>
1.3123

> <Gold.Chemscore.DEInternal.Weighted>
3.1038

> <Gold.Chemscore.Rot.Weighted>
5.2765

> <Gold.Chemscore.Internal.Correction.Weighted>
   9.000000E+99

> <Gold.Protein.RotatedTorsions>
[ 6907 6896 6895 6894 ] final  120.70 input  -60.11 | X-H torsion
[ 7974 7965 7964 7962 ] final  -45.96 input  175.53 | X-H torsion
[ 8008 7997 7996 7995 ] final  -45.30 input   59.86 | X-H torsion
[ 10167 10162 10161 10158 ] final -170.20 input  -65.29 | X-H torsion
[ 10718 10713 10712 10709 ] final  121.65 input   66.30 | X-H torsion
[ 10763 10752 10751 10750 ] final   22.95 input  -60.55 | X-H torsion
[ 11005 11000 10999 10996 ] final -125.37 input  -57.11 | X-H torsion

> <Gold.Protein.ActiveResidues>
 VAL166  LYS551  ARG553  GLY616  TRP617  ASP618  TYR619  PRO620  LYS621  CYS622 
 ASP623  PHE694  ASN695  SER759  ASP760  ASP761  ALA762  ILE779  LEU786  VAL792 
 PHE793  MET794  SER795  GLU796  ALA797  LYS798  CYS799  TRP800  GLU811  SER814 

> <Gold.Protein.RotatedAtoms>
  152.4378  133.7392  159.6631 H   0  0  0  0  0  0  0  0  0  0  0  0  # atno 6907 bound_to 6896
  150.8264  133.8154  159.3123 H   0  0  0  0  0  0  0  0  0  0  0  0  # atno 6908 bound_to 6896
  151.5821  135.1060  160.0071 H   0  0  0  0  0  0  0  0  0  0  0  0  # atno 6909 bound_to 6896
  145.9767  140.7326  142.9383 H   0  0  0  0  0  0  0  0  0  0  0  0  # atno 7974 bound_to 7965
  154.4000  140.1400  156.3825 H   0  0  0  0  0  0  0  0  0  0  0  0  # atno 8008 bound_to 7997
  155.7990  140.3476  155.5371 H   0  0  0  0  0  0  0  0  0  0  0  0  # atno 8009 bound_to 7997
  155.8503  140.0940  157.1669 H   0  0  0  0  0  0  0  0  0  0  0  0  # atno 8010 bound_to 7997
  139.5876  144.1284  152.1594 H   0  0  0  0  0  0  0  0  0  0  0  0  # atno 10167 bound_to 10162
  157.5802  131.1075  150.8202 H   0  0  0  0  0  0  0  0  0  0  0  0  # atno 10718 bound_to 10713
  153.0876  135.6637  153.9918 H   0  0  0  0  0  0  0  0  0  0  0  0  # atno 10763 bound_to 10752
  153.9524  135.2982  155.3439 H   0  0  0  0  0  0  0  0  0  0  0  0  # atno 10764 bound_to 10752
  154.7286  135.5133  153.8999 H   0  0  0  0  0  0  0  0  0  0  0  0  # atno 10765 bound_to 10752
  140.9767  134.0730  157.3810 H   0  0  0  0  0  0  0  0  0  0  0  0  # atno 11005 bound_to 11000
  144.6850  140.2840  143.7288 LP  0  0  0  0  0  0  0  0  0  0  0  0  # atno 17320 bound_to 7965
  145.7828  139.1897  143.2148 LP  0  0  0  0  0  0  0  0  0  0  0  0  # atno 17321 bound_to 7965
  140.0851  144.5668  150.7094 LP  0  0  0  0  0  0  0  0  0  0  0  0  # atno 17342 bound_to 10162
  140.7145  143.2532  151.4478 LP  0  0  0  0  0  0  0  0  0  0  0  0  # atno 17343 bound_to 10162
  156.8651  130.5126  149.5301 LP  0  0  0  0  0  0  0  0  0  0  0  0  # atno 17370 bound_to 10713
  156.0847  130.5849  150.9627 LP  0  0  0  0  0  0  0  0  0  0  0  0  # atno 17371 bound_to 10713
  139.8933  135.0130  156.6894 LP  0  0  0  0  0  0  0  0  0  0  0  0  # atno 17394 bound_to 11000
  140.7248  133.9110  155.8171 LP  0  0  0  0  0  0  0  0  0  0  0  0  # atno 17395 bound_to 11000

$$$$
