AV-unprocessed.smi:3038|AV-procd|sdf|11588|dock3
  -GOLD-   2272016563D 1   1.00000     0.00000
 Structure written by MMmdl.
 37 39  0  0  0  0  0  0  0  0  2 V2000
  154.9358  138.4571  158.5943 O   0  0  0  0  0  0  0  0  0  0  0  0
  154.2734  138.3381  159.6244 C   0  0  0  0  0  0  0  0  0  0  0  0
  154.3404  137.0399  160.4312 C   0  0  0  0  0  0  0  0  0  0  0  0
  154.6787  137.3000  161.8182 N   0  0  0  0  0  0  0  0  0  0  0  0
  154.0639  136.9537  162.9511 C   0  0  0  0  0  0  0  0  0  0  0  0
  154.7048  137.4139  164.0146 N   0  0  0  0  0  0  0  0  0  0  0  0
  155.7856  138.0839  163.4661 N   0  0  0  0  0  0  0  0  0  0  0  0
  155.7754  138.0203  162.1632 N   0  0  0  0  0  0  0  0  0  0  0  0
  153.4748  139.3045  160.1054 N   0  0  0  0  0  0  0  0  0  0  0  0
  153.2527  140.6043  159.4805 C   0  0  2  0  0  0  0  0  0  0  0  0
  153.7083  141.7441  160.4104 C   0  0  0  0  0  0  0  0  0  0  0  0
  153.3781  143.1193  159.8060 C   0  0  0  0  0  0  0  0  0  0  0  0
  151.9309  143.2350  159.4985 N   0  3  1  0  0  0  0  0  0  0  0  0
  151.5701  144.5863  159.0169 C   0  0  0  0  0  0  0  0  0  0  0  0
  151.8400  145.6819  160.0218 C   0  0  0  0  0  0  0  0  0  0  0  0
  150.4229  145.2157  159.7725 C   0  0  0  0  0  0  0  0  0  0  0  0
  151.4799  142.1705  158.5678 C   0  0  0  0  0  0  0  0  0  0  0  0
  151.7613  140.7745  159.1480 C   0  0  0  0  0  0  0  0  0  0  0  0
  153.3787  136.5260  160.3966 H   0  0  0  0  0  0  0  0  0  0  0  0
  155.0813  136.3679  159.9956 H   0  0  0  0  0  0  0  0  0  0  0  0
  153.1529  136.3753  162.9954 H   0  0  0  0  0  0  0  0  0  0  0  0
  152.9702  139.1156  160.9601 H   0  0  0  0  0  0  0  0  0  0  0  0
  153.8183  140.6571  158.5481 H   0  0  0  0  0  0  0  0  0  0  0  0
  153.2192  141.6487  161.3812 H   0  0  0  0  0  0  0  0  0  0  0  0
  154.7809  141.6735  160.5958 H   0  0  0  0  0  0  0  0  0  0  0  0
  153.6673  143.9035  160.5067 H   0  0  0  0  0  0  0  0  0  0  0  0
  153.9587  143.2790  158.8958 H   0  0  0  0  0  0  0  0  0  0  0  0
  151.6951  144.7702  157.9510 H   0  0  0  0  0  0  0  0  0  0  0  0
  152.2969  145.4110  160.9721 H   0  0  0  0  0  0  0  0  0  0  0  0
  152.1176  146.6602  159.6348 H   0  0  0  0  0  0  0  0  0  0  0  0
  149.7676  145.8868  159.2209 H   0  0  0  0  0  0  0  0  0  0  0  0
  149.9400  144.6346  160.5563 H   0  0  0  0  0  0  0  0  0  0  0  0
  150.4109  142.2772  158.3796 H   0  0  0  0  0  0  0  0  0  0  0  0
  151.9834  142.2871  157.6068 H   0  0  0  0  0  0  0  0  0  0  0  0
  151.4458  140.0092  158.4379 H   0  0  0  0  0  0  0  0  0  0  0  0
  151.1602  140.6287  160.0470 H   0  0  0  0  0  0  0  0  0  0  0  0
  151.4347  143.0948  160.3671 H   0  0  0  0  0  0  0  0  0  0  0  0
  1  2  2  0  0  0  0
  2  3  1  0  0  0  0
  2  9  1  0  0  0  0
  3  4  1  0  0  0  0
  3 19  1  0  0  0  0
  3 20  1  0  0  0  0
  4  8  1  0  0  0  0
  4  5  1  0  0  0  0
  5  6  2  0  0  0  0
  5 21  1  0  0  0  0
  6  7  1  0  0  0  0
  7  8  2  0  0  0  0
  9 10  1  0  0  0  0
  9 22  1  0  0  0  0
 10 18  1  0  0  0  0
 10 11  1  0  0  0  0
 10 23  1  0  0  0  0
 11 12  1  0  0  0  0
 11 24  1  0  0  0  0
 11 25  1  0  0  0  0
 12 13  1  0  0  0  0
 12 26  1  0  0  0  0
 12 27  1  0  0  0  0
 13 14  1  0  0  0  0
 13 17  1  0  0  0  0
 13 37  1  0  0  0  0
 14 16  1  0  0  0  0
 14 15  1  0  0  0  0
 14 28  1  0  0  0  0
 15 16  1  0  0  0  0
 15 29  1  0  0  0  0
 15 30  1  0  0  0  0
 16 31  1  0  0  0  0
 16 32  1  0  0  0  0
 17 18  1  0  0  0  0
 17 33  1  0  0  0  0
 17 34  1  0  0  0  0
 18 35  1  0  0  0  0
 18 36  1  0  0  0  0
M  CHG  1  13   1
M  END
> <s_m_source_file>
AV-unprocessed.smi

> <i_m_source_file_index>
3038

> <i_lp_mmshare_version>
43012

> <i_f3d_flags>
0

> <s_epik_input>
bjFubltjSF1uMVtDSDJdQyg9TylbTkhdW0NIXTJbQ0gyXVtDSDJdTihbQ0gyXVtDSDJdMilbQ0hdM1tDSDJdW0NIMl0z

> <s_epik_cmdline>
J2VwaWtfcHl0aG9uJywgJy1waCcsICc3LjAnLCAnLXRuJywgJzgnLCAnLW1hJywgJzIwMCcsICctbWV0YWxfYmluZGluZycsICctaW1hZScsICc8aW5maWxlLm1hZT4nLCAnLW9tYWUnLCAnPG91dGZpbGUubWFlPic=

> <r_lp_tautomer_probability>
1

> <r_epik_Ionization_Penalty>
0.284275

> <r_epik_Ionization_Penalty_Charging>
0.284273

> <r_epik_Ionization_Penalty_Neutral>
2.31262e-06

> <r_epik_State_Penalty>
0.277002

> <r_epik_Charging_Adjusted_Penalty>
0.561274

> <i_epik_Tot_Q>
1

> <i_epik_Tot_abs_Q>
1

> <r_epik_Metal_State_Penalty>
0.277002

> <b_epik_Metal_Only>
0

> <s_lp_Force_Field>
OPLS_2005

> <r_lp_Energy>
27.0237

> <b_lp_Chiralities_Consistent>
1

> <s_lp_Variant>
AV-unprocessed.smi:3038-1

> <Gold.Version>
5.8.1

> <Gold.Id.Protein>
6NUR|6NUR_protein|mol2

> <Gold.PLP.Fitness>
38.5464

> <Gold.PLP.PLP>
-35.8253

> <Gold.PLP.part.hbond>
-1.0000

> <Gold.PLP.part.metal>
0.0000

> <Gold.PLP.part.buried>
-6.0620

> <Gold.PLP.part.nonpolar>
-28.7105

> <Gold.PLP.part.repulsive>
0.1731

> <Gold.PLP.ligand.clash>
0.0000

> <Gold.PLP.ligand.torsion>
0.7771

> <Gold.PLP.Chemscore.Hbond>
1.0000

> <Gold.PLP.Chemscore.CHOScore>
0.0000

> <Gold.PLP.Chemscore.Metal>
0.0000

> <Gold.Chemscore.Hbonds>
donor molecule, donor type, donor heavy atom, donor atom, acceptor molecule, acceptor atom, score
      P1  H  7997  8009       L1     1  1.00

> <Gold.PLP.Chemscore.Internal.Correction>
1.2753

> <Gold.Rescore>
     Score         DG    S(hbond)    S(metal)    S(lipo)     H(rot)  DE(clash)    DE(int)     intcor
     12.43     -13.23       0.99        0.00      87.32       2.25       0.05       0.75       ----

> <Gold.Chemscore.Fitness>
12.4259

> <Gold.Chemscore.DG>
-13.2250

> <Gold.Chemscore.ZeroCoef>
-5.4800

> <Gold.Chemscore.Hbond>
0.9868

> <Gold.Chemscore.Metal>
0.0000

> <Gold.Chemscore.Lipo>
87.3181

> <Gold.Chemscore.Internal_Hbond>
0.0000

> <Gold.Chemscore.DEClash>
0.0497

> <Gold.Chemscore.DEInternal>
0.7494

> <Gold.Chemscore.Rot>
2.2528

> <Gold.Chemscore.Internal.Correction>
   9.000000E+99

> <Gold.Chemscore.Hbonds>
donor molecule, donor type, donor heavy atom, donor atom, acceptor molecule, acceptor atom, score
      P1  H  7997  8009       L1     1  0.96

> <Gold.Chemscore.Hbond.Weighted>
-3.2960

> <Gold.Chemscore.Metal.Weighted>
-0.0000

> <Gold.Chemscore.Lipo.Weighted>
-10.2162

> <Gold.Chemscore.Internal_Hbond.Weighted>
0.0000

> <Gold.Chemscore.DEClash.Weighted>
0.0497

> <Gold.Chemscore.DEInternal.Weighted>
0.7494

> <Gold.Chemscore.Rot.Weighted>
5.7672

> <Gold.Chemscore.Internal.Correction.Weighted>
   9.000000E+99

> <Gold.Protein.RotatedTorsions>
[ 6907 6896 6895 6894 ] final -166.84 input  -60.11 | X-H torsion
[ 7974 7965 7964 7962 ] final   62.61 input  175.53 | X-H torsion
[ 8008 7997 7996 7995 ] final  115.59 input   59.86 | X-H torsion
[ 10167 10162 10161 10158 ] final  136.65 input  -65.29 | X-H torsion
[ 10718 10713 10712 10709 ] final   44.38 input   66.30 | X-H torsion
[ 10763 10752 10751 10750 ] final  132.47 input  -60.55 | X-H torsion
[ 11005 11000 10999 10996 ] final  110.62 input  -57.11 | X-H torsion

> <Gold.Protein.ActiveResidues>
 VAL166  LYS551  ARG553  GLY616  TRP617  ASP618  TYR619  PRO620  LYS621  CYS622 
 ASP623  PHE694  ASN695  SER759  ASP760  ASP761  ALA762  ILE779  LEU786  VAL792 
 PHE793  MET794  SER795  GLU796  ALA797  LYS798  CYS799  TRP800  GLU811  SER814 

> <Gold.Protein.RotatedAtoms>
  151.4499  133.3620  159.2793 H   0  0  0  0  0  0  0  0  0  0  0  0  # atno 6907 bound_to 6896
  150.9098  134.8516  159.7428 H   0  0  0  0  0  0  0  0  0  0  0  0  # atno 6908 bound_to 6896
  152.4926  134.4428  159.9601 H   0  0  0  0  0  0  0  0  0  0  0  0  # atno 6909 bound_to 6896
  145.8713  139.3380  143.0760 H   0  0  0  0  0  0  0  0  0  0  0  0  # atno 7974 bound_to 7965
  156.2390  140.2935  156.0393 H   0  0  0  0  0  0  0  0  0  0  0  0  # atno 8008 bound_to 7997
  155.2006  140.0409  157.2934 H   0  0  0  0  0  0  0  0  0  0  0  0  # atno 8009 bound_to 7997
  154.6133  140.2457  155.7648 H   0  0  0  0  0  0  0  0  0  0  0  0  # atno 8010 bound_to 7997
  139.5172  144.6453  151.5456 H   0  0  0  0  0  0  0  0  0  0  0  0  # atno 10167 bound_to 10162
  157.4261  130.7998  149.7560 H   0  0  0  0  0  0  0  0  0  0  0  0  # atno 10718 bound_to 10713
  153.7913  135.3154  155.3379 H   0  0  0  0  0  0  0  0  0  0  0  0  # atno 10763 bound_to 10752
  154.8124  135.4658  154.0556 H   0  0  0  0  0  0  0  0  0  0  0  0  # atno 10764 bound_to 10752
  153.1875  135.6903  153.8483 H   0  0  0  0  0  0  0  0  0  0  0  0  # atno 10765 bound_to 10752
  139.8886  134.9488  156.6306 H   0  0  0  0  0  0  0  0  0  0  0  0  # atno 11005 bound_to 11000
  145.9133  140.9165  143.0443 LP  0  0  0  0  0  0  0  0  0  0  0  0  # atno 17320 bound_to 7965
  144.6726  140.1189  143.7451 LP  0  0  0  0  0  0  0  0  0  0  0  0  # atno 17321 bound_to 7965
  140.6236  143.9212  150.6546 LP  0  0  0  0  0  0  0  0  0  0  0  0  # atno 17342 bound_to 10162
  140.2493  143.3605  152.1419 LP  0  0  0  0  0  0  0  0  0  0  0  0  # atno 17343 bound_to 10162
  155.9897  130.3950  150.3061 LP  0  0  0  0  0  0  0  0  0  0  0  0  # atno 17370 bound_to 10713
  157.1213  131.0247  151.3008 LP  0  0  0  0  0  0  0  0  0  0  0  0  # atno 17371 bound_to 10713
  140.7669  133.8770  155.8461 LP  0  0  0  0  0  0  0  0  0  0  0  0  # atno 17394 bound_to 11000
  140.9875  134.1323  157.4439 LP  0  0  0  0  0  0  0  0  0  0  0  0  # atno 17395 bound_to 11000

$$$$
