#       Name:                AV-unprocessed.smi:1492
#       Creating user name   scv26
#       Creation time:       Fri Mar 27 06:14:11 2020


#       File generated by GOLD software.
#

@<TRIPOS>MOLECULE
AV-unprocessed.smi:1492
    60    61     1
SMALL
NO_CHARGES


@<TRIPOS>ATOM
      1 ****        -0.7203   1.5913   2.0302 C.3            1 S1                 0.0000
      2 ****        -1.3918   1.2657   0.6822 C.3            1 S1                 0.0000
      3 ****        -0.8385   1.9753  -0.6011 C.3            1 S1                 0.0000
      4 ****        -1.2023   3.4798  -0.5214 C.3            1 S1                 0.0000
      5 ****         0.7172   1.8790  -0.5863 C.3            1 S1                 0.0000
      6 ****         1.1670   0.4931  -0.6056 N.am           1 S1                 0.0000
      7 ****         2.4202   0.0860  -0.3689 C.2            1 S1                 0.0000
      8 ****         3.3633   0.8552  -0.1873 O.2            1 S1                 0.0000
      9 ****         2.6312  -1.4264  -0.3119 C.3            1 S1                 0.0000
     10 ****         2.0033  -2.1170   0.8982 C.2            1 S1                 0.0000
     11 ****         2.6330  -2.2181   2.1055 C.2            1 S1                 0.0000
     12 ****         4.0217  -1.6583   2.3599 C.3            1 S1                 0.0000
     13 ****         2.0291  -2.8553   3.1983 N.2            1 S1                 0.0000
     14 ****         0.8456  -3.3531   3.0516 C.2            1 S1                 0.0000
     15 ****         0.0893  -4.0690   4.1505 C.3            1 S1                 0.0000
     16 ****         0.1448  -3.2768   1.8492 N.am           1 S1                 0.0000
     17 ****         0.6475  -2.6803   0.7451 C.2            1 S1                 0.0000
     18 ****        -0.0174  -2.6245  -0.2885 O.2            1 S1                 0.0000
     19 ****        -1.4005   1.3214  -1.8233 N.3            1 S1                 0.0000
     20 ****        -0.8837   1.8260  -3.1034 C.3            1 S1                 0.0000
     21 ****        -1.4151   1.0258  -4.3047 C.3            1 S1                 0.0000
     22 ****        -2.8364   1.0422  -4.3024 O.3            1 S1                 0.0000
     23 ****        -3.3781   0.4958  -3.1072 C.3            1 S1                 0.0000
     24 ****        -2.8678   1.2925  -1.8947 C.3            1 S1                 0.0000
     25 ****        -0.7797  -3.6790   1.7950 H              1 S1                 0.0000
     26 ****        -1.2622   1.1116   2.8454 H              1 S1                 0.0000
     27 ****        -0.7101   2.6610   2.2359 H              1 S1                 0.0000
     28 ****         0.3043   1.2224   2.0774 H              1 S1                 0.0000
     29 ****        -1.3508   0.1838   0.5448 H              1 S1                 0.0000
     30 ****        -2.4474   1.5065   0.8056 H              1 S1                 0.0000
     31 ****        -0.7576   3.9539   0.3531 H              1 S1                 0.0000
     32 ****        -2.2778   3.6400  -0.4519 H              1 S1                 0.0000
     33 ****        -0.8403   4.0361  -1.3855 H              1 S1                 0.0000
     34 ****         1.1694   2.4175  -1.4184 H              1 S1                 0.0000
     35 ****         1.1232   2.3744   0.2963 H              1 S1                 0.0000
     36 ****         0.4588  -0.2103  -0.7605 H              1 S1                 0.0000
     37 ****         2.2582  -1.8678  -1.2372 H              1 S1                 0.0000
     38 ****         3.7027  -1.6265  -0.3246 H              1 S1                 0.0000
     39 ****         4.0538  -0.5913   2.1400 H              1 S1                 0.0000
     40 ****         4.7584  -2.1651   1.7363 H              1 S1                 0.0000
     41 ****         4.3178  -1.7914   3.4012 H              1 S1                 0.0000
     42 ****         0.6555  -4.9366   4.4906 H              1 S1                 0.0000
     43 ****        -0.8886  -4.4121   3.8099 H              1 S1                 0.0000
     44 ****        -0.0592  -3.4018   4.9998 H              1 S1                 0.0000
     45 ****        -1.1530   2.8739  -3.2343 H              1 S1                 0.0000
     46 ****         0.2018   1.7687  -3.1398 H              1 S1                 0.0000
     47 ****        -1.0565   1.4614  -5.2374 H              1 S1                 0.0000
     48 ****        -1.0550  -0.0036  -4.2725 H              1 S1                 0.0000
     49 ****        -4.4660   0.5398  -3.1577 H              1 S1                 0.0000
     50 ****        -3.1039  -0.5568  -3.0213 H              1 S1                 0.0000
     51 ****        -3.2956   0.8336  -1.0060 H              1 S1                 0.0000
     52 ****        -3.2626   2.3069  -1.9507 H              1 S1                 0.0000
     53 ****         3.2143   1.8437  -0.2124 LP             1 S1                 0.0000
     54 ****         4.2788   0.4918  -0.0146 LP             1 S1                 0.0000
     55 ****         2.5052  -2.9234   4.0751 LP             1 S1                 0.0000
     56 ****         0.3559  -2.1739  -1.0994 LP             1 S1                 0.0000
     57 ****        -0.9311  -3.0297  -0.3177 LP             1 S1                 0.0000
     58 ****        -1.0673   0.3870  -1.6975 LP             1 S1                 0.0000
     59 ****        -3.1658   0.5062  -5.0796 LP             1 S1                 0.0000
     60 ****        -3.1476   1.9881  -4.3939 LP             1 S1                 0.0000
@<TRIPOS>BOND
    1    1    2 1     
    2    1   26 1     
    3    1   27 1     
    4    1   28 1     
    5    2    3 1     
    6    2   29 1     
    7    2   30 1     
    8    3    4 1     
    9    3    5 1     
   10    3   19 1     
   11    4   31 1     
   12    4   32 1     
   13    4   33 1     
   14    5    6 1     
   15    5   34 1     
   16    5   35 1     
   17    6    7 am    
   18    6   36 1     
   19    7    8 2     
   20    7    9 1     
   21    9   10 1     
   22    9   37 1     
   23    9   38 1     
   24   10   17 1     
   25   10   11 2     
   26   11   12 1     
   27   11   13 1     
   28   12   39 1     
   29   12   40 1     
   30   12   41 1     
   31   13   14 2     
   32   14   15 1     
   33   14   16 1     
   34   15   42 1     
   35   15   43 1     
   36   15   44 1     
   37   16   25 1     
   38   16   17 am    
   39   17   18 2     
   40   19   24 1     
   41   19   20 1     
   42   20   21 1     
   43   20   45 1     
   44   20   46 1     
   45   21   22 1     
   46   21   47 1     
   47   21   48 1     
   48   22   23 1     
   49   23   24 1     
   50   23   49 1     
   51   23   50 1     
   52   24   51 1     
   53   24   52 1     
   54    8   53 1     
   55    8   54 1     
   56   13   55 1     
   57   18   56 1     
   58   18   57 1     
   59   19   58 1     
   60   22   59 1     
   61   22   60 1     
@<TRIPOS>SUBSTRUCTURE
      1 S1             1
@<TRIPOS>SET
LONE_PAIRS      STATIC     ATOMS    <user>   **** ""
8 53 54 55 56 57 58 59 60
DONOR_HYDROGENS      STATIC     ATOMS    <user>   **** ""
2 36 25
ATOM$BLUE        STATIC     ATOMS    COLORGROUP SYSTEM
8 53 54 55 56 57 58 59 60
ATOM$RED        STATIC     ATOMS    COLORGROUP SYSTEM
2 36 25
