AV-unprocessed.smi:3136|AV-procd|sdf|11951|dock2
  -GOLD-   2272017343D 1   1.00000     0.00000
 Structure written by MMmdl.
 40 40  0  0  0  0  0  0  0  0  2 V2000
  144.7818  134.8491  150.1202 C   0  0  0  0  0  0  0  0  0  0  0  0
  144.2977  135.7929  151.2292 C   0  0  0  0  0  0  0  0  0  0  0  0
  145.1124  137.0006  151.3010 N   0  0  0  0  0  0  0  0  0  0  0  0
  145.8999  137.3391  152.3337 C   0  0  0  0  0  0  0  0  0  0  0  0
  146.0075  136.6568  153.3526 O   0  0  0  0  0  0  0  0  0  0  0  0
  146.6829  138.6480  152.1948 C   0  0  0  0  0  0  0  0  0  0  0  0
  147.3773  139.0623  153.5033 C   0  0  0  0  0  0  0  0  0  0  0  0
  148.8368  138.8514  153.4204 N   0  3  0  0  0  0  0  0  0  0  0  0
  149.5628  139.0263  154.6987 C   0  0  1  0  0  0  0  0  0  0  0  0
  150.7762  138.0788  154.7141 C   0  0  0  0  0  0  0  0  0  0  0  0
  149.9459  140.5168  154.9029 C   0  0  1  0  0  0  0  0  0  0  0  0
  148.7634  141.4733  154.6567 C   0  0  0  0  0  0  0  0  0  0  0  0
  150.5191  140.7620  156.2206 N   0  0  0  0  0  0  0  0  0  0  0  0
  150.1846  141.7461  157.1284 C   0  0  0  0  0  0  0  0  0  0  0  0
  150.9850  141.5822  158.2223 C   0  0  0  0  0  0  0  0  0  0  0  0
  151.7862  140.4550  157.8896 C   0  0  0  0  0  0  0  0  0  0  0  0
  151.5048  139.9656  156.6930 N   0  0  0  0  0  0  0  0  0  0  0  0
  144.1398  133.9708  150.0529 H   0  0  0  0  0  0  0  0  0  0  0  0
  145.7981  134.5013  150.3083 H   0  0  0  0  0  0  0  0  0  0  0  0
  144.7704  135.3434  149.1483 H   0  0  0  0  0  0  0  0  0  0  0  0
  143.2671  136.0901  151.0340 H   0  0  0  0  0  0  0  0  0  0  0  0
  144.2954  135.2792  152.1918 H   0  0  0  0  0  0  0  0  0  0  0  0
  145.0751  137.6209  150.5049 H   0  0  0  0  0  0  0  0  0  0  0  0
  147.4254  138.5443  151.4016 H   0  0  0  0  0  0  0  0  0  0  0  0
  145.9897  139.4277  151.8768 H   0  0  0  0  0  0  0  0  0  0  0  0
  147.1853  140.1144  153.7195 H   0  0  0  0  0  0  0  0  0  0  0  0
  146.9813  138.4820  154.3383 H   0  0  0  0  0  0  0  0  0  0  0  0
  149.0030  137.9121  153.0886 H   0  0  0  0  0  0  0  0  0  0  0  0
  148.9129  138.7246  155.5223 H   0  0  0  0  0  0  0  0  0  0  0  0
  151.2838  138.0840  155.6789 H   0  0  0  0  0  0  0  0  0  0  0  0
  151.5057  138.3563  153.9523 H   0  0  0  0  0  0  0  0  0  0  0  0
  150.4705  137.0497  154.5223 H   0  0  0  0  0  0  0  0  0  0  0  0
  150.7230  140.7640  154.1777 H   0  0  0  0  0  0  0  0  0  0  0  0
  148.4045  141.4114  153.6294 H   0  0  0  0  0  0  0  0  0  0  0  0
  149.0555  142.5090  154.8337 H   0  0  0  0  0  0  0  0  0  0  0  0
  147.9230  141.2491  155.3148 H   0  0  0  0  0  0  0  0  0  0  0  0
  149.4138  142.4745  156.9234 H   0  0  0  0  0  0  0  0  0  0  0  0
  150.9961  142.1765  159.1240 H   0  0  0  0  0  0  0  0  0  0  0  0
  152.5584  139.9810  158.4777 H   0  0  0  0  0  0  0  0  0  0  0  0
  149.2177  139.5009  152.7471 H   0  0  0  0  0  0  0  0  0  0  0  0
  1  2  1  0  0  0  0
  1 18  1  0  0  0  0
  1 19  1  0  0  0  0
  1 20  1  0  0  0  0
  2  3  1  0  0  0  0
  2 21  1  0  0  0  0
  2 22  1  0  0  0  0
  3  4  1  0  0  0  0
  3 23  1  0  0  0  0
  4  5  2  0  0  0  0
  4  6  1  0  0  0  0
  6  7  1  0  0  0  0
  6 24  1  0  0  0  0
  6 25  1  0  0  0  0
  7  8  1  0  0  0  0
  7 26  1  0  0  0  0
  7 27  1  0  0  0  0
  8  9  1  0  0  0  0
  8 28  1  0  0  0  0
  8 40  1  0  0  0  0
  9 10  1  0  0  0  0
  9 11  1  0  0  0  0
  9 29  1  0  0  0  0
 10 30  1  0  0  0  0
 10 31  1  0  0  0  0
 10 32  1  0  0  0  0
 11 12  1  0  0  0  0
 11 13  1  0  0  0  0
 11 33  1  0  0  0  0
 12 34  1  0  0  0  0
 12 35  1  0  0  0  0
 12 36  1  0  0  0  0
 13 17  1  0  0  0  0
 13 14  1  0  0  0  0
 14 15  2  0  0  0  0
 14 37  1  0  0  0  0
 15 16  1  0  0  0  0
 15 38  1  0  0  0  0
 16 17  2  0  0  0  0
 16 39  1  0  0  0  0
M  CHG  1   8   1
M  END
> <s_m_source_file>
AV-unprocessed.smi

> <i_m_source_file_index>
3136

> <i_lp_mmshare_version>
43012

> <i_f3d_flags>
0

> <s_epik_input>
W0NIM11bQ0gyXVtOSF1DKD1PKVtDSDJdW0NIMl1bTkhdW0NASF0oW0NIM10pW0NASF0oW0NIM10pbjFbY0hdW2NIXVtjSF1uMQ==

> <s_epik_cmdline>
J2VwaWtfcHl0aG9uJywgJy1waCcsICc3LjAnLCAnLXRuJywgJzgnLCAnLW1hJywgJzIwMCcsICctbWV0YWxfYmluZGluZycsICctaW1hZScsICc8aW5maWxlLm1hZT4nLCAnLW9tYWUnLCAnPG91dGZpbGUubWFlPic=

> <r_lp_tautomer_probability>
1

> <r_epik_Ionization_Penalty>
0.00463447

> <r_epik_Ionization_Penalty_Charging>
0.00462393

> <r_epik_Ionization_Penalty_Neutral>
1.05394e-05

> <r_epik_State_Penalty>
-0

> <r_epik_Charging_Adjusted_Penalty>
0.00462393

> <i_epik_Tot_Q>
1

> <i_epik_Tot_abs_Q>
1

> <r_epik_Metal_State_Penalty>
-0

> <b_epik_Metal_Only>
0

> <s_lp_Force_Field>
OPLS_2005

> <r_lp_Energy>
12.3637

> <b_lp_Chiralities_Consistent>
1

> <s_lp_Variant>
AV-unprocessed.smi:3136-4

> <Gold.Version>
5.8.1

> <Gold.Id.Protein>
6NUR|6NUR_protein|mol2

> <Gold.PLP.Fitness>
48.5467

> <Gold.PLP.PLP>
-35.4509

> <Gold.PLP.part.hbond>
-2.9715

> <Gold.PLP.part.metal>
0.0000

> <Gold.PLP.part.buried>
-2.8707

> <Gold.PLP.part.nonpolar>
-30.8522

> <Gold.PLP.part.repulsive>
0.2506

> <Gold.PLP.ligand.clash>
0.0000

> <Gold.PLP.ligand.torsion>
1.0229

> <Gold.PLP.Chemscore.Hbond>
4.0000

> <Gold.PLP.Chemscore.CHOScore>
1.0000

> <Gold.PLP.Chemscore.Metal>
0.0000

> <Gold.Chemscore.Hbonds>
donor molecule, donor type, donor heavy atom, donor atom, acceptor molecule, acceptor atom, score
      L1  H     3    23       P1 10171  0.70
      L1  H     8    28       P1  7948  1.89
      L1  H     8    40       P1  7957  1.00
      L1  C    14    37       P1  8028  0.76

> <Gold.PLP.Chemscore.Internal.Correction>
0.1415

> <Gold.Rescore>
     Score         DG    S(hbond)    S(metal)    S(lipo)     H(rot)  DE(clash)    DE(int)     intcor
     14.50     -17.98       2.98        0.00      72.55       2.32       0.02       3.46       ----

> <Gold.Chemscore.Fitness>
14.4970

> <Gold.Chemscore.DG>
-17.9794

> <Gold.Chemscore.ZeroCoef>
-5.4800

> <Gold.Chemscore.Hbond>
2.9761

> <Gold.Chemscore.Metal>
0.0000

> <Gold.Chemscore.Lipo>
72.5469

> <Gold.Chemscore.Internal_Hbond>
0.0000

> <Gold.Chemscore.DEClash>
0.0247

> <Gold.Chemscore.DEInternal>
3.4578

> <Gold.Chemscore.Rot>
2.3159

> <Gold.Chemscore.Internal.Correction>
   9.000000E+99

> <Gold.Chemscore.Hbonds>
donor molecule, donor type, donor heavy atom, donor atom, acceptor molecule, acceptor atom, score
      L1  H     3    23       P1 10171  0.70
      L1  H     8    28       P1  7948  0.89
      L1  H     8    40       P1  7957  0.98

> <Gold.Chemscore.Hbond.Weighted>
-9.9400

> <Gold.Chemscore.Metal.Weighted>
-0.0000

> <Gold.Chemscore.Lipo.Weighted>
-8.4880

> <Gold.Chemscore.Internal_Hbond.Weighted>
0.0000

> <Gold.Chemscore.DEClash.Weighted>
0.0247

> <Gold.Chemscore.DEInternal.Weighted>
3.4578

> <Gold.Chemscore.Rot.Weighted>
5.9286

> <Gold.Chemscore.Internal.Correction.Weighted>
   9.000000E+99

> <Gold.Protein.RotatedTorsions>
[ 6907 6896 6895 6894 ] final  -54.03 input  -60.11 | X-H torsion
[ 7974 7965 7964 7962 ] final  100.32 input  175.53 | X-H torsion
[ 8008 7997 7996 7995 ] final  -72.66 input   59.86 | X-H torsion
[ 10167 10162 10161 10158 ] final  -92.55 input  -65.29 | X-H torsion
[ 10718 10713 10712 10709 ] final   68.65 input   66.30 | X-H torsion
[ 10763 10752 10751 10750 ] final  -90.15 input  -60.55 | X-H torsion
[ 11005 11000 10999 10996 ] final -111.21 input  -57.11 | X-H torsion

> <Gold.Protein.ActiveResidues>
 VAL166  LYS551  ARG553  GLY616  TRP617  ASP618  TYR619  PRO620  LYS621  CYS622 
 ASP623  PHE694  ASN695  SER759  ASP760  ASP761  ALA762  ILE779  LEU786  VAL792 
 PHE793  MET794  SER795  GLU796  ALA797  LYS798  CYS799  TRP800  GLU811  SER814 

> <Gold.Protein.RotatedAtoms>
  150.8374  134.7652  159.6903 H   0  0  0  0  0  0  0  0  0  0  0  0  # atno 6907 bound_to 6896
  152.4468  134.5474  159.9867 H   0  0  0  0  0  0  0  0  0  0  0  0  # atno 6908 bound_to 6896
  151.5622  133.3364  159.3009 H   0  0  0  0  0  0  0  0  0  0  0  0  # atno 6909 bound_to 6896
  145.3872  139.2369  143.3371 H   0  0  0  0  0  0  0  0  0  0  0  0  # atno 7974 bound_to 7965
  154.5184  140.0793  156.8126 H   0  0  0  0  0  0  0  0  0  0  0  0  # atno 8008 bound_to 7997
  155.3629  140.3419  155.4223 H   0  0  0  0  0  0  0  0  0  0  0  0  # atno 8009 bound_to 7997
  156.1654  140.1602  156.8528 H   0  0  0  0  0  0  0  0  0  0  0  0  # atno 8010 bound_to 7997
  140.3336  143.2981  151.9914 H   0  0  0  0  0  0  0  0  0  0  0  0  # atno 10167 bound_to 10162
  157.6301  130.9384  150.0406 H   0  0  0  0  0  0  0  0  0  0  0  0  # atno 10718 bound_to 10713
  154.6628  135.5315  153.8039 H   0  0  0  0  0  0  0  0  0  0  0  0  # atno 10763 bound_to 10752
  153.0452  135.6510  154.0846 H   0  0  0  0  0  0  0  0  0  0  0  0  # atno 10764 bound_to 10752
  154.0753  135.2951  155.3280 H   0  0  0  0  0  0  0  0  0  0  0  0  # atno 10765 bound_to 10752
  141.0747  133.9320  157.2413 H   0  0  0  0  0  0  0  0  0  0  0  0  # atno 11005 bound_to 11000
  146.2814  140.4549  142.8775 LP  0  0  0  0  0  0  0  0  0  0  0  0  # atno 17320 bound_to 7965
  144.8466  140.6938  143.6195 LP  0  0  0  0  0  0  0  0  0  0  0  0  # atno 17321 bound_to 7965
  139.4852  144.6215  151.7247 LP  0  0  0  0  0  0  0  0  0  0  0  0  # atno 17342 bound_to 10162
  140.5374  144.0634  150.6075 LP  0  0  0  0  0  0  0  0  0  0  0  0  # atno 17343 bound_to 10162
  156.1499  130.3642  149.9454 LP  0  0  0  0  0  0  0  0  0  0  0  0  # atno 17370 bound_to 10713
  156.7476  130.9103  151.3635 LP  0  0  0  0  0  0  0  0  0  0  0  0  # atno 17371 bound_to 10713
  139.9560  135.0165  156.9129 LP  0  0  0  0  0  0  0  0  0  0  0  0  # atno 17394 bound_to 11000
  140.5598  134.0546  155.7395 LP  0  0  0  0  0  0  0  0  0  0  0  0  # atno 17395 bound_to 11000

$$$$
