AV-unprocessed.smi:2245|AV-procd|sdf|9081|dock3
  -GOLD-   2272012283D 1   1.00000     0.00000
 Structure written by MMmdl.
 45 46  0  0  0  0  0  0  0  0  2 V2000
  151.8349  145.5773  160.7393 C   0  0  0  0  0  0  0  0  0  0  0  0
  151.9217  144.3320  159.8821 C   0  0  0  0  0  0  0  0  0  0  0  0
  152.8980  143.3504  160.1364 C   0  0  0  0  0  0  0  0  0  0  0  0
  152.9336  142.2160  159.3019 C   0  0  0  0  0  0  0  0  0  0  0  0
  153.9548  141.1195  159.5203 C   0  0  0  0  0  0  0  0  0  0  0  0
  152.0772  142.0299  158.2749 N   0  0  0  0  0  0  0  0  0  0  0  0
  151.1327  142.9690  158.0204 C   0  0  0  0  0  0  0  0  0  0  0  0
  150.1882  142.8692  156.9642 N   0  0  0  0  0  0  0  0  0  0  0  0
  150.0133  141.8531  156.1009 C   0  0  0  0  0  0  0  0  0  0  0  0
  150.6527  140.8010  156.0981 O   0  0  0  0  0  0  0  0  0  0  0  0
  149.0410  142.1255  155.2184 N   0  0  0  0  0  0  0  0  0  0  0  0
  148.5971  141.2285  154.1557 C   0  0  0  0  0  0  0  0  0  0  0  0
  147.1281  140.7926  154.3271 C   0  0  1  0  0  0  0  0  0  0  0  0
  146.8753  139.9270  155.5600 C   0  0  0  0  0  0  0  0  0  0  0  0
  145.3806  140.1085  155.8576 C   0  0  0  0  0  0  0  0  0  0  0  0
  144.9304  141.2969  155.0926 N   0  3  1  0  0  0  0  0  0  0  0  0
  144.0338  142.2258  155.8224 C   0  0  0  0  0  0  0  0  0  0  0  0
  142.7803  141.5256  156.3763 C   0  0  0  0  0  0  0  0  0  0  0  0
  143.0463  141.0591  157.5953 F   0  0  0  0  0  0  0  0  0  0  0  0
  141.7724  142.3937  156.4610 F   0  0  0  0  0  0  0  0  0  0  0  0
  142.4155  140.5035  155.6032 F   0  0  0  0  0  0  0  0  0  0  0  0
  146.1349  141.9372  154.5280 C   0  0  0  0  0  0  0  0  0  0  0  0
  151.0291  144.1372  158.8084 C   0  0  0  0  0  0  0  0  0  0  0  0
  152.2758  145.4073  161.7221 H   0  0  0  0  0  0  0  0  0  0  0  0
  150.7961  145.8760  160.8816 H   0  0  0  0  0  0  0  0  0  0  0  0
  152.3673  146.3997  160.2609 H   0  0  0  0  0  0  0  0  0  0  0  0
  153.6004  143.4641  160.9494 H   0  0  0  0  0  0  0  0  0  0  0  0
  154.7072  141.4204  160.2501 H   0  0  0  0  0  0  0  0  0  0  0  0
  154.4648  140.8805  158.5866 H   0  0  0  0  0  0  0  0  0  0  0  0
  153.4653  140.2164  159.8856 H   0  0  0  0  0  0  0  0  0  0  0  0
  149.5802  143.6666  156.8514 H   0  0  0  0  0  0  0  0  0  0  0  0
  148.5617  143.0105  155.2974 H   0  0  0  0  0  0  0  0  0  0  0  0
  148.7365  141.7122  153.1875 H   0  0  0  0  0  0  0  0  0  0  0  0
  149.2503  140.3555  154.1598 H   0  0  0  0  0  0  0  0  0  0  0  0
  146.8161  140.2213  153.4511 H   0  0  0  0  0  0  0  0  0  0  0  0
  147.1472  138.8830  155.4007 H   0  0  0  0  0  0  0  0  0  0  0  0
  147.4609  140.2960  156.4034 H   0  0  0  0  0  0  0  0  0  0  0  0
  144.8077  139.2424  155.5254 H   0  0  0  0  0  0  0  0  0  0  0  0
  145.2194  140.2214  156.9304 H   0  0  0  0  0  0  0  0  0  0  0  0
  144.5823  142.7312  156.6189 H   0  0  0  0  0  0  0  0  0  0  0  0
  143.7111  143.0026  155.1275 H   0  0  0  0  0  0  0  0  0  0  0  0
  146.5364  142.6605  155.2404 H   0  0  0  0  0  0  0  0  0  0  0  0
  145.9078  142.4642  153.6006 H   0  0  0  0  0  0  0  0  0  0  0  0
  150.2727  144.8785  158.5940 H   0  0  0  0  0  0  0  0  0  0  0  0
  144.4115  140.9440  154.3008 H   0  0  0  0  0  0  0  0  0  0  0  0
  1  2  1  0  0  0  0
  1 24  1  0  0  0  0
  1 25  1  0  0  0  0
  1 26  1  0  0  0  0
  2 23  1  0  0  0  0
  2  3  2  0  0  0  0
  3  4  1  0  0  0  0
  3 27  1  0  0  0  0
  4  5  1  0  0  0  0
  4  6  2  0  0  0  0
  5 28  1  0  0  0  0
  5 29  1  0  0  0  0
  5 30  1  0  0  0  0
  6  7  1  0  0  0  0
  7  8  1  0  0  0  0
  7 23  2  0  0  0  0
  8  9  1  0  0  0  0
  8 31  1  0  0  0  0
  9 10  2  0  0  0  0
  9 11  1  0  0  0  0
 11 12  1  0  0  0  0
 11 32  1  0  0  0  0
 12 13  1  0  0  0  0
 12 33  1  0  0  0  0
 12 34  1  0  0  0  0
 13 22  1  0  0  0  0
 13 14  1  0  0  0  0
 13 35  1  0  0  0  0
 14 15  1  0  0  0  0
 14 36  1  0  0  0  0
 14 37  1  0  0  0  0
 15 16  1  0  0  0  0
 15 38  1  0  0  0  0
 15 39  1  0  0  0  0
 16 17  1  0  0  0  0
 16 22  1  0  0  0  0
 16 45  1  0  0  0  0
 17 18  1  0  0  0  0
 17 40  1  0  0  0  0
 17 41  1  0  0  0  0
 18 19  1  0  0  0  0
 18 20  1  0  0  0  0
 18 21  1  0  0  0  0
 22 42  1  0  0  0  0
 22 43  1  0  0  0  0
 23 44  1  0  0  0  0
M  CHG  1  16   1
M  END
> <s_m_source_file>
AV-unprocessed.smi

> <i_m_source_file_index>
2245

> <i_lp_mmshare_version>
43012

> <i_f3d_flags>
0

> <s_epik_input>
W0NIM11jMVtjSF1jKFtDSDNdKW5jKFtjSF0xKVtOSF1DKD1PKVtOSF1bQ0gyXVtDQEBIXTJbQ0gyXVtDSDJdTihbQ0gyXTIpW0NIMl1DKEYpKEYpRg==

> <s_epik_cmdline>
J2VwaWtfcHl0aG9uJywgJy1waCcsICc3LjAnLCAnLXRuJywgJzgnLCAnLW1hJywgJzIwMCcsICctbWV0YWxfYmluZGluZycsICctaW1hZScsICc8aW5maWxlLm1hZT4nLCAnLW9tYWUnLCAnPG91dGZpbGUubWFlPic=

> <r_epik_Ionization_Penalty>
0.628315

> <r_epik_Ionization_Penalty_Charging>
0.628113

> <r_epik_Ionization_Penalty_Neutral>
0.000202271

> <r_epik_State_Penalty>
0.644725

> <r_epik_Charging_Adjusted_Penalty>
1.27284

> <i_epik_Tot_Q>
1

> <i_epik_Tot_abs_Q>
1

> <r_epik_Metal_State_Penalty>
0.644752

> <b_epik_Metal_Only>
0

> <s_lp_Force_Field>
OPLS_2005

> <r_lp_Energy>
28.8991

> <b_lp_Chiralities_Consistent>
1

> <s_lp_Variant>
AV-unprocessed.smi:2245-6

> <Gold.Version>
5.8.1

> <Gold.Id.Protein>
6NUR|6NUR_protein|mol2

> <Gold.PLP.Fitness>
52.4722

> <Gold.PLP.PLP>
-41.2066

> <Gold.PLP.part.hbond>
-3.0000

> <Gold.PLP.part.metal>
0.0000

> <Gold.PLP.part.buried>
-5.8160

> <Gold.PLP.part.nonpolar>
-33.2381

> <Gold.PLP.part.repulsive>
0.2710

> <Gold.PLP.ligand.clash>
0.0000

> <Gold.PLP.ligand.torsion>
0.5665

> <Gold.PLP.Chemscore.Hbond>
3.9920

> <Gold.PLP.Chemscore.CHOScore>
0.0000

> <Gold.PLP.Chemscore.Metal>
0.0000

> <Gold.Chemscore.Hbonds>
donor molecule, donor type, donor heavy atom, donor atom, acceptor molecule, acceptor atom, score
      L1  H     8    31       P1  8028  0.88
      L1  H    11    32       P1  8028  0.83
      L1  H    16    45       P1 10175  2.00

> <Gold.PLP.Chemscore.Internal.Correction>
0.4226

> <Gold.Rescore>
     Score         DG    S(hbond)    S(metal)    S(lipo)     H(rot)  DE(clash)    DE(int)     intcor
     19.60     -21.67       2.83        0.00      92.92       1.61       0.15       1.91       ----

> <Gold.Chemscore.Fitness>
19.6012

> <Gold.Chemscore.DG>
-21.6673

> <Gold.Chemscore.ZeroCoef>
-5.4800

> <Gold.Chemscore.Hbond>
2.8286

> <Gold.Chemscore.Metal>
0.0000

> <Gold.Chemscore.Lipo>
92.9240

> <Gold.Chemscore.Internal_Hbond>
0.0000

> <Gold.Chemscore.DEClash>
0.1514

> <Gold.Chemscore.DEInternal>
1.9147

> <Gold.Chemscore.Rot>
1.6143

> <Gold.Chemscore.Internal.Correction>
   9.000000E+99

> <Gold.Chemscore.Hbonds>
donor molecule, donor type, donor heavy atom, donor atom, acceptor molecule, acceptor atom, score
      L1  H     8    31       P1  8028  0.84
      L1  H    11    32       P1  8028  0.83
      L1  H    16    45       P1 10175  0.90

> <Gold.Chemscore.Hbond.Weighted>
-9.4477

> <Gold.Chemscore.Metal.Weighted>
-0.0000

> <Gold.Chemscore.Lipo.Weighted>
-10.8721

> <Gold.Chemscore.Internal_Hbond.Weighted>
0.0000

> <Gold.Chemscore.DEClash.Weighted>
0.1514

> <Gold.Chemscore.DEInternal.Weighted>
1.9147

> <Gold.Chemscore.Rot.Weighted>
4.1325

> <Gold.Chemscore.Internal.Correction.Weighted>
   9.000000E+99

> <Gold.Protein.RotatedTorsions>
[ 6907 6896 6895 6894 ] final   78.29 input  -60.11 | X-H torsion
[ 7974 7965 7964 7962 ] final -152.24 input  175.53 | X-H torsion
[ 8008 7997 7996 7995 ] final  105.69 input   59.86 | X-H torsion
[ 10167 10162 10161 10158 ] final -136.01 input  -65.29 | X-H torsion
[ 10718 10713 10712 10709 ] final   50.73 input   66.30 | X-H torsion
[ 10763 10752 10751 10750 ] final  -29.82 input  -60.55 | X-H torsion
[ 11005 11000 10999 10996 ] final -127.97 input  -57.11 | X-H torsion

> <Gold.Protein.ActiveResidues>
 VAL166  LYS551  ARG553  GLY616  TRP617  ASP618  TYR619  PRO620  LYS621  CYS622 
 ASP623  PHE694  ASN695  SER759  ASP760  ASP761  ALA762  ILE779  LEU786  VAL792 
 PHE793  MET794  SER795  GLU796  ALA797  LYS798  CYS799  TRP800  GLU811  SER814 

> <Gold.Protein.RotatedAtoms>
  152.5153  134.3687  159.9310 H   0  0  0  0  0  0  0  0  0  0  0  0  # atno 6907 bound_to 6896
  151.3641  133.3872  159.2700 H   0  0  0  0  0  0  0  0  0  0  0  0  # atno 6908 bound_to 6896
  150.9629  134.9033  159.7799 H   0  0  0  0  0  0  0  0  0  0  0  0  # atno 6909 bound_to 6896
  144.7805  140.4688  143.5843 H   0  0  0  0  0  0  0  0  0  0  0  0  # atno 7974 bound_to 7965
  156.1680  140.3126  155.8923 H   0  0  0  0  0  0  0  0  0  0  0  0  # atno 8008 bound_to 7997
  155.3646  140.0478  157.3063 H   0  0  0  0  0  0  0  0  0  0  0  0  # atno 8009 bound_to 7997
  154.5212  140.2199  155.8983 H   0  0  0  0  0  0  0  0  0  0  0  0  # atno 8010 bound_to 7997
  139.8721  143.6944  152.2638 H   0  0  0  0  0  0  0  0  0  0  0  0  # atno 10167 bound_to 10162
  157.4912  130.8377  149.8205 H   0  0  0  0  0  0  0  0  0  0  0  0  # atno 10718 bound_to 10713
  153.7710  135.6912  153.4906 H   0  0  0  0  0  0  0  0  0  0  0  0  # atno 10763 bound_to 10752
  153.1875  135.4483  155.0105 H   0  0  0  0  0  0  0  0  0  0  0  0  # atno 10764 bound_to 10752
  154.8118  135.3381  154.7219 H   0  0  0  0  0  0  0  0  0  0  0  0  # atno 10765 bound_to 10752
  140.9555  134.1007  157.4020 H   0  0  0  0  0  0  0  0  0  0  0  0  # atno 11005 bound_to 11000
  145.6064  139.1509  143.3100 LP  0  0  0  0  0  0  0  0  0  0  0  0  # atno 17320 bound_to 7965
  146.2010  140.6183  142.9102 LP  0  0  0  0  0  0  0  0  0  0  0  0  # atno 17321 bound_to 7965
  139.7274  144.7590  151.0856 LP  0  0  0  0  0  0  0  0  0  0  0  0  # atno 17342 bound_to 10162
  140.7759  143.5131  150.9628 LP  0  0  0  0  0  0  0  0  0  0  0  0  # atno 17343 bound_to 10162
  156.0175  130.3808  150.2066 LP  0  0  0  0  0  0  0  0  0  0  0  0  # atno 17370 bound_to 10713
  157.0254  130.9992  151.3327 LP  0  0  0  0  0  0  0  0  0  0  0  0  # atno 17371 bound_to 10713
  139.8861  135.0078  156.6476 LP  0  0  0  0  0  0  0  0  0  0  0  0  # atno 17394 bound_to 11000
  140.7542  133.8872  155.8369 LP  0  0  0  0  0  0  0  0  0  0  0  0  # atno 17395 bound_to 11000

$$$$
