AV-unprocessed.smi:1394|AV-procd|sdf|5668|dock6
  -GOLD-   22720 5293D 1   1.00000     0.00000
 Structure written by MMmdl.
 41 42  0  0  0  0  0  0  0  0  1 V2000
  147.1370  141.5696  153.8474 C   0  0  0  0  0  0  0  0  0  0  0  0
  146.6276  142.3869  155.0483 C   0  0  1  0  0  0  0  0  0  0  0  0
  145.0858  142.3801  155.0908 C   0  0  0  0  0  0  0  0  0  0  0  0
  144.5413  143.1955  156.2734 C   0  0  0  0  0  0  0  0  0  0  0  0
  145.1150  142.6869  157.6027 C   0  0  0  0  0  0  0  0  0  0  0  0
  146.6499  142.7051  157.5809 C   0  0  0  0  0  0  0  0  0  0  0  0
  147.2133  141.8925  156.3952 C   0  0  2  0  0  0  0  0  0  0  0  0
  148.6718  141.9839  156.3809 N   0  0  0  0  0  0  0  0  0  0  0  0
  149.5179  140.9442  156.4350 C   0  0  0  0  0  0  0  0  0  0  0  0
  149.1456  139.7714  156.4891 O   0  0  0  0  0  0  0  0  0  0  0  0
  151.0130  141.2904  156.4038 C   0  0  0  0  0  0  0  0  0  0  0  0
  151.4969  141.8725  157.6674 N   0  0  0  0  0  0  0  0  0  0  0  0
  150.9954  143.1380  158.0208 C   0  0  0  0  0  0  0  0  0  0  0  0
  151.3724  143.7564  159.1479 C   0  0  0  0  0  0  0  0  0  0  0  0
  152.3174  143.0887  160.0095 C   0  0  0  0  0  0  0  0  0  0  0  0
  152.8189  141.8717  159.6951 C   0  0  0  0  0  0  0  0  0  0  0  0
  153.8166  141.1485  160.5970 C   0  0  0  0  0  0  0  0  0  0  0  0
  155.0226  141.1143  160.0289 F   0  0  0  0  0  0  0  0  0  0  0  0
  153.9405  141.7501  161.7810 F   0  0  0  0  0  0  0  0  0  0  0  0
  153.4243  139.8930  160.8177 F   0  0  0  0  0  0  0  0  0  0  0  0
  152.3996  141.2006  158.4475 C   0  0  0  0  0  0  0  0  0  0  0  0
  152.8319  140.0951  158.1161 O   0  0  0  0  0  0  0  0  0  0  0  0
  146.8719  140.5167  153.9460 H   0  0  0  0  0  0  0  0  0  0  0  0
  148.2206  141.6318  153.7463 H   0  0  0  0  0  0  0  0  0  0  0  0
  146.7053  141.9340  152.9150 H   0  0  0  0  0  0  0  0  0  0  0  0
  146.9474  143.4195  154.8996 H   0  0  0  0  0  0  0  0  0  0  0  0
  144.6848  142.7814  154.1594 H   0  0  0  0  0  0  0  0  0  0  0  0
  144.7247  141.3533  155.1633 H   0  0  0  0  0  0  0  0  0  0  0  0
  144.7964  144.2479  156.1423 H   0  0  0  0  0  0  0  0  0  0  0  0
  143.4526  143.1401  156.2931 H   0  0  0  0  0  0  0  0  0  0  0  0
  144.7471  143.2997  158.4261 H   0  0  0  0  0  0  0  0  0  0  0  0
  144.7629  141.6717  157.7907 H   0  0  0  0  0  0  0  0  0  0  0  0
  146.9970  143.7376  157.5187 H   0  0  0  0  0  0  0  0  0  0  0  0
  147.0290  142.3100  158.5242 H   0  0  0  0  0  0  0  0  0  0  0  0
  146.9271  140.8464  156.5232 H   0  0  0  0  0  0  0  0  0  0  0  0
  149.0668  142.9119  156.3327 H   0  0  0  0  0  0  0  0  0  0  0  0
  151.5644  140.3811  156.1613 H   0  0  0  0  0  0  0  0  0  0  0  0
  151.2155  141.9745  155.5773 H   0  0  0  0  0  0  0  0  0  0  0  0
  150.2972  143.5712  157.3195 H   0  0  0  0  0  0  0  0  0  0  0  0
  150.9805  144.7299  159.4035 H   0  0  0  0  0  0  0  0  0  0  0  0
  152.6195  143.5840  160.9200 H   0  0  0  0  0  0  0  0  0  0  0  0
  1  2  1  0  0  0  0
  1 23  1  0  0  0  0
  1 24  1  0  0  0  0
  1 25  1  0  0  0  0
  2  7  1  0  0  0  0
  2  3  1  0  0  0  0
  2 26  1  0  0  0  0
  3  4  1  0  0  0  0
  3 27  1  0  0  0  0
  3 28  1  0  0  0  0
  4  5  1  0  0  0  0
  4 29  1  0  0  0  0
  4 30  1  0  0  0  0
  5  6  1  0  0  0  0
  5 31  1  0  0  0  0
  5 32  1  0  0  0  0
  6  7  1  0  0  0  0
  6 33  1  0  0  0  0
  6 34  1  0  0  0  0
  7  8  1  0  0  0  0
  7 35  1  0  0  0  0
  8  9  1  0  0  0  0
  8 36  1  0  0  0  0
  9 10  2  0  0  0  0
  9 11  1  0  0  0  0
 11 12  1  0  0  0  0
 11 37  1  0  0  0  0
 11 38  1  0  0  0  0
 12 21  1  0  0  0  0
 12 13  1  0  0  0  0
 13 14  2  0  0  0  0
 13 39  1  0  0  0  0
 14 15  1  0  0  0  0
 14 40  1  0  0  0  0
 15 16  2  0  0  0  0
 15 41  1  0  0  0  0
 16 17  1  0  0  0  0
 16 21  1  0  0  0  0
 17 18  1  0  0  0  0
 17 19  1  0  0  0  0
 17 20  1  0  0  0  0
 21 22  2  0  0  0  0
M  END
> <s_m_source_file>
AV-unprocessed.smi

> <i_m_source_file_index>
1394

> <i_lp_mmshare_version>
43012

> <i_f3d_flags>
0

> <s_epik_input>
W0NIM11bQ0BASF0xW0NIMl1bQ0gyXVtDSDJdW0NIMl1bQ0BIXTFbTkhdQyg9TylbQ0gyXW4yW2NIXVtjSF1bY0hdYyhDKEYpKEYpRiljMj1P

> <s_epik_cmdline>
J2VwaWtfcHl0aG9uJywgJy1waCcsICc3LjAnLCAnLXRuJywgJzgnLCAnLW1hJywgJzIwMCcsICctbWV0YWxfYmluZGluZycsICctaW1hZScsICc8aW5maWxlLm1hZT4nLCAnLW9tYWUnLCAnPG91dGZpbGUubWFlPic=

> <r_lp_tautomer_probability>
1

> <r_epik_Ionization_Penalty>
2.11487e-08

> <r_epik_Ionization_Penalty_Charging>
2.10183e-09

> <r_epik_Ionization_Penalty_Neutral>
1.90469e-08

> <r_epik_State_Penalty>
-0

> <r_epik_Charging_Adjusted_Penalty>
2.10183e-09

> <i_epik_Tot_Q>
0

> <i_epik_Tot_abs_Q>
0

> <r_epik_Metal_State_Penalty>
-0

> <b_epik_Metal_Only>
0

> <s_lp_Force_Field>
OPLS_2005

> <r_lp_Energy>
20.4612

> <b_lp_Chiralities_Consistent>
1

> <s_lp_Variant>
AV-unprocessed.smi:1394-4

> <Gold.Version>
5.8.1

> <Gold.Id.Protein>
6NUR|6NUR_protein|mol2

> <Gold.PLP.Fitness>
50.7901

> <Gold.PLP.PLP>
-42.6021

> <Gold.PLP.part.hbond>
-2.0000

> <Gold.PLP.part.metal>
0.0000

> <Gold.PLP.part.buried>
-4.3643

> <Gold.PLP.part.nonpolar>
-35.6946

> <Gold.PLP.part.repulsive>
0.0347

> <Gold.PLP.ligand.clash>
0.0000

> <Gold.PLP.ligand.torsion>
0.4934

> <Gold.PLP.Chemscore.Hbond>
1.9600

> <Gold.PLP.Chemscore.CHOScore>
1.0000

> <Gold.PLP.Chemscore.Metal>
0.0000

> <Gold.Chemscore.Hbonds>
donor molecule, donor type, donor heavy atom, donor atom, acceptor molecule, acceptor atom, score
      L1  H     8    36       P1  8028  0.93
      P1  H  7997  8008       L1    22  0.93
      L1  C    13    39       P1  8028  1.00

> <Gold.PLP.Chemscore.Internal.Correction>
0.2948

> <Gold.Rescore>
     Score         DG    S(hbond)    S(metal)    S(lipo)     H(rot)  DE(clash)    DE(int)     intcor
     14.85     -17.06       1.87        0.00      78.84       1.52       0.07       2.15       ----

> <Gold.Chemscore.Fitness>
14.8459

> <Gold.Chemscore.DG>
-17.0626

> <Gold.Chemscore.ZeroCoef>
-5.4800

> <Gold.Chemscore.Hbond>
1.8742

> <Gold.Chemscore.Metal>
0.0000

> <Gold.Chemscore.Lipo>
78.8424

> <Gold.Chemscore.Internal_Hbond>
0.0000

> <Gold.Chemscore.DEClash>
0.0712

> <Gold.Chemscore.DEInternal>
2.1456

> <Gold.Chemscore.Rot>
1.5242

> <Gold.Chemscore.Internal.Correction>
   9.000000E+99

> <Gold.Chemscore.Hbonds>
donor molecule, donor type, donor heavy atom, donor atom, acceptor molecule, acceptor atom, score
      L1  H     8    36       P1  8028  0.90
      P1  H  7997  8008       L1    22  0.80

> <Gold.Chemscore.Hbond.Weighted>
-6.2600

> <Gold.Chemscore.Metal.Weighted>
-0.0000

> <Gold.Chemscore.Lipo.Weighted>
-9.2246

> <Gold.Chemscore.Internal_Hbond.Weighted>
0.0000

> <Gold.Chemscore.DEClash.Weighted>
0.0712

> <Gold.Chemscore.DEInternal.Weighted>
2.1456

> <Gold.Chemscore.Rot.Weighted>
3.9019

> <Gold.Chemscore.Internal.Correction.Weighted>
   9.000000E+99

> <Gold.Protein.RotatedTorsions>
[ 6907 6896 6895 6894 ] final  -51.48 input  -60.11 | X-H torsion
[ 7974 7965 7964 7962 ] final  -32.56 input  175.53 | X-H torsion
[ 8008 7997 7996 7995 ] final  -74.45 input   59.86 | X-H torsion
[ 10167 10162 10161 10158 ] final -128.52 input  -65.29 | X-H torsion
[ 10718 10713 10712 10709 ] final  156.18 input   66.30 | X-H torsion
[ 10763 10752 10751 10750 ] final   94.70 input  -60.55 | X-H torsion
[ 11005 11000 10999 10996 ] final -170.79 input  -57.11 | X-H torsion

> <Gold.Protein.ActiveResidues>
 VAL166  LYS551  ARG553  GLY616  TRP617  ASP618  TYR619  PRO620  LYS621  CYS622 
 ASP623  PHE694  ASN695  SER759  ASP760  ASP761  ALA762  ILE779  LEU786  VAL792 
 PHE793  MET794  SER795  GLU796  ALA797  LYS798  CYS799  TRP800  GLU811  SER814 

> <Gold.Protein.RotatedAtoms>
  150.8607  134.7958  159.7080 H   0  0  0  0  0  0  0  0  0  0  0  0  # atno 6907 bound_to 6896
  152.4645  134.5104  159.9762 H   0  0  0  0  0  0  0  0  0  0  0  0  # atno 6908 bound_to 6896
  151.5208  133.3428  159.2937 H   0  0  0  0  0  0  0  0  0  0  0  0  # atno 6909 bound_to 6896
  146.0980  140.5807  142.8834 H   0  0  0  0  0  0  0  0  0  0  0  0  # atno 7974 bound_to 7965
  154.5331  140.0761  156.8381 H   0  0  0  0  0  0  0  0  0  0  0  0  # atno 8008 bound_to 7997
  155.3333  140.3403  155.4221 H   0  0  0  0  0  0  0  0  0  0  0  0  # atno 8009 bound_to 7997
  156.1801  140.1649  156.8276 H   0  0  0  0  0  0  0  0  0  0  0  0  # atno 8010 bound_to 7997
  139.9495  143.6072  152.2480 H   0  0  0  0  0  0  0  0  0  0  0  0  # atno 10167 bound_to 10162
  157.2084  131.0692  151.1984 H   0  0  0  0  0  0  0  0  0  0  0  0  # atno 10718 bound_to 10713
  153.2446  135.4280  155.0734 H   0  0  0  0  0  0  0  0  0  0  0  0  # atno 10763 bound_to 10752
  154.8356  135.3411  154.6599 H   0  0  0  0  0  0  0  0  0  0  0  0  # atno 10764 bound_to 10752
  153.7022  135.7027  153.5116 H   0  0  0  0  0  0  0  0  0  0  0  0  # atno 10765 bound_to 10752
  140.5155  134.5760  157.5032 H   0  0  0  0  0  0  0  0  0  0  0  0  # atno 11005 bound_to 11000
  144.7411  140.4943  143.6869 LP  0  0  0  0  0  0  0  0  0  0  0  0  # atno 17320 bound_to 7965
  145.5909  139.1495  143.3182 LP  0  0  0  0  0  0  0  0  0  0  0  0  # atno 17321 bound_to 7965
  139.6640  144.7662  151.1908 LP  0  0  0  0  0  0  0  0  0  0  0  0  # atno 17342 bound_to 10162
  140.7587  143.5966  150.8742 LP  0  0  0  0  0  0  0  0  0  0  0  0  # atno 17343 bound_to 10162
  157.3697  130.7174  149.6556 LP  0  0  0  0  0  0  0  0  0  0  0  0  # atno 17370 bound_to 10713
  155.9693  130.4202  150.4412 LP  0  0  0  0  0  0  0  0  0  0  0  0  # atno 17371 bound_to 10713
  139.9635  134.7412  156.0187 LP  0  0  0  0  0  0  0  0  0  0  0  0  # atno 17394 bound_to 11000
  141.1362  133.6574  156.3602 LP  0  0  0  0  0  0  0  0  0  0  0  0  # atno 17395 bound_to 11000

$$$$
