AV-unprocessed.smi:3298|AV-procd|sdf|12643|dock1
  -GOLD-   2272018573D 1   1.00000     0.00000
 Structure written by MMmdl.
 35 36  0  0  0  0  0  0  0  0  1 V2000
  153.9408  141.6414  160.8408 C   0  0  0  0  0  0  0  0  0  0  0  0
  152.9395  142.6527  160.3224 C   0  0  0  0  0  0  0  0  0  0  0  0
  152.2441  142.4295  159.1155 C   0  0  0  0  0  0  0  0  0  0  0  0
  151.3298  143.4051  158.6668 C   0  0  0  0  0  0  0  0  0  0  0  0
  150.6286  143.1471  157.4580 N   0  0  0  0  0  0  0  0  0  0  0  0
  150.4752  141.9806  156.8075 C   0  0  0  0  0  0  0  0  0  0  0  0
  150.8904  140.8874  157.1926 O   0  0  0  0  0  0  0  0  0  0  0  0
  149.7851  142.1479  155.6706 N   0  0  0  0  0  0  0  0  0  0  0  0
  149.4579  141.0840  154.7283 C   0  0  1  0  0  0  0  0  0  0  0  0
  149.0172  139.8490  155.4675 C   0  0  0  0  0  0  0  0  0  0  0  0
  147.7856  139.4642  155.1403 C   0  0  0  0  0  0  0  0  0  0  0  0
  147.1458  140.3718  154.1217 C   0  0  1  0  0  0  0  0  0  0  0  0
  145.8022  140.9590  154.5953 C   0  0  0  0  0  0  0  0  0  0  0  0
  144.8841  139.9448  154.9550 O   0  0  0  0  0  0  0  0  0  0  0  0
  148.2388  141.4328  153.8329 C   0  0  0  0  0  0  0  0  0  0  0  0
  151.1372  144.5567  159.4672 C   0  0  0  0  0  0  0  0  0  0  0  0
  151.8822  144.6827  160.6565 C   0  0  0  0  0  0  0  0  0  0  0  0
  152.7684  143.7571  161.0806 N   0  0  0  0  0  0  0  0  0  0  0  0
  150.3301  140.8358  154.1212 H   0  0  0  0  0  0  0  0  0  0  0  0
  146.9723  139.7816  153.2211 H   0  0  0  0  0  0  0  0  0  0  0  0
  153.8950  140.7125  160.2715 H   0  0  0  0  0  0  0  0  0  0  0  0
  153.7416  141.4072  161.8870 H   0  0  0  0  0  0  0  0  0  0  0  0
  154.9529  142.0395  160.7639 H   0  0  0  0  0  0  0  0  0  0  0  0
  152.4134  141.5293  158.5424 H   0  0  0  0  0  0  0  0  0  0  0  0
  150.1537  143.9424  157.0573 H   0  0  0  0  0  0  0  0  0  0  0  0
  149.4790  143.0789  155.4288 H   0  0  0  0  0  0  0  0  0  0  0  0
  149.6575  139.3435  156.1754 H   0  0  0  0  0  0  0  0  0  0  0  0
  147.2755  138.6021  155.5439 H   0  0  0  0  0  0  0  0  0  0  0  0
  145.9583  141.6129  155.4536 H   0  0  0  0  0  0  0  0  0  0  0  0
  145.3579  141.5682  153.8072 H   0  0  0  0  0  0  0  0  0  0  0  0
  144.2402  139.8651  154.2678 H   0  0  0  0  0  0  0  0  0  0  0  0
  147.8732  142.4439  154.0200 H   0  0  0  0  0  0  0  0  0  0  0  0
  148.5258  141.4011  152.7810 H   0  0  0  0  0  0  0  0  0  0  0  0
  150.4331  145.3307  159.2044 H   0  0  0  0  0  0  0  0  0  0  0  0
  151.7573  145.5494  161.2884 H   0  0  0  0  0  0  0  0  0  0  0  0
  1  2  1  0  0  0  0
  1 21  1  0  0  0  0
  1 22  1  0  0  0  0
  1 23  1  0  0  0  0
  2 18  1  0  0  0  0
  2  3  2  0  0  0  0
  3  4  1  0  0  0  0
  3 24  1  0  0  0  0
  4  5  1  0  0  0  0
  4 16  2  0  0  0  0
  5  6  1  0  0  0  0
  5 25  1  0  0  0  0
  6  7  2  0  0  0  0
  6  8  1  0  0  0  0
  8  9  1  0  0  0  0
  8 26  1  0  0  0  0
  9 19  1  0  0  0  0
  9 15  1  0  0  0  0
  9 10  1  0  0  0  0
 10 11  2  0  0  0  0
 10 27  1  0  0  0  0
 11 12  1  0  0  0  0
 11 28  1  0  0  0  0
 12 20  1  0  0  0  0
 12 13  1  0  0  0  0
 12 15  1  0  0  0  0
 13 14  1  0  0  0  0
 13 29  1  0  0  0  0
 13 30  1  0  0  0  0
 14 31  1  0  0  0  0
 15 32  1  0  0  0  0
 15 33  1  0  0  0  0
 16 17  1  0  0  0  0
 16 34  1  0  0  0  0
 17 18  2  0  0  0  0
 17 35  1  0  0  0  0
M  END
> <s_m_source_file>
AV-unprocessed.smi

> <i_m_source_file_index>
3298

> <i_lp_mmshare_version>
43012

> <i_f3d_flags>
0

> <s_epik_input>
W0NIM11jMVtjSF1jKFtjSF1bY0hdbjEpW05IXUMoPU8pW05IXVtDQEBIXTJbQ0hdPVtDSF1bQ0BASF0oW0NIMl0yKVtDSDJdW09IXQ==

> <s_epik_cmdline>
J2VwaWtfcHl0aG9uJywgJy1waCcsICc3LjAnLCAnLXRuJywgJzgnLCAnLW1hJywgJzIwMCcsICctbWV0YWxfYmluZGluZycsICctaW1hZScsICc8aW5maWxlLm1hZT4nLCAnLW9tYWUnLCAnPG91dGZpbGUubWFlPic=

> <r_epik_Ionization_Penalty>
0.379275

> <r_epik_Ionization_Penalty_Charging>
0

> <r_epik_Ionization_Penalty_Neutral>
0.379275

> <r_epik_State_Penalty>
0.377195

> <r_epik_Charging_Adjusted_Penalty>
0.377195

> <i_epik_Tot_Q>
0

> <i_epik_Tot_abs_Q>
0

> <r_epik_Metal_State_Penalty>
0.22815

> <b_epik_Metal_Only>
0

> <s_lp_Force_Field>
OPLS_2005

> <r_lp_Energy>
21.2721

> <b_lp_Chiralities_Consistent>
1

> <s_lp_Variant>
AV-unprocessed.smi:3298-4

> <Gold.Version>
5.8.1

> <Gold.Id.Protein>
6NUR|6NUR_protein|mol2

> <Gold.PLP.Fitness>
42.3595

> <Gold.PLP.PLP>
-34.0791

> <Gold.PLP.part.hbond>
-3.0000

> <Gold.PLP.part.metal>
0.0000

> <Gold.PLP.part.buried>
-0.6885

> <Gold.PLP.part.nonpolar>
-30.0135

> <Gold.PLP.part.repulsive>
0.2666

> <Gold.PLP.ligand.clash>
0.0000

> <Gold.PLP.ligand.torsion>
0.3537

> <Gold.PLP.Chemscore.Hbond>
2.9913

> <Gold.PLP.Chemscore.CHOScore>
0.0000

> <Gold.PLP.Chemscore.Metal>
0.0000

> <Gold.Chemscore.Hbonds>
donor molecule, donor type, donor heavy atom, donor atom, acceptor molecule, acceptor atom, score
      L1  H     5    25       P1  8028  1.00
      L1  H     8    26       P1  8028  1.00
      L1  H    14    31       P1 10175  0.93

> <Gold.PLP.Chemscore.Internal.Correction>
0.0140

> <Gold.Rescore>
     Score         DG    S(hbond)    S(metal)    S(lipo)     H(rot)  DE(clash)    DE(int)     intcor
     18.11     -21.59       2.83        0.00      95.75       1.78       0.28       3.20       ----

> <Gold.Chemscore.Fitness>
18.1058

> <Gold.Chemscore.DG>
-21.5855

> <Gold.Chemscore.ZeroCoef>
-5.4800

> <Gold.Chemscore.Hbond>
2.8320

> <Gold.Chemscore.Metal>
0.0000

> <Gold.Chemscore.Lipo>
95.7473

> <Gold.Chemscore.Internal_Hbond>
0.0000

> <Gold.Chemscore.DEClash>
0.2806

> <Gold.Chemscore.DEInternal>
3.1991

> <Gold.Chemscore.Rot>
1.7796

> <Gold.Chemscore.Internal.Correction>
   9.000000E+99

> <Gold.Chemscore.Hbonds>
donor molecule, donor type, donor heavy atom, donor atom, acceptor molecule, acceptor atom, score
      L1  H     5    25       P1  8028  0.86
      L1  H     8    26       P1  8028  0.99
      L1  H    14    31       P1 10175  0.90

> <Gold.Chemscore.Hbond.Weighted>
-9.4590

> <Gold.Chemscore.Metal.Weighted>
-0.0000

> <Gold.Chemscore.Lipo.Weighted>
-11.2024

> <Gold.Chemscore.Internal_Hbond.Weighted>
0.0000

> <Gold.Chemscore.DEClash.Weighted>
0.2806

> <Gold.Chemscore.DEInternal.Weighted>
3.1991

> <Gold.Chemscore.Rot.Weighted>
4.5558

> <Gold.Chemscore.Internal.Correction.Weighted>
   9.000000E+99

> <Gold.Protein.RotatedTorsions>
[ 6907 6896 6895 6894 ] final  128.94 input  -60.11 | X-H torsion
[ 7974 7965 7964 7962 ] final   69.98 input  175.53 | X-H torsion
[ 8008 7997 7996 7995 ] final  -52.46 input   59.86 | X-H torsion
[ 10167 10162 10161 10158 ] final -102.63 input  -65.29 | X-H torsion
[ 10718 10713 10712 10709 ] final  168.91 input   66.30 | X-H torsion
[ 10763 10752 10751 10750 ] final  159.00 input  -60.55 | X-H torsion
[ 11005 11000 10999 10996 ] final   84.46 input  -57.11 | X-H torsion

> <Gold.Protein.ActiveResidues>
 VAL166  LYS551  ARG553  GLY616  TRP617  ASP618  TYR619  PRO620  LYS621  CYS622 
 ASP623  PHE694  ASN695  SER759  ASP760  ASP761  ALA762  ILE779  LEU786  VAL792 
 PHE793  MET794  SER795  GLU796  ALA797  LYS798  CYS799  TRP800  GLU811  SER814 

> <Gold.Protein.RotatedAtoms>
  152.3672  133.6372  159.6059 H   0  0  0  0  0  0  0  0  0  0  0  0  # atno 6907 bound_to 6896
  150.7642  133.9329  159.3441 H   0  0  0  0  0  0  0  0  0  0  0  0  # atno 6908 bound_to 6896
  151.7157  135.0905  160.0326 H   0  0  0  0  0  0  0  0  0  0  0  0  # atno 6909 bound_to 6896
  145.7838  139.2900  143.1250 H   0  0  0  0  0  0  0  0  0  0  0  0  # atno 7974 bound_to 7965
  154.4107  140.1223  156.4994 H   0  0  0  0  0  0  0  0  0  0  0  0  # atno 8008 bound_to 7997
  155.6910  140.3495  155.4874 H   0  0  0  0  0  0  0  0  0  0  0  0  # atno 8009 bound_to 7997
  155.9469  140.1097  157.0999 H   0  0  0  0  0  0  0  0  0  0  0  0  # atno 8010 bound_to 7997
  140.2286  143.3623  152.0907 H   0  0  0  0  0  0  0  0  0  0  0  0  # atno 10167 bound_to 10162
  157.0303  131.0257  151.2747 H   0  0  0  0  0  0  0  0  0  0  0  0  # atno 10718 bound_to 10713
  154.2248  135.2780  155.2911 H   0  0  0  0  0  0  0  0  0  0  0  0  # atno 10763 bound_to 10752
  154.5672  135.5629  153.7065 H   0  0  0  0  0  0  0  0  0  0  0  0  # atno 10764 bound_to 10752
  153.0033  135.6312  154.2389 H   0  0  0  0  0  0  0  0  0  0  0  0  # atno 10765 bound_to 10752
  139.8999  134.8218  156.2449 H   0  0  0  0  0  0  0  0  0  0  0  0  # atno 11005 bound_to 11000
  146.0047  140.8489  143.0001 LP  0  0  0  0  0  0  0  0  0  0  0  0  # atno 17320 bound_to 7965
  144.6792  140.2403  143.7344 LP  0  0  0  0  0  0  0  0  0  0  0  0  # atno 17321 bound_to 7965
  139.5118  144.6907  151.5768 LP  0  0  0  0  0  0  0  0  0  0  0  0  # atno 17342 bound_to 10162
  140.6202  143.9272  150.6520 LP  0  0  0  0  0  0  0  0  0  0  0  0  # atno 17343 bound_to 10162
  157.5183  130.7981  149.7780 LP  0  0  0  0  0  0  0  0  0  0  0  0  # atno 17370 bound_to 10713
  156.0072  130.3850  150.2390 LP  0  0  0  0  0  0  0  0  0  0  0  0  # atno 17371 bound_to 10713
  141.0261  133.7014  156.1350 LP  0  0  0  0  0  0  0  0  0  0  0  0  # atno 17394 bound_to 11000
  140.7164  134.4406  157.5578 LP  0  0  0  0  0  0  0  0  0  0  0  0  # atno 17395 bound_to 11000

$$$$
