AV-unprocessed.smi:2837|AV-procd|sdf|10924|dock10
  -GOLD-   2272015373D 1   1.00000     0.00000
 Structure written by MMmdl.
 33 35  0  0  0  0  0  0  0  0  2 V2000
  155.2041  140.6942  160.2801 F   0  0  0  0  0  0  0  0  0  0  0  0
  154.0859  140.9425  161.0032 C   0  0  0  0  0  0  0  0  0  0  0  0
  154.4314  140.9079  162.3137 F   0  0  0  0  0  0  0  0  0  0  0  0
  153.5897  142.1651  160.6750 O   0  0  0  0  0  0  0  0  0  0  0  0
  152.6893  142.2748  159.6393 C   0  0  0  0  0  0  0  0  0  0  0  0
  152.4805  143.5473  159.0678 C   0  0  0  0  0  0  0  0  0  0  0  0
  151.5543  143.7035  158.0161 C   0  0  0  0  0  0  0  0  0  0  0  0
  150.8364  142.5769  157.5496 C   0  0  0  0  0  0  0  0  0  0  0  0
  149.8908  142.6101  156.5154 N   0  0  0  0  0  0  0  0  0  0  0  0
  149.1897  141.4056  156.0887 C   0  0  2  0  0  0  0  0  0  0  0  0
  150.1189  140.3527  155.4691 C   0  0  0  0  0  0  0  0  0  0  0  0
  149.4793  140.1349  154.0923 C   0  0  1  0  0  0  0  0  0  0  0  0
  148.1210  139.4267  154.1867 C   0  0  0  0  0  0  0  0  0  0  0  0
  147.2283  140.5360  154.7419 C   0  0  0  0  0  0  0  0  0  0  0  0
  148.2280  141.6865  154.9214 C   0  0  2  0  0  0  0  0  0  0  0  0
  149.0675  141.4582  153.8010 O   0  0  0  0  0  0  0  0  0  0  0  0
  151.0582  141.3764  158.1283 N   0  3  0  0  0  0  0  0  0  0  0  0
  151.9364  141.1858  159.1370 C   0  0  0  0  0  0  0  0  0  0  0  0
  153.3701  140.1473  160.7930 H   0  0  0  0  0  0  0  0  0  0  0  0
  153.0305  144.4017  159.4340 H   0  0  0  0  0  0  0  0  0  0  0  0
  151.4085  144.6833  157.5870 H   0  0  0  0  0  0  0  0  0  0  0  0
  149.7745  143.4516  155.9689 H   0  0  0  0  0  0  0  0  0  0  0  0
  148.6298  141.0022  156.9333 H   0  0  0  0  0  0  0  0  0  0  0  0
  151.1363  140.7298  155.3526 H   0  0  0  0  0  0  0  0  0  0  0  0
  150.1646  139.4342  156.0553 H   0  0  0  0  0  0  0  0  0  0  0  0
  150.1550  139.7022  153.3539 H   0  0  0  0  0  0  0  0  0  0  0  0
  147.7742  139.1152  153.2007 H   0  0  0  0  0  0  0  0  0  0  0  0
  148.1564  138.5473  154.8307 H   0  0  0  0  0  0  0  0  0  0  0  0
  146.4586  140.8037  154.0170 H   0  0  0  0  0  0  0  0  0  0  0  0
  146.7360  140.2588  155.6746 H   0  0  0  0  0  0  0  0  0  0  0  0
  147.7591  142.6709  154.9457 H   0  0  0  0  0  0  0  0  0  0  0  0
  151.9982  140.1729  159.5076 H   0  0  0  0  0  0  0  0  0  0  0  0
  150.5326  140.5700  157.7896 H   0  0  0  0  0  0  0  0  0  0  0  0
  1  2  1  0  0  0  0
  2  3  1  0  0  0  0
  2  4  1  0  0  0  0
  2 19  1  0  0  0  0
  4  5  1  0  0  0  0
  5 18  1  0  0  0  0
  5  6  2  0  0  0  0
  6  7  1  0  0  0  0
  6 20  1  0  0  0  0
  7  8  2  0  0  0  0
  7 21  1  0  0  0  0
  8  9  1  0  0  0  0
  8 17  1  0  0  0  0
  9 10  1  0  0  0  0
  9 22  1  0  0  0  0
 10 15  1  0  0  0  0
 10 11  1  0  0  0  0
 10 23  1  0  0  0  0
 11 12  1  0  0  0  0
 11 24  1  0  0  0  0
 11 25  1  0  0  0  0
 12 16  1  0  0  0  0
 12 13  1  0  0  0  0
 12 26  1  0  0  0  0
 13 14  1  0  0  0  0
 13 27  1  0  0  0  0
 13 28  1  0  0  0  0
 14 15  1  0  0  0  0
 14 29  1  0  0  0  0
 14 30  1  0  0  0  0
 15 16  1  0  0  0  0
 15 31  1  0  0  0  0
 17 18  2  0  0  0  0
 17 33  1  0  0  0  0
 18 32  1  0  0  0  0
M  CHG  1  17   1
M  END
> <s_m_source_file>
AV-unprocessed.smi

> <i_m_source_file_index>
2837

> <i_lp_mmshare_version>
43012

> <i_f3d_flags>
0

> <s_epik_input>
RltDSF0oRilPYzFbY0hdW2NIXWMobltjSF0xKVtOSF1bQ0BIXShbQ0gyXVtDQEBIXTIzKVtDQEBIXShPMylbQ0gyXVtDSDJdMg==

> <s_epik_cmdline>
J2VwaWtfcHl0aG9uJywgJy1waCcsICc3LjAnLCAnLXRuJywgJzgnLCAnLW1hJywgJzIwMCcsICctbWV0YWxfYmluZGluZycsICctaW1hZScsICc8aW5maWxlLm1hZT4nLCAnLW9tYWUnLCAnPG91dGZpbGUubWFlPic=

> <r_lp_tautomer_probability>
0.999429

> <r_epik_Ionization_Penalty>
2.29716

> <r_epik_Ionization_Penalty_Charging>
2.29716

> <r_epik_Ionization_Penalty_Neutral>
1.42285e-06

> <r_epik_State_Penalty>
2.44762

> <r_epik_Charging_Adjusted_Penalty>
4.74478

> <i_epik_Tot_Q>
1

> <i_epik_Tot_abs_Q>
1

> <r_epik_Metal_State_Penalty>
6.53078

> <b_epik_Metal_Only>
0

> <s_lp_Force_Field>
OPLS_2005

> <r_lp_Energy>
46.2914

> <b_lp_Chiralities_Consistent>
1

> <s_lp_Variant>
AV-unprocessed.smi:2837-5

> <Gold.Version>
5.8.1

> <Gold.Id.Protein>
6NUR|6NUR_protein|mol2

> <Gold.PLP.Fitness>
43.2833

> <Gold.PLP.PLP>
-36.2305

> <Gold.PLP.part.hbond>
-2.5234

> <Gold.PLP.part.metal>
0.0000

> <Gold.PLP.part.buried>
-0.5385

> <Gold.PLP.part.nonpolar>
-33.7706

> <Gold.PLP.part.repulsive>
0.8015

> <Gold.PLP.ligand.clash>
0.0000

> <Gold.PLP.ligand.torsion>
0.6129

> <Gold.PLP.Chemscore.Hbond>
2.7520

> <Gold.PLP.Chemscore.CHOScore>
0.0000

> <Gold.PLP.Chemscore.Metal>
0.0000

> <Gold.Chemscore.Hbonds>
donor molecule, donor type, donor heavy atom, donor atom, acceptor molecule, acceptor atom, score
      L1  H     9    22       P1  8028  1.92
      P1  H  8011  8017       L1    16  0.77

> <Gold.PLP.Chemscore.Internal.Correction>
0.0226

> <Gold.Rescore>
     Score         DG    S(hbond)    S(metal)    S(lipo)     H(rot)  DE(clash)    DE(int)     intcor
     15.99     -18.04       1.73        0.00      87.15       1.34       0.49       1.56       ----

> <Gold.Chemscore.Fitness>
15.9882

> <Gold.Chemscore.DG>
-18.0393

> <Gold.Chemscore.ZeroCoef>
-5.4800

> <Gold.Chemscore.Hbond>
1.7319

> <Gold.Chemscore.Metal>
0.0000

> <Gold.Chemscore.Lipo>
87.1544

> <Gold.Chemscore.Internal_Hbond>
0.0000

> <Gold.Chemscore.DEClash>
0.4889

> <Gold.Chemscore.DEInternal>
1.5622

> <Gold.Chemscore.Rot>
1.3368

> <Gold.Chemscore.Internal.Correction>
   9.000000E+99

> <Gold.Chemscore.Hbonds>
donor molecule, donor type, donor heavy atom, donor atom, acceptor molecule, acceptor atom, score
      L1  H     9    22       P1  8028  0.90
      P1  H  8011  8017       L1    16  0.75

> <Gold.Chemscore.Hbond.Weighted>
-5.7846

> <Gold.Chemscore.Metal.Weighted>
-0.0000

> <Gold.Chemscore.Lipo.Weighted>
-10.1971

> <Gold.Chemscore.Internal_Hbond.Weighted>
0.0000

> <Gold.Chemscore.DEClash.Weighted>
0.4889

> <Gold.Chemscore.DEInternal.Weighted>
1.5622

> <Gold.Chemscore.Rot.Weighted>
3.4223

> <Gold.Chemscore.Internal.Correction.Weighted>
   9.000000E+99

> <Gold.Protein.RotatedTorsions>
[ 6907 6896 6895 6894 ] final  -58.74 input  -60.11 | X-H torsion
[ 7974 7965 7964 7962 ] final   68.79 input  175.53 | X-H torsion
[ 8008 7997 7996 7995 ] final -164.71 input   59.86 | X-H torsion
[ 10167 10162 10161 10158 ] final -138.95 input  -65.29 | X-H torsion
[ 10718 10713 10712 10709 ] final  145.42 input   66.30 | X-H torsion
[ 10763 10752 10751 10750 ] final   92.82 input  -60.55 | X-H torsion
[ 11005 11000 10999 10996 ] final  144.46 input  -57.11 | X-H torsion

> <Gold.Protein.ActiveResidues>
 VAL166  LYS551  ARG553  GLY616  TRP617  ASP618  TYR619  PRO620  LYS621  CYS622 
 ASP623  PHE694  ASN695  SER759  ASP760  ASP761  ALA762  ILE779  LEU786  VAL792 
 PHE793  MET794  SER795  GLU796  ALA797  LYS798  CYS799  TRP800  GLU811  SER814 

> <Gold.Protein.RotatedAtoms>
  150.7984  134.7060  159.6576 H   0  0  0  0  0  0  0  0  0  0  0  0  # atno 6907 bound_to 6896
  152.4098  134.6140  160.0043 H   0  0  0  0  0  0  0  0  0  0  0  0  # atno 6908 bound_to 6896
  151.6386  133.3290  159.3161 H   0  0  0  0  0  0  0  0  0  0  0  0  # atno 6909 bound_to 6896
  145.7982  139.2969  143.1170 H   0  0  0  0  0  0  0  0  0  0  0  0  # atno 7974 bound_to 7965
  155.8395  140.0946  157.1743 H   0  0  0  0  0  0  0  0  0  0  0  0  # atno 8008 bound_to 7997
  154.3981  140.1404  156.3772 H   0  0  0  0  0  0  0  0  0  0  0  0  # atno 8009 bound_to 7997
  155.8080  140.3450  155.5443 H   0  0  0  0  0  0  0  0  0  0  0  0  # atno 8010 bound_to 7997
  139.8427  143.7301  152.2662 H   0  0  0  0  0  0  0  0  0  0  0  0  # atno 10167 bound_to 10162
  157.3454  131.0942  151.1046 H   0  0  0  0  0  0  0  0  0  0  0  0  # atno 10718 bound_to 10713
  153.2234  135.4347  155.0515 H   0  0  0  0  0  0  0  0  0  0  0  0  # atno 10763 bound_to 10752
  154.8261  135.3362  154.6893 H   0  0  0  0  0  0  0  0  0  0  0  0  # atno 10764 bound_to 10752
  153.7324  135.7010  153.5042 H   0  0  0  0  0  0  0  0  0  0  0  0  # atno 10765 bound_to 10752
  140.0634  134.9192  157.1223 H   0  0  0  0  0  0  0  0  0  0  0  0  # atno 11005 bound_to 11000
  145.9905  140.8606  143.0069 LP  0  0  0  0  0  0  0  0  0  0  0  0  # atno 17320 bound_to 7965
  144.6772  140.2209  143.7366 LP  0  0  0  0  0  0  0  0  0  0  0  0  # atno 17321 bound_to 7965
  139.7543  144.7525  151.0459 LP  0  0  0  0  0  0  0  0  0  0  0  0  # atno 17342 bound_to 10162
  140.7796  143.4824  151.0001 LP  0  0  0  0  0  0  0  0  0  0  0  0  # atno 17343 bound_to 10162
  157.2242  130.6495  149.5823 LP  0  0  0  0  0  0  0  0  0  0  0  0  # atno 17370 bound_to 10713
  155.9713  130.4619  150.6128 LP  0  0  0  0  0  0  0  0  0  0  0  0  # atno 17371 bound_to 10713
  140.3735  134.2364  155.7176 LP  0  0  0  0  0  0  0  0  0  0  0  0  # atno 17394 bound_to 11000
  141.1983  133.8039  157.0590 LP  0  0  0  0  0  0  0  0  0  0  0  0  # atno 17395 bound_to 11000

$$$$
