#       Name:                AV-unprocessed.smi:977
#       Creating user name   scv26
#       Creation time:       Fri Mar 27 02:21:23 2020


#       File generated by GOLD software.
#

@<TRIPOS>MOLECULE
AV-unprocessed.smi:977
    44    45     1
SMALL
NO_CHARGES


@<TRIPOS>ATOM
      1 ****        -2.9987  -1.8967  -0.5705 C.3            1 S1                 0.0000
      2 ****        -3.5233  -0.5348  -0.9324 C.2            1 S1                 0.0000
      3 ****        -4.8022  -0.3999  -1.2518 N.2            1 S1                 0.0000
      4 ****        -4.9893   0.9449  -1.6076 O.3            1 S1                 0.0000
      5 ****        -3.8041   1.5994  -1.4924 C.2            1 S1                 0.0000
      6 ****        -3.7920   3.0483  -1.8458 C.3            1 S1                 0.0000
      7 ****        -2.8610   0.7228  -1.0439 C.2            1 S1                 0.0000
      8 ****        -1.4971   1.0409  -0.8283 N.am           1 S1                 0.0000
      9 ****        -0.7099   0.5622   0.1467 C.2            1 S1                 0.0000
     10 ****        -1.0869  -0.1880   1.0468 O.2            1 S1                 0.0000
     11 ****         0.5449   1.0211   0.0337 N.am           1 S1                 0.0000
     12 ****         1.6521   0.6885   0.9280 C.3            1 S1                 0.0000
     13 ****         2.5534   1.9253   1.0677 C.3            1 S1                 0.0000
     14 ****         2.4211  -0.5398   0.3930 C.3            1 S1                 0.0000
     15 ****         3.5725  -1.0046   1.2909 C.3            1 S1                 0.0000
     16 ****         3.6401  -2.4832   0.9865 C.3            1 S1                 0.0000
     17 ****         2.1625  -2.8265   0.8558 C.3            1 S1                 0.0000
     18 ****         1.5587  -1.6736   0.2805 O.3            1 S1                 0.0000
     19 ****        -1.9662  -2.0216  -0.8972 H              1 S1                 0.0000
     20 ****        -3.5846  -2.6878  -1.0395 H              1 S1                 0.0000
     21 ****        -3.0319  -2.0557   0.5073 H              1 S1                 0.0000
     22 ****        -2.7737   3.4355  -1.8823 H              1 S1                 0.0000
     23 ****        -4.3479   3.6281  -1.1092 H              1 S1                 0.0000
     24 ****        -4.2498   3.2121  -2.8215 H              1 S1                 0.0000
     25 ****        -1.1053   1.7542  -1.4255 H              1 S1                 0.0000
     26 ****         0.7564   1.6366  -0.7378 H              1 S1                 0.0000
     27 ****         1.2580   0.4530   1.9183 H              1 S1                 0.0000
     28 ****         3.3638   1.7501   1.7753 H              1 S1                 0.0000
     29 ****         1.9873   2.7838   1.4308 H              1 S1                 0.0000
     30 ****         3.0001   2.2010   0.1118 H              1 S1                 0.0000
     31 ****         2.8114  -0.3326  -0.6048 H              1 S1                 0.0000
     32 ****         4.5085  -0.4844   1.0857 H              1 S1                 0.0000
     33 ****         3.3247  -0.8582   2.3433 H              1 S1                 0.0000
     34 ****         4.1541  -2.6509   0.0391 H              1 S1                 0.0000
     35 ****         4.1453  -3.0601   1.7614 H              1 S1                 0.0000
     36 ****         1.9880  -3.7155   0.2495 H              1 S1                 0.0000
     37 ****         1.7225  -2.9935   1.8396 H              1 S1                 0.0000
     38 ****        -5.4990  -1.1171  -1.2414 LP             1 S1                 0.0000
     39 ****        -5.6640   1.3625  -0.9990 LP             1 S1                 0.0000
     40 ****        -5.3131   1.0004  -2.5522 LP             1 S1                 0.0000
     41 ****        -2.0419  -0.4823   1.0853 LP             1 S1                 0.0000
     42 ****        -0.4383  -0.5032   1.7395 LP             1 S1                 0.0000
     43 ****         1.3721  -1.8490  -0.6862 LP             1 S1                 0.0000
     44 ****         0.7003  -1.4812   0.7560 LP             1 S1                 0.0000
@<TRIPOS>BOND
    1    1    2 1     
    2    1   19 1     
    3    1   20 1     
    4    1   21 1     
    5    2    7 1     
    6    2    3 2     
    7    3    4 1     
    8    4    5 1     
    9    5    6 1     
   10    5    7 2     
   11    6   22 1     
   12    6   23 1     
   13    6   24 1     
   14    7    8 1     
   15    8    9 am    
   16    8   25 1     
   17    9   10 2     
   18    9   11 am    
   19   11   12 1     
   20   11   26 1     
   21   12   13 1     
   22   12   14 1     
   23   12   27 1     
   24   13   28 1     
   25   13   29 1     
   26   13   30 1     
   27   14   18 1     
   28   14   15 1     
   29   14   31 1     
   30   15   16 1     
   31   15   32 1     
   32   15   33 1     
   33   16   17 1     
   34   16   34 1     
   35   16   35 1     
   36   17   18 1     
   37   17   36 1     
   38   17   37 1     
   39    3   38 1     
   40    4   39 1     
   41    4   40 1     
   42   10   41 1     
   43   10   42 1     
   44   18   43 1     
   45   18   44 1     
@<TRIPOS>SUBSTRUCTURE
      1 S1             1
@<TRIPOS>SET
LONE_PAIRS      STATIC     ATOMS    <user>   **** ""
7 38 39 40 41 42 43 44
DONOR_HYDROGENS      STATIC     ATOMS    <user>   **** ""
2 25 26
ATOM$BLUE        STATIC     ATOMS    COLORGROUP SYSTEM
7 38 39 40 41 42 43 44
ATOM$RED        STATIC     ATOMS    COLORGROUP SYSTEM
2 25 26
