AV-unprocessed.smi:2742|AV-procd|sdf|10563|dock4
  -GOLD-   2272015 13D 1   1.00000     0.00000
 Structure written by MMmdl.
 37 38  0  0  0  0  0  0  0  0  1 V2000
  149.3588  140.6332  156.9548 C   0  0  0  0  0  0  0  0  0  0  0  0
  147.5934  140.6136  157.3678 S   0  0  0  0  0  0  0  0  0  0  0  0
  146.8588  140.5000  155.7098 C   0  0  1  0  0  0  0  0  0  0  0  0
  147.4022  141.6000  154.7778 C   0  0  0  0  0  0  0  0  0  0  0  0
  146.8098  141.4811  153.3647 C   0  0  0  0  0  0  0  0  0  0  0  0
  147.0596  140.0868  152.7697 C   0  0  0  0  0  0  0  0  0  0  0  0
  146.5126  138.9813  153.6906 C   0  0  1  0  0  0  0  0  0  0  0  0
  146.8120  137.6718  153.1184 N   0  0  0  0  0  0  0  0  0  0  0  0
  145.9048  136.8159  152.6258 C   0  0  0  0  0  0  0  0  0  0  0  0
  144.6967  137.0492  152.6039 O   0  0  0  0  0  0  0  0  0  0  0  0
  146.4949  135.7012  152.1605 N   0  0  0  0  0  0  0  0  0  0  0  0
  145.9067  134.5597  151.5480 C   0  0  0  0  0  0  0  0  0  0  0  0
  144.6377  134.5511  150.9186 C   0  0  0  0  0  0  0  0  0  0  0  0
  144.1684  133.3446  150.3612 C   0  0  0  0  0  0  0  0  0  0  0  0
  144.8618  132.1873  150.3989 N   0  0  0  0  0  0  0  0  0  0  0  0
  146.0654  132.1960  151.0093 C   0  0  0  0  0  0  0  0  0  0  0  0
  146.6264  133.3469  151.5984 C   0  0  0  0  0  0  0  0  0  0  0  0
  147.8393  133.2840  152.1995 F   0  0  0  0  0  0  0  0  0  0  0  0
  147.1107  139.1058  155.1071 C   0  0  0  0  0  0  0  0  0  0  0  0
  149.9530  140.7348  157.8630 H   0  0  0  0  0  0  0  0  0  0  0  0
  149.5880  141.4722  156.2977 H   0  0  0  0  0  0  0  0  0  0  0  0
  149.6518  139.7092  156.4572 H   0  0  0  0  0  0  0  0  0  0  0  0
  145.7815  140.6298  155.8217 H   0  0  0  0  0  0  0  0  0  0  0  0
  147.1755  142.5868  155.1806 H   0  0  0  0  0  0  0  0  0  0  0  0
  148.4895  141.5318  154.7230 H   0  0  0  0  0  0  0  0  0  0  0  0
  145.7372  141.6761  153.4008 H   0  0  0  0  0  0  0  0  0  0  0  0
  147.2406  142.2442  152.7160 H   0  0  0  0  0  0  0  0  0  0  0  0
  146.5940  140.0191  151.7856 H   0  0  0  0  0  0  0  0  0  0  0  0
  148.1307  139.9462  152.6156 H   0  0  0  0  0  0  0  0  0  0  0  0
  145.4294  139.1023  153.7544 H   0  0  0  0  0  0  0  0  0  0  0  0
  147.7841  137.4003  153.0933 H   0  0  0  0  0  0  0  0  0  0  0  0
  147.5034  135.6883  152.2018 H   0  0  0  0  0  0  0  0  0  0  0  0
  144.0135  135.4286  150.8588 H   0  0  0  0  0  0  0  0  0  0  0  0
  143.2046  133.3080  149.8751 H   0  0  0  0  0  0  0  0  0  0  0  0
  146.5972  131.2563  151.0309 H   0  0  0  0  0  0  0  0  0  0  0  0
  148.1840  138.9125  155.0712 H   0  0  0  0  0  0  0  0  0  0  0  0
  146.6822  138.3439  155.7595 H   0  0  0  0  0  0  0  0  0  0  0  0
  1  2  1  0  0  0  0
  1 20  1  0  0  0  0
  1 21  1  0  0  0  0
  1 22  1  0  0  0  0
  2  3  1  0  0  0  0
  3 19  1  0  0  0  0
  3  4  1  0  0  0  0
  3 23  1  0  0  0  0
  4  5  1  0  0  0  0
  4 24  1  0  0  0  0
  4 25  1  0  0  0  0
  5  6  1  0  0  0  0
  5 26  1  0  0  0  0
  5 27  1  0  0  0  0
  6  7  1  0  0  0  0
  6 28  1  0  0  0  0
  6 29  1  0  0  0  0
  7  8  1  0  0  0  0
  7 19  1  0  0  0  0
  7 30  1  0  0  0  0
  8  9  1  0  0  0  0
  8 31  1  0  0  0  0
  9 10  2  0  0  0  0
  9 11  1  0  0  0  0
 11 12  1  0  0  0  0
 11 32  1  0  0  0  0
 12 17  1  0  0  0  0
 12 13  2  0  0  0  0
 13 14  1  0  0  0  0
 13 33  1  0  0  0  0
 14 15  2  0  0  0  0
 14 34  1  0  0  0  0
 15 16  1  0  0  0  0
 16 17  2  0  0  0  0
 16 35  1  0  0  0  0
 17 18  1  0  0  0  0
 19 36  1  0  0  0  0
 19 37  1  0  0  0  0
M  END
> <s_m_source_file>
AV-unprocessed.smi

> <i_m_source_file_index>
2742

> <i_lp_mmshare_version>
43012

> <i_f3d_flags>
0

> <s_epik_input>
W0NIM11TW0NAQEhdMVtDSDJdW0NIMl1bQ0gyXVtDQEhdKFtDSDJdMSlbTkhdQyg9TylbTkhdYzJbY0hdW2NIXW5bY0hdYzJG

> <s_epik_cmdline>
J2VwaWtfcHl0aG9uJywgJy1waCcsICc3LjAnLCAnLXRuJywgJzgnLCAnLW1hJywgJzIwMCcsICctbWV0YWxfYmluZGluZycsICctaW1hZScsICc8aW5maWxlLm1hZT4nLCAnLW9tYWUnLCAnPG91dGZpbGUubWFlPic=

> <r_epik_Ionization_Penalty>
0.00344009

> <r_epik_Ionization_Penalty_Charging>
0

> <r_epik_Ionization_Penalty_Neutral>
0.00344009

> <r_epik_State_Penalty>
0.0024078

> <r_epik_Charging_Adjusted_Penalty>
0.0024078

> <i_epik_Tot_Q>
0

> <i_epik_Tot_abs_Q>
0

> <r_epik_Metal_State_Penalty>
-0

> <b_epik_Metal_Only>
0

> <s_lp_Force_Field>
OPLS_2005

> <r_lp_Energy>
14.4942

> <b_lp_Chiralities_Consistent>
1

> <s_lp_Variant>
AV-unprocessed.smi:2742-2

> <Gold.Version>
5.8.1

> <Gold.Id.Protein>
6NUR|6NUR_protein|mol2

> <Gold.PLP.Fitness>
37.6903

> <Gold.PLP.PLP>
-27.3270

> <Gold.PLP.part.hbond>
-1.8865

> <Gold.PLP.part.metal>
0.0000

> <Gold.PLP.part.buried>
-2.7603

> <Gold.PLP.part.nonpolar>
-22.0327

> <Gold.PLP.part.repulsive>
0.4060

> <Gold.PLP.ligand.clash>
0.0000

> <Gold.PLP.ligand.torsion>
0.2023

> <Gold.PLP.Chemscore.Hbond>
1.6521

> <Gold.PLP.Chemscore.CHOScore>
1.9348

> <Gold.PLP.Chemscore.Metal>
0.0000

> <Gold.Chemscore.Hbonds>
donor molecule, donor type, donor heavy atom, donor atom, acceptor molecule, acceptor atom, score
      L1  H     8    31       P1  7948  0.66
      L1  H    11    32       P1  7948  1.00
      L1  C    14    34       P1 10186  1.00
      L1  C    16    35       P1 10747  0.94

> <Gold.PLP.Chemscore.Internal.Correction>
0.0072

> <Gold.Rescore>
     Score         DG    S(hbond)    S(metal)    S(lipo)     H(rot)  DE(clash)    DE(int)     intcor
     16.47     -17.67       1.94        0.00      74.69       1.19       0.15       1.05       ----

> <Gold.Chemscore.Fitness>
16.4736

> <Gold.Chemscore.DG>
-17.6729

> <Gold.Chemscore.ZeroCoef>
-5.4800

> <Gold.Chemscore.Hbond>
1.9443

> <Gold.Chemscore.Metal>
0.0000

> <Gold.Chemscore.Lipo>
74.6910

> <Gold.Chemscore.Internal_Hbond>
0.0000

> <Gold.Chemscore.DEClash>
0.1454

> <Gold.Chemscore.DEInternal>
1.0540

> <Gold.Chemscore.Rot>
1.1875

> <Gold.Chemscore.Internal.Correction>
   9.000000E+99

> <Gold.Chemscore.Hbonds>
donor molecule, donor type, donor heavy atom, donor atom, acceptor molecule, acceptor atom, score
      L1  H     8    31       P1  7948  0.65
      L1  H    11    32       P1  7948  0.94

> <Gold.Chemscore.Hbond.Weighted>
-6.4941

> <Gold.Chemscore.Metal.Weighted>
-0.0000

> <Gold.Chemscore.Lipo.Weighted>
-8.7388

> <Gold.Chemscore.Internal_Hbond.Weighted>
0.0000

> <Gold.Chemscore.DEClash.Weighted>
0.1454

> <Gold.Chemscore.DEInternal.Weighted>
1.0540

> <Gold.Chemscore.Rot.Weighted>
3.0400

> <Gold.Chemscore.Internal.Correction.Weighted>
   9.000000E+99

> <Gold.Protein.RotatedTorsions>
[ 6907 6896 6895 6894 ] final   98.56 input  -60.11 | X-H torsion
[ 7974 7965 7964 7962 ] final  116.28 input  175.53 | X-H torsion
[ 8008 7997 7996 7995 ] final   67.64 input   59.86 | X-H torsion
[ 10167 10162 10161 10158 ] final    9.94 input  -65.29 | X-H torsion
[ 10718 10713 10712 10709 ] final    6.79 input   66.30 | X-H torsion
[ 10763 10752 10751 10750 ] final   23.55 input  -60.55 | X-H torsion
[ 11005 11000 10999 10996 ] final  -99.99 input  -57.11 | X-H torsion

> <Gold.Protein.ActiveResidues>
 VAL166  LYS551  ARG553  GLY616  TRP617  ASP618  TYR619  PRO620  LYS621  CYS622 
 ASP623  PHE694  ASN695  SER759  ASP760  ASP761  ALA762  ILE779  LEU786  VAL792 
 PHE793  MET794  SER795  GLU796  ALA797  LYS798  CYS799  TRP800  GLU811  SER814 

> <Gold.Protein.RotatedAtoms>
  152.5407  134.0562  159.8131 H   0  0  0  0  0  0  0  0  0  0  0  0  # atno 6907 bound_to 6896
  151.0696  133.5469  159.2635 H   0  0  0  0  0  0  0  0  0  0  0  0  # atno 6908 bound_to 6896
  151.2337  135.0572  159.9051 H   0  0  0  0  0  0  0  0  0  0  0  0  # atno 6909 bound_to 6896
  145.1816  139.3047  143.4415 H   0  0  0  0  0  0  0  0  0  0  0  0  # atno 7974 bound_to 7965
  155.6960  140.3495  155.4913 H   0  0  0  0  0  0  0  0  0  0  0  0  # atno 8008 bound_to 7997
  155.9482  140.1114  157.1021 H   0  0  0  0  0  0  0  0  0  0  0  0  # atno 8009 bound_to 7997
  154.4116  140.1199  156.5004 H   0  0  0  0  0  0  0  0  0  0  0  0  # atno 8010 bound_to 7997
  140.6224  143.8175  150.7192 H   0  0  0  0  0  0  0  0  0  0  0  0  # atno 10167 bound_to 10162
  156.9274  130.5813  149.5649 H   0  0  0  0  0  0  0  0  0  0  0  0  # atno 10718 bound_to 10713
  153.0830  135.6624  154.0007 H   0  0  0  0  0  0  0  0  0  0  0  0  # atno 10763 bound_to 10752
  153.9624  135.2973  155.3434 H   0  0  0  0  0  0  0  0  0  0  0  0  # atno 10764 bound_to 10752
  154.7233  135.5155  153.8918 H   0  0  0  0  0  0  0  0  0  0  0  0  # atno 10765 bound_to 10752
  141.1288  133.8364  157.1043 H   0  0  0  0  0  0  0  0  0  0  0  0  # atno 11005 bound_to 11000
  146.3452  140.1998  142.8589 LP  0  0  0  0  0  0  0  0  0  0  0  0  # atno 17320 bound_to 7965
  145.0130  140.8730  143.5212 LP  0  0  0  0  0  0  0  0  0  0  0  0  # atno 17321 bound_to 7965
  140.1768  143.4148  152.1962 LP  0  0  0  0  0  0  0  0  0  0  0  0  # atno 17342 bound_to 10162
  139.5450  144.7291  151.4611 LP  0  0  0  0  0  0  0  0  0  0  0  0  # atno 17343 bound_to 10162
  156.0463  130.5539  150.8888 LP  0  0  0  0  0  0  0  0  0  0  0  0  # atno 17370 bound_to 10713
  157.5869  131.0945  150.9182 LP  0  0  0  0  0  0  0  0  0  0  0  0  # atno 17371 bound_to 10713
  140.0314  134.9899  157.0787 LP  0  0  0  0  0  0  0  0  0  0  0  0  # atno 17394 bound_to 11000
  140.4280  134.1811  155.7167 LP  0  0  0  0  0  0  0  0  0  0  0  0  # atno 17395 bound_to 11000

$$$$
