#       Name:                AV-unprocessed.smi:2720
#       Creating user name   scv26
#       Creation time:       Fri Mar 27 14:54:25 2020


#       File generated by GOLD software.
#

@<TRIPOS>MOLECULE
AV-unprocessed.smi:2720
    34    35     1
SMALL
NO_CHARGES


@<TRIPOS>ATOM
      1 ****        -0.7279   1.3374   1.1385 O.3            1 S1                 0.0000
      2 ****        -0.2500   0.0451   0.8088 C.3            1 S1                 0.0000
      3 ****         1.2994   0.1330   0.7616 C.3            1 S1                 0.0000
      4 ****         1.8787   0.6733  -0.5373 C.ar           1 S1                 0.0000
      5 ****         2.3783  -0.1988  -1.5279 C.ar           1 S1                 0.0000
      6 ****         2.9007   0.3583  -2.7126 C.ar           1 S1                 0.0000
      7 ****         2.9484   1.6867  -2.9493 N.ar           1 S1                 0.0000
      8 ****         2.4724   2.5156  -1.9957 C.ar           1 S1                 0.0000
      9 ****         1.9305   2.0620  -0.7764 C.ar           1 S1                 0.0000
     10 ****        -0.6991  -0.9296   1.9227 C.3            1 S1                 0.0000
     11 ****        -2.2260  -1.1266   1.9620 C.3            1 S1                 0.0000
     12 ****        -2.7324  -1.5593   0.6435 N.4            1 S1                 1.0000
     13 ****        -2.4090  -0.6010  -0.4334 C.3            1 S1                 0.0000
     14 ****        -0.8883  -0.3811  -0.5378 C.3            1 S1                 0.0000
     15 ****        -0.3249   1.6123   1.9484 H              1 S1                 0.0000
     16 ****         1.6795   0.7201   1.5992 H              1 S1                 0.0000
     17 ****         1.7174  -0.8653   0.8994 H              1 S1                 0.0000
     18 ****         2.3609  -1.2699  -1.3896 H              1 S1                 0.0000
     19 ****         3.2892  -0.2810  -3.4916 H              1 S1                 0.0000
     20 ****         2.5238   3.5725  -2.2107 H              1 S1                 0.0000
     21 ****         1.5609   2.7664  -0.0457 H              1 S1                 0.0000
     22 ****        -0.2309  -1.9021   1.7627 H              1 S1                 0.0000
     23 ****        -0.3471  -0.5823   2.8951 H              1 S1                 0.0000
     24 ****        -2.4891  -1.8784   2.7065 H              1 S1                 0.0000
     25 ****        -2.7266  -0.2030   2.2553 H              1 S1                 0.0000
     26 ****        -2.3204  -2.4528   0.4156 H              1 S1                 0.0000
     27 ****        -2.7987  -0.9832  -1.3772 H              1 S1                 0.0000
     28 ****        -2.9203   0.3429  -0.2400 H              1 S1                 0.0000
     29 ****        -0.6922   0.3615  -1.3124 H              1 S1                 0.0000
     30 ****        -0.4229  -1.3072  -0.8782 H              1 S1                 0.0000
     31 ****        -3.7355  -1.6666   0.6963 H              1 S1                 0.0000
     32 ****        -1.7214   1.3107   1.2492 LP             1 S1                 0.0000
     33 ****        -0.4909   1.9799   0.4097 LP             1 S1                 0.0000
     34 ****         3.3244   2.0453  -3.8037 LP             1 S1                 0.0000
@<TRIPOS>BOND
    1    1    2 1     
    2    1   15 1     
    3    2   14 1     
    4    2    3 1     
    5    2   10 1     
    6    3    4 1     
    7    3   16 1     
    8    3   17 1     
    9    4    9 ar    
   10    4    5 ar    
   11    5    6 ar    
   12    5   18 1     
   13    6    7 ar    
   14    6   19 1     
   15    7    8 ar    
   16    8    9 ar    
   17    8   20 1     
   18    9   21 1     
   19   10   11 1     
   20   10   22 1     
   21   10   23 1     
   22   11   12 1     
   23   11   24 1     
   24   11   25 1     
   25   12   13 1     
   26   12   26 1     
   27   12   31 1     
   28   13   14 1     
   29   13   27 1     
   30   13   28 1     
   31   14   29 1     
   32   14   30 1     
   33    1   32 1     
   34    1   33 1     
   35    7   34 1     
@<TRIPOS>SUBSTRUCTURE
      1 S1             1
@<TRIPOS>SET
LONE_PAIRS      STATIC     ATOMS    <user>   **** ""
3 32 33 34
DONOR_HYDROGENS      STATIC     ATOMS    <user>   **** ""
3 15 26 31
ATOM$BLUE        STATIC     ATOMS    COLORGROUP SYSTEM
3 32 33 34
ATOM$RED        STATIC     ATOMS    COLORGROUP SYSTEM
3 15 26 31
