AV-unprocessed.smi:252|AV-procd|sdf|1941|dock2
  -GOLD-   2262021 63D 1   1.00000     0.00000
 Structure written by MMmdl.
 56 59  0  0  0  0  0  0  0  0  1 V2000
  146.2605  132.7040  151.2674 C   0  0  0  0  0  0  0  0  0  0  0  0
  146.2105  133.9333  152.1883 C   0  0  0  0  0  0  0  0  0  0  0  0
  146.9587  133.7422  153.5117 C   0  0  0  0  0  0  0  0  0  0  0  0
  146.7135  132.7856  154.2478 O   0  0  0  0  0  0  0  0  0  0  0  0
  147.8786  134.6752  153.8015 N   0  0  0  0  0  0  0  0  0  0  0  0
  148.7057  134.6976  155.0034 C   0  0  1  0  0  0  0  0  0  0  0  0
  149.5183  133.3932  155.1024 C   0  0  0  0  0  0  0  0  0  0  0  0
  150.4648  133.4395  156.3124 C   0  0  0  0  0  0  0  0  0  0  0  0
  151.3577  134.6897  156.2621 C   0  0  0  0  0  0  0  0  0  0  0  0
  150.5449  135.8966  156.1410 N   0  0  0  0  0  0  0  0  0  0  0  0
  151.2521  137.0349  156.2990 C   0  0  0  0  0  0  0  0  0  0  0  0
  152.6099  136.9905  156.3475 N   0  0  0  0  0  0  0  0  0  0  0  0
  153.3067  138.1205  156.5062 C   0  0  0  0  0  0  0  0  0  0  0  0
  152.8549  139.3708  156.6320 N   0  0  0  0  0  0  0  0  0  0  0  0
  151.4922  139.4116  156.5835 C   0  0  0  0  0  0  0  0  0  0  0  0
  150.6209  138.2991  156.4228 C   0  0  0  0  0  0  0  0  0  0  0  0
  149.2977  138.7225  156.4232 N   0  0  0  0  0  0  0  0  0  0  0  0
  149.3817  140.0163  156.5772 C   0  0  0  0  0  0  0  0  0  0  0  0
  150.6617  140.5130  156.6807 N   0  0  0  0  0  0  0  0  0  0  0  0
  151.0467  141.9035  156.8599 C   0  0  0  0  0  0  0  0  0  0  0  0
  151.1742  142.3594  158.3477 C   0  0  1  0  0  0  0  0  0  0  0  0
  149.9092  142.3971  158.9949 O   0  0  0  0  0  0  0  0  0  0  0  0
  152.0941  141.4590  159.1878 C   0  0  0  0  0  0  0  0  0  0  0  0
  153.0994  142.4124  159.8364 C   0  0  0  0  0  0  0  0  0  0  0  0
  152.4961  143.6909  159.7396 O   0  0  0  0  0  0  0  0  0  0  0  0
  151.8454  143.7444  158.4812 C   0  0  2  0  0  0  0  0  0  0  0  0
  150.9289  144.9740  158.3727 C   0  0  0  0  0  0  0  0  0  0  0  0
  149.6476  135.9186  154.9888 C   0  0  0  0  0  0  0  0  0  0  0  0
  145.7220  132.8965  150.3393 H   0  0  0  0  0  0  0  0  0  0  0  0
  145.8021  131.8343  151.7395 H   0  0  0  0  0  0  0  0  0  0  0  0
  147.2866  132.4446  151.0042 H   0  0  0  0  0  0  0  0  0  0  0  0
  146.6353  134.7937  151.6699 H   0  0  0  0  0  0  0  0  0  0  0  0
  145.1712  134.1806  152.4078 H   0  0  0  0  0  0  0  0  0  0  0  0
  148.0131  135.4281  153.1424 H   0  0  0  0  0  0  0  0  0  0  0  0
  148.0587  134.7612  155.8808 H   0  0  0  0  0  0  0  0  0  0  0  0
  148.8502  132.5351  155.1847 H   0  0  0  0  0  0  0  0  0  0  0  0
  150.1025  133.2489  154.1922 H   0  0  0  0  0  0  0  0  0  0  0  0
  149.8797  133.4467  157.2329 H   0  0  0  0  0  0  0  0  0  0  0  0
  151.0809  132.5406  156.3427 H   0  0  0  0  0  0  0  0  0  0  0  0
  151.9703  134.7441  157.1632 H   0  0  0  0  0  0  0  0  0  0  0  0
  152.0405  134.6237  155.4135 H   0  0  0  0  0  0  0  0  0  0  0  0
  154.3802  138.0066  156.5366 H   0  0  0  0  0  0  0  0  0  0  0  0
  148.5067  140.6480  156.6223 H   0  0  0  0  0  0  0  0  0  0  0  0
  151.9802  142.0545  156.3181 H   0  0  0  0  0  0  0  0  0  0  0  0
  150.3142  142.5146  156.3312 H   0  0  0  0  0  0  0  0  0  0  0  0
  149.9532  143.0282  159.6969 H   0  0  0  0  0  0  0  0  0  0  0  0
  151.5357  140.9146  159.9511 H   0  0  0  0  0  0  0  0  0  0  0  0
  152.6245  140.7106  158.5989 H   0  0  0  0  0  0  0  0  0  0  0  0
  153.3200  142.1521  160.8717 H   0  0  0  0  0  0  0  0  0  0  0  0
  154.0374  142.4177  159.2792 H   0  0  0  0  0  0  0  0  0  0  0  0
  152.6335  143.8378  157.7313 H   0  0  0  0  0  0  0  0  0  0  0  0
  150.3985  144.9836  157.4203 H   0  0  0  0  0  0  0  0  0  0  0  0
  151.5110  145.8933  158.4372 H   0  0  0  0  0  0  0  0  0  0  0  0
  150.1880  145.0014  159.1717 H   0  0  0  0  0  0  0  0  0  0  0  0
  150.2370  135.9222  154.0706 H   0  0  0  0  0  0  0  0  0  0  0  0
  149.0652  136.8412  154.9981 H   0  0  0  0  0  0  0  0  0  0  0  0
  1  2  1  0  0  0  0
  1 29  1  0  0  0  0
  1 30  1  0  0  0  0
  1 31  1  0  0  0  0
  2  3  1  0  0  0  0
  2 32  1  0  0  0  0
  2 33  1  0  0  0  0
  3  4  2  0  0  0  0
  3  5  1  0  0  0  0
  5  6  1  0  0  0  0
  5 34  1  0  0  0  0
  6 28  1  0  0  0  0
  6  7  1  0  0  0  0
  6 35  1  0  0  0  0
  7  8  1  0  0  0  0
  7 36  1  0  0  0  0
  7 37  1  0  0  0  0
  8  9  1  0  0  0  0
  8 38  1  0  0  0  0
  8 39  1  0  0  0  0
  9 10  1  0  0  0  0
  9 40  1  0  0  0  0
  9 41  1  0  0  0  0
 10 11  1  0  0  0  0
 10 28  1  0  0  0  0
 11 16  1  0  0  0  0
 11 12  2  0  0  0  0
 12 13  1  0  0  0  0
 13 14  2  0  0  0  0
 13 42  1  0  0  0  0
 14 15  1  0  0  0  0
 15 19  1  0  0  0  0
 15 16  2  0  0  0  0
 16 17  1  0  0  0  0
 17 18  2  0  0  0  0
 18 19  1  0  0  0  0
 18 43  1  0  0  0  0
 19 20  1  0  0  0  0
 20 21  1  0  0  0  0
 20 44  1  0  0  0  0
 20 45  1  0  0  0  0
 21 26  1  0  0  0  0
 21 22  1  0  0  0  0
 21 23  1  0  0  0  0
 22 46  1  0  0  0  0
 23 24  1  0  0  0  0
 23 47  1  0  0  0  0
 23 48  1  0  0  0  0
 24 25  1  0  0  0  0
 24 49  1  0  0  0  0
 24 50  1  0  0  0  0
 25 26  1  0  0  0  0
 26 27  1  0  0  0  0
 26 51  1  0  0  0  0
 27 52  1  0  0  0  0
 27 53  1  0  0  0  0
 27 54  1  0  0  0  0
 28 55  1  0  0  0  0
 28 56  1  0  0  0  0
M  END
> <s_m_source_file>
AV-unprocessed.smi

> <i_m_source_file_index>
252

> <i_lp_mmshare_version>
43012

> <i_f3d_flags>
0

> <s_epik_input>
W0NIM11bQ0gyXUMoPU8pW05IXVtDQEBIXTFbQ0gyXVtDSDJdW0NIMl1OKFtDSDJdMSljKG5bY0hdbjIpYyhjMjMpbltjSF1uM1tDSDJdW0NAQF00KFtPSF0pW0NIMl1bQ0gyXU9bQ0BIXTRbQ0gzXQ==

> <s_epik_cmdline>
J2VwaWtfcHl0aG9uJywgJy1waCcsICc3LjAnLCAnLXRuJywgJzgnLCAnLW1hJywgJzIwMCcsICctbWV0YWxfYmluZGluZycsICctaW1hZScsICc8aW5maWxlLm1hZT4nLCAnLW9tYWUnLCAnPG91dGZpbGUubWFlPic=

> <r_lp_tautomer_probability>
1

> <r_epik_Ionization_Penalty>
0.00182575

> <r_epik_Ionization_Penalty_Charging>
0

> <r_epik_Ionization_Penalty_Neutral>
0.00182575

> <r_epik_State_Penalty>
0.00104524

> <r_epik_Charging_Adjusted_Penalty>
0.00104524

> <i_epik_Tot_Q>
0

> <i_epik_Tot_abs_Q>
0

> <r_epik_Metal_State_Penalty>
-0

> <b_epik_Metal_Only>
0

> <s_lp_Force_Field>
OPLS_2005

> <r_lp_Energy>
42.5457

> <b_lp_Chiralities_Consistent>
1

> <s_lp_Variant>
AV-unprocessed.smi:252-6

> <Gold.Version>
5.8.1

> <Gold.Id.Protein>
6NUR|6NUR_protein|mol2

> <Gold.PLP.Fitness>
49.1086

> <Gold.PLP.PLP>
-41.0004

> <Gold.PLP.part.hbond>
-3.7530

> <Gold.PLP.part.metal>
0.0000

> <Gold.PLP.part.buried>
-6.0751

> <Gold.PLP.part.nonpolar>
-30.7911

> <Gold.PLP.part.repulsive>
0.0966

> <Gold.PLP.ligand.clash>
0.0000

> <Gold.PLP.ligand.torsion>
0.5847

> <Gold.PLP.Chemscore.Hbond>
3.0000

> <Gold.PLP.Chemscore.CHOScore>
0.0000

> <Gold.PLP.Chemscore.Metal>
0.0000

> <Gold.Chemscore.Hbonds>
donor molecule, donor type, donor heavy atom, donor atom, acceptor molecule, acceptor atom, score
      L1  H     5    34       P1  7948  1.00
      P1  H  7997  8008       L1    14  0.80
      P1  H 10752 10765       L1    12  0.89

> <Gold.PLP.Chemscore.Internal.Correction>
0.2776

> <Gold.Rescore>
     Score         DG    S(hbond)    S(metal)    S(lipo)     H(rot)  DE(clash)    DE(int)     intcor
     17.75     -19.09       2.68        0.00      98.95       2.70       0.75       0.59       ----

> <Gold.Chemscore.Fitness>
17.7468

> <Gold.Chemscore.DG>
-19.0942

> <Gold.Chemscore.ZeroCoef>
-5.4800

> <Gold.Chemscore.Hbond>
2.6823

> <Gold.Chemscore.Metal>
0.0000

> <Gold.Chemscore.Lipo>
98.9547

> <Gold.Chemscore.Internal_Hbond>
0.0000

> <Gold.Chemscore.DEClash>
0.7547

> <Gold.Chemscore.DEInternal>
0.5926

> <Gold.Chemscore.Rot>
2.7041

> <Gold.Chemscore.Internal.Correction>
   9.000000E+99

> <Gold.Chemscore.Hbonds>
donor molecule, donor type, donor heavy atom, donor atom, acceptor molecule, acceptor atom, score
      L1  H     5    34       P1  7948  0.94
      P1  H  7997  8008       L1    14  0.12
      P1  H 10752 10765       L1    12  0.60

> <Gold.Chemscore.Hbond.Weighted>
-8.9590

> <Gold.Chemscore.Metal.Weighted>
-0.0000

> <Gold.Chemscore.Lipo.Weighted>
-11.5777

> <Gold.Chemscore.Internal_Hbond.Weighted>
0.0000

> <Gold.Chemscore.DEClash.Weighted>
0.7547

> <Gold.Chemscore.DEInternal.Weighted>
0.5926

> <Gold.Chemscore.Rot.Weighted>
6.9225

> <Gold.Chemscore.Internal.Correction.Weighted>
   9.000000E+99

> <Gold.Protein.RotatedTorsions>
[ 6907 6896 6895 6894 ] final -153.00 input  -60.11 | X-H torsion
[ 7974 7965 7964 7962 ] final  111.53 input  175.53 | X-H torsion
[ 8008 7997 7996 7995 ] final  -44.33 input   59.86 | X-H torsion
[ 10167 10162 10161 10158 ] final    7.51 input  -65.29 | X-H torsion
[ 10718 10713 10712 10709 ] final  106.44 input   66.30 | X-H torsion
[ 10763 10752 10751 10750 ] final -138.54 input  -60.55 | X-H torsion
[ 11005 11000 10999 10996 ] final   91.87 input  -57.11 | X-H torsion

> <Gold.Protein.ActiveResidues>
 VAL166  LYS551  ARG553  GLY616  TRP617  ASP618  TYR619  PRO620  LYS621  CYS622 
 ASP623  PHE694  ASN695  SER759  ASP760  ASP761  ALA762  ILE779  LEU786  VAL792 
 PHE793  MET794  SER795  GLU796  ALA797  LYS798  CYS799  TRP800  GLU811  SER814 

> <Gold.Protein.RotatedAtoms>
  151.2361  133.4424  159.2605 H   0  0  0  0  0  0  0  0  0  0  0  0  # atno 6907 bound_to 6896
  151.0749  134.9822  159.8337 H   0  0  0  0  0  0  0  0  0  0  0  0  # atno 6908 bound_to 6896
  152.5417  134.2304  159.8875 H   0  0  0  0  0  0  0  0  0  0  0  0  # atno 6909 bound_to 6896
  145.2411  139.2778  143.4117 H   0  0  0  0  0  0  0  0  0  0  0  0  # atno 7974 bound_to 7965
  154.3997  140.1425  156.3665 H   0  0  0  0  0  0  0  0  0  0  0  0  # atno 8008 bound_to 7997
  155.8132  140.3472  155.5449 H   0  0  0  0  0  0  0  0  0  0  0  0  # atno 8009 bound_to 7997
  155.8364  140.0920  157.1751 H   0  0  0  0  0  0  0  0  0  0  0  0  # atno 8010 bound_to 7997
  140.6368  143.7868  150.7370 H   0  0  0  0  0  0  0  0  0  0  0  0  # atno 10167 bound_to 10162
  157.6668  131.0850  150.6007 H   0  0  0  0  0  0  0  0  0  0  0  0  # atno 10718 bound_to 10713
  154.8634  135.3609  154.5401 H   0  0  0  0  0  0  0  0  0  0  0  0  # atno 10763 bound_to 10752
  153.6023  135.7012  153.5384 H   0  0  0  0  0  0  0  0  0  0  0  0  # atno 10764 bound_to 10752
  153.3280  135.4132  155.1433 H   0  0  0  0  0  0  0  0  0  0  0  0  # atno 10765 bound_to 10752
  139.8832  134.8700  156.3491 H   0  0  0  0  0  0  0  0  0  0  0  0  # atno 11005 bound_to 11000
  146.3328  140.2774  142.8608 LP  0  0  0  0  0  0  0  0  0  0  0  0  # atno 17320 bound_to 7965
  144.9588  140.8254  143.5526 LP  0  0  0  0  0  0  0  0  0  0  0  0  # atno 17321 bound_to 7965
  140.1491  143.4373  152.2143 LP  0  0  0  0  0  0  0  0  0  0  0  0  # atno 17342 bound_to 10162
  139.5578  144.7385  151.4244 LP  0  0  0  0  0  0  0  0  0  0  0  0  # atno 17343 bound_to 10162
  156.6307  130.4431  149.5788 LP  0  0  0  0  0  0  0  0  0  0  0  0  # atno 17370 bound_to 10713
  156.2284  130.6779  151.1439 LP  0  0  0  0  0  0  0  0  0  0  0  0  # atno 17371 bound_to 10713
  140.9606  133.7391  156.0397 LP  0  0  0  0  0  0  0  0  0  0  0  0  # atno 17394 bound_to 11000
  140.7993  134.3527  157.5443 LP  0  0  0  0  0  0  0  0  0  0  0  0  # atno 17395 bound_to 11000

$$$$
