AV-unprocessed.smi:2899|AV-procd|sdf|11144|dock9
  -GOLD-   2272016 23D 1   1.00000     0.00000
 Structure written by MMmdl.
 30 32  0  0  0  0  0  0  0  0  1 V2000
  152.4228  143.2332  161.5820 C   0  0  0  0  0  0  0  0  0  0  0  0
  152.0622  143.3940  160.1205 C   0  0  0  0  0  0  0  0  0  0  0  0
  152.1572  144.6407  159.4682 C   0  0  0  0  0  0  0  0  0  0  0  0
  151.7923  144.6582  158.1067 C   0  0  0  0  0  0  0  0  0  0  0  0
  151.3780  143.5429  157.4663 N   0  0  0  0  0  0  0  0  0  0  0  0
  151.3272  142.4155  158.1802 C   0  0  0  0  0  0  0  0  0  0  0  0
  150.9017  141.2952  157.4904 N   0  0  0  0  0  0  0  0  0  0  0  0
  151.1378  141.0563  156.0711 C   0  0  1  0  0  0  0  0  0  0  0  0
  151.8912  139.7527  155.7965 C   0  0  0  0  0  0  0  0  0  0  0  0
  150.9670  139.0638  154.7817 C   0  0  1  0  0  0  0  0  0  0  0  0
  149.7149  138.4918  155.4589 C   0  0  0  0  0  0  0  0  0  0  0  0
  148.9257  139.7612  155.7735 C   0  0  0  0  0  0  0  0  0  0  0  0
  149.8586  140.8591  155.2341 C   0  0  2  0  0  0  0  0  0  0  0  0
  150.4102  140.1851  154.1154 O   0  0  0  0  0  0  0  0  0  0  0  0
  151.6463  142.2833  159.4736 N   0  0  0  0  0  0  0  0  0  0  0  0
  152.6909  144.1908  162.0293 H   0  0  0  0  0  0  0  0  0  0  0  0
  153.2706  142.5562  161.6906 H   0  0  0  0  0  0  0  0  0  0  0  0
  151.5800  142.8218  162.1378 H   0  0  0  0  0  0  0  0  0  0  0  0
  152.4891  145.5331  159.9778 H   0  0  0  0  0  0  0  0  0  0  0  0
  151.8329  145.5698  157.5293 H   0  0  0  0  0  0  0  0  0  0  0  0
  150.2945  140.6571  157.9836 H   0  0  0  0  0  0  0  0  0  0  0  0
  151.7145  141.8871  155.6618 H   0  0  0  0  0  0  0  0  0  0  0  0
  152.8655  139.9660  155.3555 H   0  0  0  0  0  0  0  0  0  0  0  0
  152.0498  139.1396  156.6849 H   0  0  0  0  0  0  0  0  0  0  0  0
  151.4769  138.3574  154.1263 H   0  0  0  0  0  0  0  0  0  0  0  0
  149.1566  137.8553  154.7715 H   0  0  0  0  0  0  0  0  0  0  0  0
  149.9531  137.9088  156.3492 H   0  0  0  0  0  0  0  0  0  0  0  0
  147.9805  139.7628  155.2296 H   0  0  0  0  0  0  0  0  0  0  0  0
  148.7018  139.8729  156.8345 H   0  0  0  0  0  0  0  0  0  0  0  0
  149.3458  141.7879  154.9829 H   0  0  0  0  0  0  0  0  0  0  0  0
  1  2  1  0  0  0  0
  1 16  1  0  0  0  0
  1 17  1  0  0  0  0
  1 18  1  0  0  0  0
  2 15  1  0  0  0  0
  2  3  2  0  0  0  0
  3  4  1  0  0  0  0
  3 19  1  0  0  0  0
  4  5  2  0  0  0  0
  4 20  1  0  0  0  0
  5  6  1  0  0  0  0
  6  7  1  0  0  0  0
  6 15  2  0  0  0  0
  7  8  1  0  0  0  0
  7 21  1  0  0  0  0
  8 13  1  0  0  0  0
  8  9  1  0  0  0  0
  8 22  1  0  0  0  0
  9 10  1  0  0  0  0
  9 23  1  0  0  0  0
  9 24  1  0  0  0  0
 10 14  1  0  0  0  0
 10 11  1  0  0  0  0
 10 25  1  0  0  0  0
 11 12  1  0  0  0  0
 11 26  1  0  0  0  0
 11 27  1  0  0  0  0
 12 13  1  0  0  0  0
 12 28  1  0  0  0  0
 12 29  1  0  0  0  0
 13 14  1  0  0  0  0
 13 30  1  0  0  0  0
M  END
> <s_m_source_file>
AV-unprocessed.smi

> <i_m_source_file_index>
2899

> <i_lp_mmshare_version>
43012

> <i_f3d_flags>
0

> <s_epik_input>
W0NIM11jMVtjSF1bY0hdbmMobjEpW05IXVtDQEhdKFtDSDJdW0NAQEhdMjMpW0NAQEhdKE8zKVtDSDJdW0NIMl0y

> <s_epik_cmdline>
J2VwaWtfcHl0aG9uJywgJy1waCcsICc3LjAnLCAnLXRuJywgJzgnLCAnLW1hJywgJzIwMCcsICctbWV0YWxfYmluZGluZycsICctaW1hZScsICc8aW5maWxlLm1hZT4nLCAnLW9tYWUnLCAnPG91dGZpbGUubWFlPic=

> <r_lp_tautomer_probability>
1

> <r_epik_Ionization_Penalty>
0.00589655

> <r_epik_Ionization_Penalty_Charging>
0

> <r_epik_Ionization_Penalty_Neutral>
0.00589655

> <r_epik_State_Penalty>
0.00375391

> <r_epik_Charging_Adjusted_Penalty>
0.00375391

> <i_epik_Tot_Q>
0

> <i_epik_Tot_abs_Q>
0

> <r_epik_Metal_State_Penalty>
-0

> <b_epik_Metal_Only>
0

> <s_lp_Force_Field>
OPLS_2005

> <r_lp_Energy>
31.8412

> <b_lp_Chiralities_Consistent>
1

> <s_lp_Variant>
AV-unprocessed.smi:2899-2

> <Gold.Version>
5.8.1

> <Gold.Id.Protein>
6NUR|6NUR_protein|mol2

> <Gold.PLP.Fitness>
37.0348

> <Gold.PLP.PLP>
-34.4523

> <Gold.PLP.part.hbond>
-0.7829

> <Gold.PLP.part.metal>
0.0000

> <Gold.PLP.part.buried>
-5.5654

> <Gold.PLP.part.nonpolar>
-28.8443

> <Gold.PLP.part.repulsive>
0.8026

> <Gold.PLP.ligand.clash>
0.0000

> <Gold.PLP.ligand.torsion>
0.2131

> <Gold.PLP.Chemscore.Hbond>
1.0000

> <Gold.PLP.Chemscore.CHOScore>
0.0000

> <Gold.PLP.Chemscore.Metal>
0.0000

> <Gold.Chemscore.Hbonds>
donor molecule, donor type, donor heavy atom, donor atom, acceptor molecule, acceptor atom, score
      P1  H  7989  7998       L1    14  0.98

> <Gold.PLP.Chemscore.Internal.Correction>
0.0088

> <Gold.Rescore>
     Score         DG    S(hbond)    S(metal)    S(lipo)     H(rot)  DE(clash)    DE(int)     intcor
     15.58     -15.81       0.90        0.00      84.46       1.00       0.01       0.21       ----

> <Gold.Chemscore.Fitness>
15.5846

> <Gold.Chemscore.DG>
-15.8080

> <Gold.Chemscore.ZeroCoef>
-5.4800

> <Gold.Chemscore.Hbond>
0.8999

> <Gold.Chemscore.Metal>
0.0000

> <Gold.Chemscore.Lipo>
84.4647

> <Gold.Chemscore.Internal_Hbond>
0.0000

> <Gold.Chemscore.DEClash>
0.0089

> <Gold.Chemscore.DEInternal>
0.2145

> <Gold.Chemscore.Rot>
1.0000

> <Gold.Chemscore.Internal.Correction>
   9.000000E+99

> <Gold.Chemscore.Hbonds>
donor molecule, donor type, donor heavy atom, donor atom, acceptor molecule, acceptor atom, score
      P1  H  7989  7998       L1    14  0.36

> <Gold.Chemscore.Hbond.Weighted>
-3.0056

> <Gold.Chemscore.Metal.Weighted>
-0.0000

> <Gold.Chemscore.Lipo.Weighted>
-9.8824

> <Gold.Chemscore.Internal_Hbond.Weighted>
0.0000

> <Gold.Chemscore.DEClash.Weighted>
0.0089

> <Gold.Chemscore.DEInternal.Weighted>
0.2145

> <Gold.Chemscore.Rot.Weighted>
2.5600

> <Gold.Chemscore.Internal.Correction.Weighted>
   9.000000E+99

> <Gold.Protein.RotatedTorsions>
[ 6907 6896 6895 6894 ] final  -44.60 input  -60.11 | X-H torsion
[ 7974 7965 7964 7962 ] final  -93.26 input  175.53 | X-H torsion
[ 8008 7997 7996 7995 ] final -178.50 input   59.86 | X-H torsion
[ 10167 10162 10161 10158 ] final  107.53 input  -65.29 | X-H torsion
[ 10718 10713 10712 10709 ] final  -84.53 input   66.30 | X-H torsion
[ 10763 10752 10751 10750 ] final   36.65 input  -60.55 | X-H torsion
[ 11005 11000 10999 10996 ] final -115.83 input  -57.11 | X-H torsion

> <Gold.Protein.ActiveResidues>
 VAL166  LYS551  ARG553  GLY616  TRP617  ASP618  TYR619  PRO620  LYS621  CYS622 
 ASP623  PHE694  ASN695  SER759  ASP760  ASP761  ALA762  ILE779  LEU786  VAL792 
 PHE793  MET794  SER795  GLU796  ALA797  LYS798  CYS799  TRP800  GLU811  SER814 

> <Gold.Protein.RotatedAtoms>
  150.9311  134.8726  159.7551 H   0  0  0  0  0  0  0  0  0  0  0  0  # atno 6907 bound_to 6896
  152.5038  134.4078  159.9448 H   0  0  0  0  0  0  0  0  0  0  0  0  # atno 6908 bound_to 6896
  151.4105  133.3689  159.2778 H   0  0  0  0  0  0  0  0  0  0  0  0  # atno 6909 bound_to 6896
  145.3888  140.9526  143.2352 H   0  0  0  0  0  0  0  0  0  0  0  0  # atno 7974 bound_to 7965
  156.0195  140.1258  157.0372 H   0  0  0  0  0  0  0  0  0  0  0  0  # atno 8008 bound_to 7997
  154.4306  140.1071  156.6014 H   0  0  0  0  0  0  0  0  0  0  0  0  # atno 8009 bound_to 7997
  155.5965  140.3470  155.4583 H   0  0  0  0  0  0  0  0  0  0  0  0  # atno 8010 bound_to 7997
  139.6920  144.7106  151.1333 H   0  0  0  0  0  0  0  0  0  0  0  0  # atno 10167 bound_to 10162
  156.0005  130.4701  150.4424 H   0  0  0  0  0  0  0  0  0  0  0  0  # atno 10718 bound_to 10713
  153.0068  135.6300  154.2019 H   0  0  0  0  0  0  0  0  0  0  0  0  # atno 10763 bound_to 10752
  154.1762  135.2816  155.3068 H   0  0  0  0  0  0  0  0  0  0  0  0  # atno 10764 bound_to 10752
  154.5870  135.5629  153.7301 H   0  0  0  0  0  0  0  0  0  0  0  0  # atno 10765 bound_to 10752
  141.0462  133.9758  157.2913 H   0  0  0  0  0  0  0  0  0  0  0  0  # atno 11005 bound_to 11000
  144.8455  139.5404  143.6881 LP  0  0  0  0  0  0  0  0  0  0  0  0  # atno 17320 bound_to 7965
  146.2807  139.6870  142.9231 LP  0  0  0  0  0  0  0  0  0  0  0  0  # atno 17321 bound_to 7965
  140.7685  143.5546  150.9166 LP  0  0  0  0  0  0  0  0  0  0  0  0  # atno 17342 bound_to 10162
  139.9224  143.6590  152.3094 LP  0  0  0  0  0  0  0  0  0  0  0  0  # atno 17343 bound_to 10162
  157.2464  131.0537  151.2406 LP  0  0  0  0  0  0  0  0  0  0  0  0  # atno 17370 bound_to 10713
  157.3571  130.7112  149.6477 LP  0  0  0  0  0  0  0  0  0  0  0  0  # atno 17371 bound_to 10713
  139.9314  135.0199  156.8412 LP  0  0  0  0  0  0  0  0  0  0  0  0  # atno 17394 bound_to 11000
  140.6142  134.0054  155.7590 LP  0  0  0  0  0  0  0  0  0  0  0  0  # atno 17395 bound_to 11000

$$$$
