AV-unprocessed.smi:3354|AV-procd|sdf|12958|dock1
  -GOLD-   2272019393D 1   1.00000     0.00000
 Structure written by MMmdl.
 38 40  0  0  0  0  0  0  0  0  1 V2000
  151.2927  142.8644  157.2642 C   0  0  0  0  0  0  0  0  0  0  0  0
  151.1226  141.3606  157.2472 C   0  0  1  0  0  0  0  0  0  0  0  0
  149.8028  140.7505  157.6549 C   0  0  0  0  0  0  0  0  0  0  0  0
  150.2390  140.6901  156.2091 C   0  0  2  0  0  0  0  0  0  0  0  0
  150.5680  139.4039  155.6690 N   0  0  0  0  0  0  0  0  0  0  0  0
  149.6786  138.2574  155.7928 C   0  0  0  0  0  0  0  0  0  0  0  0
  150.5434  137.0262  155.4607 C   0  0  1  0  0  0  0  0  0  0  0  0
  149.8607  136.0980  154.5631 N   0  0  0  0  0  0  0  0  0  0  0  0
  149.6406  134.8014  154.8228 C   0  0  0  0  0  0  0  0  0  0  0  0
  149.9769  134.2562  155.8735 O   0  0  0  0  0  0  0  0  0  0  0  0
  149.0014  134.2046  153.8017 N   0  0  0  0  0  0  0  0  0  0  0  0
  148.6090  132.8448  153.6635 C   0  0  0  0  0  0  0  0  0  0  0  0
  149.3052  131.7454  154.2233 C   0  0  0  0  0  0  0  0  0  0  0  0
  148.8170  130.4442  153.9961 C   0  0  0  0  0  0  0  0  0  0  0  0
  147.6565  130.2875  153.2139 C   0  0  0  0  0  0  0  0  0  0  0  0
  146.9891  131.3240  152.6651 N   0  0  0  0  0  0  0  0  0  0  0  0
  147.4633  132.5684  152.8870 C   0  0  0  0  0  0  0  0  0  0  0  0
  151.8239  137.5887  154.8303 C   0  0  0  0  0  0  0  0  0  0  0  0
  151.7619  139.0689  155.1667 C   0  0  0  0  0  0  0  0  0  0  0  0
  152.7149  139.8285  154.9972 O   0  0  0  0  0  0  0  0  0  0  0  0
  150.3776  143.3621  156.9412 H   0  0  0  0  0  0  0  0  0  0  0  0
  152.1016  143.1560  156.5941 H   0  0  0  0  0  0  0  0  0  0  0  0
  151.5357  143.2028  158.2716 H   0  0  0  0  0  0  0  0  0  0  0  0
  152.0075  140.8250  157.5843 H   0  0  0  0  0  0  0  0  0  0  0  0
  149.8367  139.8304  158.2354 H   0  0  0  0  0  0  0  0  0  0  0  0
  148.9833  141.4232  157.9003 H   0  0  0  0  0  0  0  0  0  0  0  0
  149.7247  141.3660  155.5270 H   0  0  0  0  0  0  0  0  0  0  0  0
  149.2596  138.1831  156.7972 H   0  0  0  0  0  0  0  0  0  0  0  0
  148.8537  138.3755  155.0880 H   0  0  0  0  0  0  0  0  0  0  0  0
  150.8111  136.5108  156.3854 H   0  0  0  0  0  0  0  0  0  0  0  0
  149.5458  136.4672  153.6779 H   0  0  0  0  0  0  0  0  0  0  0  0
  148.7310  134.8078  153.0387 H   0  0  0  0  0  0  0  0  0  0  0  0
  150.2040  131.8662  154.8069 H   0  0  0  0  0  0  0  0  0  0  0  0
  149.3241  129.5848  154.4089 H   0  0  0  0  0  0  0  0  0  0  0  0
  147.2569  129.3033  153.0192 H   0  0  0  0  0  0  0  0  0  0  0  0
  146.9054  133.3722  152.4291 H   0  0  0  0  0  0  0  0  0  0  0  0
  152.7213  137.1250  155.2413 H   0  0  0  0  0  0  0  0  0  0  0  0
  151.8380  137.4735  153.7457 H   0  0  0  0  0  0  0  0  0  0  0  0
  1  2  1  0  0  0  0
  1 21  1  0  0  0  0
  1 22  1  0  0  0  0
  1 23  1  0  0  0  0
  2  4  1  0  0  0  0
  2  3  1  0  0  0  0
  2 24  1  0  0  0  0
  3  4  1  0  0  0  0
  3 25  1  0  0  0  0
  3 26  1  0  0  0  0
  4  5  1  0  0  0  0
  4 27  1  0  0  0  0
  5 19  1  0  0  0  0
  5  6  1  0  0  0  0
  6  7  1  0  0  0  0
  6 28  1  0  0  0  0
  6 29  1  0  0  0  0
  7  8  1  0  0  0  0
  7 18  1  0  0  0  0
  7 30  1  0  0  0  0
  8  9  1  0  0  0  0
  8 31  1  0  0  0  0
  9 10  2  0  0  0  0
  9 11  1  0  0  0  0
 11 12  1  0  0  0  0
 11 32  1  0  0  0  0
 12 17  1  0  0  0  0
 12 13  2  0  0  0  0
 13 14  1  0  0  0  0
 13 33  1  0  0  0  0
 14 15  2  0  0  0  0
 14 34  1  0  0  0  0
 15 16  1  0  0  0  0
 15 35  1  0  0  0  0
 16 17  2  0  0  0  0
 17 36  1  0  0  0  0
 18 19  1  0  0  0  0
 18 37  1  0  0  0  0
 18 38  1  0  0  0  0
 19 20  2  0  0  0  0
M  END
> <s_m_source_file>
AV-unprocessed.smi

> <i_m_source_file_index>
3354

> <i_lp_mmshare_version>
43012

> <i_f3d_flags>
0

> <s_epik_input>
W0NIM11bQ0BASF0xW0NIMl1bQ0BIXTFOMltDSDJdW0NASF0oW0NIMl1DMj1PKVtOSF1DKD1PKVtOSF1jM1tjSF1bY0hdW2NIXW5bY0hdMw==

> <s_epik_cmdline>
J2VwaWtfcHl0aG9uJywgJy1waCcsICc3LjAnLCAnLXRuJywgJzgnLCAnLW1hJywgJzIwMCcsICctbWV0YWxfYmluZGluZycsICctaW1hZScsICc8aW5maWxlLm1hZT4nLCAnLW9tYWUnLCAnPG91dGZpbGUubWFlPic=

> <r_epik_Ionization_Penalty>
0.00456191

> <r_epik_Ionization_Penalty_Charging>
0

> <r_epik_Ionization_Penalty_Neutral>
0.00456191

> <r_epik_State_Penalty>
0.00327094

> <r_epik_Charging_Adjusted_Penalty>
0.00327094

> <i_epik_Tot_Q>
0

> <i_epik_Tot_abs_Q>
0

> <r_epik_Metal_State_Penalty>
-0

> <b_epik_Metal_Only>
0

> <s_lp_Force_Field>
OPLS_2005

> <r_lp_Energy>
42.9067

> <b_lp_Chiralities_Consistent>
1

> <s_lp_Variant>
AV-unprocessed.smi:3354-4

> <Gold.Version>
5.8.1

> <Gold.Id.Protein>
6NUR|6NUR_protein|mol2

> <Gold.PLP.Fitness>
43.2322

> <Gold.PLP.PLP>
-33.6349

> <Gold.PLP.part.hbond>
-4.0964

> <Gold.PLP.part.metal>
0.0000

> <Gold.PLP.part.buried>
-2.5745

> <Gold.PLP.part.nonpolar>
-27.5557

> <Gold.PLP.part.repulsive>
0.3451

> <Gold.PLP.ligand.clash>
0.0000

> <Gold.PLP.ligand.torsion>
0.2874

> <Gold.PLP.Chemscore.Hbond>
3.3328

> <Gold.PLP.Chemscore.CHOScore>
0.0000

> <Gold.PLP.Chemscore.Metal>
0.0000

> <Gold.Chemscore.Hbonds>
donor molecule, donor type, donor heavy atom, donor atom, acceptor molecule, acceptor atom, score
      L1  H     8    31       P1  7948  1.00
      L1  H    11    32       P1  7948  1.00
      P1  H  7989  7998       L1    20  0.26
      P1  H  7997  8009       L1    20  1.00

> <Gold.PLP.Chemscore.Internal.Correction>
0.1736

> <Gold.Rescore>
     Score         DG    S(hbond)    S(metal)    S(lipo)     H(rot)  DE(clash)    DE(int)     intcor
     17.90     -18.28       2.55        0.00      63.60       1.24       0.05       0.33       ----

> <Gold.Chemscore.Fitness>
17.8974

> <Gold.Chemscore.DG>
-18.2776

> <Gold.Chemscore.ZeroCoef>
-5.4800

> <Gold.Chemscore.Hbond>
2.5511

> <Gold.Chemscore.Metal>
0.0000

> <Gold.Chemscore.Lipo>
63.6017

> <Gold.Chemscore.Internal_Hbond>
0.0000

> <Gold.Chemscore.DEClash>
0.0486

> <Gold.Chemscore.DEInternal>
0.3316

> <Gold.Chemscore.Rot>
1.2361

> <Gold.Chemscore.Internal.Correction>
   9.000000E+99

> <Gold.Chemscore.Hbonds>
donor molecule, donor type, donor heavy atom, donor atom, acceptor molecule, acceptor atom, score
      L1  H     8    31       P1  7948  0.67
      L1  H    11    32       P1  7948  0.25
      P1  H  7989  7998       L1    20  0.02
      P1  H  7997  8009       L1    20  0.97

> <Gold.Chemscore.Hbond.Weighted>
-8.5205

> <Gold.Chemscore.Metal.Weighted>
-0.0000

> <Gold.Chemscore.Lipo.Weighted>
-7.4414

> <Gold.Chemscore.Internal_Hbond.Weighted>
0.0000

> <Gold.Chemscore.DEClash.Weighted>
0.0486

> <Gold.Chemscore.DEInternal.Weighted>
0.3316

> <Gold.Chemscore.Rot.Weighted>
3.1643

> <Gold.Chemscore.Internal.Correction.Weighted>
   9.000000E+99

> <Gold.Protein.RotatedTorsions>
[ 6907 6896 6895 6894 ] final  124.77 input  -60.11 | X-H torsion
[ 7974 7965 7964 7962 ] final   70.03 input  175.53 | X-H torsion
[ 8008 7997 7996 7995 ] final -136.12 input   59.86 | X-H torsion
[ 10167 10162 10161 10158 ] final  167.59 input  -65.29 | X-H torsion
[ 10718 10713 10712 10709 ] final    5.56 input   66.30 | X-H torsion
[ 10763 10752 10751 10750 ] final -136.24 input  -60.55 | X-H torsion
[ 11005 11000 10999 10996 ] final  145.09 input  -57.11 | X-H torsion

> <Gold.Protein.ActiveResidues>
 VAL166  LYS551  ARG553  GLY616  TRP617  ASP618  TYR619  PRO620  LYS621  CYS622 
 ASP623  PHE694  ASN695  SER759  ASP760  ASP761  ALA762  ILE779  LEU786  VAL792 
 PHE793  MET794  SER795  GLU796  ALA797  LYS798  CYS799  TRP800  GLU811  SER814 

> <Gold.Protein.RotatedAtoms>
  152.4049  133.6874  159.6347 H   0  0  0  0  0  0  0  0  0  0  0  0  # atno 6907 bound_to 6896
  150.7935  133.8726  159.3272 H   0  0  0  0  0  0  0  0  0  0  0  0  # atno 6908 bound_to 6896
  151.6483  135.1006  160.0207 H   0  0  0  0  0  0  0  0  0  0  0  0  # atno 6909 bound_to 6896
  145.7831  139.2897  143.1254 H   0  0  0  0  0  0  0  0  0  0  0  0  # atno 7974 bound_to 7965
  155.3900  140.0499  157.3041 H   0  0  0  0  0  0  0  0  0  0  0  0  # atno 8008 bound_to 7997
  154.5041  140.2167  155.9249 H   0  0  0  0  0  0  0  0  0  0  0  0  # atno 8009 bound_to 7997
  156.1503  140.3137  155.8643 H   0  0  0  0  0  0  0  0  0  0  0  0  # atno 8010 bound_to 7997
  139.4948  144.3906  151.9522 H   0  0  0  0  0  0  0  0  0  0  0  0  # atno 10167 bound_to 10162
  156.9093  130.5750  149.5647 H   0  0  0  0  0  0  0  0  0  0  0  0  # atno 10718 bound_to 10713
  154.8688  135.3679  154.5028 H   0  0  0  0  0  0  0  0  0  0  0  0  # atno 10763 bound_to 10752
  153.5668  135.7021  153.5527 H   0  0  0  0  0  0  0  0  0  0  0  0  # atno 10764 bound_to 10752
  153.3578  135.4054  155.1658 H   0  0  0  0  0  0  0  0  0  0  0  0  # atno 10765 bound_to 10752
  140.0684  134.9165  157.1303 H   0  0  0  0  0  0  0  0  0  0  0  0  # atno 11005 bound_to 11000
  146.0054  140.8483  142.9998 LP  0  0  0  0  0  0  0  0  0  0  0  0  # atno 17320 bound_to 7965
  144.6793  140.2412  143.7343 LP  0  0  0  0  0  0  0  0  0  0  0  0  # atno 17321 bound_to 7965
  140.3343  144.3279  150.5980 LP  0  0  0  0  0  0  0  0  0  0  0  0  # atno 17342 bound_to 10162
  140.5619  143.2191  151.7751 LP  0  0  0  0  0  0  0  0  0  0  0  0  # atno 17343 bound_to 10162
  156.0544  130.5608  150.9059 LP  0  0  0  0  0  0  0  0  0  0  0  0  # atno 17370 bound_to 10713
  157.5978  131.0942  150.9012 LP  0  0  0  0  0  0  0  0  0  0  0  0  # atno 17371 bound_to 10713
  140.3664  134.2438  155.7182 LP  0  0  0  0  0  0  0  0  0  0  0  0  # atno 17394 bound_to 11000
  141.2002  133.7993  157.0500 LP  0  0  0  0  0  0  0  0  0  0  0  0  # atno 17395 bound_to 11000

$$$$
