AV-unprocessed.smi:481|AV-procd|sdf|2683|dock6
  -GOLD-   2262023113D 1   1.00000     0.00000
 Structure written by MMmdl.
 42 44  0  0  0  0  0  0  0  0  2 V2000
  152.6904  138.8010  154.9627 C   0  0  0  0  0  0  0  0  0  0  0  0
  151.3149  138.4630  154.8730 O   0  0  0  0  0  0  0  0  0  0  0  0
  150.4493  139.5868  154.7938 C   0  0  0  0  0  0  0  0  0  0  0  0
  150.4118  140.3770  156.1132 C   0  0  0  0  0  0  0  0  0  0  0  0
  150.1832  139.4976  157.2550 N   0  0  0  0  0  0  0  0  0  0  0  0
  150.9770  139.3304  158.3429 C   0  0  0  0  0  0  0  0  0  0  0  0
  152.1744  140.0531  158.4407 N   0  0  0  0  0  0  0  0  0  0  0  0
  152.9978  139.9341  159.4831 N   0  0  0  0  0  0  0  0  0  0  0  0
  153.2862  140.9378  160.2469 C   0  0  0  0  0  0  0  0  0  0  0  0
  152.9001  142.3524  160.0573 C   0  0  0  0  0  0  0  0  0  0  0  0
  152.8619  142.9680  158.7836 C   0  0  0  0  0  0  0  0  0  0  0  0
  152.4881  144.3195  158.6548 C   0  0  0  0  0  0  0  0  0  0  0  0
  152.1601  145.0721  159.7977 C   0  0  0  0  0  0  0  0  0  0  0  0
  152.2128  144.4735  161.0703 C   0  0  0  0  0  0  0  0  0  0  0  0
  152.5864  143.1216  161.1989 C   0  0  0  0  0  0  0  0  0  0  0  0
  150.5065  138.4571  159.2402 N   0  0  0  0  0  0  0  0  0  0  0  0
  149.3159  138.0331  158.6697 C   0  0  0  0  0  0  0  0  0  0  0  0
  149.1037  138.6373  157.4706 C   0  0  0  0  0  0  0  0  0  0  0  0
  147.9285  138.3769  156.6117 C   0  0  0  0  0  0  0  0  0  0  0  0
  147.7991  138.9402  155.5264 O   0  0  0  0  0  0  0  0  0  0  0  0
  147.0701  137.4683  157.1747 N   0  5  0  0  0  0  0  0  0  0  0  0
  147.2412  136.8361  158.3882 C   0  0  0  0  0  0  0  0  0  0  0  0
  146.4193  136.0276  158.8217 O   0  0  0  0  0  0  0  0  0  0  0  0
  148.3517  137.1034  159.1455 N   0  0  0  0  0  0  0  0  0  0  0  0
  148.5601  136.4478  160.4397 C   0  0  0  0  0  0  0  0  0  0  0  0
  153.2887  137.8904  154.9437 H   0  0  0  0  0  0  0  0  0  0  0  0
  152.9204  139.3257  155.8896 H   0  0  0  0  0  0  0  0  0  0  0  0
  153.0028  139.4226  154.1227 H   0  0  0  0  0  0  0  0  0  0  0  0
  150.7251  140.2263  153.9541 H   0  0  0  0  0  0  0  0  0  0  0  0
  149.4486  139.2119  154.5776 H   0  0  0  0  0  0  0  0  0  0  0  0
  151.3475  140.9188  156.2498 H   0  0  0  0  0  0  0  0  0  0  0  0
  149.6368  141.1412  156.1036 H   0  0  0  0  0  0  0  0  0  0  0  0
  152.5693  140.2914  157.5423 H   0  0  0  0  0  0  0  0  0  0  0  0
  153.8721  140.7208  161.1403 H   0  0  0  0  0  0  0  0  0  0  0  0
  153.1210  142.4118  157.8949 H   0  0  0  0  0  0  0  0  0  0  0  0
  152.4552  144.7787  157.6780 H   0  0  0  0  0  0  0  0  0  0  0  0
  151.8723  146.1084  159.6986 H   0  0  0  0  0  0  0  0  0  0  0  0
  151.9649  145.0506  161.9490 H   0  0  0  0  0  0  0  0  0  0  0  0
  152.6188  142.6750  162.1824 H   0  0  0  0  0  0  0  0  0  0  0  0
  148.6266  135.3666  160.3126 H   0  0  0  0  0  0  0  0  0  0  0  0
  147.7312  136.6621  161.1157 H   0  0  0  0  0  0  0  0  0  0  0  0
  149.4743  136.7752  160.9342 H   0  0  0  0  0  0  0  0  0  0  0  0
  1  2  1  0  0  0  0
  1 26  1  0  0  0  0
  1 27  1  0  0  0  0
  1 28  1  0  0  0  0
  2  3  1  0  0  0  0
  3  4  1  0  0  0  0
  3 29  1  0  0  0  0
  3 30  1  0  0  0  0
  4  5  1  0  0  0  0
  4 31  1  0  0  0  0
  4 32  1  0  0  0  0
  5 18  1  0  0  0  0
  5  6  1  0  0  0  0
  6  7  1  0  0  0  0
  6 16  2  0  0  0  0
  7  8  1  0  0  0  0
  7 33  1  0  0  0  0
  8  9  2  0  0  0  0
  9 10  1  0  0  0  0
  9 34  1  0  0  0  0
 10 15  1  0  0  0  0
 10 11  2  0  0  0  0
 11 12  1  0  0  0  0
 11 35  1  0  0  0  0
 12 13  2  0  0  0  0
 12 36  1  0  0  0  0
 13 14  1  0  0  0  0
 13 37  1  0  0  0  0
 14 15  2  0  0  0  0
 14 38  1  0  0  0  0
 15 39  1  0  0  0  0
 16 17  1  0  0  0  0
 17 24  1  0  0  0  0
 17 18  2  0  0  0  0
 18 19  1  0  0  0  0
 19 20  2  0  0  0  0
 19 21  1  0  0  0  0
 21 22  1  0  0  0  0
 22 23  2  0  0  0  0
 22 24  1  0  0  0  0
 24 25  1  0  0  0  0
 25 40  1  0  0  0  0
 25 41  1  0  0  0  0
 25 42  1  0  0  0  0
M  CHG  1  21  -1
M  END
> <s_m_source_file>
AV-unprocessed.smi

> <i_m_source_file_index>
481

> <i_lp_mmshare_version>
43012

> <i_f3d_flags>
0

> <s_epik_input>
W0NIM11uMWMoPU8pW25IXWMoPU8pYyhjMTIpbihbQ0gyXVtDSDJdT1tDSDNdKWMobjIpW05IXS9OPVtDSF0vYzNbY0hdW2NIXVtjSF1bY0hdW2NIXTM=

> <s_epik_cmdline>
J2VwaWtfcHl0aG9uJywgJy1waCcsICc3LjAnLCAnLXRuJywgJzgnLCAnLW1hJywgJzIwMCcsICctbWV0YWxfYmluZGluZycsICctaW1hZScsICc8aW5maWxlLm1hZT4nLCAnLW9tYWUnLCAnPG91dGZpbGUubWFlPic=

> <r_epik_Ionization_Penalty>
4.48471

> <r_epik_Ionization_Penalty_Charging>
4.58449e-09

> <r_epik_Ionization_Penalty_Neutral>
4.48471

> <r_epik_State_Penalty>
4.48428

> <r_epik_Charging_Adjusted_Penalty>
4.48428

> <i_epik_Tot_Q>
-1

> <i_epik_Tot_abs_Q>
1

> <r_epik_Metal_State_Penalty>
0.811551

> <b_epik_Metal_Only>
1

> <s_epik_Chemistry_Notes>
This compound has an imine and may undergo hydrolysis.

> <s_lp_Force_Field>
OPLS_2005

> <r_lp_Energy>
49.411

> <b_lp_Chiralities_Consistent>
1

> <s_lp_Variant>
AV-unprocessed.smi:481-4

> <Gold.Version>
5.8.1

> <Gold.Id.Protein>
6NUR|6NUR_protein|mol2

> <Gold.PLP.Fitness>
44.6997

> <Gold.PLP.PLP>
-45.3811

> <Gold.PLP.part.hbond>
-0.8652

> <Gold.PLP.part.metal>
0.0000

> <Gold.PLP.part.buried>
-6.1085

> <Gold.PLP.part.nonpolar>
-39.3716

> <Gold.PLP.part.repulsive>
0.2292

> <Gold.PLP.ligand.clash>
0.0000

> <Gold.PLP.ligand.torsion>
0.6125

> <Gold.PLP.Chemscore.Hbond>
0.0000

> <Gold.PLP.Chemscore.CHOScore>
0.0000

> <Gold.PLP.Chemscore.Metal>
0.0000

> <Gold.PLP.Chemscore.Internal.Correction>
0.5435

> <Gold.Rescore>
     Score         DG    S(hbond)    S(metal)    S(lipo)     H(rot)  DE(clash)    DE(int)     intcor
     12.50     -14.83       0.00        0.00     113.28       1.52       0.10       2.23       ----

> <Gold.Chemscore.Fitness>
12.5023

> <Gold.Chemscore.DG>
-14.8345

> <Gold.Chemscore.ZeroCoef>
-5.4800

> <Gold.Chemscore.Hbond>
0.0000

> <Gold.Chemscore.Metal>
0.0000

> <Gold.Chemscore.Lipo>
113.2768

> <Gold.Chemscore.Internal_Hbond>
0.0000

> <Gold.Chemscore.DEClash>
0.1044

> <Gold.Chemscore.DEInternal>
2.2279

> <Gold.Chemscore.Rot>
1.5230

> <Gold.Chemscore.Internal.Correction>
   9.000000E+99

> <Gold.Chemscore.Hbond.Weighted>
-0.0000

> <Gold.Chemscore.Metal.Weighted>
-0.0000

> <Gold.Chemscore.Lipo.Weighted>
-13.2534

> <Gold.Chemscore.Internal_Hbond.Weighted>
0.0000

> <Gold.Chemscore.DEClash.Weighted>
0.1044

> <Gold.Chemscore.DEInternal.Weighted>
2.2279

> <Gold.Chemscore.Rot.Weighted>
3.8989

> <Gold.Chemscore.Internal.Correction.Weighted>
   9.000000E+99

> <Gold.Protein.RotatedTorsions>
[ 6907 6896 6895 6894 ] final  -20.44 input  -60.11 | X-H torsion
[ 7974 7965 7964 7962 ] final  -75.46 input  175.53 | X-H torsion
[ 8008 7997 7996 7995 ] final  179.14 input   59.86 | X-H torsion
[ 10167 10162 10161 10158 ] final  101.48 input  -65.29 | X-H torsion
[ 10718 10713 10712 10709 ] final  -96.99 input   66.30 | X-H torsion
[ 10763 10752 10751 10750 ] final -124.85 input  -60.55 | X-H torsion
[ 11005 11000 10999 10996 ] final   91.06 input  -57.11 | X-H torsion

> <Gold.Protein.ActiveResidues>
 VAL166  LYS551  ARG553  GLY616  TRP617  ASP618  TYR619  PRO620  LYS621  CYS622 
 ASP623  PHE694  ASN695  SER759  ASP760  ASP761  ALA762  ILE779  LEU786  VAL792 
 PHE793  MET794  SER795  GLU796  ALA797  LYS798  CYS799  TRP800  GLU811  SER814 

> <Gold.Protein.RotatedAtoms>
  151.2482  135.0613  159.9051 H   0  0  0  0  0  0  0  0  0  0  0  0  # atno 6907 bound_to 6896
  152.5384  134.0361  159.8057 H   0  0  0  0  0  0  0  0  0  0  0  0  # atno 6908 bound_to 6896
  151.0565  133.5531  159.2669 H   0  0  0  0  0  0  0  0  0  0  0  0  # atno 6909 bound_to 6896
  145.6256  140.9351  143.1114 H   0  0  0  0  0  0  0  0  0  0  0  0  # atno 7974 bound_to 7965
  156.0467  140.1316  157.0096 H   0  0  0  0  0  0  0  0  0  0  0  0  # atno 8008 bound_to 7997
  154.4416  140.1019  156.6387 H   0  0  0  0  0  0  0  0  0  0  0  0  # atno 8009 bound_to 7997
  155.5585  140.3464  155.4488 H   0  0  0  0  0  0  0  0  0  0  0  0  # atno 8010 bound_to 7997
  139.7434  144.7005  151.0540 H   0  0  0  0  0  0  0  0  0  0  0  0  # atno 10167 bound_to 10162
  156.0074  130.5175  150.6308 H   0  0  0  0  0  0  0  0  0  0  0  0  # atno 10718 bound_to 10713
  154.8728  135.4050  154.3172 H   0  0  0  0  0  0  0  0  0  0  0  0  # atno 10763 bound_to 10752
  153.4006  135.7018  153.6434 H   0  0  0  0  0  0  0  0  0  0  0  0  # atno 10764 bound_to 10752
  153.5178  135.3693  155.2588 H   0  0  0  0  0  0  0  0  0  0  0  0  # atno 10765 bound_to 10752
  139.8845  134.8651  156.3374 H   0  0  0  0  0  0  0  0  0  0  0  0  # atno 11005 bound_to 11000
  144.7213  139.8020  143.7381 LP  0  0  0  0  0  0  0  0  0  0  0  0  # atno 17320 bound_to 7965
  146.1397  139.4450  143.0117 LP  0  0  0  0  0  0  0  0  0  0  0  0  # atno 17321 bound_to 7965
  140.7789  143.4896  150.9910 LP  0  0  0  0  0  0  0  0  0  0  0  0  # atno 17342 bound_to 10162
  139.8584  143.7346  152.3175 LP  0  0  0  0  0  0  0  0  0  0  0  0  # atno 17343 bound_to 10162
  157.4106  131.0823  151.1224 LP  0  0  0  0  0  0  0  0  0  0  0  0  # atno 17370 bound_to 10713
  157.1857  130.6329  149.5687 LP  0  0  0  0  0  0  0  0  0  0  0  0  # atno 17371 bound_to 10713
  140.9682  133.7344  156.0496 LP  0  0  0  0  0  0  0  0  0  0  0  0  # atno 17394 bound_to 11000
  140.7905  134.3623  157.5466 LP  0  0  0  0  0  0  0  0  0  0  0  0  # atno 17395 bound_to 11000

$$$$
