AV-unprocessed.smi:2424|AV-procd|sdf|9560|dock10
  -GOLD-   2272013193D 1   1.00000     0.00000
 Structure written by MMmdl.
 50 51  0  0  0  0  0  0  0  0  1 V2000
  148.6014  137.0663  156.3711 C   0  0  0  0  0  0  0  0  0  0  0  0
  148.8247  138.5869  156.3540 C   0  0  0  0  0  0  0  0  0  0  0  0
  148.8764  139.2306  154.9492 C   0  0  0  0  0  0  0  0  0  0  0  0
  150.0425  138.5950  154.1463 C   0  0  0  0  0  0  0  0  0  0  0  0
  151.4472  138.8433  154.7204 C   0  0  0  0  0  0  0  0  0  0  0  0
  147.5033  139.3205  154.2297 C   0  0  2  0  0  0  0  0  0  0  0  0
  147.3181  138.3471  153.1565 N   0  0  0  0  0  0  0  0  0  0  0  0
  146.3984  137.3733  153.1469 C   0  0  0  0  0  0  0  0  0  0  0  0
  145.5807  137.2078  154.0511 O   0  0  0  0  0  0  0  0  0  0  0  0
  146.5037  136.6296  152.0308 N   0  0  0  0  0  0  0  0  0  0  0  0
  145.7693  135.4988  151.6472 C   0  0  0  0  0  0  0  0  0  0  0  0
  144.5891  135.6978  151.0354 C   0  0  0  0  0  0  0  0  0  0  0  0
  143.7912  134.6308  150.6164 N   0  0  0  0  0  0  0  0  0  0  0  0
  144.1182  133.3285  150.7763 C   0  0  0  0  0  0  0  0  0  0  0  0
  143.3607  132.4433  150.3828 O   0  0  0  0  0  0  0  0  0  0  0  0
  145.4110  133.0768  151.4337 C   0  0  0  0  0  0  0  0  0  0  0  0
  145.8418  131.6340  151.6302 C   0  0  0  0  0  0  0  0  0  0  0  0
  146.1821  134.1120  151.8404 C   0  0  0  0  0  0  0  0  0  0  0  0
  147.8841  140.7053  153.6996 C   0  0  1  0  0  0  0  0  0  0  0  0
  146.8078  141.7656  153.5021 C   0  0  0  0  0  0  0  0  0  0  0  0
  148.8436  140.7877  154.8978 C   0  0  1  0  0  0  0  0  0  0  0  0
  148.1995  141.3950  156.0122 O   0  0  0  0  0  0  0  0  0  0  0  0
  149.0569  141.5471  157.1309 C   0  0  0  0  0  0  0  0  0  0  0  0
  142.9152  134.8602  150.1697 H   0  0  0  0  0  0  0  0  0  0  0  0
  148.4886  136.7105  157.3951 H   0  0  0  0  0  0  0  0  0  0  0  0
  149.4389  136.5234  155.9347 H   0  0  0  0  0  0  0  0  0  0  0  0
  147.6979  136.7892  155.8301 H   0  0  0  0  0  0  0  0  0  0  0  0
  148.0082  139.0273  156.9264 H   0  0  0  0  0  0  0  0  0  0  0  0
  149.7203  138.8236  156.9264 H   0  0  0  0  0  0  0  0  0  0  0  0
  149.8941  137.5222  154.0264 H   0  0  0  0  0  0  0  0  0  0  0  0
  150.0449  138.9820  153.1275 H   0  0  0  0  0  0  0  0  0  0  0  0
  152.2085  138.4689  154.0358 H   0  0  0  0  0  0  0  0  0  0  0  0
  151.5949  138.3306  155.6704 H   0  0  0  0  0  0  0  0  0  0  0  0
  151.6397  139.9048  154.8750 H   0  0  0  0  0  0  0  0  0  0  0  0
  146.6713  139.3841  154.9352 H   0  0  0  0  0  0  0  0  0  0  0  0
  147.9475  138.4147  152.3703 H   0  0  0  0  0  0  0  0  0  0  0  0
  147.2115  136.9163  151.3707 H   0  0  0  0  0  0  0  0  0  0  0  0
  144.1667  136.6698  150.8249 H   0  0  0  0  0  0  0  0  0  0  0  0
  146.8158  131.5706  152.1164 H   0  0  0  0  0  0  0  0  0  0  0  0
  145.9111  131.1229  150.6694 H   0  0  0  0  0  0  0  0  0  0  0  0
  145.1202  131.1023  152.2514 H   0  0  0  0  0  0  0  0  0  0  0  0
  147.1241  133.8741  152.3061 H   0  0  0  0  0  0  0  0  0  0  0  0
  148.4767  140.6073  152.7882 H   0  0  0  0  0  0  0  0  0  0  0  0
  146.1535  141.8421  154.3707 H   0  0  0  0  0  0  0  0  0  0  0  0
  146.1814  141.5307  152.6416 H   0  0  0  0  0  0  0  0  0  0  0  0
  147.2487  142.7480  153.3325 H   0  0  0  0  0  0  0  0  0  0  0  0
  149.7868  141.2664  154.6295 H   0  0  0  0  0  0  0  0  0  0  0  0
  148.4974  141.9672  157.9664 H   0  0  0  0  0  0  0  0  0  0  0  0
  149.8785  142.2267  156.9018 H   0  0  0  0  0  0  0  0  0  0  0  0
  149.4757  140.5931  157.4514 H   0  0  0  0  0  0  0  0  0  0  0  0
  1  2  1  0  0  0  0
  1 25  1  0  0  0  0
  1 26  1  0  0  0  0
  1 27  1  0  0  0  0
  2  3  1  0  0  0  0
  2 28  1  0  0  0  0
  2 29  1  0  0  0  0
  3 21  1  0  0  0  0
  3  4  1  0  0  0  0
  3  6  1  0  0  0  0
  4  5  1  0  0  0  0
  4 30  1  0  0  0  0
  4 31  1  0  0  0  0
  5 32  1  0  0  0  0
  5 33  1  0  0  0  0
  5 34  1  0  0  0  0
  6  7  1  0  0  0  0
  6 19  1  0  0  0  0
  6 35  1  0  0  0  0
  7  8  1  0  0  0  0
  7 36  1  0  0  0  0
  8  9  2  0  0  0  0
  8 10  1  0  0  0  0
 10 11  1  0  0  0  0
 10 37  1  0  0  0  0
 11 18  1  0  0  0  0
 11 12  2  0  0  0  0
 12 13  1  0  0  0  0
 12 38  1  0  0  0  0
 13 24  1  0  0  0  0
 13 14  1  0  0  0  0
 14 15  2  0  0  0  0
 14 16  1  0  0  0  0
 16 17  1  0  0  0  0
 16 18  2  0  0  0  0
 17 39  1  0  0  0  0
 17 40  1  0  0  0  0
 17 41  1  0  0  0  0
 18 42  1  0  0  0  0
 19 20  1  0  0  0  0
 19 21  1  0  0  0  0
 19 43  1  0  0  0  0
 20 44  1  0  0  0  0
 20 45  1  0  0  0  0
 20 46  1  0  0  0  0
 21 22  1  0  0  0  0
 21 47  1  0  0  0  0
 22 23  1  0  0  0  0
 23 48  1  0  0  0  0
 23 49  1  0  0  0  0
 23 50  1  0  0  0  0
M  END
> <s_m_source_file>
AV-unprocessed.smi

> <i_m_source_file_index>
2424

> <i_lp_mmshare_version>
43012

> <i_f3d_flags>
0

> <s_epik_input>
W0NIM11PW0NAQEhdMVtDQEhdKFtDSDNdKVtDQEBIXShDMShbQ0gyXVtDSDNdKVtDSDJdW0NIM10pW05IXUMoPU8pW05IXWMyW2NIXVtuSF1jKD1PKWMoW0NIM10pW2NIXTI=

> <s_epik_cmdline>
J2VwaWtfcHl0aG9uJywgJy1waCcsICc3LjAnLCAnLXRuJywgJzgnLCAnLW1hJywgJzIwMCcsICctbWV0YWxfYmluZGluZycsICctaW1hZScsICc8aW5maWxlLm1hZT4nLCAnLW9tYWUnLCAnPG91dGZpbGUubWFlPic=

> <r_lp_tautomer_probability>
1

> <r_epik_Ionization_Penalty>
4.7326e-05

> <r_epik_Ionization_Penalty_Charging>
2.70169e-05

> <r_epik_Ionization_Penalty_Neutral>
2.0309e-05

> <r_epik_State_Penalty>
-0

> <r_epik_Charging_Adjusted_Penalty>
2.70169e-05

> <i_epik_Tot_Q>
0

> <i_epik_Tot_abs_Q>
0

> <r_epik_Metal_State_Penalty>
0.0198736

> <b_epik_Metal_Only>
0

> <s_lp_Force_Field>
OPLS_2005

> <r_lp_Energy>
37.5965

> <b_lp_Chiralities_Consistent>
1

> <s_lp_Variant>
AV-unprocessed.smi:2424-2

> <Gold.Version>
5.8.1

> <Gold.Id.Protein>
6NUR|6NUR_protein|mol2

> <Gold.PLP.Fitness>
38.7208

> <Gold.PLP.PLP>
-33.6998

> <Gold.PLP.part.hbond>
-2.8094

> <Gold.PLP.part.metal>
0.0000

> <Gold.PLP.part.buried>
-4.7902

> <Gold.PLP.part.nonpolar>
-26.6055

> <Gold.PLP.part.repulsive>
0.5281

> <Gold.PLP.ligand.clash>
0.0000

> <Gold.PLP.ligand.torsion>
1.1899

> <Gold.PLP.Chemscore.Hbond>
1.2313

> <Gold.PLP.Chemscore.CHOScore>
1.0000

> <Gold.PLP.Chemscore.Metal>
0.0000

> <Gold.Chemscore.Hbonds>
donor molecule, donor type, donor heavy atom, donor atom, acceptor molecule, acceptor atom, score
      L1  H    10    37       P1  7948  0.26
      L1  H    13    24       P1 10186  0.98
      L1  C    12    38       P1 10171  1.00

> <Gold.PLP.Chemscore.Internal.Correction>
0.7072

> <Gold.Rescore>
     Score         DG    S(hbond)    S(metal)    S(lipo)     H(rot)  DE(clash)    DE(int)     intcor
     13.25     -14.96       1.25        0.00      79.29       1.55       0.48       1.23       ----

> <Gold.Chemscore.Fitness>
13.2543

> <Gold.Chemscore.DG>
-14.9626

> <Gold.Chemscore.ZeroCoef>
-5.4800

> <Gold.Chemscore.Hbond>
1.2498

> <Gold.Chemscore.Metal>
0.0000

> <Gold.Chemscore.Lipo>
79.2880

> <Gold.Chemscore.Internal_Hbond>
0.0000

> <Gold.Chemscore.DEClash>
0.4808

> <Gold.Chemscore.DEInternal>
1.2276

> <Gold.Chemscore.Rot>
1.5502

> <Gold.Chemscore.Internal.Correction>
   9.000000E+99

> <Gold.Chemscore.Hbonds>
donor molecule, donor type, donor heavy atom, donor atom, acceptor molecule, acceptor atom, score
      L1  H     7    36       P1  7948  0.02
      L1  H    10    37       P1  7948  0.26
      L1  H    13    24       P1 10186  0.36

> <Gold.Chemscore.Hbond.Weighted>
-4.1744

> <Gold.Chemscore.Metal.Weighted>
-0.0000

> <Gold.Chemscore.Lipo.Weighted>
-9.2767

> <Gold.Chemscore.Internal_Hbond.Weighted>
0.0000

> <Gold.Chemscore.DEClash.Weighted>
0.4808

> <Gold.Chemscore.DEInternal.Weighted>
1.2276

> <Gold.Chemscore.Rot.Weighted>
3.9685

> <Gold.Chemscore.Internal.Correction.Weighted>
   9.000000E+99

> <Gold.Protein.RotatedTorsions>
[ 6907 6896 6895 6894 ] final -118.35 input  -60.11 | X-H torsion
[ 7974 7965 7964 7962 ] final -111.11 input  175.53 | X-H torsion
[ 8008 7997 7996 7995 ] final  148.47 input   59.86 | X-H torsion
[ 10167 10162 10161 10158 ] final   70.91 input  -65.29 | X-H torsion
[ 10718 10713 10712 10709 ] final   -6.82 input   66.30 | X-H torsion
[ 10763 10752 10751 10750 ] final  149.61 input  -60.55 | X-H torsion
[ 11005 11000 10999 10996 ] final  -87.77 input  -57.11 | X-H torsion

> <Gold.Protein.ActiveResidues>
 VAL166  LYS551  ARG553  GLY616  TRP617  ASP618  TYR619  PRO620  LYS621  CYS622 
 ASP623  PHE694  ASN695  SER759  ASP760  ASP761  ALA762  ILE779  LEU786  VAL792 
 PHE793  MET794  SER795  GLU796  ALA797  LYS798  CYS799  TRP800  GLU811  SER814 

> <Gold.Protein.RotatedAtoms>
  150.8213  133.8248  159.3137 H   0  0  0  0  0  0  0  0  0  0  0  0  # atno 6907 bound_to 6896
  151.6006  135.1046  160.0069 H   0  0  0  0  0  0  0  0  0  0  0  0  # atno 6908 bound_to 6896
  152.4301  133.7222  159.6596 H   0  0  0  0  0  0  0  0  0  0  0  0  # atno 6909 bound_to 6896
  145.1600  140.8873  143.3596 H   0  0  0  0  0  0  0  0  0  0  0  0  # atno 7974 bound_to 7965
  156.2790  140.2128  156.5703 H   0  0  0  0  0  0  0  0  0  0  0  0  # atno 8008 bound_to 7997
  154.7141  140.0509  157.0601 H   0  0  0  0  0  0  0  0  0  0  0  0  # atno 8009 bound_to 7997
  155.0566  140.3162  155.4677 H   0  0  0  0  0  0  0  0  0  0  0  0  # atno 8010 bound_to 7997
  140.0518  144.5305  150.7357 H   0  0  0  0  0  0  0  0  0  0  0  0  # atno 10167 bound_to 10162
  156.7262  130.5166  149.5856 H   0  0  0  0  0  0  0  0  0  0  0  0  # atno 10718 bound_to 10713
  154.0740  135.2864  155.3303 H   0  0  0  0  0  0  0  0  0  0  0  0  # atno 10763 bound_to 10752
  154.6728  135.5293  153.8163 H   0  0  0  0  0  0  0  0  0  0  0  0  # atno 10764 bound_to 10752
  153.0474  135.6562  154.0920 H   0  0  0  0  0  0  0  0  0  0  0  0  # atno 10765 bound_to 10752
  141.1612  133.7530  156.9354 H   0  0  0  0  0  0  0  0  0  0  0  0  # atno 11005 bound_to 11000
  145.0341  139.3316  143.6010 LP  0  0  0  0  0  0  0  0  0  0  0  0  # atno 17320 bound_to 7965
  146.3483  139.9689  142.8708 LP  0  0  0  0  0  0  0  0  0  0  0  0  # atno 17321 bound_to 7965
  140.7213  143.2591  151.4269 LP  0  0  0  0  0  0  0  0  0  0  0  0  # atno 17342 bound_to 10162
  139.5948  144.1421  152.2131 LP  0  0  0  0  0  0  0  0  0  0  0  0  # atno 17343 bound_to 10162
  156.1560  130.6342  151.0658 LP  0  0  0  0  0  0  0  0  0  0  0  0  # atno 17370 bound_to 10713
  157.6877  131.0819  150.7195 LP  0  0  0  0  0  0  0  0  0  0  0  0  # atno 17371 bound_to 10713
  140.1358  134.9326  157.2399 LP  0  0  0  0  0  0  0  0  0  0  0  0  # atno 17394 bound_to 11000
  140.2897  134.3254  155.7318 LP  0  0  0  0  0  0  0  0  0  0  0  0  # atno 17395 bound_to 11000

$$$$
