#       Name:                AV-unprocessed.smi:2558
#       Creating user name   scv26
#       Creation time:       Fri Mar 27 14:07:36 2020


#       File generated by GOLD software.
#

@<TRIPOS>MOLECULE
AV-unprocessed.smi:2558
    48    49     1
SMALL
NO_CHARGES


@<TRIPOS>ATOM
      1 ****        -2.4488   1.3859   1.0170 C.3            1 S1                 0.0000
      2 ****        -2.0425   1.4573  -0.7766 S.o2           1 S1                 0.0000
      3 ****        -2.6283   0.2762  -1.4305 O.2            1 S1                 0.0000
      4 ****        -2.3885   2.7972  -1.2763 O.2            1 S1                 0.0000
      5 ****        -0.2955   1.3060  -0.7723 N.am           1 S1                 0.0000
      6 ****         0.3810   0.0641  -0.8779 C.2            1 S1                 0.0000
      7 ****         1.5539   0.0087  -1.2546 O.2            1 S1                 0.0000
      8 ****        -0.3146  -1.0033  -0.4315 N.am           1 S1                 0.0000
      9 ****         0.0886  -2.2861  -0.3521 C.2            1 S1                 0.0000
     10 ****         1.2096  -2.6973  -0.6563 O.2            1 S1                 0.0000
     11 ****        -0.9057  -3.0546   0.1274 N.am           1 S1                 0.0000
     12 ****        -0.9113  -4.4531   0.3821 C.ar           1 S1                 0.0000
     13 ****        -1.9178  -4.9608   1.2294 C.ar           1 S1                 0.0000
     14 ****        -1.9619  -6.3426   1.4933 C.ar           1 S1                 0.0000
     15 ****        -0.9963  -7.1703   0.8891 C.ar           1 S1                 0.0000
     16 ****        -0.0356  -6.7048   0.0636 N.ar           1 S1                 0.0000
     17 ****         0.0016  -5.3777  -0.1847 C.ar           1 S1                 0.0000
     18 ****         0.4700   2.5543  -0.4933 C.3            1 S1                 0.0000
     19 ****         1.2151   3.0803  -1.7388 C.3            1 S1                 0.0000
     20 ****         1.9072   4.4192  -1.4343 C.3            1 S1                 0.0000
     21 ****         2.8366   4.3056  -0.2135 C.3            1 S1                 0.0000
     22 ****         2.0806   3.7931   1.0246 C.3            1 S1                 0.0000
     23 ****         1.3954   2.4464   0.7415 C.3            1 S1                 0.0000
     24 ****        -3.5267   1.4782   1.1477 H              1 S1                 0.0000
     25 ****        -1.9517   2.2051   1.5363 H              1 S1                 0.0000
     26 ****        -2.1140   0.4367   1.4341 H              1 S1                 0.0000
     27 ****        -1.2607  -0.8179  -0.1335 H              1 S1                 0.0000
     28 ****        -1.7497  -2.5682   0.3919 H              1 S1                 0.0000
     29 ****        -2.6468  -4.3006   1.6767 H              1 S1                 0.0000
     30 ****        -2.7177  -6.7582   2.1432 H              1 S1                 0.0000
     31 ****        -0.9991  -8.2350   1.0695 H              1 S1                 0.0000
     32 ****         0.7763  -5.0737  -0.8703 H              1 S1                 0.0000
     33 ****        -0.2508   3.3280  -0.2302 H              1 S1                 0.0000
     34 ****         1.9661   2.3668  -2.0758 H              1 S1                 0.0000
     35 ****         0.5160   3.2078  -2.5659 H              1 S1                 0.0000
     36 ****         2.4752   4.7492  -2.3044 H              1 S1                 0.0000
     37 ****         1.1540   5.1860  -1.2492 H              1 S1                 0.0000
     38 ****         3.6605   3.6290  -0.4442 H              1 S1                 0.0000
     39 ****         3.2850   5.2759   0.0019 H              1 S1                 0.0000
     40 ****         2.7684   3.6899   1.8643 H              1 S1                 0.0000
     41 ****         1.3336   4.5285   1.3266 H              1 S1                 0.0000
     42 ****         0.8214   2.1341   1.6146 H              1 S1                 0.0000
     43 ****         2.1681   1.6928   0.5914 H              1 S1                 0.0000
     44 ****         2.0432   0.8481  -1.4913 LP             1 S1                 0.0000
     45 ****         2.0157  -0.8756  -1.3233 LP             1 S1                 0.0000
     46 ****         1.9020  -2.0590  -0.9927 LP             1 S1                 0.0000
     47 ****         1.4269  -3.6692  -0.5668 LP             1 S1                 0.0000
     48 ****         0.6297  -7.3247  -0.3524 LP             1 S1                 0.0000
@<TRIPOS>BOND
    1    1    2 1     
    2    1   24 1     
    3    1   25 1     
    4    1   26 1     
    5    2    3 2     
    6    2    4 2     
    7    2    5 1     
    8    5    6 am    
    9    5   18 1     
   10    6    7 2     
   11    6    8 am    
   12    8    9 am    
   13    8   27 1     
   14    9   10 2     
   15    9   11 am    
   16   11   12 1     
   17   11   28 1     
   18   12   17 ar    
   19   12   13 ar    
   20   13   14 ar    
   21   13   29 1     
   22   14   15 ar    
   23   14   30 1     
   24   15   16 ar    
   25   15   31 1     
   26   16   17 ar    
   27   17   32 1     
   28   18   23 1     
   29   18   19 1     
   30   18   33 1     
   31   19   20 1     
   32   19   34 1     
   33   19   35 1     
   34   20   21 1     
   35   20   36 1     
   36   20   37 1     
   37   21   22 1     
   38   21   38 1     
   39   21   39 1     
   40   22   23 1     
   41   22   40 1     
   42   22   41 1     
   43   23   42 1     
   44   23   43 1     
   45    7   44 1     
   46    7   45 1     
   47   10   46 1     
   48   10   47 1     
   49   16   48 1     
@<TRIPOS>SUBSTRUCTURE
      1 S1             1
@<TRIPOS>SET
LONE_PAIRS      STATIC     ATOMS    <user>   **** ""
7 3 4 44 45 46 47 48
DONOR_HYDROGENS      STATIC     ATOMS    <user>   **** ""
2 27 28
ATOM$BLUE        STATIC     ATOMS    COLORGROUP SYSTEM
7 3 4 44 45 46 47 48
ATOM$RED        STATIC     ATOMS    COLORGROUP SYSTEM
2 27 28
