AV-unprocessed.smi:160|AV-procd|sdf|1366|dock7
  -GOLD-   2262019 83D 1   1.00000     0.00000
 Structure written by MMmdl.
 28 29  0  0  0  0  0  0  0  0  2 V2000
  152.9500  138.7768  157.2062 N   0  5  0  0  0  0  0  0  0  0  0  0
  152.3072  137.8842  156.4217 C   0  0  0  0  0  0  0  0  0  0  0  0
  152.4729  136.6647  156.4194 O   0  0  0  0  0  0  0  0  0  0  0  0
  151.2976  138.4930  155.4781 C   0  0  0  0  0  0  0  0  0  0  0  0
  150.9224  137.8372  154.3380 N   0  0  0  0  0  0  0  0  0  0  0  0
  150.0509  138.7177  153.8646 C   0  0  0  0  0  0  0  0  0  0  0  0
  149.9066  139.8101  154.6207 N   0  0  0  0  0  0  0  0  0  0  0  0
  149.0057  140.9958  154.4276 C   0  0  1  0  0  0  0  0  0  0  0  0
  148.4900  140.9259  153.1345 O   0  0  0  0  0  0  0  0  0  0  0  0
  147.1201  140.5181  153.1394 C   0  0  1  0  0  0  0  0  0  0  0  0
  146.9218  139.3219  152.1931 C   0  0  0  0  0  0  0  0  0  0  0  0
  147.2890  138.1221  152.8405 O   0  0  0  0  0  0  0  0  0  0  0  0
  146.7708  140.2033  154.6047 C   0  0  2  0  0  0  0  0  0  0  0  0
  145.4647  140.6543  154.9065 O   0  0  0  0  0  0  0  0  0  0  0  0
  147.8057  140.9980  155.3880 C   0  0  1  0  0  0  0  0  0  0  0  0
  148.0761  140.4125  156.6487 O   0  0  0  0  0  0  0  0  0  0  0  0
  150.7181  139.6766  155.6984 N   0  0  0  0  0  0  0  0  0  0  0  0
  149.6645  141.8561  154.5498 H   0  0  0  0  0  0  0  0  0  0  0  0
  146.5290  141.3722  152.8028 H   0  0  0  0  0  0  0  0  0  0  0  0
  146.8578  139.1347  154.8081 H   0  0  0  0  0  0  0  0  0  0  0  0
  147.4853  142.0335  155.5131 H   0  0  0  0  0  0  0  0  0  0  0  0
  152.4621  139.1405  158.0334 H   0  0  0  0  0  0  0  0  0  0  0  0
  149.5048  138.5616  152.9461 H   0  0  0  0  0  0  0  0  0  0  0  0
  145.8942  139.2587  151.8350 H   0  0  0  0  0  0  0  0  0  0  0  0
  147.5623  139.4265  151.3169 H   0  0  0  0  0  0  0  0  0  0  0  0
  147.8208  137.6142  152.2471 H   0  0  0  0  0  0  0  0  0  0  0  0
  144.9434  140.6111  154.1196 H   0  0  0  0  0  0  0  0  0  0  0  0
  148.5483  141.0373  157.1770 H   0  0  0  0  0  0  0  0  0  0  0  0
  1  2  1  0  0  0  0
  1 22  1  0  0  0  0
  2  3  2  0  0  0  0
  2  4  1  0  0  0  0
  4 17  2  0  0  0  0
  4  5  1  0  0  0  0
  5  6  2  0  0  0  0
  6  7  1  0  0  0  0
  6 23  1  0  0  0  0
  7  8  1  0  0  0  0
  7 17  1  0  0  0  0
  8 18  1  0  0  0  0
  8 15  1  0  0  0  0
  8  9  1  0  0  0  0
  9 10  1  0  0  0  0
 10 19  1  0  0  0  0
 10 11  1  0  0  0  0
 10 13  1  0  0  0  0
 11 12  1  0  0  0  0
 11 24  1  0  0  0  0
 11 25  1  0  0  0  0
 12 26  1  0  0  0  0
 13 20  1  0  0  0  0
 13 14  1  0  0  0  0
 13 15  1  0  0  0  0
 14 27  1  0  0  0  0
 15 21  1  0  0  0  0
 15 16  1  0  0  0  0
 16 28  1  0  0  0  0
M  CHG  1   1  -1
M  END
> <s_m_source_file>
AV-unprocessed.smi

> <i_m_source_file_index>
160

> <i_lp_mmshare_version>
43012

> <i_f3d_flags>
0

> <s_epik_input>
W05IMl1DKD1PKWMxbltjSF1uKG4xKVtDQEBIXTJPW0NASF0oW0NIMl1bT0hdKVtDQEBIXShbT0hdKVtDQEhdMltPSF0=

> <s_epik_cmdline>
J2VwaWtfcHl0aG9uJywgJy1waCcsICc3LjAnLCAnLXRuJywgJzgnLCAnLW1hJywgJzIwMCcsICctbWV0YWxfYmluZGluZycsICctaW1hZScsICc8aW5maWxlLm1hZT4nLCAnLW9tYWUnLCAnPG91dGZpbGUubWFlPic=

> <r_lp_tautomer_probability>
1

> <r_epik_Ionization_Penalty>
6.6993

> <r_epik_Ionization_Penalty_Charging>
6.6993

> <r_epik_Ionization_Penalty_Neutral>
6.01698e-06

> <r_epik_State_Penalty>
6.69929

> <r_epik_Charging_Adjusted_Penalty>
13.3986

> <i_epik_Tot_Q>
-1

> <i_epik_Tot_abs_Q>
1

> <r_epik_Metal_State_Penalty>
2.62798

> <b_epik_Metal_Only>
1

> <s_epik_Chemistry_Notes>
This compound contains an acetal/aminal-like group ( X-CH(R)-Y where X, Y are N, S, or O) that may be acid/base labile, releasing an aldehyde.

> <s_lp_Force_Field>
OPLS_2005

> <r_lp_Energy>
43.6415

> <b_lp_Chiralities_Consistent>
1

> <s_lp_Variant>
AV-unprocessed.smi:160-24

> <Gold.Version>
5.8.1

> <Gold.Id.Protein>
6NUR|6NUR_protein|mol2

> <Gold.PLP.Fitness>
39.0200

> <Gold.PLP.PLP>
-19.0340

> <Gold.PLP.part.hbond>
-5.0014

> <Gold.PLP.part.metal>
0.0000

> <Gold.PLP.part.buried>
0.1661

> <Gold.PLP.part.nonpolar>
-18.7900

> <Gold.PLP.part.repulsive>
4.3646

> <Gold.PLP.ligand.clash>
0.0000

> <Gold.PLP.ligand.torsion>
0.7248

> <Gold.PLP.Chemscore.Hbond>
5.6431

> <Gold.PLP.Chemscore.CHOScore>
1.4979

> <Gold.PLP.Chemscore.Metal>
0.0000

> <Gold.Chemscore.Hbonds>
donor molecule, donor type, donor heavy atom, donor atom, acceptor molecule, acceptor atom, score
      L1  H    12    26       P1  7948  1.00
      L1  H    14    27       P1 10175  0.91
      P1  H  7997  8008       L1     1  2.00
      P1  H  8011  8017       L1     9  0.60
      P1  H 10752 10763       L1     3  1.00
      L1  C     6    23       P1  7948  0.79
      L1  C     6    23       P1  7957  0.87

> <Gold.PLP.Chemscore.Internal.Correction>
0.0126

> <Gold.Rescore>
     Score         DG    S(hbond)    S(metal)    S(lipo)     H(rot)  DE(clash)    DE(int)     intcor
      5.78     -10.47       3.73        0.00      24.57       4.04       2.66       2.03       ----

> <Gold.Chemscore.Fitness>
5.7840

> <Gold.Chemscore.DG>
-10.4693

> <Gold.Chemscore.ZeroCoef>
-5.4800

> <Gold.Chemscore.Hbond>
3.7298

> <Gold.Chemscore.Metal>
0.0000

> <Gold.Chemscore.Lipo>
24.5713

> <Gold.Chemscore.Internal_Hbond>
0.0000

> <Gold.Chemscore.DEClash>
2.6553

> <Gold.Chemscore.DEInternal>
2.0299

> <Gold.Chemscore.Rot>
4.0403

> <Gold.Chemscore.Internal.Correction>
   9.000000E+99

> <Gold.Chemscore.Hbonds>
donor molecule, donor type, donor heavy atom, donor atom, acceptor molecule, acceptor atom, score
      L1  H    12    26       P1  7948  0.98
      L1  H    14    27       P1 10175  0.87
      P1  H  7997  8008       L1     1  0.58
      P1  H  8011  8017       L1     9  0.08
      P1  H 10752 10763       L1     3  0.97

> <Gold.Chemscore.Hbond.Weighted>
-12.4575

> <Gold.Chemscore.Metal.Weighted>
-0.0000

> <Gold.Chemscore.Lipo.Weighted>
-2.8748

> <Gold.Chemscore.Internal_Hbond.Weighted>
0.0000

> <Gold.Chemscore.DEClash.Weighted>
2.6553

> <Gold.Chemscore.DEInternal.Weighted>
2.0299

> <Gold.Chemscore.Rot.Weighted>
10.3431

> <Gold.Chemscore.Internal.Correction.Weighted>
   9.000000E+99

> <Gold.Protein.RotatedTorsions>
[ 6907 6896 6895 6894 ] final  -25.65 input  -60.11 | X-H torsion
[ 7974 7965 7964 7962 ] final   54.60 input  175.53 | X-H torsion
[ 8008 7997 7996 7995 ] final  -71.01 input   59.86 | X-H torsion
[ 10167 10162 10161 10158 ] final   14.23 input  -65.29 | X-H torsion
[ 10718 10713 10712 10709 ] final  -76.92 input   66.30 | X-H torsion
[ 10763 10752 10751 10750 ] final   92.76 input  -60.55 | X-H torsion
[ 11005 11000 10999 10996 ] final   39.30 input  -57.11 | X-H torsion

> <Gold.Protein.ActiveResidues>
 VAL166  LYS551  ARG553  GLY616  TRP617  ASP618  TYR619  PRO620  LYS621  CYS622 
 ASP623  PHE694  ASN695  SER759  ASP760  ASP761  ALA762  ILE779  LEU786  VAL792 
 PHE793  MET794  SER795  GLU796  ALA797  LYS798  CYS799  TRP800  GLU811  SER814 

> <Gold.Protein.RotatedAtoms>
  151.1722  135.0323  159.8756 H   0  0  0  0  0  0  0  0  0  0  0  0  # atno 6907 bound_to 6896
  152.5448  134.1158  159.8388 H   0  0  0  0  0  0  0  0  0  0  0  0  # atno 6908 bound_to 6896
  151.1265  133.5020  159.2633 H   0  0  0  0  0  0  0  0  0  0  0  0  # atno 6909 bound_to 6896
  145.9592  139.4043  143.0259 H   0  0  0  0  0  0  0  0  0  0  0  0  # atno 7974 bound_to 7965
  154.5055  140.0823  156.7886 H   0  0  0  0  0  0  0  0  0  0  0  0  # atno 8008 bound_to 7997
  155.3903  140.3432  155.4233 H   0  0  0  0  0  0  0  0  0  0  0  0  # atno 8009 bound_to 7997
  156.1510  140.1558  156.8757 H   0  0  0  0  0  0  0  0  0  0  0  0  # atno 8010 bound_to 7997
  140.5949  143.8721  150.6909 H   0  0  0  0  0  0  0  0  0  0  0  0  # atno 10167 bound_to 10162
  156.0160  130.4478  150.3267 H   0  0  0  0  0  0  0  0  0  0  0  0  # atno 10718 bound_to 10713
  153.2227  135.4350  155.0507 H   0  0  0  0  0  0  0  0  0  0  0  0  # atno 10763 bound_to 10752
  154.8258  135.3360  154.6903 H   0  0  0  0  0  0  0  0  0  0  0  0  # atno 10764 bound_to 10752
  153.7334  135.7009  153.5040 H   0  0  0  0  0  0  0  0  0  0  0  0  # atno 10765 bound_to 10752
  140.2041  134.3835  155.8081 H   0  0  0  0  0  0  0  0  0  0  0  0  # atno 11005 bound_to 11000
  145.8064  140.9747  143.0972 LP  0  0  0  0  0  0  0  0  0  0  0  0  # atno 17320 bound_to 7965
  144.6811  139.9866  143.7484 LP  0  0  0  0  0  0  0  0  0  0  0  0  # atno 17321 bound_to 7965
  140.2253  143.3777  152.1610 LP  0  0  0  0  0  0  0  0  0  0  0  0  # atno 17342 bound_to 10162
  139.5252  144.7093  151.5257 LP  0  0  0  0  0  0  0  0  0  0  0  0  # atno 17343 bound_to 10162
  157.1366  131.0285  151.2946 LP  0  0  0  0  0  0  0  0  0  0  0  0  # atno 17370 bound_to 10713
  157.4506  130.7596  149.7148 LP  0  0  0  0  0  0  0  0  0  0  0  0  # atno 17371 bound_to 10713
  141.2227  133.7109  156.8307 LP  0  0  0  0  0  0  0  0  0  0  0  0  # atno 17394 bound_to 11000
  140.2022  134.8889  157.3182 LP  0  0  0  0  0  0  0  0  0  0  0  0  # atno 17395 bound_to 11000

$$$$
