AV-unprocessed.smi:1667|AV-procd|sdf|6674|dock10
  -GOLD-   22720 7383D 1   1.00000     0.00000
 Structure written by MMmdl.
 45 47  0  0  0  0  0  0  0  0  1 V2000
  154.4891  135.9220  158.4041 C   0  0  0  0  0  0  0  0  0  0  0  0
  153.2737  136.8308  158.2578 C   0  0  0  0  0  0  0  0  0  0  0  0
  152.4319  136.8748  159.1536 O   0  0  0  0  0  0  0  0  0  0  0  0
  153.2078  137.5414  157.1183 N   0  0  0  0  0  0  0  0  0  0  0  0
  152.1801  138.4954  156.6821 C   0  0  2  0  0  0  0  0  0  0  0  0
  152.1837  138.7830  155.1695 C   0  0  0  0  0  0  0  0  0  0  0  0
  152.2323  139.7527  157.5206 C   0  0  0  0  0  0  0  0  0  0  0  0
  153.1943  139.9776  158.4203 N   0  0  0  0  0  0  0  0  0  0  0  0
  152.8647  141.2159  158.9307 C   0  0  0  0  0  0  0  0  0  0  0  0
  153.4925  141.9958  159.9278 C   0  0  0  0  0  0  0  0  0  0  0  0
  152.9639  143.2525  160.2887 C   0  0  0  0  0  0  0  0  0  0  0  0
  151.8032  143.7459  159.6580 C   0  0  0  0  0  0  0  0  0  0  0  0
  151.1636  142.9843  158.6613 C   0  0  0  0  0  0  0  0  0  0  0  0
  151.6956  141.7299  158.3057 C   0  0  0  0  0  0  0  0  0  0  0  0
  151.3214  140.7548  157.3867 N   0  0  0  0  0  0  0  0  0  0  0  0
  150.1759  140.8431  156.4891 C   0  0  0  0  0  0  0  0  0  0  0  0
  148.8834  141.2684  157.2152 C   0  0  2  0  0  0  0  0  0  0  0  0
  148.4412  140.2413  158.0827 O   0  0  0  0  0  0  0  0  0  0  0  0
  147.8090  141.6879  156.2243 C   0  0  0  0  0  0  0  0  0  0  0  0
  148.0102  141.4915  154.8411 C   0  0  0  0  0  0  0  0  0  0  0  0
  147.0157  141.8700  153.9180 C   0  0  0  0  0  0  0  0  0  0  0  0
  145.8137  142.4454  154.3729 C   0  0  0  0  0  0  0  0  0  0  0  0
  145.6053  142.6401  155.7516 C   0  0  0  0  0  0  0  0  0  0  0  0
  144.4486  143.1904  156.1902 F   0  0  0  0  0  0  0  0  0  0  0  0
  146.5987  142.2605  156.6749 C   0  0  0  0  0  0  0  0  0  0  0  0
  151.2543  137.9666  156.8970 H   0  0  0  0  0  0  0  0  0  0  0  0
  155.4027  136.5151  158.4547 H   0  0  0  0  0  0  0  0  0  0  0  0
  154.5627  135.2433  157.5539 H   0  0  0  0  0  0  0  0  0  0  0  0
  154.4192  135.3232  159.3126 H   0  0  0  0  0  0  0  0  0  0  0  0
  153.9638  137.4024  156.4638 H   0  0  0  0  0  0  0  0  0  0  0  0
  151.3021  139.3593  154.8875 H   0  0  0  0  0  0  0  0  0  0  0  0
  152.1705  137.8585  154.5919 H   0  0  0  0  0  0  0  0  0  0  0  0
  153.0551  139.3615  154.8629 H   0  0  0  0  0  0  0  0  0  0  0  0
  154.3822  141.6259  160.4156 H   0  0  0  0  0  0  0  0  0  0  0  0
  153.4512  143.8403  161.0528 H   0  0  0  0  0  0  0  0  0  0  0  0
  151.4047  144.7096  159.9396 H   0  0  0  0  0  0  0  0  0  0  0  0
  150.2748  143.3596  158.1764 H   0  0  0  0  0  0  0  0  0  0  0  0
  150.4139  141.5730  155.7142 H   0  0  0  0  0  0  0  0  0  0  0  0
  150.0435  139.8987  155.9625 H   0  0  0  0  0  0  0  0  0  0  0  0
  149.1103  142.1256  157.8507 H   0  0  0  0  0  0  0  0  0  0  0  0
  149.1264  140.0638  158.7091 H   0  0  0  0  0  0  0  0  0  0  0  0
  148.9277  141.0481  154.4827 H   0  0  0  0  0  0  0  0  0  0  0  0
  147.1742  141.7185  152.8604 H   0  0  0  0  0  0  0  0  0  0  0  0
  145.0514  142.7355  153.6650 H   0  0  0  0  0  0  0  0  0  0  0  0
  146.4272  142.4089  157.7310 H   0  0  0  0  0  0  0  0  0  0  0  0
  1  2  1  0  0  0  0
  1 27  1  0  0  0  0
  1 28  1  0  0  0  0
  1 29  1  0  0  0  0
  2  3  2  0  0  0  0
  2  4  1  0  0  0  0
  4  5  1  0  0  0  0
  4 30  1  0  0  0  0
  5 26  1  0  0  0  0
  5  6  1  0  0  0  0
  5  7  1  0  0  0  0
  6 31  1  0  0  0  0
  6 32  1  0  0  0  0
  6 33  1  0  0  0  0
  7 15  1  0  0  0  0
  7  8  2  0  0  0  0
  8  9  1  0  0  0  0
  9 14  2  0  0  0  0
  9 10  1  0  0  0  0
 10 11  2  0  0  0  0
 10 34  1  0  0  0  0
 11 12  1  0  0  0  0
 11 35  1  0  0  0  0
 12 13  2  0  0  0  0
 12 36  1  0  0  0  0
 13 14  1  0  0  0  0
 13 37  1  0  0  0  0
 14 15  1  0  0  0  0
 15 16  1  0  0  0  0
 16 17  1  0  0  0  0
 16 38  1  0  0  0  0
 16 39  1  0  0  0  0
 17 18  1  0  0  0  0
 17 19  1  0  0  0  0
 17 40  1  0  0  0  0
 18 41  1  0  0  0  0
 19 25  1  0  0  0  0
 19 20  2  0  0  0  0
 20 21  1  0  0  0  0
 20 42  1  0  0  0  0
 21 22  2  0  0  0  0
 21 43  1  0  0  0  0
 22 23  1  0  0  0  0
 22 44  1  0  0  0  0
 23 24  1  0  0  0  0
 23 25  2  0  0  0  0
 25 45  1  0  0  0  0
M  END
> <s_m_source_file>
AV-unprocessed.smi

> <i_m_source_file_index>
1667

> <i_lp_mmshare_version>
43012

> <i_f3d_flags>
0

> <s_epik_input>
W0NIM11DKD1PKVtOSF1bQ0BASF0oW0NIM10pYyhuMSluKGMoYzEyKVtjSF1bY0hdW2NIXVtjSF0yKVtDSDJdW0NASF0oW09IXSljM1tjSF1bY0hdW2NIXWMoRilbY0hdMw==

> <s_epik_cmdline>
J2VwaWtfcHl0aG9uJywgJy1waCcsICc3LjAnLCAnLXRuJywgJzgnLCAnLW1hJywgJzIwMCcsICctbWV0YWxfYmluZGluZycsICctaW1hZScsICc8aW5maWxlLm1hZT4nLCAnLW9tYWUnLCAnPG91dGZpbGUubWFlPic=

> <r_epik_Ionization_Penalty>
0.133011

> <r_epik_Ionization_Penalty_Charging>
0

> <r_epik_Ionization_Penalty_Neutral>
0.133011

> <r_epik_State_Penalty>
0.122384

> <r_epik_Charging_Adjusted_Penalty>
0.122384

> <i_epik_Tot_Q>
0

> <i_epik_Tot_abs_Q>
0

> <r_epik_Metal_State_Penalty>
0.0997374

> <b_epik_Metal_Only>
0

> <s_lp_Force_Field>
OPLS_2005

> <r_lp_Energy>
10.1709

> <b_lp_Chiralities_Consistent>
1

> <s_lp_Variant>
AV-unprocessed.smi:1667-2

> <Gold.Version>
5.8.1

> <Gold.Id.Protein>
6NUR|6NUR_protein|mol2

> <Gold.PLP.Fitness>
50.3168

> <Gold.PLP.PLP>
-45.4527

> <Gold.PLP.part.hbond>
-2.6625

> <Gold.PLP.part.metal>
0.0000

> <Gold.PLP.part.buried>
-6.1385

> <Gold.PLP.part.nonpolar>
-37.1012

> <Gold.PLP.part.repulsive>
0.1528

> <Gold.PLP.ligand.clash>
0.0000

> <Gold.PLP.ligand.torsion>
0.4794

> <Gold.PLP.Chemscore.Hbond>
1.8746

> <Gold.PLP.Chemscore.CHOScore>
0.0000

> <Gold.PLP.Chemscore.Metal>
0.0000

> <Gold.Chemscore.Hbonds>
donor molecule, donor type, donor heavy atom, donor atom, acceptor molecule, acceptor atom, score
      P1  H  6896  6908       L1     3  0.90
      P1  H  7997  8009       L1     8  0.85

> <Gold.PLP.Chemscore.Internal.Correction>
0.1990

> <Gold.Rescore>
     Score         DG    S(hbond)    S(metal)    S(lipo)     H(rot)  DE(clash)    DE(int)     intcor
     15.33     -15.83       1.17        0.00     109.12       2.48       0.00       0.50       ----

> <Gold.Chemscore.Fitness>
15.3283

> <Gold.Chemscore.DG>
-15.8299

> <Gold.Chemscore.ZeroCoef>
-5.4800

> <Gold.Chemscore.Hbond>
1.1741

> <Gold.Chemscore.Metal>
0.0000

> <Gold.Chemscore.Lipo>
109.1192

> <Gold.Chemscore.Internal_Hbond>
0.0000

> <Gold.Chemscore.DEClash>
0.0015

> <Gold.Chemscore.DEInternal>
0.5002

> <Gold.Chemscore.Rot>
2.4760

> <Gold.Chemscore.Internal.Correction>
   9.000000E+99

> <Gold.Chemscore.Hbonds>
donor molecule, donor type, donor heavy atom, donor atom, acceptor molecule, acceptor atom, score
      P1  H  6896  6908       L1     3  0.82
      P1  H  7997  8009       L1     8  0.12

> <Gold.Chemscore.Hbond.Weighted>
-3.9215

> <Gold.Chemscore.Metal.Weighted>
-0.0000

> <Gold.Chemscore.Lipo.Weighted>
-12.7670

> <Gold.Chemscore.Internal_Hbond.Weighted>
0.0000

> <Gold.Chemscore.DEClash.Weighted>
0.0015

> <Gold.Chemscore.DEInternal.Weighted>
0.5002

> <Gold.Chemscore.Rot.Weighted>
6.3385

> <Gold.Chemscore.Internal.Correction.Weighted>
   9.000000E+99

> <Gold.Protein.RotatedTorsions>
[ 6907 6896 6895 6894 ] final -114.76 input  -60.11 | X-H torsion
[ 7974 7965 7964 7962 ] final  -98.47 input  175.53 | X-H torsion
[ 8008 7997 7996 7995 ] final  144.56 input   59.86 | X-H torsion
[ 10167 10162 10161 10158 ] final  -59.96 input  -65.29 | X-H torsion
[ 10718 10713 10712 10709 ] final -130.34 input   66.30 | X-H torsion
[ 10763 10752 10751 10750 ] final  127.48 input  -60.55 | X-H torsion
[ 11005 11000 10999 10996 ] final  155.54 input  -57.11 | X-H torsion

> <Gold.Protein.ActiveResidues>
 VAL166  LYS551  ARG553  GLY616  TRP617  ASP618  TYR619  PRO620  LYS621  CYS622 
 ASP623  PHE694  ASN695  SER759  ASP760  ASP761  ALA762  ILE779  LEU786  VAL792 
 PHE793  MET794  SER795  GLU796  ALA797  LYS798  CYS799  TRP800  GLU811  SER814 

> <Gold.Protein.RotatedAtoms>
  150.7926  133.8755  159.3270 H   0  0  0  0  0  0  0  0  0  0  0  0  # atno 6907 bound_to 6896
  151.6589  135.0990  160.0185 H   0  0  0  0  0  0  0  0  0  0  0  0  # atno 6908 bound_to 6896
  152.4003  133.6769  159.6346 H   0  0  0  0  0  0  0  0  0  0  0  0  # atno 6909 bound_to 6896
  145.3202  140.9420  143.2720 H   0  0  0  0  0  0  0  0  0  0  0  0  # atno 7974 bound_to 7965
  156.2905  140.2232  156.5073 H   0  0  0  0  0  0  0  0  0  0  0  0  # atno 8008 bound_to 7997
  154.7639  140.0471  157.1017 H   0  0  0  0  0  0  0  0  0  0  0  0  # atno 8009 bound_to 7997
  154.9957  140.3095  155.4891 H   0  0  0  0  0  0  0  0  0  0  0  0  # atno 8010 bound_to 7997
  140.6102  143.2385  151.5728 H   0  0  0  0  0  0  0  0  0  0  0  0  # atno 10167 bound_to 10162
  156.2135  130.6933  151.0676 H   0  0  0  0  0  0  0  0  0  0  0  0  # atno 10718 bound_to 10713
  153.7101  135.3269  155.3244 H   0  0  0  0  0  0  0  0  0  0  0  0  # atno 10763 bound_to 10752
  154.8387  135.4475  154.1322 H   0  0  0  0  0  0  0  0  0  0  0  0  # atno 10764 bound_to 10752
  153.2414  135.6971  153.7858 H   0  0  0  0  0  0  0  0  0  0  0  0  # atno 10765 bound_to 10752
  140.1591  134.8622  157.2551 H   0  0  0  0  0  0  0  0  0  0  0  0  # atno 11005 bound_to 11000
  144.8945  139.4730  143.6662 LP  0  0  0  0  0  0  0  0  0  0  0  0  # atno 17320 bound_to 7965
  146.3085  139.7663  142.9038 LP  0  0  0  0  0  0  0  0  0  0  0  0  # atno 17321 bound_to 7965
  139.5355  144.2793  152.1242 LP  0  0  0  0  0  0  0  0  0  0  0  0  # atno 17342 bound_to 10162
  140.1991  144.4676  150.6440 LP  0  0  0  0  0  0  0  0  0  0  0  0  # atno 17343 bound_to 10162
  157.7051  131.0760  150.6694 LP  0  0  0  0  0  0  0  0  0  0  0  0  # atno 17370 bound_to 10713
  156.6754  130.4551  149.5644 LP  0  0  0  0  0  0  0  0  0  0  0  0  # atno 17371 bound_to 10713
  140.2512  134.3681  155.7441 LP  0  0  0  0  0  0  0  0  0  0  0  0  # atno 17394 bound_to 11000
  141.2207  133.7317  156.8938 LP  0  0  0  0  0  0  0  0  0  0  0  0  # atno 17395 bound_to 11000

$$$$
