#       Name:                AV-unprocessed.smi:2734
#       Creating user name   scv26
#       Creation time:       Fri Mar 27 14:58:37 2020


#       File generated by GOLD software.
#

@<TRIPOS>MOLECULE
AV-unprocessed.smi:2734
    46    48     1
SMALL
NO_CHARGES


@<TRIPOS>ATOM
      1 ****        -1.5324   4.9562   2.6899 C.3            1 S1                 0.0000
      2 ****        -1.5589   3.7890   1.7178 C.ar           1 S1                 0.0000
      3 ****        -1.9846   4.0264   0.3912 C.ar           1 S1                 0.0000
      4 ****        -1.9945   2.9402  -0.4757 C.ar           1 S1                 0.0000
      5 ****        -2.3516   2.8464  -1.8228 N.pl3          1 S1                 1.0000
      6 ****        -2.1907   1.5623  -2.2472 C.2            1 S1                 0.0000
      7 ****        -1.7365   0.8358  -1.1903 N.pl3          1 S1                 0.0000
      8 ****        -1.3913  -0.5890  -1.1025 C.3            1 S1                 0.0000
      9 ****         0.1245  -0.8435  -1.2154 C.3            1 S1                 0.0000
     10 ****         0.5982  -0.3260  -2.4443 O.3            1 S1                 0.0000
     11 ****         0.4640  -2.3398  -1.1295 C.3            1 S1                 0.0000
     12 ****         2.2594  -2.6292  -1.0788 S.3            1 S1                 0.0000
     13 ****         2.2790  -4.3927  -0.9789 C.2            1 S1                 0.0000
     14 ****         1.2226  -5.1968  -0.9393 N.2            1 S1                 0.0000
     15 ****         1.7689  -6.4640  -0.8642 N.2            1 S1                 0.0000
     16 ****         3.0693  -6.4172  -0.8584 N.2            1 S1                 0.0000
     17 ****         3.4101  -5.1076  -0.9310 N.pl3          1 S1                 0.0000
     18 ****         4.7993  -4.6948  -0.9468 C.3            1 S1                 0.0000
     19 ****        -1.6005   1.6526  -0.0636 C.ar           1 S1                 0.0000
     20 ****        -1.1803   1.4000   1.2397 C.ar           1 S1                 0.0000
     21 ****        -1.1639   2.4918   2.1372 C.ar           1 S1                 0.0000
     22 ****        -0.7093   2.2475   3.5661 C.3            1 S1                 0.0000
     23 ****        -1.8065   5.8907   2.1992 H              1 S1                 0.0000
     24 ****        -0.5351   5.0830   3.1116 H              1 S1                 0.0000
     25 ****        -2.2357   4.7892   3.5059 H              1 S1                 0.0000
     26 ****        -2.2876   5.0107   0.0654 H              1 S1                 0.0000
     27 ****        -2.3818   1.1887  -3.2430 H              1 S1                 0.0000
     28 ****        -1.7870  -0.9829  -0.1655 H              1 S1                 0.0000
     29 ****        -1.9227  -1.1044  -1.9040 H              1 S1                 0.0000
     30 ****         0.6375  -0.3173  -0.4096 H              1 S1                 0.0000
     31 ****         1.5294  -0.4817  -2.4949 H              1 S1                 0.0000
     32 ****         0.0243  -2.7622  -0.2253 H              1 S1                 0.0000
     33 ****         0.0333  -2.8747  -1.9772 H              1 S1                 0.0000
     34 ****         4.9869  -4.0084  -0.1209 H              1 S1                 0.0000
     35 ****         5.0199  -4.1900  -1.8876 H              1 S1                 0.0000
     36 ****         5.4574  -5.5588  -0.8449 H              1 S1                 0.0000
     37 ****        -0.8767   0.4131   1.5561 H              1 S1                 0.0000
     38 ****        -0.5214   1.1891   3.7493 H              1 S1                 0.0000
     39 ****        -1.4699   2.5759   4.2748 H              1 S1                 0.0000
     40 ****         0.2135   2.7912   3.7704 H              1 S1                 0.0000
     41 ****        -2.6780   3.6012  -2.4126 H              1 S1                 0.0000
     42 ****         0.4172   0.6565  -2.4892 LP             1 S1                 0.0000
     43 ****         0.1374  -0.7848  -3.2040 LP             1 S1                 0.0000
     44 ****         0.2553  -4.9437  -0.9592 LP             1 S1                 0.0000
     45 ****         1.2340  -7.3078  -0.8200 LP             1 S1                 0.0000
     46 ****         3.6950  -7.1957  -0.8099 LP             1 S1                 0.0000
@<TRIPOS>BOND
    1    1    2 1     
    2    1   23 1     
    3    1   24 1     
    4    1   25 1     
    5    2   21 ar    
    6    2    3 ar    
    7    3    4 ar    
    8    3   26 1     
    9    4   19 ar    
   10    4    5 1     
   11    5    6 2     
   12    5   41 1     
   13    6    7 1     
   14    6   27 1     
   15    7    8 1     
   16    7   19 1     
   17    8    9 1     
   18    8   28 1     
   19    8   29 1     
   20    9   10 1     
   21    9   11 1     
   22    9   30 1     
   23   10   31 1     
   24   11   12 1     
   25   11   32 1     
   26   11   33 1     
   27   12   13 1     
   28   13   17 1     
   29   13   14 2     
   30   14   15 1     
   31   15   16 2     
   32   16   17 1     
   33   17   18 1     
   34   18   34 1     
   35   18   35 1     
   36   18   36 1     
   37   19   20 ar    
   38   20   21 ar    
   39   20   37 1     
   40   21   22 1     
   41   22   38 1     
   42   22   39 1     
   43   22   40 1     
   44   10   42 1     
   45   10   43 1     
   46   14   44 1     
   47   15   45 1     
   48   16   46 1     
@<TRIPOS>SUBSTRUCTURE
      1 S1             1
@<TRIPOS>SET
LONE_PAIRS      STATIC     ATOMS    <user>   **** ""
5 42 43 44 45 46
DONOR_HYDROGENS      STATIC     ATOMS    <user>   **** ""
2 41 31
ATOM$BLUE        STATIC     ATOMS    COLORGROUP SYSTEM
5 42 43 44 45 46
ATOM$RED        STATIC     ATOMS    COLORGROUP SYSTEM
2 41 31
