AV-unprocessed.smi:1046|AV-procd|sdf|4556|dock9
  -GOLD-   22720 2593D 1   1.00000     0.00000
 Structure written by MMmdl.
 54 56  0  0  0  0  0  0  0  0  3 V2000
  152.9118  140.6626  158.7301 C   0  0  0  0  0  0  0  0  0  0  0  0
  152.0757  139.7924  157.8084 C   0  0  0  0  0  0  0  0  0  0  0  0
  151.8738  140.2038  156.4718 C   0  0  0  0  0  0  0  0  0  0  0  0
  151.1051  139.4226  155.5818 C   0  0  0  0  0  0  0  0  0  0  0  0
  150.7895  139.6257  154.2494 N   0  0  0  0  0  0  0  0  0  0  0  0
  150.0547  138.5511  153.9800 C   0  0  0  0  0  0  0  0  0  0  0  0
  149.8649  137.6680  154.9791 N   0  0  0  0  0  0  0  0  0  0  0  0
  149.1175  136.4256  154.9135 C   0  0  0  0  0  0  0  0  0  0  0  0
  147.6093  136.6553  154.6924 C   0  0  2  0  0  0  0  0  0  0  0  0
  147.0695  137.1649  155.8947 O   0  0  0  0  0  0  0  0  0  0  0  0
  146.8387  135.3737  154.3038 C   0  0  0  0  0  0  0  0  0  0  0  0
  146.7791  135.1626  152.8342 N   0  3  2  0  0  0  0  0  0  0  0  0
  145.6542  135.9002  152.2070 C   0  0  0  0  0  0  0  0  0  0  0  0
  145.6713  135.7430  150.6750 C   0  0  0  0  0  0  0  0  0  0  0  0
  145.6472  134.3162  150.2678 N   0  3  2  0  0  0  0  0  0  0  0  0
  144.3061  133.6840  150.3938 C   0  0  0  0  0  0  0  0  0  0  0  0
  144.2985  132.2224  149.9148 C   0  0  0  0  0  0  0  0  0  0  0  0
  143.0862  131.9401  149.2488 O   0  0  0  0  0  0  0  0  0  0  0  0
  146.7555  133.5608  150.9086 C   0  0  0  0  0  0  0  0  0  0  0  0
  146.7689  133.7284  152.4425 C   0  0  0  0  0  0  0  0  0  0  0  0
  150.5387  138.2086  156.0696 C   0  0  0  0  0  0  0  0  0  0  0  0
  150.7290  137.7904  157.3986 C   0  0  0  0  0  0  0  0  0  0  0  0
  151.5005  138.5828  158.2742 C   0  0  0  0  0  0  0  0  0  0  0  0
  151.7024  138.1225  159.7070 C   0  0  0  0  0  0  0  0  0  0  0  0
  153.3122  141.5300  158.2046 H   0  0  0  0  0  0  0  0  0  0  0  0
  153.7536  140.0978  159.1308 H   0  0  0  0  0  0  0  0  0  0  0  0
  152.3091  141.0244  159.5633 H   0  0  0  0  0  0  0  0  0  0  0  0
  152.3102  141.1263  156.1179 H   0  0  0  0  0  0  0  0  0  0  0  0
  149.6358  138.3923  152.9968 H   0  0  0  0  0  0  0  0  0  0  0  0
  149.5342  135.8116  154.1139 H   0  0  0  0  0  0  0  0  0  0  0  0
  149.2845  135.8793  155.8432 H   0  0  0  0  0  0  0  0  0  0  0  0
  147.4898  137.4178  153.9233 H   0  0  0  0  0  0  0  0  0  0  0  0
  147.0317  138.1079  155.8357 H   0  0  0  0  0  0  0  0  0  0  0  0
  147.2855  134.4907  154.7617 H   0  0  0  0  0  0  0  0  0  0  0  0
  145.8278  135.4452  154.7085 H   0  0  0  0  0  0  0  0  0  0  0  0
  144.7081  135.5432  152.6168 H   0  0  0  0  0  0  0  0  0  0  0  0
  145.7265  136.9595  152.4570 H   0  0  0  0  0  0  0  0  0  0  0  0
  144.8389  136.2834  150.2227 H   0  0  0  0  0  0  0  0  0  0  0  0
  146.5788  136.1980  150.2758 H   0  0  0  0  0  0  0  0  0  0  0  0
  143.9557  133.7418  151.4242 H   0  0  0  0  0  0  0  0  0  0  0  0
  143.5792  134.2395  149.7994 H   0  0  0  0  0  0  0  0  0  0  0  0
  145.1394  131.9975  149.2599 H   0  0  0  0  0  0  0  0  0  0  0  0
  144.3800  131.5539  150.7724 H   0  0  0  0  0  0  0  0  0  0  0  0
  142.5328  132.7062  149.2893 H   0  0  0  0  0  0  0  0  0  0  0  0
  146.7138  132.5053  150.6424 H   0  0  0  0  0  0  0  0  0  0  0  0
  147.6960  133.9344  150.5010 H   0  0  0  0  0  0  0  0  0  0  0  0
  147.6483  133.2236  152.8406 H   0  0  0  0  0  0  0  0  0  0  0  0
  145.9036  133.2351  152.8868 H   0  0  0  0  0  0  0  0  0  0  0  0
  150.2860  136.8675  157.7422 H   0  0  0  0  0  0  0  0  0  0  0  0
  151.1588  137.1991  159.9092 H   0  0  0  0  0  0  0  0  0  0  0  0
  151.3463  138.8793  160.4064 H   0  0  0  0  0  0  0  0  0  0  0  0
  152.7592  137.9400  159.9029 H   0  0  0  0  0  0  0  0  0  0  0  0
  147.6262  135.5670  152.4593 H   0  0  0  0  0  0  0  0  0  0  0  0
  145.8343  134.3136  149.2741 H   0  0  0  0  0  0  0  0  0  0  0  0
  1  2  1  0  0  0  0
  1 25  1  0  0  0  0
  1 26  1  0  0  0  0
  1 27  1  0  0  0  0
  2 23  1  0  0  0  0
  2  3  2  0  0  0  0
  3  4  1  0  0  0  0
  3 28  1  0  0  0  0
  4 21  2  0  0  0  0
  4  5  1  0  0  0  0
  5  6  2  0  0  0  0
  6  7  1  0  0  0  0
  6 29  1  0  0  0  0
  7  8  1  0  0  0  0
  7 21  1  0  0  0  0
  8  9  1  0  0  0  0
  8 30  1  0  0  0  0
  8 31  1  0  0  0  0
  9 10  1  0  0  0  0
  9 11  1  0  0  0  0
  9 32  1  0  0  0  0
 10 33  1  0  0  0  0
 11 12  1  0  0  0  0
 11 34  1  0  0  0  0
 11 35  1  0  0  0  0
 12 20  1  0  0  0  0
 12 13  1  0  0  0  0
 12 53  1  0  0  0  0
 13 14  1  0  0  0  0
 13 36  1  0  0  0  0
 13 37  1  0  0  0  0
 14 15  1  0  0  0  0
 14 38  1  0  0  0  0
 14 39  1  0  0  0  0
 15 16  1  0  0  0  0
 15 19  1  0  0  0  0
 15 54  1  0  0  0  0
 16 17  1  0  0  0  0
 16 40  1  0  0  0  0
 16 41  1  0  0  0  0
 17 18  1  0  0  0  0
 17 42  1  0  0  0  0
 17 43  1  0  0  0  0
 18 44  1  0  0  0  0
 19 20  1  0  0  0  0
 19 45  1  0  0  0  0
 19 46  1  0  0  0  0
 20 47  1  0  0  0  0
 20 48  1  0  0  0  0
 21 22  1  0  0  0  0
 22 23  2  0  0  0  0
 22 49  1  0  0  0  0
 23 24  1  0  0  0  0
 24 50  1  0  0  0  0
 24 51  1  0  0  0  0
 24 52  1  0  0  0  0
M  CHG  1  12   1
M  CHG  1  15   1
M  END
> <s_m_source_file>
AV-unprocessed.smi

> <i_m_source_file_index>
1046

> <i_lp_mmshare_version>
43012

> <i_f3d_flags>
0

> <s_epik_input>
W0NIM11jKFtjSF0xKWMoW0NIM10pW2NIXWMoYzEyKW4oW2NIXW4yKVtDSDJdW0NASF0oW09IXSlbQ0gyXU4zW0NIMl1bQ0gyXU4oW0NIMl1bQ0gyXTMpW0NIMl1bQ0gyXVtPSF0=

> <s_epik_cmdline>
J2VwaWtfcHl0aG9uJywgJy1waCcsICc3LjAnLCAnLXRuJywgJzgnLCAnLW1hJywgJzIwMCcsICctbWV0YWxfYmluZGluZycsICctaW1hZScsICc8aW5maWxlLm1hZT4nLCAnLW9tYWUnLCAnPG91dGZpbGUubWFlPic=

> <r_epik_Ionization_Penalty>
3.17398

> <r_epik_Ionization_Penalty_Charging>
3.09061

> <r_epik_Ionization_Penalty_Neutral>
0.0833726

> <r_epik_State_Penalty>
2.17606

> <r_epik_Charging_Adjusted_Penalty>
5.26667

> <i_epik_Tot_Q>
2

> <i_epik_Tot_abs_Q>
2

> <r_epik_Metal_State_Penalty>
2.08587

> <b_epik_Metal_Only>
0

> <s_lp_Force_Field>
OPLS_2005

> <r_lp_Energy>
31.2877

> <b_lp_Chiralities_Consistent>
1

> <s_lp_Variant>
AV-unprocessed.smi:1046-9

> <Gold.Version>
5.8.1

> <Gold.Id.Protein>
6NUR|6NUR_protein|mol2

> <Gold.PLP.Fitness>
58.3001

> <Gold.PLP.PLP>
-36.8005

> <Gold.PLP.part.hbond>
-6.0000

> <Gold.PLP.part.metal>
0.0000

> <Gold.PLP.part.buried>
-5.6189

> <Gold.PLP.part.nonpolar>
-26.0205

> <Gold.PLP.part.repulsive>
0.2057

> <Gold.PLP.ligand.clash>
0.0000

> <Gold.PLP.ligand.torsion>
1.1206

> <Gold.PLP.Chemscore.Hbond>
5.9013

> <Gold.PLP.Chemscore.CHOScore>
1.9246

> <Gold.PLP.Chemscore.Metal>
0.0000

> <Gold.Chemscore.Hbonds>
donor molecule, donor type, donor heavy atom, donor atom, acceptor molecule, acceptor atom, score
      L1  H    12    53       P1  7948  2.00
      L1  H    15    54       P1  7921  1.00
      L1  H    18    44       P1 10186  0.32
      P1  H  7989  7998       L1     5  1.00
      P1  H 10785 10796       L1    18  1.00
      L1  C     6    29       P1  7948  1.00
      L1  C     6    29       P1  7957  0.93

> <Gold.PLP.Chemscore.Internal.Correction>
0.2633

> <Gold.Rescore>
     Score         DG    S(hbond)    S(metal)    S(lipo)     H(rot)  DE(clash)    DE(int)     intcor
     20.29     -21.56       4.34        0.00      85.35       3.28       0.05       1.22       ----

> <Gold.Chemscore.Fitness>
20.2882

> <Gold.Chemscore.DG>
-21.5633

> <Gold.Chemscore.ZeroCoef>
-5.4800

> <Gold.Chemscore.Hbond>
4.3418

> <Gold.Chemscore.Metal>
0.0000

> <Gold.Chemscore.Lipo>
85.3462

> <Gold.Chemscore.Internal_Hbond>
0.0000

> <Gold.Chemscore.DEClash>
0.0519

> <Gold.Chemscore.DEInternal>
1.2232

> <Gold.Chemscore.Rot>
3.2828

> <Gold.Chemscore.Internal.Correction>
   9.000000E+99

> <Gold.Chemscore.Hbonds>
donor molecule, donor type, donor heavy atom, donor atom, acceptor molecule, acceptor atom, score
      L1  H    12    53       P1  7948  0.97
      L1  H    15    54       P1  7921  0.60
      L1  H    18    44       P1 10186  0.33
      P1  H  7989  7998       L1     5  0.93
      P1  H 10785 10796       L1    18  0.55

> <Gold.Chemscore.Hbond.Weighted>
-14.5017

> <Gold.Chemscore.Metal.Weighted>
-0.0000

> <Gold.Chemscore.Lipo.Weighted>
-9.9855

> <Gold.Chemscore.Internal_Hbond.Weighted>
0.0000

> <Gold.Chemscore.DEClash.Weighted>
0.0519

> <Gold.Chemscore.DEInternal.Weighted>
1.2232

> <Gold.Chemscore.Rot.Weighted>
8.4039

> <Gold.Chemscore.Internal.Correction.Weighted>
   9.000000E+99

> <Gold.Protein.RotatedTorsions>
[ 6907 6896 6895 6894 ] final -156.18 input  -60.11 | X-H torsion
[ 7974 7965 7964 7962 ] final  -54.71 input  175.53 | X-H torsion
[ 8008 7997 7996 7995 ] final  123.74 input   59.86 | X-H torsion
[ 10167 10162 10161 10158 ] final  178.14 input  -65.29 | X-H torsion
[ 10718 10713 10712 10709 ] final  114.36 input   66.30 | X-H torsion
[ 10763 10752 10751 10750 ] final  -51.54 input  -60.55 | X-H torsion
[ 11005 11000 10999 10996 ] final   95.24 input  -57.11 | X-H torsion

> <Gold.Protein.ActiveResidues>
 VAL166  LYS551  ARG553  GLY616  TRP617  ASP618  TYR619  PRO620  LYS621  CYS622 
 ASP623  PHE694  ASN695  SER759  ASP760  ASP761  ALA762  ILE779  LEU786  VAL792 
 PHE793  MET794  SER795  GLU796  ALA797  LYS798  CYS799  TRP800  GLU811  SER814 

> <Gold.Protein.RotatedAtoms>
  151.2837  133.4198  159.2628 H   0  0  0  0  0  0  0  0  0  0  0  0  # atno 6907 bound_to 6896
  151.0338  134.9559  159.8136 H   0  0  0  0  0  0  0  0  0  0  0  0  # atno 6908 bound_to 6896
  152.5351  134.2797  159.9055 H   0  0  0  0  0  0  0  0  0  0  0  0  # atno 6909 bound_to 6896
  145.8824  140.8134  142.9833 H   0  0  0  0  0  0  0  0  0  0  0  0  # atno 7974 bound_to 7965
  156.2777  140.2756  156.1676 H   0  0  0  0  0  0  0  0  0  0  0  0  # atno 8008 bound_to 7997
  155.0689  140.0387  157.2619 H   0  0  0  0  0  0  0  0  0  0  0  0  # atno 8009 bound_to 7997
  154.7056  140.2658  155.6683 H   0  0  0  0  0  0  0  0  0  0  0  0  # atno 8010 bound_to 7997
  139.5281  144.2715  152.0623 H   0  0  0  0  0  0  0  0  0  0  0  0  # atno 10167 bound_to 10162
  157.6286  131.0997  150.7174 H   0  0  0  0  0  0  0  0  0  0  0  0  # atno 10718 bound_to 10713
  154.1282  135.6524  153.4916 H   0  0  0  0  0  0  0  0  0  0  0  0  # atno 10763 bound_to 10752
  153.0203  135.5286  154.7028 H   0  0  0  0  0  0  0  0  0  0  0  0  # atno 10764 bound_to 10752
  154.6255  135.2970  155.0247 H   0  0  0  0  0  0  0  0  0  0  0  0  # atno 10765 bound_to 10752
  139.8791  134.8888  156.3982 H   0  0  0  0  0  0  0  0  0  0  0  0  # atno 11005 bound_to 11000
  144.6727  140.1405  143.7437 LP  0  0  0  0  0  0  0  0  0  0  0  0  # atno 17320 bound_to 7965
  145.9007  139.2429  143.1495 LP  0  0  0  0  0  0  0  0  0  0  0  0  # atno 17321 bound_to 7965
  140.2175  144.4500  150.6357 LP  0  0  0  0  0  0  0  0  0  0  0  0  # atno 17342 bound_to 10162
  140.6440  143.2209  151.6226 LP  0  0  0  0  0  0  0  0  0  0  0  0  # atno 17343 bound_to 10162
  156.7518  130.4771  149.5455 LP  0  0  0  0  0  0  0  0  0  0  0  0  # atno 17370 bound_to 10713
  156.1474  130.6286  151.0549 LP  0  0  0  0  0  0  0  0  0  0  0  0  # atno 17371 bound_to 10713
  140.9285  133.7595  155.9995 LP  0  0  0  0  0  0  0  0  0  0  0  0  # atno 17394 bound_to 11000
  140.8358  134.3125  157.5332 LP  0  0  0  0  0  0  0  0  0  0  0  0  # atno 17395 bound_to 11000

$$$$
