#       Name:                AV-unprocessed.smi:3338
#       Creating user name   scv26
#       Creation time:       Fri Mar 27 19:27:32 2020


#       File generated by GOLD software.
#

@<TRIPOS>MOLECULE
AV-unprocessed.smi:3338
    47    48     1
SMALL
NO_CHARGES


@<TRIPOS>ATOM
      1 ****        -4.6743  -1.0898  -1.7981 C.3            1 S1                 0.0000
      2 ****        -4.0435  -0.4391  -0.5588 C.3            1 S1                 0.0000
      3 ****        -4.6241   0.9623  -0.3036 C.3            1 S1                 0.0000
      4 ****        -3.9540   1.6028   0.9187 C.3            1 S1                 0.0000
      5 ****        -2.4251   1.6216   0.7625 C.3            1 S1                 0.0000
      6 ****        -1.8963   0.2533   0.5277 N.4            1 S1                 1.0000
      7 ****        -0.4128   0.2163   0.5100 C.3            1 S1                 0.0000
      8 ****         0.1406  -1.1668   0.9040 C.3            1 S1                 0.0000
      9 ****         1.5981  -1.1759   0.8870 N.am           1 S1                 0.0000
     10 ****         2.3483  -1.2857  -0.2211 C.2            1 S1                 0.0000
     11 ****         1.8634  -1.4211  -1.3453 O.2            1 S1                 0.0000
     12 ****         3.8715  -1.2218  -0.0235 C.3            1 S1                 0.0000
     13 ****         4.6503  -1.9162  -1.1585 C.3            1 S1                 0.0000
     14 ****         4.3033   0.1585   0.1655 N.pl3          1 S1                 0.0000
     15 ****         4.7150   0.7682   1.3334 C.2            1 S1                 0.0000
     16 ****         5.0023   2.0701   1.0385 C.2            1 S1                 0.0000
     17 ****         4.7247   2.1705  -0.3529 C.2            1 S1                 0.0000
     18 ****         4.3006   1.0296  -0.8707 N.2            1 S1                 0.0000
     19 ****        -2.5077  -0.3675  -0.6785 C.3            1 S1                 0.0000
     20 ****        -4.4724  -0.5083  -2.6985 H              1 S1                 0.0000
     21 ****        -5.7564  -1.1714  -1.6909 H              1 S1                 0.0000
     22 ****        -4.2828  -2.0949  -1.9567 H              1 S1                 0.0000
     23 ****        -4.2845  -1.0670   0.3005 H              1 S1                 0.0000
     24 ****        -4.4693   1.5949  -1.1790 H              1 S1                 0.0000
     25 ****        -5.7022   0.9036  -0.1478 H              1 S1                 0.0000
     26 ****        -4.3271   2.6181   1.0580 H              1 S1                 0.0000
     27 ****        -4.2239   1.0473   1.8179 H              1 S1                 0.0000
     28 ****        -2.1372   2.2721  -0.0649 H              1 S1                 0.0000
     29 ****        -1.9804   2.0404   1.6662 H              1 S1                 0.0000
     30 ****        -0.0513   0.5232  -0.4729 H              1 S1                 0.0000
     31 ****        -0.0215   0.9466   1.2200 H              1 S1                 0.0000
     32 ****        -0.1891  -1.4261   1.9106 H              1 S1                 0.0000
     33 ****        -0.2329  -1.9518   0.2455 H              1 S1                 0.0000
     34 ****         2.0702  -1.0739   1.7741 H              1 S1                 0.0000
     35 ****         4.0997  -1.7604   0.8978 H              1 S1                 0.0000
     36 ****         4.3505  -2.9598  -1.2611 H              1 S1                 0.0000
     37 ****         5.7219  -1.9035  -0.9573 H              1 S1                 0.0000
     38 ****         4.4913  -1.4303  -2.1220 H              1 S1                 0.0000
     39 ****         4.7713   0.2304   2.2682 H              1 S1                 0.0000
     40 ****         5.3565   2.8347   1.7140 H              1 S1                 0.0000
     41 ****         4.8155   3.0326  -0.9973 H              1 S1                 0.0000
     42 ****        -2.1153  -1.3743  -0.8199 H              1 S1                 0.0000
     43 ****        -2.2250   0.2047  -1.5639 H              1 S1                 0.0000
     44 ****        -2.1859  -0.2979   1.3228 H              1 S1                 0.0000
     45 ****         0.8706  -1.4532  -1.4611 LP             1 S1                 0.0000
     46 ****         2.4625  -1.4989  -2.1422 LP             1 S1                 0.0000
     47 ****         4.0363   0.8502  -1.8183 LP             1 S1                 0.0000
@<TRIPOS>BOND
    1    1    2 1     
    2    1   20 1     
    3    1   21 1     
    4    1   22 1     
    5    2   19 1     
    6    2    3 1     
    7    2   23 1     
    8    3    4 1     
    9    3   24 1     
   10    3   25 1     
   11    4    5 1     
   12    4   26 1     
   13    4   27 1     
   14    5    6 1     
   15    5   28 1     
   16    5   29 1     
   17    6    7 1     
   18    6   19 1     
   19    6   44 1     
   20    7    8 1     
   21    7   30 1     
   22    7   31 1     
   23    8    9 1     
   24    8   32 1     
   25    8   33 1     
   26    9   10 am    
   27    9   34 1     
   28   10   11 2     
   29   10   12 1     
   30   12   13 1     
   31   12   14 1     
   32   12   35 1     
   33   13   36 1     
   34   13   37 1     
   35   13   38 1     
   36   14   18 1     
   37   14   15 1     
   38   15   16 2     
   39   15   39 1     
   40   16   17 1     
   41   16   40 1     
   42   17   18 2     
   43   17   41 1     
   44   19   42 1     
   45   19   43 1     
   46   11   45 1     
   47   11   46 1     
   48   18   47 1     
@<TRIPOS>SUBSTRUCTURE
      1 S1             1
@<TRIPOS>SET
LONE_PAIRS      STATIC     ATOMS    <user>   **** ""
3 45 46 47
DONOR_HYDROGENS      STATIC     ATOMS    <user>   **** ""
2 44 34
ATOM$BLUE        STATIC     ATOMS    COLORGROUP SYSTEM
3 45 46 47
ATOM$RED        STATIC     ATOMS    COLORGROUP SYSTEM
2 44 34
