AV-unprocessed.smi:48|AV-procd|sdf|460|dock9
  -GOLD-   2262016333D 1   1.00000     0.00000
 Structure written by MMmdl.
 30 32  0  0  0  0  0  0  0  0  1 V2000
  145.4617  141.3675  154.6910 O   0  0  0  0  0  0  0  0  0  0  0  0
  145.9583  140.1952  155.3005 C   0  0  0  0  0  0  0  0  0  0  0  0
  147.4907  140.2542  155.3891 C   0  0  2  0  0  0  0  0  0  0  0  0
  147.8787  141.2334  156.3527 O   0  0  0  0  0  0  0  0  0  0  0  0
  149.0986  141.8176  156.0001 C   0  0  1  0  0  0  0  0  0  0  0  0
  150.1102  141.5395  157.0723 N   0  0  0  0  0  0  0  0  0  0  0  0
  150.3448  140.3543  157.6717 C   0  0  0  0  0  0  0  0  0  0  0  0
  151.2902  140.3139  158.6090 N   0  0  0  0  0  0  0  0  0  0  0  0
  151.7258  141.6285  158.6176 C   0  0  0  0  0  0  0  0  0  0  0  0
  152.7149  142.3048  159.3727 C   0  0  0  0  0  0  0  0  0  0  0  0
  153.6526  141.4717  160.5578 Cl  0  0  0  0  0  0  0  0  0  0  0  0
  152.9095  143.6254  159.1455 N   0  0  0  0  0  0  0  0  0  0  0  0
  152.1678  144.2472  158.2209 C   0  0  0  0  0  0  0  0  0  0  0  0
  151.2069  143.7442  157.4385 N   0  0  0  0  0  0  0  0  0  0  0  0
  151.0099  142.4124  157.6676 C   0  0  0  0  0  0  0  0  0  0  0  0
  149.5013  141.2677  154.6172 C   0  0  1  0  0  0  0  0  0  0  0  0
  150.4925  140.2530  154.6700 O   0  0  0  0  0  0  0  0  0  0  0  0
  148.1593  140.7578  154.1089 C   0  0  1  0  0  0  0  0  0  0  0  0
  148.2821  139.7607  153.1121 O   0  0  0  0  0  0  0  0  0  0  0  0
  147.9065  139.2820  155.6577 H   0  0  0  0  0  0  0  0  0  0  0  0
  148.9812  142.9021  156.0051 H   0  0  0  0  0  0  0  0  0  0  0  0
  149.8806  142.0812  153.9979 H   0  0  0  0  0  0  0  0  0  0  0  0
  147.5898  141.5957  153.7034 H   0  0  0  0  0  0  0  0  0  0  0  0
  144.8051  141.1221  154.0572 H   0  0  0  0  0  0  0  0  0  0  0  0
  145.5267  140.1397  156.3001 H   0  0  0  0  0  0  0  0  0  0  0  0
  145.6257  139.3119  154.7543 H   0  0  0  0  0  0  0  0  0  0  0  0
  149.7864  139.4685  157.4061 H   0  0  0  0  0  0  0  0  0  0  0  0
  152.3727  145.2992  158.0888 H   0  0  0  0  0  0  0  0  0  0  0  0
  150.0642  139.4189  154.7860 H   0  0  0  0  0  0  0  0  0  0  0  0
  148.9981  139.9936  152.5412 H   0  0  0  0  0  0  0  0  0  0  0  0
  1  2  1  0  0  0  0
  1 24  1  0  0  0  0
  2  3  1  0  0  0  0
  2 25  1  0  0  0  0
  2 26  1  0  0  0  0
  3 20  1  0  0  0  0
  3 18  1  0  0  0  0
  3  4  1  0  0  0  0
  4  5  1  0  0  0  0
  5 21  1  0  0  0  0
  5  6  1  0  0  0  0
  5 16  1  0  0  0  0
  6 15  1  0  0  0  0
  6  7  1  0  0  0  0
  7  8  2  0  0  0  0
  7 27  1  0  0  0  0
  8  9  1  0  0  0  0
  9 15  2  0  0  0  0
  9 10  1  0  0  0  0
 10 11  1  0  0  0  0
 10 12  2  0  0  0  0
 12 13  1  0  0  0  0
 13 14  2  0  0  0  0
 13 28  1  0  0  0  0
 14 15  1  0  0  0  0
 16 22  1  0  0  0  0
 16 17  1  0  0  0  0
 16 18  1  0  0  0  0
 17 29  1  0  0  0  0
 18 23  1  0  0  0  0
 18 19  1  0  0  0  0
 19 30  1  0  0  0  0
M  END
> <s_m_source_file>
AV-unprocessed.smi

> <i_m_source_file_index>
48

> <i_lp_mmshare_version>
43012

> <i_f3d_flags>
0

> <s_epik_input>
W09IXVtDSDJdW0NASF0xT1tDQEhdKFtDQEhdKFtPSF0pW0NAQEhdMVtPSF0pbihbY0hdbjIpYyhjMjMpbltjSF1uYzNDbA==

> <s_epik_cmdline>
J2VwaWtfcHl0aG9uJywgJy1waCcsICc3LjAnLCAnLXRuJywgJzgnLCAnLW1hJywgJzIwMCcsICctbWV0YWxfYmluZGluZycsICctaW1hZScsICc8aW5maWxlLm1hZT4nLCAnLW9tYWUnLCAnPG91dGZpbGUubWFlPic=

> <r_lp_tautomer_probability>
1

> <r_epik_Ionization_Penalty>
3.45505e-06

> <r_epik_Ionization_Penalty_Charging>
0

> <r_epik_Ionization_Penalty_Neutral>
3.45505e-06

> <r_epik_State_Penalty>
-0

> <r_epik_Charging_Adjusted_Penalty>
0

> <i_epik_Tot_Q>
0

> <i_epik_Tot_abs_Q>
0

> <r_epik_Metal_State_Penalty>
-0

> <b_epik_Metal_Only>
0

> <s_epik_Chemistry_Notes>
This compound contains an acetal/aminal-like group ( X-CH(R)-Y where X, Y are N, S, or O) that may be acid/base labile, releasing an aldehyde.

> <s_lp_Force_Field>
OPLS_2005

> <r_lp_Energy>
44.1755

> <b_lp_Chiralities_Consistent>
1

> <s_lp_Variant>
AV-unprocessed.smi:48-14

> <Gold.Version>
5.8.1

> <Gold.Id.Protein>
6NUR|6NUR_protein|mol2

> <Gold.PLP.Fitness>
40.0316

> <Gold.PLP.PLP>
-31.8982

> <Gold.PLP.part.hbond>
-2.5864

> <Gold.PLP.part.metal>
0.0000

> <Gold.PLP.part.buried>
-4.3152

> <Gold.PLP.part.nonpolar>
-26.4297

> <Gold.PLP.part.repulsive>
1.0927

> <Gold.PLP.ligand.clash>
0.0000

> <Gold.PLP.ligand.torsion>
0.4376

> <Gold.PLP.Chemscore.Hbond>
3.0000

> <Gold.PLP.Chemscore.CHOScore>
0.0000

> <Gold.PLP.Chemscore.Metal>
0.0000

> <Gold.Chemscore.Hbonds>
donor molecule, donor type, donor heavy atom, donor atom, acceptor molecule, acceptor atom, score
      L1  H     1    24       P1 10175  1.00
      L1  H    19    30       P1  7957  0.93
      P1  H  7989  7998       L1    17  1.00

> <Gold.PLP.Chemscore.Internal.Correction>
0.0085

> <Gold.Rescore>
     Score         DG    S(hbond)    S(metal)    S(lipo)     H(rot)  DE(clash)    DE(int)     intcor
      7.57     -10.34       2.72        0.00      47.15       3.80       1.30       1.47       ----

> <Gold.Chemscore.Fitness>
7.5704

> <Gold.Chemscore.DG>
-10.3418

> <Gold.Chemscore.ZeroCoef>
-5.4800

> <Gold.Chemscore.Hbond>
2.7177

> <Gold.Chemscore.Metal>
0.0000

> <Gold.Chemscore.Lipo>
47.1527

> <Gold.Chemscore.Internal_Hbond>
0.0000

> <Gold.Chemscore.DEClash>
1.3005

> <Gold.Chemscore.DEInternal>
1.4709

> <Gold.Chemscore.Rot>
3.8017

> <Gold.Chemscore.Internal.Correction>
   9.000000E+99

> <Gold.Chemscore.Hbonds>
donor molecule, donor type, donor heavy atom, donor atom, acceptor molecule, acceptor atom, score
      L1  H     1    24       P1 10175  0.73
      L1  H    19    30       P1  7957  0.85
      P1  H  7989  7998       L1    17  0.25

> <Gold.Chemscore.Hbond.Weighted>
-9.0773

> <Gold.Chemscore.Metal.Weighted>
-0.0000

> <Gold.Chemscore.Lipo.Weighted>
-5.5169

> <Gold.Chemscore.Internal_Hbond.Weighted>
0.0000

> <Gold.Chemscore.DEClash.Weighted>
1.3005

> <Gold.Chemscore.DEInternal.Weighted>
1.4709

> <Gold.Chemscore.Rot.Weighted>
9.7324

> <Gold.Chemscore.Internal.Correction.Weighted>
   9.000000E+99

> <Gold.Protein.RotatedTorsions>
[ 6907 6896 6895 6894 ] final -115.57 input  -60.11 | X-H torsion
[ 7974 7965 7964 7962 ] final   37.87 input  175.53 | X-H torsion
[ 8008 7997 7996 7995 ] final  -45.32 input   59.86 | X-H torsion
[ 10167 10162 10161 10158 ] final  -31.31 input  -65.29 | X-H torsion
[ 10718 10713 10712 10709 ] final -171.11 input   66.30 | X-H torsion
[ 10763 10752 10751 10750 ] final -176.99 input  -60.55 | X-H torsion
[ 11005 11000 10999 10996 ] final  -25.64 input  -57.11 | X-H torsion

> <Gold.Protein.ActiveResidues>
 VAL166  LYS551  ARG553  GLY616  TRP617  ASP618  TYR619  PRO620  LYS621  CYS622 
 ASP623  PHE694  ASN695  SER759  ASP760  ASP761  ALA762  ILE779  LEU786  VAL792 
 PHE793  MET794  SER795  GLU796  ALA797  LYS798  CYS799  TRP800  GLU811  SER814 

> <Gold.Protein.RotatedAtoms>
  150.7988  133.8639  159.3239 H   0  0  0  0  0  0  0  0  0  0  0  0  # atno 6907 bound_to 6896
  151.6457  135.1006  160.0160 H   0  0  0  0  0  0  0  0  0  0  0  0  # atno 6908 bound_to 6896
  152.4073  133.6870  159.6402 H   0  0  0  0  0  0  0  0  0  0  0  0  # atno 6909 bound_to 6896
  146.1105  139.5841  142.9355 H   0  0  0  0  0  0  0  0  0  0  0  0  # atno 7974 bound_to 7965
  154.4000  140.1400  156.3828 H   0  0  0  0  0  0  0  0  0  0  0  0  # atno 8008 bound_to 7997
  155.7988  140.3476  155.5370 H   0  0  0  0  0  0  0  0  0  0  0  0  # atno 8009 bound_to 7997
  155.8505  140.0940  157.1668 H   0  0  0  0  0  0  0  0  0  0  0  0  # atno 8010 bound_to 7997
  140.7238  143.3780  151.1653 H   0  0  0  0  0  0  0  0  0  0  0  0  # atno 10167 bound_to 10162
  156.7360  130.9324  151.3107 H   0  0  0  0  0  0  0  0  0  0  0  0  # atno 10718 bound_to 10713
  154.5656  135.2823  155.0877 H   0  0  0  0  0  0  0  0  0  0  0  0  # atno 10763 bound_to 10752
  154.2269  135.6381  153.5166 H   0  0  0  0  0  0  0  0  0  0  0  0  # atno 10764 bound_to 10752
  153.0042  135.5528  154.6264 H   0  0  0  0  0  0  0  0  0  0  0  0  # atno 10765 bound_to 10752
  140.8957  133.7558  156.0478 H   0  0  0  0  0  0  0  0  0  0  0  0  # atno 11005 bound_to 11000
  145.5674  141.0398  143.2193 LP  0  0  0  0  0  0  0  0  0  0  0  0  # atno 17320 bound_to 7965
  144.7507  139.7201  143.7274 LP  0  0  0  0  0  0  0  0  0  0  0  0  # atno 17321 bound_to 7965
  139.7364  143.8992  152.3036 LP  0  0  0  0  0  0  0  0  0  0  0  0  # atno 17342 bound_to 10162
  139.8798  144.7023  150.8890 LP  0  0  0  0  0  0  0  0  0  0  0  0  # atno 17343 bound_to 10162
  157.6838  130.9166  150.0335 LP  0  0  0  0  0  0  0  0  0  0  0  0  # atno 17370 bound_to 10713
  156.1496  130.3642  149.9458 LP  0  0  0  0  0  0  0  0  0  0  0  0  # atno 17371 bound_to 10713
  140.8292  134.3198  157.5355 LP  0  0  0  0  0  0  0  0  0  0  0  0  # atno 17394 bound_to 11000
  139.8735  134.9354  156.3632 LP  0  0  0  0  0  0  0  0  0  0  0  0  # atno 17395 bound_to 11000

$$$$
