#       Name:                AV-unprocessed.smi:2224
#       Creating user name   scv26
#       Creation time:       Fri Mar 27 12:20:53 2020


#       File generated by GOLD software.
#

@<TRIPOS>MOLECULE
AV-unprocessed.smi:2224
    49    51     1
SMALL
NO_CHARGES


@<TRIPOS>ATOM
      1 ****        -5.1800   3.5990   0.2025 C.3            1 S1                 0.0000
      2 ****        -4.5295   2.2351   0.1061 C.ar           1 S1                 0.0000
      3 ****        -5.3046   1.0596   0.1232 C.ar           1 S1                 0.0000
      4 ****        -4.6375  -0.1777   0.0283 C.ar           1 S1                 0.0000
      5 ****        -5.4074  -1.4817   0.0441 C.3            1 S1                 0.0000
      6 ****        -3.2957  -0.2853  -0.0790 N.ar           1 S1                 0.0000
      7 ****        -2.5399   0.8404  -0.0980 C.ar           1 S1                 0.0000
      8 ****        -1.1242   0.8376  -0.2076 N.am           1 S1                 0.0000
      9 ****        -0.3071  -0.2119  -0.4040 C.2            1 S1                 0.0000
     10 ****        -0.6660  -1.3831  -0.5300 O.2            1 S1                 0.0000
     11 ****         0.9740   0.1772  -0.4551 N.am           1 S1                 0.0000
     12 ****         2.1026  -0.7184  -0.6793 C.3            1 S1                 0.0000
     13 ****         3.4425   0.0176  -0.6554 C.3            1 S1                 0.0000
     14 ****         4.4908   0.3149  -1.6674 C.3            1 S1                 0.0000
     15 ****         5.7263  -0.0883  -0.8184 C.3            1 S1                 0.0000
     16 ****         5.2018  -0.7613   0.3525 O.3            1 S1                 0.0000
     17 ****         3.9662  -1.2869  -0.0875 C.3            1 S1                 0.0000
     18 ****         2.6072  -1.4466   0.6238 C.3            1 S1                 0.0000
     19 ****         2.4298  -0.7665   1.9967 C.3            1 S1                 0.0000
     20 ****         2.1281  -2.8887   0.7935 C.3            1 S1                 0.0000
     21 ****        -3.1292   2.1211  -0.0034 C.ar           1 S1                 0.0000
     22 ****        -6.2673   3.5200   0.2277 H              1 S1                 0.0000
     23 ****        -4.9030   4.2115  -0.6560 H              1 S1                 0.0000
     24 ****        -4.8533   4.1094   1.1088 H              1 S1                 0.0000
     25 ****        -6.3808   1.1051   0.2069 H              1 S1                 0.0000
     26 ****        -6.4836  -1.3064   0.0462 H              1 S1                 0.0000
     27 ****        -5.1541  -2.0582   0.9341 H              1 S1                 0.0000
     28 ****        -5.1621  -2.0790  -0.8346 H              1 S1                 0.0000
     29 ****        -0.6831   1.7427  -0.1431 H              1 S1                 0.0000
     30 ****         1.1835   1.1578  -0.3396 H              1 S1                 0.0000
     31 ****         1.9885  -1.3749  -1.5469 H              1 S1                 0.0000
     32 ****         3.4181   0.8253   0.0798 H              1 S1                 0.0000
     33 ****         4.3863  -0.3057  -2.5586 H              1 S1                 0.0000
     34 ****         4.5103   1.3642  -1.9630 H              1 S1                 0.0000
     35 ****         6.3824  -0.7547  -1.3796 H              1 S1                 0.0000
     36 ****         6.3093   0.7797  -0.5094 H              1 S1                 0.0000
     37 ****         4.1258  -2.0652  -0.8426 H              1 S1                 0.0000
     38 ****         3.0204  -1.2699   2.7625 H              1 S1                 0.0000
     39 ****         1.3893  -0.7964   2.3215 H              1 S1                 0.0000
     40 ****         2.7307   0.2793   2.0112 H              1 S1                 0.0000
     41 ****         2.7274  -3.4254   1.5294 H              1 S1                 0.0000
     42 ****         2.1926  -3.4447  -0.1422 H              1 S1                 0.0000
     43 ****         1.0884  -2.9311   1.1194 H              1 S1                 0.0000
     44 ****        -2.5159   3.0106  -0.0184 H              1 S1                 0.0000
     45 ****        -2.8642  -1.1851  -0.1437 LP             1 S1                 0.0000
     46 ****        -1.6377  -1.6154  -0.4889 LP             1 S1                 0.0000
     47 ****         0.0144  -2.1019  -0.6733 LP             1 S1                 0.0000
     48 ****         5.0672  -0.1158   1.1043 LP             1 S1                 0.0000
     49 ****         5.8157  -1.4934   0.6478 LP             1 S1                 0.0000
@<TRIPOS>BOND
    1    1    2 1     
    2    1   22 1     
    3    1   23 1     
    4    1   24 1     
    5    2   21 ar    
    6    2    3 ar    
    7    3    4 ar    
    8    3   25 1     
    9    4    5 1     
   10    4    6 ar    
   11    5   26 1     
   12    5   27 1     
   13    5   28 1     
   14    6    7 ar    
   15    7    8 1     
   16    7   21 ar    
   17    8    9 am    
   18    8   29 1     
   19    9   10 2     
   20    9   11 am    
   21   11   12 1     
   22   11   30 1     
   23   12   18 1     
   24   12   13 1     
   25   12   31 1     
   26   13   17 1     
   27   13   14 1     
   28   13   32 1     
   29   14   15 1     
   30   14   33 1     
   31   14   34 1     
   32   15   16 1     
   33   15   35 1     
   34   15   36 1     
   35   16   17 1     
   36   17   18 1     
   37   17   37 1     
   38   18   19 1     
   39   18   20 1     
   40   19   38 1     
   41   19   39 1     
   42   19   40 1     
   43   20   41 1     
   44   20   42 1     
   45   20   43 1     
   46   21   44 1     
   47    6   45 1     
   48   10   46 1     
   49   10   47 1     
   50   16   48 1     
   51   16   49 1     
@<TRIPOS>SUBSTRUCTURE
      1 S1             1
@<TRIPOS>SET
LONE_PAIRS      STATIC     ATOMS    <user>   **** ""
5 45 46 47 48 49
DONOR_HYDROGENS      STATIC     ATOMS    <user>   **** ""
2 29 30
ATOM$BLUE        STATIC     ATOMS    COLORGROUP SYSTEM
5 45 46 47 48 49
ATOM$RED        STATIC     ATOMS    COLORGROUP SYSTEM
2 29 30
