AV-unprocessed.smi:119|AV-procd|sdf|1136|dock2
  -GOLD-   2262018263D 1   1.00000     0.00000
 Structure written by MMmdl.
 51 54  0  0  0  0  0  0  0  0  1 V2000
  147.3054  141.6086  154.4525 C   0  0  0  0  0  0  0  0  0  0  0  0
  148.1036  140.3510  154.8198 C   0  0  1  0  0  0  0  0  0  0  0  0
  149.5957  140.5219  154.4807 C   0  0  0  0  0  0  0  0  0  0  0  0
  150.4214  139.2249  154.5664 C   0  0  0  0  0  0  0  0  0  0  0  0
  150.6331  138.7725  155.9478 N   0  0  0  0  0  0  0  0  0  0  0  0
  151.6689  139.1876  156.7236 C   0  0  0  0  0  0  0  0  0  0  0  0
  152.5375  139.9533  156.2970 O   0  0  0  0  0  0  0  0  0  0  0  0
  151.7674  138.6900  158.1833 C   0  0  0  0  0  0  0  0  0  0  0  0
  152.5280  139.5993  159.0695 N   0  0  0  0  0  0  0  0  0  0  0  0
  153.6257  139.0751  159.7948 C   0  0  0  0  0  0  0  0  0  0  0  0
  153.9449  137.8887  159.7016 O   0  0  0  0  0  0  0  0  0  0  0  0
  154.3349  140.0297  160.6376 C   0  0  0  0  0  0  0  0  0  0  0  0
  155.3792  139.6164  161.3759 F   0  0  0  0  0  0  0  0  0  0  0  0
  153.9577  141.3239  160.6954 C   0  0  0  0  0  0  0  0  0  0  0  0
  152.8893  141.8286  159.9727 N   0  0  0  0  0  0  0  0  0  0  0  0
  152.4845  143.2898  159.9997 C   0  0  1  0  0  0  0  0  0  0  0  0
  152.4453  143.9957  158.6414 C   0  0  0  0  0  0  0  0  0  0  0  0
  151.5339  145.1523  158.9792 C   0  0  0  0  0  0  0  0  0  0  0  0
  150.5052  144.4738  159.8839 C   0  0  0  0  0  0  0  0  0  0  0  0
  151.1837  143.3794  160.4996 O   0  0  0  0  0  0  0  0  0  0  0  0
  152.1515  140.9621  159.1348 C   0  0  0  0  0  0  0  0  0  0  0  0
  151.2018  141.3872  158.4728 O   0  0  0  0  0  0  0  0  0  0  0  0
  149.6755  137.8602  156.4694 C   0  0  0  0  0  0  0  0  0  0  0  0
  150.0465  136.5121  156.6758 C   0  0  0  0  0  0  0  0  0  0  0  0
  149.1164  135.5896  157.1914 C   0  0  0  0  0  0  0  0  0  0  0  0
  147.8095  136.0084  157.5036 C   0  0  0  0  0  0  0  0  0  0  0  0
  147.4330  137.3495  157.3003 C   0  0  0  0  0  0  0  0  0  0  0  0
  148.3580  138.2768  156.7804 C   0  0  0  0  0  0  0  0  0  0  0  0
  147.8435  139.9545  156.5721 S   0  0  0  0  0  0  0  0  0  0  0  0
  147.3912  141.8334  153.3890 H   0  0  0  0  0  0  0  0  0  0  0  0
  147.6588  142.4781  155.0076 H   0  0  0  0  0  0  0  0  0  0  0  0
  146.2459  141.4788  154.6751 H   0  0  0  0  0  0  0  0  0  0  0  0
  147.7013  139.5212  154.2376 H   0  0  0  0  0  0  0  0  0  0  0  0
  149.6744  140.8925  153.4581 H   0  0  0  0  0  0  0  0  0  0  0  0
  150.0303  141.2994  155.1093 H   0  0  0  0  0  0  0  0  0  0  0  0
  149.9126  138.4382  154.0072 H   0  0  0  0  0  0  0  0  0  0  0  0
  151.3689  139.3542  154.0444 H   0  0  0  0  0  0  0  0  0  0  0  0
  150.7588  138.5386  158.5690 H   0  0  0  0  0  0  0  0  0  0  0  0
  152.2138  137.6963  158.2029 H   0  0  0  0  0  0  0  0  0  0  0  0
  154.5268  141.9588  161.3538 H   0  0  0  0  0  0  0  0  0  0  0  0
  153.1862  143.7740  160.6823 H   0  0  0  0  0  0  0  0  0  0  0  0
  153.4407  144.2860  158.3047 H   0  0  0  0  0  0  0  0  0  0  0  0
  151.9518  143.3823  157.8883 H   0  0  0  0  0  0  0  0  0  0  0  0
  152.0826  145.9153  159.5332 H   0  0  0  0  0  0  0  0  0  0  0  0
  151.0874  145.6199  158.1012 H   0  0  0  0  0  0  0  0  0  0  0  0
  150.0978  145.1582  160.6285 H   0  0  0  0  0  0  0  0  0  0  0  0
  149.6755  144.0795  159.2959 H   0  0  0  0  0  0  0  0  0  0  0  0
  151.0481  136.1827  156.4397 H   0  0  0  0  0  0  0  0  0  0  0  0
  149.4068  134.5614  157.3491 H   0  0  0  0  0  0  0  0  0  0  0  0
  147.0965  135.3017  157.9014 H   0  0  0  0  0  0  0  0  0  0  0  0
  146.4298  137.6659  157.5464 H   0  0  0  0  0  0  0  0  0  0  0  0
  1  2  1  0  0  0  0
  1 30  1  0  0  0  0
  1 31  1  0  0  0  0
  1 32  1  0  0  0  0
  2 29  1  0  0  0  0
  2  3  1  0  0  0  0
  2 33  1  0  0  0  0
  3  4  1  0  0  0  0
  3 34  1  0  0  0  0
  3 35  1  0  0  0  0
  4  5  1  0  0  0  0
  4 36  1  0  0  0  0
  4 37  1  0  0  0  0
  5  6  1  0  0  0  0
  5 23  1  0  0  0  0
  6  7  2  0  0  0  0
  6  8  1  0  0  0  0
  8  9  1  0  0  0  0
  8 38  1  0  0  0  0
  8 39  1  0  0  0  0
  9 21  1  0  0  0  0
  9 10  1  0  0  0  0
 10 11  2  0  0  0  0
 10 12  1  0  0  0  0
 12 13  1  0  0  0  0
 12 14  2  0  0  0  0
 14 15  1  0  0  0  0
 14 40  1  0  0  0  0
 15 16  1  0  0  0  0
 15 21  1  0  0  0  0
 16 20  1  0  0  0  0
 16 17  1  0  0  0  0
 16 41  1  0  0  0  0
 17 18  1  0  0  0  0
 17 42  1  0  0  0  0
 17 43  1  0  0  0  0
 18 19  1  0  0  0  0
 18 44  1  0  0  0  0
 18 45  1  0  0  0  0
 19 20  1  0  0  0  0
 19 46  1  0  0  0  0
 19 47  1  0  0  0  0
 21 22  2  0  0  0  0
 23 28  2  0  0  0  0
 23 24  1  0  0  0  0
 24 25  2  0  0  0  0
 24 48  1  0  0  0  0
 25 26  1  0  0  0  0
 25 49  1  0  0  0  0
 26 27  2  0  0  0  0
 26 50  1  0  0  0  0
 27 28  1  0  0  0  0
 27 51  1  0  0  0  0
 28 29  1  0  0  0  0
M  END
> <s_m_source_file>
AV-unprocessed.smi

> <i_m_source_file_index>
119

> <i_lp_mmshare_version>
43012

> <i_f3d_flags>
0

> <s_epik_input>
W2NIXTFbY0hdW2NIXVtjSF1jKGMxMilTW0NASF0oW0NIM10pW0NIMl1bQ0gyXU4yQyg9TylbQ0gyXW4zYyg9TyljKEYpW2NIXW4oYzM9TylbQ0BASF00W0NIMl1bQ0gyXVtDSDJdTzQ=

> <s_epik_cmdline>
J2VwaWtfcHl0aG9uJywgJy1waCcsICc3LjAnLCAnLXRuJywgJzgnLCAnLW1hJywgJzIwMCcsICctbWV0YWxfYmluZGluZycsICctaW1hZScsICc8aW5maWxlLm1hZT4nLCAnLW9tYWUnLCAnPG91dGZpbGUubWFlPic=

> <r_lp_tautomer_probability>
1

> <r_epik_Ionization_Penalty>
1.68882e-06

> <r_epik_Ionization_Penalty_Charging>
3.67303e-09

> <r_epik_Ionization_Penalty_Neutral>
1.68515e-06

> <r_epik_State_Penalty>
-0

> <r_epik_Charging_Adjusted_Penalty>
3.67303e-09

> <i_epik_Tot_Q>
0

> <i_epik_Tot_abs_Q>
0

> <r_epik_Metal_State_Penalty>
-0

> <b_epik_Metal_Only>
0

> <s_epik_Chemistry_Notes>
This compound contains an acetal/aminal-like group ( X-CH(R)-Y where X, Y are N, S, or O) that may be acid/base labile, releasing an aldehyde.

> <s_lp_Force_Field>
OPLS_2005

> <r_lp_Energy>
51.7973

> <b_lp_Chiralities_Consistent>
1

> <s_lp_Variant>
AV-unprocessed.smi:119-4

> <Gold.Version>
5.8.1

> <Gold.Id.Protein>
6NUR|6NUR_protein|mol2

> <Gold.PLP.Fitness>
52.2267

> <Gold.PLP.PLP>
-50.0250

> <Gold.PLP.part.hbond>
-1.0371

> <Gold.PLP.part.metal>
0.0000

> <Gold.PLP.part.buried>
-5.6273

> <Gold.PLP.part.nonpolar>
-43.2536

> <Gold.PLP.part.repulsive>
0.0923

> <Gold.PLP.ligand.clash>
0.0000

> <Gold.PLP.ligand.torsion>
0.4059

> <Gold.PLP.Chemscore.Hbond>
1.0000

> <Gold.PLP.Chemscore.CHOScore>
0.0000

> <Gold.PLP.Chemscore.Metal>
0.0000

> <Gold.Chemscore.Hbonds>
donor molecule, donor type, donor heavy atom, donor atom, acceptor molecule, acceptor atom, score
      P1  H  7997  8010       L1     7  1.00

> <Gold.PLP.Chemscore.Internal.Correction>
0.0135

> <Gold.Rescore>
     Score         DG    S(hbond)    S(metal)    S(lipo)     H(rot)  DE(clash)    DE(int)     intcor
     11.87     -15.66       0.99        0.00      92.07       1.53       0.16       3.63       ----

> <Gold.Chemscore.Fitness>
11.8678

> <Gold.Chemscore.DG>
-15.6639

> <Gold.Chemscore.ZeroCoef>
-5.4800

> <Gold.Chemscore.Hbond>
0.9938

> <Gold.Chemscore.Metal>
0.0000

> <Gold.Chemscore.Lipo>
92.0738

> <Gold.Chemscore.Internal_Hbond>
0.0000

> <Gold.Chemscore.DEClash>
0.1644

> <Gold.Chemscore.DEInternal>
3.6317

> <Gold.Chemscore.Rot>
1.5266

> <Gold.Chemscore.Internal.Correction>
   9.000000E+99

> <Gold.Chemscore.Hbonds>
donor molecule, donor type, donor heavy atom, donor atom, acceptor molecule, acceptor atom, score
      P1  H  7997  8010       L1     7  1.00

> <Gold.Chemscore.Hbond.Weighted>
-3.3193

> <Gold.Chemscore.Metal.Weighted>
-0.0000

> <Gold.Chemscore.Lipo.Weighted>
-10.7726

> <Gold.Chemscore.Internal_Hbond.Weighted>
0.0000

> <Gold.Chemscore.DEClash.Weighted>
0.1644

> <Gold.Chemscore.DEInternal.Weighted>
3.6317

> <Gold.Chemscore.Rot.Weighted>
3.9081

> <Gold.Chemscore.Internal.Correction.Weighted>
   9.000000E+99

> <Gold.Protein.RotatedTorsions>
[ 6907 6896 6895 6894 ] final  -51.64 input  -60.11 | X-H torsion
[ 7974 7965 7964 7962 ] final   13.10 input  175.53 | X-H torsion
[ 8008 7997 7996 7995 ] final   81.54 input   59.86 | X-H torsion
[ 10167 10162 10161 10158 ] final -163.11 input  -65.29 | X-H torsion
[ 10718 10713 10712 10709 ] final  -76.93 input   66.30 | X-H torsion
[ 10763 10752 10751 10750 ] final  146.89 input  -60.55 | X-H torsion
[ 11005 11000 10999 10996 ] final   21.80 input  -57.11 | X-H torsion

> <Gold.Protein.ActiveResidues>
 VAL166  LYS551  ARG553  GLY616  TRP617  ASP618  TYR619  PRO620  LYS621  CYS622 
 ASP623  PHE694  ASN695  SER759  ASP760  ASP761  ALA762  ILE779  LEU786  VAL792 
 PHE793  MET794  SER795  GLU796  ALA797  LYS798  CYS799  TRP800  GLU811  SER814 

> <Gold.Protein.RotatedAtoms>
  150.8592  134.7939  159.7069 H   0  0  0  0  0  0  0  0  0  0  0  0  # atno 6907 bound_to 6896
  152.4634  134.5128  159.9769 H   0  0  0  0  0  0  0  0  0  0  0  0  # atno 6908 bound_to 6896
  151.5235  133.3424  159.2941 H   0  0  0  0  0  0  0  0  0  0  0  0  # atno 6909 bound_to 6896
  146.2337  139.9238  142.8506 H   0  0  0  0  0  0  0  0  0  0  0  0  # atno 7974 bound_to 7965
  155.8985  140.3434  155.6009 H   0  0  0  0  0  0  0  0  0  0  0  0  # atno 8008 bound_to 7997
  155.7527  140.0822  157.2212 H   0  0  0  0  0  0  0  0  0  0  0  0  # atno 8009 bound_to 7997
  154.4041  140.1550  156.2730 H   0  0  0  0  0  0  0  0  0  0  0  0  # atno 8010 bound_to 7997
  139.6344  144.0378  152.2042 H   0  0  0  0  0  0  0  0  0  0  0  0  # atno 10167 bound_to 10162
  156.0160  130.4478  150.3269 H   0  0  0  0  0  0  0  0  0  0  0  0  # atno 10718 bound_to 10713
  154.0293  135.2899  155.3370 H   0  0  0  0  0  0  0  0  0  0  0  0  # atno 10763 bound_to 10752
  154.6998  135.5193  153.8513 H   0  0  0  0  0  0  0  0  0  0  0  0  # atno 10764 bound_to 10752
  153.0647  135.6626  154.0507 H   0  0  0  0  0  0  0  0  0  0  0  0  # atno 10765 bound_to 10752
  140.3876  134.1854  155.7663 H   0  0  0  0  0  0  0  0  0  0  0  0  # atno 11005 bound_to 11000
  145.2111  140.9896  143.4100 LP  0  0  0  0  0  0  0  0  0  0  0  0  # atno 17320 bound_to 7965
  144.9691  139.3899  143.6318 LP  0  0  0  0  0  0  0  0  0  0  0  0  # atno 17321 bound_to 7965
  140.0052  144.6264  150.7695 LP  0  0  0  0  0  0  0  0  0  0  0  0  # atno 17342 bound_to 10162
  140.7457  143.2879  151.3411 LP  0  0  0  0  0  0  0  0  0  0  0  0  # atno 17343 bound_to 10162
  157.1368  131.0286  151.2945 LP  0  0  0  0  0  0  0  0  0  0  0  0  # atno 17370 bound_to 10713
  157.4505  130.7596  149.7147 LP  0  0  0  0  0  0  0  0  0  0  0  0  # atno 17371 bound_to 10713
  141.1902  133.8222  157.0927 LP  0  0  0  0  0  0  0  0  0  0  0  0  # atno 17394 bound_to 11000
  140.0431  134.9844  157.0999 LP  0  0  0  0  0  0  0  0  0  0  0  0  # atno 17395 bound_to 11000

$$$$
