AV-unprocessed.smi:139|AV-procd|sdf|1183|dock6
  -GOLD-   2262018333D 1   1.00000     0.00000
 Structure written by MMmdl.
 50 53  0  0  0  0  0  0  0  0  1 V2000
  149.5404  136.7876  156.0394 O   0  0  0  0  0  0  0  0  0  0  0  0
  150.2772  136.5910  155.0723 C   0  0  0  0  0  0  0  0  0  0  0  0
  151.1727  137.7140  154.5301 C   0  0  0  0  0  0  0  0  0  0  0  0
  150.6759  139.0616  154.8828 N   0  0  0  0  0  0  0  0  0  0  0  0
  149.4176  139.4833  154.3864 C   0  0  0  0  0  0  0  0  0  0  0  0
  148.7276  138.7455  153.6818 O   0  0  0  0  0  0  0  0  0  0  0  0
  149.0151  140.8346  154.7595 C   0  0  0  0  0  0  0  0  0  0  0  0
  147.8372  141.3198  154.3317 F   0  0  0  0  0  0  0  0  0  0  0  0
  149.8081  141.6102  155.5272 C   0  0  0  0  0  0  0  0  0  0  0  0
  151.0338  141.1845  156.0080 N   0  0  0  0  0  0  0  0  0  0  0  0
  151.9218  142.0742  156.8534 C   0  0  2  0  0  0  0  0  0  0  0  0
  152.1644  141.4429  158.2382 C   0  0  0  0  0  0  0  0  0  0  0  0
  151.7776  142.5578  159.1901 C   0  0  0  0  0  0  0  0  0  0  0  0
  150.7384  143.3185  158.3809 C   0  0  0  0  0  0  0  0  0  0  0  0
  151.2929  143.3049  157.0725 O   0  0  0  0  0  0  0  0  0  0  0  0
  151.4998  139.8932  155.6788 C   0  0  0  0  0  0  0  0  0  0  0  0
  152.6010  139.5034  156.0749 O   0  0  0  0  0  0  0  0  0  0  0  0
  150.3554  135.4152  154.4268 N   0  0  0  0  0  0  0  0  0  0  0  0
  149.5667  134.2116  154.7019 C   0  0  1  0  0  0  0  0  0  0  0  0
  148.7128  133.8063  153.4826 C   0  0  0  0  0  0  0  0  0  0  0  0
  148.0143  132.4644  153.7105 C   0  0  0  0  0  0  0  0  0  0  0  0
  149.0369  131.3466  153.9430 C   0  0  0  0  0  0  0  0  0  0  0  0
  150.1076  131.7087  154.9613 C   0  0  0  0  0  0  0  0  0  0  0  0
  150.8590  130.6692  155.5492 C   0  0  0  0  0  0  0  0  0  0  0  0
  151.8670  130.9583  156.4870 C   0  0  0  0  0  0  0  0  0  0  0  0
  152.1290  132.2926  156.8445 C   0  0  0  0  0  0  0  0  0  0  0  0
  151.3840  133.3350  156.2626 C   0  0  0  0  0  0  0  0  0  0  0  0
  150.3751  133.0585  155.3103 C   0  0  0  0  0  0  0  0  0  0  0  0
  152.1869  137.5441  154.8935 H   0  0  0  0  0  0  0  0  0  0  0  0
  151.2590  137.6194  153.4459 H   0  0  0  0  0  0  0  0  0  0  0  0
  149.4519  142.6017  155.7612 H   0  0  0  0  0  0  0  0  0  0  0  0
  152.8286  142.2273  156.2658 H   0  0  0  0  0  0  0  0  0  0  0  0
  151.5141  140.5785  158.3803 H   0  0  0  0  0  0  0  0  0  0  0  0
  153.2022  141.1274  158.3472 H   0  0  0  0  0  0  0  0  0  0  0  0
  151.3945  142.1924  160.1430 H   0  0  0  0  0  0  0  0  0  0  0  0
  152.6381  143.1981  159.3884 H   0  0  0  0  0  0  0  0  0  0  0  0
  149.7802  142.7973  158.3905 H   0  0  0  0  0  0  0  0  0  0  0  0
  150.5829  144.3354  158.7412 H   0  0  0  0  0  0  0  0  0  0  0  0
  150.9966  135.3574  153.6492 H   0  0  0  0  0  0  0  0  0  0  0  0
  148.8701  134.5026  155.4890 H   0  0  0  0  0  0  0  0  0  0  0  0
  147.9814  134.5843  153.2614 H   0  0  0  0  0  0  0  0  0  0  0  0
  149.3375  133.7127  152.5937 H   0  0  0  0  0  0  0  0  0  0  0  0
  147.3594  132.5459  154.5790 H   0  0  0  0  0  0  0  0  0  0  0  0
  147.3756  132.2161  152.8623 H   0  0  0  0  0  0  0  0  0  0  0  0
  148.5228  130.4378  154.2585 H   0  0  0  0  0  0  0  0  0  0  0  0
  149.5390  131.1112  153.0040 H   0  0  0  0  0  0  0  0  0  0  0  0
  150.6640  129.6417  155.2788 H   0  0  0  0  0  0  0  0  0  0  0  0
  152.4379  130.1569  156.9324 H   0  0  0  0  0  0  0  0  0  0  0  0
  152.9005  132.5175  157.5660 H   0  0  0  0  0  0  0  0  0  0  0  0
  151.5954  134.3534  156.5535 H   0  0  0  0  0  0  0  0  0  0  0  0
  1  2  2  0  0  0  0
  2  3  1  0  0  0  0
  2 18  1  0  0  0  0
  3  4  1  0  0  0  0
  3 29  1  0  0  0  0
  3 30  1  0  0  0  0
  4 16  1  0  0  0  0
  4  5  1  0  0  0  0
  5  6  2  0  0  0  0
  5  7  1  0  0  0  0
  7  8  1  0  0  0  0
  7  9  2  0  0  0  0
  9 10  1  0  0  0  0
  9 31  1  0  0  0  0
 10 11  1  0  0  0  0
 10 16  1  0  0  0  0
 11 15  1  0  0  0  0
 11 12  1  0  0  0  0
 11 32  1  0  0  0  0
 12 13  1  0  0  0  0
 12 33  1  0  0  0  0
 12 34  1  0  0  0  0
 13 14  1  0  0  0  0
 13 35  1  0  0  0  0
 13 36  1  0  0  0  0
 14 15  1  0  0  0  0
 14 37  1  0  0  0  0
 14 38  1  0  0  0  0
 16 17  2  0  0  0  0
 18 19  1  0  0  0  0
 18 39  1  0  0  0  0
 19 28  1  0  0  0  0
 19 20  1  0  0  0  0
 19 40  1  0  0  0  0
 20 21  1  0  0  0  0
 20 41  1  0  0  0  0
 20 42  1  0  0  0  0
 21 22  1  0  0  0  0
 21 43  1  0  0  0  0
 21 44  1  0  0  0  0
 22 23  1  0  0  0  0
 22 45  1  0  0  0  0
 22 46  1  0  0  0  0
 23 28  2  0  0  0  0
 23 24  1  0  0  0  0
 24 25  2  0  0  0  0
 24 47  1  0  0  0  0
 25 26  1  0  0  0  0
 25 48  1  0  0  0  0
 26 27  2  0  0  0  0
 26 49  1  0  0  0  0
 27 28  1  0  0  0  0
 27 50  1  0  0  0  0
M  END
> <s_m_source_file>
AV-unprocessed.smi

> <i_m_source_file_index>
139

> <i_lp_mmshare_version>
43012

> <i_f3d_flags>
0

> <s_epik_input>
W2NIXTFbY0hdW2NIXVtjSF1jKGMxMilbQ0BASF0oW0NIMl1bQ0gyXVtDSDJdMilbTkhdQyg9TylbQ0gyXW4zYyg9TyljKEYpW2NIXW4oYzM9TylbQ0BASF00W0NIMl1bQ0gyXVtDSDJdTzQ=

> <s_epik_cmdline>
J2VwaWtfcHl0aG9uJywgJy1waCcsICc3LjAnLCAnLXRuJywgJzgnLCAnLW1hJywgJzIwMCcsICctbWV0YWxfYmluZGluZycsICctaW1hZScsICc8aW5maWxlLm1hZT4nLCAnLW9tYWUnLCAnPG91dGZpbGUubWFlPic=

> <r_lp_tautomer_probability>
1

> <r_epik_Ionization_Penalty>
3.261e-08

> <r_epik_Ionization_Penalty_Charging>
3.6725e-09

> <r_epik_Ionization_Penalty_Neutral>
2.89375e-08

> <r_epik_State_Penalty>
-0

> <r_epik_Charging_Adjusted_Penalty>
3.6725e-09

> <i_epik_Tot_Q>
0

> <i_epik_Tot_abs_Q>
0

> <r_epik_Metal_State_Penalty>
-0

> <b_epik_Metal_Only>
0

> <s_epik_Chemistry_Notes>
This compound contains an acetal/aminal-like group ( X-CH(R)-Y where X, Y are N, S, or O) that may be acid/base labile, releasing an aldehyde.

> <s_lp_Force_Field>
OPLS_2005

> <r_lp_Energy>
30.9596

> <b_lp_Chiralities_Consistent>
1

> <s_lp_Variant>
AV-unprocessed.smi:139-3

> <Gold.Version>
5.8.1

> <Gold.Id.Protein>
6NUR|6NUR_protein|mol2

> <Gold.PLP.Fitness>
53.7293

> <Gold.PLP.PLP>
-47.3301

> <Gold.PLP.part.hbond>
-2.9037

> <Gold.PLP.part.metal>
0.0000

> <Gold.PLP.part.buried>
-4.0639

> <Gold.PLP.part.nonpolar>
-40.1428

> <Gold.PLP.part.repulsive>
1.8349

> <Gold.PLP.ligand.clash>
0.0000

> <Gold.PLP.ligand.torsion>
0.3822

> <Gold.PLP.Chemscore.Hbond>
1.3607

> <Gold.PLP.Chemscore.CHOScore>
1.0000

> <Gold.PLP.Chemscore.Metal>
0.0000

> <Gold.Chemscore.Hbonds>
donor molecule, donor type, donor heavy atom, donor atom, acceptor molecule, acceptor atom, score
      L1  H    18    39       P1  7949  0.30
      P1  H  7997  8009       L1    17  1.00
      L1  C     9    31       P1  8028  1.00

> <Gold.PLP.Chemscore.Internal.Correction>
0.0816

> <Gold.Rescore>
     Score         DG    S(hbond)    S(metal)    S(lipo)     H(rot)  DE(clash)    DE(int)     intcor
     12.05     -15.00       0.99        0.00      92.82       1.82       0.28       2.67       ----

> <Gold.Chemscore.Fitness>
12.0544

> <Gold.Chemscore.DG>
-15.0004

> <Gold.Chemscore.ZeroCoef>
-5.4800

> <Gold.Chemscore.Hbond>
0.9918

> <Gold.Chemscore.Metal>
0.0000

> <Gold.Chemscore.Lipo>
92.8216

> <Gold.Chemscore.Internal_Hbond>
0.0000

> <Gold.Chemscore.DEClash>
0.2762

> <Gold.Chemscore.DEInternal>
2.6698

> <Gold.Chemscore.Rot>
1.8174

> <Gold.Chemscore.Internal.Correction>
   9.000000E+99

> <Gold.Chemscore.Hbonds>
donor molecule, donor type, donor heavy atom, donor atom, acceptor molecule, acceptor atom, score
      L1  H    18    39       P1  7949  0.04
      P1  H  7997  8009       L1    17  1.00

> <Gold.Chemscore.Hbond.Weighted>
-3.3127

> <Gold.Chemscore.Metal.Weighted>
-0.0000

> <Gold.Chemscore.Lipo.Weighted>
-10.8601

> <Gold.Chemscore.Internal_Hbond.Weighted>
0.0000

> <Gold.Chemscore.DEClash.Weighted>
0.2762

> <Gold.Chemscore.DEInternal.Weighted>
2.6698

> <Gold.Chemscore.Rot.Weighted>
4.6524

> <Gold.Chemscore.Internal.Correction.Weighted>
   9.000000E+99

> <Gold.Protein.RotatedTorsions>
[ 6907 6896 6895 6894 ] final  169.17 input  -60.11 | X-H torsion
[ 7974 7965 7964 7962 ] final -104.82 input  175.53 | X-H torsion
[ 8008 7997 7996 7995 ] final -166.54 input   59.86 | X-H torsion
[ 10167 10162 10161 10158 ] final  -46.95 input  -65.29 | X-H torsion
[ 10718 10713 10712 10709 ] final  -79.28 input   66.30 | X-H torsion
[ 10763 10752 10751 10750 ] final -138.27 input  -60.55 | X-H torsion
[ 11005 11000 10999 10996 ] final   70.39 input  -57.11 | X-H torsion

> <Gold.Protein.ActiveResidues>
 VAL166  LYS551  ARG553  GLY616  TRP617  ASP618  TYR619  PRO620  LYS621  CYS622 
 ASP623  PHE694  ASN695  SER759  ASP760  ASP761  ALA762  ILE779  LEU786  VAL792 
 PHE793  MET794  SER795  GLU796  ALA797  LYS798  CYS799  TRP800  GLU811  SER814 

> <Gold.Protein.RotatedAtoms>
  151.8361  133.3416  159.3628 H   0  0  0  0  0  0  0  0  0  0  0  0  # atno 6907 bound_to 6896
  150.7249  134.5436  159.5769 H   0  0  0  0  0  0  0  0  0  0  0  0  # atno 6908 bound_to 6896
  152.2900  134.7733  160.0431 H   0  0  0  0  0  0  0  0  0  0  0  0  # atno 6909 bound_to 6896
  145.2383  140.9196  143.3164 H   0  0  0  0  0  0  0  0  0  0  0  0  # atno 7974 bound_to 7965
  155.8652  140.0984  157.1587 H   0  0  0  0  0  0  0  0  0  0  0  0  # atno 8008 bound_to 7997
  154.3993  140.1357  156.4073 H   0  0  0  0  0  0  0  0  0  0  0  0  # atno 8009 bound_to 7997
  155.7812  140.3458  155.5301 H   0  0  0  0  0  0  0  0  0  0  0  0  # atno 8010 bound_to 7997
  140.6796  143.2807  151.3857 H   0  0  0  0  0  0  0  0  0  0  0  0  # atno 10167 bound_to 10162
  156.0096  130.4541  150.3624 H   0  0  0  0  0  0  0  0  0  0  0  0  # atno 10718 bound_to 10713
  154.8641  135.3617  154.5358 H   0  0  0  0  0  0  0  0  0  0  0  0  # atno 10763 bound_to 10752
  153.5982  135.7013  153.5400 H   0  0  0  0  0  0  0  0  0  0  0  0  # atno 10764 bound_to 10752
  153.3314  135.4123  155.1459 H   0  0  0  0  0  0  0  0  0  0  0  0  # atno 10765 bound_to 10752
  139.9600  134.7077  156.0667 H   0  0  0  0  0  0  0  0  0  0  0  0  # atno 11005 bound_to 11000
  144.9612  139.3978  143.6355 LP  0  0  0  0  0  0  0  0  0  0  0  0  # atno 17320 bound_to 7965
  146.3335  139.8666  142.8847 LP  0  0  0  0  0  0  0  0  0  0  0  0  # atno 17321 bound_to 7965
  139.6109  144.1100  152.2298 LP  0  0  0  0  0  0  0  0  0  0  0  0  # atno 17342 bound_to 10162
  140.0514  144.5930  150.7333 LP  0  0  0  0  0  0  0  0  0  0  0  0  # atno 17343 bound_to 10162
  157.1712  131.0369  151.2794 LP  0  0  0  0  0  0  0  0  0  0  0  0  # atno 17370 bound_to 10713
  157.4227  130.7446  149.6926 LP  0  0  0  0  0  0  0  0  0  0  0  0  # atno 17371 bound_to 10713
  141.1276  133.6595  156.3379 LP  0  0  0  0  0  0  0  0  0  0  0  0  # atno 17394 bound_to 11000
  140.5521  134.6017  157.5410 LP  0  0  0  0  0  0  0  0  0  0  0  0  # atno 17395 bound_to 11000

$$$$
