AV-unprocessed.smi:2881|AV-procd|sdf|11062|dock8
  -GOLD-   2272015533D 1   1.00000     0.00000
 Structure written by MMmdl.
 40 42  0  0  0  0  0  0  0  0  1 V2000
  146.8425  139.9644  153.2339 C   0  0  0  0  0  0  0  0  0  0  0  0
  148.0593  139.8059  154.0805 C   0  0  0  0  0  0  0  0  0  0  0  0
  148.2102  139.4402  155.3882 C   0  0  0  0  0  0  0  0  0  0  0  0
  149.6199  139.4708  155.6038 C   0  0  0  0  0  0  0  0  0  0  0  0
  150.3693  139.1477  156.8683 C   0  0  0  0  0  0  0  0  0  0  0  0
  151.4093  140.2318  157.1516 C   0  0  0  0  0  0  0  0  0  0  0  0
  152.4897  140.2185  156.5622 O   0  0  0  0  0  0  0  0  0  0  0  0
  151.0698  141.1647  158.0543 N   0  0  0  0  0  0  0  0  0  0  0  0
  151.9071  142.2926  158.4532 C   0  0  1  0  0  0  0  0  0  0  0  0
  151.3150  143.6190  157.9278 C   0  0  2  0  0  0  0  0  0  0  0  0
  152.4000  144.7084  158.0021 C   0  0  0  0  0  0  0  0  0  0  0  0
  152.4998  144.9755  159.5156 C   0  0  0  0  0  0  0  0  0  0  0  0
  151.4690  143.9917  160.1105 C   0  0  1  0  0  0  0  0  0  0  0  0
  150.3744  144.0438  159.0522 C   0  0  0  0  0  0  0  0  0  0  0  0
  151.9300  142.5176  159.9872 C   0  0  2  0  0  0  0  0  0  0  0  0
  153.2752  142.1678  160.6536 C   0  0  0  0  0  0  0  0  0  0  0  0
  153.2049  142.3774  162.0480 O   0  0  0  0  0  0  0  0  0  0  0  0
  150.2883  139.8349  154.5177 N   0  0  0  0  0  0  0  0  0  0  0  0
  149.3270  140.0338  153.5971 N   0  0  0  0  0  0  0  0  0  0  0  0
  149.5475  140.3214  152.6541 H   0  0  0  0  0  0  0  0  0  0  0  0
  145.9626  139.5634  153.7376 H   0  0  0  0  0  0  0  0  0  0  0  0
  146.9561  139.4372  152.2865 H   0  0  0  0  0  0  0  0  0  0  0  0
  146.6565  141.0164  153.0169 H   0  0  0  0  0  0  0  0  0  0  0  0
  147.4303  139.1823  156.0894 H   0  0  0  0  0  0  0  0  0  0  0  0
  149.6900  139.0609  157.7179 H   0  0  0  0  0  0  0  0  0  0  0  0
  150.8706  138.1838  156.7741 H   0  0  0  0  0  0  0  0  0  0  0  0
  150.1588  141.0977  158.4850 H   0  0  0  0  0  0  0  0  0  0  0  0
  152.9112  142.1469  158.0498 H   0  0  0  0  0  0  0  0  0  0  0  0
  150.8529  143.5410  156.9428 H   0  0  0  0  0  0  0  0  0  0  0  0
  153.3480  144.3843  157.5716 H   0  0  0  0  0  0  0  0  0  0  0  0
  152.0845  145.6095  157.4749 H   0  0  0  0  0  0  0  0  0  0  0  0
  153.5073  144.8369  159.9048 H   0  0  0  0  0  0  0  0  0  0  0  0
  152.2110  146.0044  159.7344 H   0  0  0  0  0  0  0  0  0  0  0  0
  151.1394  144.2611  161.1143 H   0  0  0  0  0  0  0  0  0  0  0  0
  149.9533  145.0410  158.9110 H   0  0  0  0  0  0  0  0  0  0  0  0
  149.5621  143.3369  159.2307 H   0  0  0  0  0  0  0  0  0  0  0  0
  151.1623  141.8958  160.4526 H   0  0  0  0  0  0  0  0  0  0  0  0
  153.5129  141.1186  160.4798 H   0  0  0  0  0  0  0  0  0  0  0  0
  154.1005  142.7445  160.2375 H   0  0  0  0  0  0  0  0  0  0  0  0
  153.9443  141.9504  162.4531 H   0  0  0  0  0  0  0  0  0  0  0  0
  1  2  1  0  0  0  0
  1 21  1  0  0  0  0
  1 22  1  0  0  0  0
  1 23  1  0  0  0  0
  2 19  1  0  0  0  0
  2  3  2  0  0  0  0
  3  4  1  0  0  0  0
  3 24  1  0  0  0  0
  4  5  1  0  0  0  0
  4 18  2  0  0  0  0
  5  6  1  0  0  0  0
  5 25  1  0  0  0  0
  5 26  1  0  0  0  0
  6  7  2  0  0  0  0
  6  8  1  0  0  0  0
  8  9  1  0  0  0  0
  8 27  1  0  0  0  0
  9 15  1  0  0  0  0
  9 10  1  0  0  0  0
  9 28  1  0  0  0  0
 10 14  1  0  0  0  0
 10 11  1  0  0  0  0
 10 29  1  0  0  0  0
 11 12  1  0  0  0  0
 11 30  1  0  0  0  0
 11 31  1  0  0  0  0
 12 13  1  0  0  0  0
 12 32  1  0  0  0  0
 12 33  1  0  0  0  0
 13 14  1  0  0  0  0
 13 15  1  0  0  0  0
 13 34  1  0  0  0  0
 14 35  1  0  0  0  0
 14 36  1  0  0  0  0
 15 16  1  0  0  0  0
 15 37  1  0  0  0  0
 16 17  1  0  0  0  0
 16 38  1  0  0  0  0
 16 39  1  0  0  0  0
 17 40  1  0  0  0  0
 18 19  1  0  0  0  0
 19 20  1  0  0  0  0
M  END
> <s_m_source_file>
AV-unprocessed.smi

> <i_m_source_file_index>
2881

> <i_lp_mmshare_version>
43012

> <i_f3d_flags>
0

> <s_epik_input>
W0NIM11jMVtjSF1jKG5bbkhdMSlbQ0gyXUMoPU8pW05IXVtDQEhdKFtDQEBIXTIzKVtDQEhdKFtDSDJdW09IXSlbQ0BASF0oW0NIMl0zKVtDSDJdW0NIMl0y

> <s_epik_cmdline>
J2VwaWtfcHl0aG9uJywgJy1waCcsICc3LjAnLCAnLXRuJywgJzgnLCAnLW1hJywgJzIwMCcsICctbWV0YWxfYmluZGluZycsICctaW1hZScsICc8aW5maWxlLm1hZT4nLCAnLW9tYWUnLCAnPG91dGZpbGUubWFlPic=

> <r_lp_tautomer_probability>
0.5

> <r_epik_Ionization_Penalty>
9.4349e-05

> <r_epik_Ionization_Penalty_Charging>
0

> <r_epik_Ionization_Penalty_Neutral>
9.4349e-05

> <r_epik_State_Penalty>
0.41068

> <r_epik_Charging_Adjusted_Penalty>
0.41068

> <i_epik_Tot_Q>
0

> <i_epik_Tot_abs_Q>
0

> <r_epik_Metal_State_Penalty>
0.4107

> <b_epik_Metal_Only>
0

> <s_lp_Force_Field>
OPLS_2005

> <r_lp_Energy>
47.6032

> <b_lp_Chiralities_Consistent>
1

> <s_lp_Variant>
AV-unprocessed.smi:2881-8

> <Gold.Version>
5.8.1

> <Gold.Id.Protein>
6NUR|6NUR_protein|mol2

> <Gold.PLP.Fitness>
40.6411

> <Gold.PLP.PLP>
-33.9942

> <Gold.PLP.part.hbond>
-2.8028

> <Gold.PLP.part.metal>
0.0000

> <Gold.PLP.part.buried>
-5.4446

> <Gold.PLP.part.nonpolar>
-26.4544

> <Gold.PLP.part.repulsive>
0.3541

> <Gold.PLP.ligand.clash>
0.0000

> <Gold.PLP.ligand.torsion>
0.5810

> <Gold.PLP.Chemscore.Hbond>
2.5913

> <Gold.PLP.Chemscore.CHOScore>
0.0000

> <Gold.PLP.Chemscore.Metal>
0.0000

> <Gold.Chemscore.Hbonds>
donor molecule, donor type, donor heavy atom, donor atom, acceptor molecule, acceptor atom, score
      L1  H    19    20       P1  7957  0.98
      P1  H  7989  7998       L1    18  0.65
      P1  H  7997  8009       L1     7  1.00

> <Gold.PLP.Chemscore.Internal.Correction>
0.0350

> <Gold.Rescore>
     Score         DG    S(hbond)    S(metal)    S(lipo)     H(rot)  DE(clash)    DE(int)     intcor
     18.52     -19.42       2.09        0.00     109.19       2.28       0.37       0.53       ----

> <Gold.Chemscore.Fitness>
18.5230

> <Gold.Chemscore.DG>
-19.4206

> <Gold.Chemscore.ZeroCoef>
-5.4800

> <Gold.Chemscore.Hbond>
2.0930

> <Gold.Chemscore.Metal>
0.0000

> <Gold.Chemscore.Lipo>
109.1887

> <Gold.Chemscore.Internal_Hbond>
0.0000

> <Gold.Chemscore.DEClash>
0.3697

> <Gold.Chemscore.DEInternal>
0.5278

> <Gold.Chemscore.Rot>
2.2755

> <Gold.Chemscore.Internal.Correction>
   9.000000E+99

> <Gold.Chemscore.Hbonds>
donor molecule, donor type, donor heavy atom, donor atom, acceptor molecule, acceptor atom, score
      L1  H    19    20       P1  7957  0.87
      P1  H  7989  7998       L1    18  0.05
      P1  H  7997  8009       L1     7  0.98

> <Gold.Chemscore.Hbond.Weighted>
-6.9907

> <Gold.Chemscore.Metal.Weighted>
-0.0000

> <Gold.Chemscore.Lipo.Weighted>
-12.7751

> <Gold.Chemscore.Internal_Hbond.Weighted>
0.0000

> <Gold.Chemscore.DEClash.Weighted>
0.3697

> <Gold.Chemscore.DEInternal.Weighted>
0.5278

> <Gold.Chemscore.Rot.Weighted>
5.8252

> <Gold.Chemscore.Internal.Correction.Weighted>
   9.000000E+99

> <Gold.Protein.RotatedTorsions>
[ 6907 6896 6895 6894 ] final  126.32 input  -60.11 | X-H torsion
[ 7974 7965 7964 7962 ] final    8.96 input  175.53 | X-H torsion
[ 8008 7997 7996 7995 ] final -166.72 input   59.86 | X-H torsion
[ 10167 10162 10161 10158 ] final   12.99 input  -65.29 | X-H torsion
[ 10718 10713 10712 10709 ] final  -46.83 input   66.30 | X-H torsion
[ 10763 10752 10751 10750 ] final  173.54 input  -60.55 | X-H torsion
[ 11005 11000 10999 10996 ] final -114.16 input  -57.11 | X-H torsion

> <Gold.Protein.ActiveResidues>
 VAL166  LYS551  ARG553  GLY616  TRP617  ASP618  TYR619  PRO620  LYS621  CYS622 
 ASP623  PHE694  ASN695  SER759  ASP760  ASP761  ALA762  ILE779  LEU786  VAL792 
 PHE793  MET794  SER795  GLU796  ALA797  LYS798  CYS799  TRP800  GLU811  SER814 

> <Gold.Protein.RotatedAtoms>
  152.3914  133.6684  159.6240 H   0  0  0  0  0  0  0  0  0  0  0  0  # atno 6907 bound_to 6896
  150.7821  133.8948  159.3333 H   0  0  0  0  0  0  0  0  0  0  0  0  # atno 6908 bound_to 6896
  151.6734  135.0974  160.0253 H   0  0  0  0  0  0  0  0  0  0  0  0  # atno 6909 bound_to 6896
  146.2410  139.9856  142.8431 H   0  0  0  0  0  0  0  0  0  0  0  0  # atno 7974 bound_to 7965
  155.8677  140.0988  157.1571 H   0  0  0  0  0  0  0  0  0  0  0  0  # atno 8008 bound_to 7997
  154.3995  140.1353  156.4102 H   0  0  0  0  0  0  0  0  0  0  0  0  # atno 8009 bound_to 7997
  155.7786  140.3459  155.5287 H   0  0  0  0  0  0  0  0  0  0  0  0  # atno 8010 bound_to 7997
  140.6032  143.8562  150.6986 H   0  0  0  0  0  0  0  0  0  0  0  0  # atno 10167 bound_to 10162
  156.2144  130.4162  149.9073 H   0  0  0  0  0  0  0  0  0  0  0  0  # atno 10718 bound_to 10713
  154.4415  135.2762  155.1844 H   0  0  0  0  0  0  0  0  0  0  0  0  # atno 10763 bound_to 10752
  154.3708  135.6109  153.5743 H   0  0  0  0  0  0  0  0  0  0  0  0  # atno 10764 bound_to 10752
  152.9841  135.5857  154.4744 H   0  0  0  0  0  0  0  0  0  0  0  0  # atno 10765 bound_to 10752
  141.0569  133.9598  157.2737 H   0  0  0  0  0  0  0  0  0  0  0  0  # atno 11005 bound_to 11000
  145.1551  140.9644  143.4410 LP  0  0  0  0  0  0  0  0  0  0  0  0  # atno 17320 bound_to 7965
  145.0168  139.3460  143.6092 LP  0  0  0  0  0  0  0  0  0  0  0  0  # atno 17321 bound_to 7965
  140.2113  143.3881  152.1716 LP  0  0  0  0  0  0  0  0  0  0  0  0  # atno 17342 bound_to 10162
  139.5306  144.7154  151.5071 LP  0  0  0  0  0  0  0  0  0  0  0  0  # atno 17343 bound_to 10162
  156.6741  130.8832  151.3566 LP  0  0  0  0  0  0  0  0  0  0  0  0  # atno 17370 bound_to 10713
  157.7055  130.9380  150.0918 LP  0  0  0  0  0  0  0  0  0  0  0  0  # atno 17371 bound_to 10713
  139.9398  135.0192  156.8672 LP  0  0  0  0  0  0  0  0  0  0  0  0  # atno 17394 bound_to 11000
  140.5946  134.0229  155.7513 LP  0  0  0  0  0  0  0  0  0  0  0  0  # atno 17395 bound_to 11000

$$$$
