#       Name:                AV-unprocessed.smi:1663
#       Creating user name   scv26
#       Creation time:       Fri Mar 27 07:37:43 2020


#       File generated by GOLD software.
#

@<TRIPOS>MOLECULE
AV-unprocessed.smi:1663
    42    43     1
SMALL
NO_CHARGES


@<TRIPOS>ATOM
      1 ****        -4.4949  -2.6618  -1.3382 C.3            1 S1                 0.0000
      2 ****        -3.0272  -2.5329  -1.2125 N.4            1 S1                 1.0000
      3 ****        -2.6286  -1.7526  -0.0151 C.3            1 S1                 0.0000
      4 ****        -1.0999  -1.7438   0.1566 C.3            1 S1                 0.0000
      5 ****        -0.3950  -1.2007  -1.1028 C.3            1 S1                 0.0000
      6 ****         1.1439  -1.2245  -0.9845 C.3            1 S1                 0.0000
      7 ****         1.6409  -0.4269   0.1324 N.am           1 S1                 0.0000
      8 ****         1.7597   0.9087   0.1314 C.2            1 S1                 0.0000
      9 ****         1.4229   1.6174  -0.8177 O.2            1 S1                 0.0000
     10 ****         2.2866   1.3517   1.2868 N.am           1 S1                 0.0000
     11 ****         2.6046   2.6869   1.6528 C.ar           1 S1                 0.0000
     12 ****         3.1811   2.8348   2.9346 C.ar           1 S1                 0.0000
     13 ****         3.5395   4.1187   3.3894 C.ar           1 S1                 0.0000
     14 ****         3.3116   5.2233   2.5497 C.ar           1 S1                 0.0000
     15 ****         2.7316   4.9894   1.2893 C.ar           1 S1                 0.0000
     16 ****         2.3869   3.7598   0.8516 N.ar           1 S1                 0.0000
     17 ****        -0.8642  -2.0058  -2.3279 C.3            1 S1                 0.0000
     18 ****        -2.3970  -2.0087  -2.4490 C.3            1 S1                 0.0000
     19 ****        -4.9640  -1.6866  -1.4748 H              1 S1                 0.0000
     20 ****        -4.9181  -3.1236  -0.4457 H              1 S1                 0.0000
     21 ****        -4.7553  -3.2894  -2.1913 H              1 S1                 0.0000
     22 ****        -3.0023  -0.7312  -0.1029 H              1 S1                 0.0000
     23 ****        -3.0916  -2.1845   0.8729 H              1 S1                 0.0000
     24 ****        -0.8418  -1.1401   1.0272 H              1 S1                 0.0000
     25 ****        -0.7509  -2.7555   0.3683 H              1 S1                 0.0000
     26 ****        -0.7099  -0.1659  -1.2471 H              1 S1                 0.0000
     27 ****         1.4908  -2.2487  -0.8450 H              1 S1                 0.0000
     28 ****         1.6002  -0.8726  -1.9116 H              1 S1                 0.0000
     29 ****         1.9410  -0.9310   0.9540 H              1 S1                 0.0000
     30 ****         2.5074   0.6499   1.9775 H              1 S1                 0.0000
     31 ****         3.3513   1.9752   3.5663 H              1 S1                 0.0000
     32 ****         3.9822   4.2528   4.3652 H              1 S1                 0.0000
     33 ****         3.5736   6.2232   2.8627 H              1 S1                 0.0000
     34 ****         2.5394   5.8105   0.6149 H              1 S1                 0.0000
     35 ****        -0.4279  -1.5891  -3.2364 H              1 S1                 0.0000
     36 ****        -0.5029  -3.0328  -2.2563 H              1 S1                 0.0000
     37 ****        -2.6925  -2.6251  -3.2990 H              1 S1                 0.0000
     38 ****        -2.7607  -0.9991  -2.6470 H              1 S1                 0.0000
     39 ****        -2.6686  -3.4680  -1.0804 H              1 S1                 0.0000
     40 ****         1.0384   1.2004  -1.6413 LP             1 S1                 0.0000
     41 ****         1.5338   2.6098  -0.7647 LP             1 S1                 0.0000
     42 ****         1.9760   3.6412  -0.0523 LP             1 S1                 0.0000
@<TRIPOS>BOND
    1    1    2 1     
    2    1   19 1     
    3    1   20 1     
    4    1   21 1     
    5    2   18 1     
    6    2    3 1     
    7    2   39 1     
    8    3    4 1     
    9    3   22 1     
   10    3   23 1     
   11    4    5 1     
   12    4   24 1     
   13    4   25 1     
   14    5    6 1     
   15    5   17 1     
   16    5   26 1     
   17    6    7 1     
   18    6   27 1     
   19    6   28 1     
   20    7    8 am    
   21    7   29 1     
   22    8    9 2     
   23    8   10 am    
   24   10   11 1     
   25   10   30 1     
   26   11   16 ar    
   27   11   12 ar    
   28   12   13 ar    
   29   12   31 1     
   30   13   14 ar    
   31   13   32 1     
   32   14   15 ar    
   33   14   33 1     
   34   15   16 ar    
   35   15   34 1     
   36   17   18 1     
   37   17   35 1     
   38   17   36 1     
   39   18   37 1     
   40   18   38 1     
   41    9   40 1     
   42    9   41 1     
   43   16   42 1     
@<TRIPOS>SUBSTRUCTURE
      1 S1             1
@<TRIPOS>SET
LONE_PAIRS      STATIC     ATOMS    <user>   **** ""
3 40 41 42
DONOR_HYDROGENS      STATIC     ATOMS    <user>   **** ""
3 39 29 30
ATOM$BLUE        STATIC     ATOMS    COLORGROUP SYSTEM
3 40 41 42
ATOM$RED        STATIC     ATOMS    COLORGROUP SYSTEM
3 39 29 30
