AV-unprocessed.smi:72|AV-procd|sdf|739|dock2
  -GOLD-   2262017 73D 1   1.00000     0.00000
 Structure written by MMmdl.
 28 29  0  0  0  0  0  0  0  0  2 V2000
  154.1299  137.8613  154.5438 N   0  0  0  0  0  0  0  0  0  0  0  0
  152.9480  138.2598  154.7294 C   0  0  0  0  0  0  0  0  0  0  0  0
  151.8402  137.5299  154.1524 N   0  0  0  0  0  0  0  0  0  0  0  0
  150.6419  137.9749  154.3750 C   0  0  0  0  0  0  0  0  0  0  0  0
  150.4000  139.1647  155.1792 N   0  0  0  0  0  0  0  0  0  0  0  0
  148.9902  139.6722  155.4188 C   0  0  2  0  0  0  0  0  0  0  0  0
  148.1340  138.5794  155.5816 O   0  0  0  0  0  0  0  0  0  0  0  0
  146.9111  138.8210  154.8938 C   0  0  2  0  0  0  0  0  0  0  0  0
  146.1772  137.5043  154.5836 C   0  0  0  0  0  0  0  0  0  0  0  0
  147.1034  136.5081  154.2054 O   0  0  0  0  0  0  0  0  0  0  0  0
  147.3479  139.6387  153.6707 C   0  0  2  0  0  0  0  0  0  0  0  0
  147.8221  138.7927  152.6356 O   0  0  0  0  0  0  0  0  0  0  0  0
  148.4453  140.5242  154.2516 C   0  0  2  0  0  0  0  0  0  0  0  0
  149.3968  140.9391  153.2860 O   0  0  0  0  0  0  0  0  0  0  0  0
  151.5072  139.8713  155.7205 C   0  0  0  0  0  0  0  0  0  0  0  0
  151.2858  140.8929  156.3709 O   0  0  0  0  0  0  0  0  0  0  0  0
  152.7627  139.3957  155.4866 N   0  5  0  0  0  0  0  0  0  0  0  0
  149.0127  140.2176  156.3632 H   0  0  0  0  0  0  0  0  0  0  0  0
  146.2858  139.4605  155.5201 H   0  0  0  0  0  0  0  0  0  0  0  0
  146.5254  140.2318  153.2698 H   0  0  0  0  0  0  0  0  0  0  0  0
  147.9886  141.4128  154.6895 H   0  0  0  0  0  0  0  0  0  0  0  0
  154.1756  137.0251  153.9799 H   0  0  0  0  0  0  0  0  0  0  0  0
  149.7491  137.4931  153.9753 H   0  0  0  0  0  0  0  0  0  0  0  0
  145.6593  137.1444  155.4732 H   0  0  0  0  0  0  0  0  0  0  0  0
  145.4282  137.6415  153.8029 H   0  0  0  0  0  0  0  0  0  0  0  0
  147.6041  136.8270  153.4701 H   0  0  0  0  0  0  0  0  0  0  0  0
  148.3655  139.3074  152.0582 H   0  0  0  0  0  0  0  0  0  0  0  0
  149.4779  140.2561  152.6375 H   0  0  0  0  0  0  0  0  0  0  0  0
  1  2  2  0  0  0  0
  1 22  1  0  0  0  0
  2 17  1  0  0  0  0
  2  3  1  0  0  0  0
  3  4  2  0  0  0  0
  4  5  1  0  0  0  0
  4 23  1  0  0  0  0
  5  6  1  0  0  0  0
  5 15  1  0  0  0  0
  6 18  1  0  0  0  0
  6 13  1  0  0  0  0
  6  7  1  0  0  0  0
  7  8  1  0  0  0  0
  8 19  1  0  0  0  0
  8  9  1  0  0  0  0
  8 11  1  0  0  0  0
  9 10  1  0  0  0  0
  9 24  1  0  0  0  0
  9 25  1  0  0  0  0
 10 26  1  0  0  0  0
 11 20  1  0  0  0  0
 11 12  1  0  0  0  0
 11 13  1  0  0  0  0
 12 27  1  0  0  0  0
 13 21  1  0  0  0  0
 13 14  1  0  0  0  0
 14 28  1  0  0  0  0
 15 16  2  0  0  0  0
 15 17  1  0  0  0  0
M  CHG  1  17  -1
M  END
> <s_m_source_file>
AV-unprocessed.smi

> <i_m_source_file_index>
72

> <i_lp_mmshare_version>
43012

> <i_f3d_flags>
0

> <s_epik_input>
W05IMl1jMW5bY0hdbihjKD1PKW4xKVtDQEBIXTJPW0NASF0oW0NIMl1bT0hdKVtDQEBIXShbT0hdKVtDQEhdMltPSF0=

> <s_epik_cmdline>
J2VwaWtfcHl0aG9uJywgJy1waCcsICc3LjAnLCAnLXRuJywgJzgnLCAnLW1hJywgJzIwMCcsICctbWV0YWxfYmluZGluZycsICctaW1hZScsICc8aW5maWxlLm1hZT4nLCAnLW9tYWUnLCAnPG91dGZpbGUubWFlPic=

> <r_lp_tautomer_probability>
7.17554e-07

> <r_epik_Ionization_Penalty>
12.8705

> <r_epik_Ionization_Penalty_Charging>
5.64144

> <r_epik_Ionization_Penalty_Neutral>
7.22905

> <r_epik_State_Penalty>
3.30104

> <r_epik_Charging_Adjusted_Penalty>
8.94249

> <i_epik_Tot_Q>
-1

> <i_epik_Tot_abs_Q>
1

> <r_epik_Metal_State_Penalty>
0.529074

> <b_epik_Metal_Only>
1

> <s_epik_Chemistry_Notes>
This compound contains an acetal/aminal-like group ( X-CH(R)-Y where X, Y are N, S, or O) that may be acid/base labile, releasing an aldehyde.

> <s_lp_Force_Field>
OPLS_2005

> <r_lp_Energy>
43.5674

> <b_lp_Chiralities_Consistent>
1

> <s_lp_Variant>
AV-unprocessed.smi:72-77

> <Gold.Version>
5.8.1

> <Gold.Id.Protein>
6NUR|6NUR_protein|mol2

> <Gold.PLP.Fitness>
48.8908

> <Gold.PLP.PLP>
-28.7643

> <Gold.PLP.part.hbond>
-8.7262

> <Gold.PLP.part.metal>
0.0000

> <Gold.PLP.part.buried>
-5.7019

> <Gold.PLP.part.nonpolar>
-16.2131

> <Gold.PLP.part.repulsive>
0.2213

> <Gold.PLP.ligand.clash>
0.0000

> <Gold.PLP.ligand.torsion>
0.8253

> <Gold.PLP.Chemscore.Hbond>
6.4009

> <Gold.PLP.Chemscore.CHOScore>
0.8563

> <Gold.PLP.Chemscore.Metal>
0.0000

> <Gold.Chemscore.Hbonds>
donor molecule, donor type, donor heavy atom, donor atom, acceptor molecule, acceptor atom, score
      L1  H    10    26       P1  7948  0.54
      L1  H    12    27       P1  7957  1.00
      L1  H    14    28       P1  7957  0.76
      P1  H  7989  7998       L1    14  0.04
      P1  H  7997  8009       L1    17  2.00
      P1  H  8011  8017       L1    14  1.00
      P1  H 10752 10764       L1     3  0.37
      L1  C     4    23       P1  7948  0.94

> <Gold.PLP.Chemscore.Internal.Correction>
0.0054

> <Gold.Rescore>
     Score         DG    S(hbond)    S(metal)    S(lipo)     H(rot)  DE(clash)    DE(int)     intcor
     10.61     -11.45       4.32        0.00      16.07       4.04       0.05       0.79       ----

> <Gold.Chemscore.Fitness>
10.6070

> <Gold.Chemscore.DG>
-11.4518

> <Gold.Chemscore.ZeroCoef>
-5.4800

> <Gold.Chemscore.Hbond>
4.3218

> <Gold.Chemscore.Metal>
0.0000

> <Gold.Chemscore.Lipo>
16.0686

> <Gold.Chemscore.Internal_Hbond>
0.0000

> <Gold.Chemscore.DEClash>
0.0549

> <Gold.Chemscore.DEInternal>
0.7899

> <Gold.Chemscore.Rot>
4.0403

> <Gold.Chemscore.Internal.Correction>
   9.000000E+99

> <Gold.Chemscore.Hbonds>
donor molecule, donor type, donor heavy atom, donor atom, acceptor molecule, acceptor atom, score
      L1  H    10    26       P1  7948  0.54
      L1  H    12    27       P1  7957  1.00
      L1  H    14    28       P1  7957  0.74
      P1  H  7997  8009       L1    17  0.85
      P1  H  8011  8017       L1    14  0.35
      P1  H 10752 10764       L1     3  0.02

> <Gold.Chemscore.Hbond.Weighted>
-14.4349

> <Gold.Chemscore.Metal.Weighted>
-0.0000

> <Gold.Chemscore.Lipo.Weighted>
-1.8800

> <Gold.Chemscore.Internal_Hbond.Weighted>
0.0000

> <Gold.Chemscore.DEClash.Weighted>
0.0549

> <Gold.Chemscore.DEInternal.Weighted>
0.7899

> <Gold.Chemscore.Rot.Weighted>
10.3431

> <Gold.Chemscore.Internal.Correction.Weighted>
   9.000000E+99

> <Gold.Protein.RotatedTorsions>
[ 6907 6896 6895 6894 ] final  -67.06 input  -60.11 | X-H torsion
[ 7974 7965 7964 7962 ] final  164.42 input  175.53 | X-H torsion
[ 8008 7997 7996 7995 ] final -149.26 input   59.86 | X-H torsion
[ 10167 10162 10161 10158 ] final  116.03 input  -65.29 | X-H torsion
[ 10718 10713 10712 10709 ] final  119.94 input   66.30 | X-H torsion
[ 10763 10752 10751 10750 ] final  -87.74 input  -60.55 | X-H torsion
[ 11005 11000 10999 10996 ] final  -50.60 input  -57.11 | X-H torsion

> <Gold.Protein.ActiveResidues>
 VAL166  LYS551  ARG553  GLY616  TRP617  ASP618  TYR619  PRO620  LYS621  CYS622 
 ASP623  PHE694  ASN695  SER759  ASP760  ASP761  ALA762  ILE779  LEU786  VAL792 
 PHE793  MET794  SER795  GLU796  ALA797  LYS798  CYS799  TRP800  GLU811  SER814 

> <Gold.Protein.RotatedAtoms>
  150.7430  134.5934  159.5999 H   0  0  0  0  0  0  0  0  0  0  0  0  # atno 6907 bound_to 6896
  152.3316  134.7249  160.0297 H   0  0  0  0  0  0  0  0  0  0  0  0  # atno 6908 bound_to 6896
  151.7731  133.3307  159.3486 H   0  0  0  0  0  0  0  0  0  0  0  0  # atno 6909 bound_to 6896
  144.7546  139.8324  143.6354 H   0  0  0  0  0  0  0  0  0  0  0  0  # atno 7974 bound_to 7965
  155.6048  140.0665  157.2723 H   0  0  0  0  0  0  0  0  0  0  0  0  # atno 8008 bound_to 7997
  154.4269  140.1812  156.1258 H   0  0  0  0  0  0  0  0  0  0  0  0  # atno 8009 bound_to 7997
  156.0131  140.3324  155.6965 H   0  0  0  0  0  0  0  0  0  0  0  0  # atno 8010 bound_to 7997
  139.6275  144.7110  151.2502 H   0  0  0  0  0  0  0  0  0  0  0  0  # atno 10167 bound_to 10162
  157.5926  131.1062  150.7966 H   0  0  0  0  0  0  0  0  0  0  0  0  # atno 10718 bound_to 10713
  154.6369  135.5402  153.7745 H   0  0  0  0  0  0  0  0  0  0  0  0  # atno 10763 bound_to 10752
  153.0313  135.6450  154.1217 H   0  0  0  0  0  0  0  0  0  0  0  0  # atno 10764 bound_to 10752
  154.1144  135.2924  155.3203 H   0  0  0  0  0  0  0  0  0  0  0  0  # atno 10765 bound_to 10752
  141.0825  133.6650  156.3755 H   0  0  0  0  0  0  0  0  0  0  0  0  # atno 11005 bound_to 11000
  146.1540  139.4631  143.0031 LP  0  0  0  0  0  0  0  0  0  0  0  0  # atno 17320 bound_to 7965
  145.6825  141.0187  143.1599 LP  0  0  0  0  0  0  0  0  0  0  0  0  # atno 17321 bound_to 7965
  140.7420  143.6540  150.8223 LP  0  0  0  0  0  0  0  0  0  0  0  0  # atno 17342 bound_to 10162
  140.0160  143.5592  152.2820 LP  0  0  0  0  0  0  0  0  0  0  0  0  # atno 17343 bound_to 10162
  156.8384  130.5039  149.5324 LP  0  0  0  0  0  0  0  0  0  0  0  0  # atno 17370 bound_to 10713
  156.0983  130.5950  150.9852 LP  0  0  0  0  0  0  0  0  0  0  0  0  # atno 17371 bound_to 10713
  140.5437  134.6095  157.5387 LP  0  0  0  0  0  0  0  0  0  0  0  0  # atno 17394 bound_to 11000
  139.9640  134.7404  156.0177 LP  0  0  0  0  0  0  0  0  0  0  0  0  # atno 17395 bound_to 11000

$$$$
