AV-unprocessed.smi:3129|AV-procd|sdf|11924|dock8
  -GOLD-   2272017303D 1   1.00000     0.00000
 Structure written by MMmdl.
 39 39  0  0  0  0  0  0  0  0  1 V2000
  152.2450  143.4849  161.5178 C   0  0  0  0  0  0  0  0  0  0  0  0
  152.9011  143.4214  160.1305 C   0  0  0  0  0  0  0  0  0  0  0  0
  151.9091  143.8756  159.0455 C   0  0  0  0  0  0  0  0  0  0  0  0
  153.4756  142.0139  159.8662 C   0  0  0  0  0  0  0  0  0  0  0  0
  152.4623  141.0809  159.3817 N   0  0  0  0  0  0  0  0  0  0  0  0
  152.7043  139.8969  158.7970 C   0  0  0  0  0  0  0  0  0  0  0  0
  153.8377  139.4592  158.5964 O   0  0  0  0  0  0  0  0  0  0  0  0
  151.4746  139.0899  158.3475 C   0  0  2  0  0  0  0  0  0  0  0  0
  151.4750  137.6963  158.9964 C   0  0  0  0  0  0  0  0  0  0  0  0
  151.3653  138.9575  156.8834 N   0  0  0  0  0  0  0  0  0  0  0  0
  150.0233  139.1835  156.3584 C   0  0  0  0  0  0  0  0  0  0  0  0
  150.1180  139.6870  154.9117 C   0  0  0  0  0  0  0  0  0  0  0  0
  148.8657  140.2692  154.4700 N   0  0  0  0  0  0  0  0  0  0  0  0
  148.5150  141.6013  154.4073 C   0  0  0  0  0  0  0  0  0  0  0  0
  147.2344  141.6622  153.9371 C   0  0  0  0  0  0  0  0  0  0  0  0
  146.8816  140.2978  153.7398 C   0  0  0  0  0  0  0  0  0  0  0  0
  147.8595  139.4662  154.0614 N   0  0  0  0  0  0  0  0  0  0  0  0
  151.3966  142.8033  161.5863 H   0  0  0  0  0  0  0  0  0  0  0  0
  151.8831  144.4900  161.7364 H   0  0  0  0  0  0  0  0  0  0  0  0
  152.9533  143.2146  162.3015 H   0  0  0  0  0  0  0  0  0  0  0  0
  153.7325  144.1279  160.1332 H   0  0  0  0  0  0  0  0  0  0  0  0
  151.0751  143.1790  158.9565 H   0  0  0  0  0  0  0  0  0  0  0  0
  152.3869  143.9501  158.0687 H   0  0  0  0  0  0  0  0  0  0  0  0
  151.4982  144.8588  159.2762 H   0  0  0  0  0  0  0  0  0  0  0  0
  154.2498  142.0731  159.1007 H   0  0  0  0  0  0  0  0  0  0  0  0
  153.9684  141.6301  160.7613 H   0  0  0  0  0  0  0  0  0  0  0  0
  151.4985  141.3602  159.4955 H   0  0  0  0  0  0  0  0  0  0  0  0
  150.5821  139.6097  158.7009 H   0  0  0  0  0  0  0  0  0  0  0  0
  151.5404  137.7652  160.0831 H   0  0  0  0  0  0  0  0  0  0  0  0
  152.3129  137.0897  158.6501 H   0  0  0  0  0  0  0  0  0  0  0  0
  150.5578  137.1561  158.7598 H   0  0  0  0  0  0  0  0  0  0  0  0
  152.0258  139.5549  156.4064 H   0  0  0  0  0  0  0  0  0  0  0  0
  149.4527  138.2542  156.3945 H   0  0  0  0  0  0  0  0  0  0  0  0
  149.4931  139.9202  156.9628 H   0  0  0  0  0  0  0  0  0  0  0  0
  150.9003  140.4418  154.8199 H   0  0  0  0  0  0  0  0  0  0  0  0
  150.3830  138.8717  154.2363 H   0  0  0  0  0  0  0  0  0  0  0  0
  149.1973  142.3855  154.7006 H   0  0  0  0  0  0  0  0  0  0  0  0
  146.6400  142.5465  153.7615 H   0  0  0  0  0  0  0  0  0  0  0  0
  145.9502  139.8896  153.3761 H   0  0  0  0  0  0  0  0  0  0  0  0
  1  2  1  0  0  0  0
  1 18  1  0  0  0  0
  1 19  1  0  0  0  0
  1 20  1  0  0  0  0
  2  3  1  0  0  0  0
  2  4  1  0  0  0  0
  2 21  1  0  0  0  0
  3 22  1  0  0  0  0
  3 23  1  0  0  0  0
  3 24  1  0  0  0  0
  4  5  1  0  0  0  0
  4 25  1  0  0  0  0
  4 26  1  0  0  0  0
  5  6  1  0  0  0  0
  5 27  1  0  0  0  0
  6  7  2  0  0  0  0
  6  8  1  0  0  0  0
  8  9  1  0  0  0  0
  8 10  1  0  0  0  0
  8 28  1  0  0  0  0
  9 29  1  0  0  0  0
  9 30  1  0  0  0  0
  9 31  1  0  0  0  0
 10 11  1  0  0  0  0
 10 32  1  0  0  0  0
 11 12  1  0  0  0  0
 11 33  1  0  0  0  0
 11 34  1  0  0  0  0
 12 13  1  0  0  0  0
 12 35  1  0  0  0  0
 12 36  1  0  0  0  0
 13 17  1  0  0  0  0
 13 14  1  0  0  0  0
 14 15  2  0  0  0  0
 14 37  1  0  0  0  0
 15 16  1  0  0  0  0
 15 38  1  0  0  0  0
 16 17  2  0  0  0  0
 16 39  1  0  0  0  0
M  END
> <s_m_source_file>
AV-unprocessed.smi

> <i_m_source_file_index>
3129

> <i_lp_mmshare_version>
43012

> <i_f3d_flags>
0

> <s_epik_input>
W0NIM11bQ0hdKFtDSDNdKVtDSDJdW05IXUMoPU8pW0NASF0oW0NIM10pW05IXVtDSDJdW0NIMl1uMVtjSF1bY0hdW2NIXW4x

> <s_epik_cmdline>
J2VwaWtfcHl0aG9uJywgJy1waCcsICc3LjAnLCAnLXRuJywgJzgnLCAnLW1hJywgJzIwMCcsICctbWV0YWxfYmluZGluZycsICctaW1hZScsICc8aW5maWxlLm1hZT4nLCAnLW9tYWUnLCAnPG91dGZpbGUubWFlPic=

> <r_lp_tautomer_probability>
1

> <r_epik_Ionization_Penalty>
0.724007

> <r_epik_Ionization_Penalty_Charging>
0

> <r_epik_Ionization_Penalty_Neutral>
0.724007

> <r_epik_State_Penalty>
0.74758

> <r_epik_Charging_Adjusted_Penalty>
0.74758

> <i_epik_Tot_Q>
0

> <i_epik_Tot_abs_Q>
0

> <r_epik_Metal_State_Penalty>
0.746851

> <b_epik_Metal_Only>
0

> <s_lp_Force_Field>
OPLS_2005

> <r_lp_Energy>
5.79034

> <b_lp_Chiralities_Consistent>
1

> <s_lp_Variant>
AV-unprocessed.smi:3129-3

> <Gold.Version>
5.8.1

> <Gold.Id.Protein>
6NUR|6NUR_protein|mol2

> <Gold.PLP.Fitness>
42.2901

> <Gold.PLP.PLP>
-36.0337

> <Gold.PLP.part.hbond>
-1.0000

> <Gold.PLP.part.metal>
0.0000

> <Gold.PLP.part.buried>
-3.8546

> <Gold.PLP.part.nonpolar>
-31.5899

> <Gold.PLP.part.repulsive>
0.2836

> <Gold.PLP.ligand.clash>
0.0000

> <Gold.PLP.ligand.torsion>
1.4624

> <Gold.PLP.Chemscore.Hbond>
1.0000

> <Gold.PLP.Chemscore.CHOScore>
2.0000

> <Gold.PLP.Chemscore.Metal>
0.0000

> <Gold.Chemscore.Hbonds>
donor molecule, donor type, donor heavy atom, donor atom, acceptor molecule, acceptor atom, score
      P1  H  7997  8008       L1     7  1.00
      L1  C    14    37       P1  8028  1.00
      L1  C    16    39       P1 10175  1.00

> <Gold.PLP.Chemscore.Internal.Correction>
0.1812

> <Gold.Rescore>
     Score         DG    S(hbond)    S(metal)    S(lipo)     H(rot)  DE(clash)    DE(int)     intcor
     12.67     -14.04       0.99        0.00      91.51       2.13       0.13       1.23       ----

> <Gold.Chemscore.Fitness>
12.6744

> <Gold.Chemscore.DG>
-14.0384

> <Gold.Chemscore.ZeroCoef>
-5.4800

> <Gold.Chemscore.Hbond>
0.9928

> <Gold.Chemscore.Metal>
0.0000

> <Gold.Chemscore.Lipo>
91.5110

> <Gold.Chemscore.Internal_Hbond>
0.0000

> <Gold.Chemscore.DEClash>
0.1293

> <Gold.Chemscore.DEInternal>
1.2348

> <Gold.Chemscore.Rot>
2.1345

> <Gold.Chemscore.Internal.Correction>
   9.000000E+99

> <Gold.Chemscore.Hbonds>
donor molecule, donor type, donor heavy atom, donor atom, acceptor molecule, acceptor atom, score
      P1  H  7997  8008       L1     7  0.96

> <Gold.Chemscore.Hbond.Weighted>
-3.3159

> <Gold.Chemscore.Metal.Weighted>
-0.0000

> <Gold.Chemscore.Lipo.Weighted>
-10.7068

> <Gold.Chemscore.Internal_Hbond.Weighted>
0.0000

> <Gold.Chemscore.DEClash.Weighted>
0.1293

> <Gold.Chemscore.DEInternal.Weighted>
1.2348

> <Gold.Chemscore.Rot.Weighted>
5.4642

> <Gold.Chemscore.Internal.Correction.Weighted>
   9.000000E+99

> <Gold.Protein.RotatedTorsions>
[ 6907 6896 6895 6894 ] final -174.23 input  -60.11 | X-H torsion
[ 7974 7965 7964 7962 ] final   94.81 input  175.53 | X-H torsion
[ 8008 7997 7996 7995 ] final  -93.25 input   59.86 | X-H torsion
[ 10167 10162 10161 10158 ] final -125.88 input  -65.29 | X-H torsion
[ 10718 10713 10712 10709 ] final -162.26 input   66.30 | X-H torsion
[ 10763 10752 10751 10750 ] final    5.35 input  -60.55 | X-H torsion
[ 11005 11000 10999 10996 ] final   61.99 input  -57.11 | X-H torsion

> <Gold.Protein.ActiveResidues>
 VAL166  LYS551  ARG553  GLY616  TRP617  ASP618  TYR619  PRO620  LYS621  CYS622 
 ASP623  PHE694  ASN695  SER759  ASP760  ASP761  ALA762  ILE779  LEU786  VAL792 
 PHE793  MET794  SER795  GLU796  ALA797  LYS798  CYS799  TRP800  GLU811  SER814 

> <Gold.Protein.RotatedAtoms>
  151.5690  133.3392  159.2985 H   0  0  0  0  0  0  0  0  0  0  0  0  # atno 6907 bound_to 6896
  150.8378  134.7662  159.6919 H   0  0  0  0  0  0  0  0  0  0  0  0  # atno 6908 bound_to 6896
  152.4452  134.5517  159.9920 H   0  0  0  0  0  0  0  0  0  0  0  0  # atno 6909 bound_to 6896
  145.4605  139.2287  143.2990 H   0  0  0  0  0  0  0  0  0  0  0  0  # atno 7974 bound_to 7965
  154.7333  140.0501  157.0745 H   0  0  0  0  0  0  0  0  0  0  0  0  # atno 8008 bound_to 7997
  155.0274  140.3154  155.4752 H   0  0  0  0  0  0  0  0  0  0  0  0  # atno 8009 bound_to 7997
  156.2846  140.2156  156.5394 H   0  0  0  0  0  0  0  0  0  0  0  0  # atno 8010 bound_to 7997
  139.9774  143.5780  152.2391 H   0  0  0  0  0  0  0  0  0  0  0  0  # atno 10167 bound_to 10162
  156.6079  130.8838  151.2929 H   0  0  0  0  0  0  0  0  0  0  0  0  # atno 10718 bound_to 10713
  153.2604  135.6922  153.7585 H   0  0  0  0  0  0  0  0  0  0  0  0  # atno 10763 bound_to 10752
  153.6646  135.3354  155.3137 H   0  0  0  0  0  0  0  0  0  0  0  0  # atno 10764 bound_to 10752
  154.8428  135.4485  154.1592 H   0  0  0  0  0  0  0  0  0  0  0  0  # atno 10765 bound_to 10752
  140.0123  134.6278  155.9762 H   0  0  0  0  0  0  0  0  0  0  0  0  # atno 11005 bound_to 11000
  146.2453  140.5374  142.8916 LP  0  0  0  0  0  0  0  0  0  0  0  0  # atno 17320 bound_to 7965
  144.8005  140.6205  143.6481 LP  0  0  0  0  0  0  0  0  0  0  0  0  # atno 17321 bound_to 7965
  139.6435  144.7656  151.2290 LP  0  0  0  0  0  0  0  0  0  0  0  0  # atno 17342 bound_to 10162
  140.7501  143.6277  150.8453 LP  0  0  0  0  0  0  0  0  0  0  0  0  # atno 17343 bound_to 10162
  157.7262  130.9626  150.1647 LP  0  0  0  0  0  0  0  0  0  0  0  0  # atno 17370 bound_to 10713
  156.2415  130.3691  149.8332 LP  0  0  0  0  0  0  0  0  0  0  0  0  # atno 17371 bound_to 10713
  141.1719  133.6538  156.4683 LP  0  0  0  0  0  0  0  0  0  0  0  0  # atno 17394 bound_to 11000
  140.4533  134.6908  157.5050 LP  0  0  0  0  0  0  0  0  0  0  0  0  # atno 17395 bound_to 11000

$$$$
