AV-unprocessed.smi:2923|AV-procd|sdf|11208|dock5
  -GOLD-   2272016103D 1   1.00000     0.00000
 Structure written by MMmdl.
 47 49  0  0  0  0  0  0  0  0  2 V2000
  150.9909  142.3235  156.8466 C   0  0  0  0  0  0  0  0  0  0  0  0
  149.7509  141.6128  157.1389 N   0  0  0  0  0  0  0  0  0  0  0  0
  148.9229  142.0116  158.2694 C   0  0  0  0  0  0  0  0  0  0  0  0
  149.3623  140.5199  156.3345 C   0  0  0  0  0  0  0  0  0  0  0  0
  150.0284  140.1624  155.1366 C   0  0  0  0  0  0  0  0  0  0  0  0
  149.5759  139.0588  154.3849 C   0  0  0  0  0  0  0  0  0  0  0  0
  148.4677  138.3098  154.8322 C   0  0  0  0  0  0  0  0  0  0  0  0
  148.0408  137.2183  154.0279 N   0  0  0  0  0  0  0  0  0  0  0  0
  146.9947  136.3943  154.2120 C   0  0  0  0  0  0  0  0  0  0  0  0
  146.2345  136.4110  155.1795 O   0  0  0  0  0  0  0  0  0  0  0  0
  146.8815  135.5244  153.2001 N   0  0  0  0  0  0  0  0  0  0  0  0
  145.8333  134.5168  153.0916 C   0  0  2  0  0  0  0  0  0  0  0  0
  146.2221  133.3703  152.1579 C   0  0  1  0  0  0  0  0  0  0  0  0
  146.4974  131.9203  152.3401 C   0  0  0  0  0  0  0  0  0  0  0  0
  145.6471  131.3934  151.1530 C   0  0  0  0  0  0  0  0  0  0  0  0
  144.8583  132.5202  150.6978 O   0  0  0  0  0  0  0  0  0  0  0  0
  144.7389  133.3336  151.8466 C   0  0  2  0  0  0  0  0  0  0  0  0
  144.7307  134.8656  152.0212 C   0  0  0  0  0  0  0  0  0  0  0  0
  143.4336  135.4485  152.5826 C   0  0  0  0  0  0  0  0  0  0  0  0
  145.0990  135.7291  150.7975 C   0  0  0  0  0  0  0  0  0  0  0  0
  147.8321  138.7096  156.0319 C   0  0  0  0  0  0  0  0  0  0  0  0
  148.2973  139.7748  156.7195 N   0  3  0  0  0  0  0  0  0  0  0  0
  151.8429  141.6444  156.8909 H   0  0  0  0  0  0  0  0  0  0  0  0
  151.1674  143.1259  157.5632 H   0  0  0  0  0  0  0  0  0  0  0  0
  150.9522  142.7677  155.8515 H   0  0  0  0  0  0  0  0  0  0  0  0
  148.8125  141.1877  158.9749 H   0  0  0  0  0  0  0  0  0  0  0  0
  147.9325  142.3154  157.9291 H   0  0  0  0  0  0  0  0  0  0  0  0
  149.3627  142.8520  158.8066 H   0  0  0  0  0  0  0  0  0  0  0  0
  150.8812  140.7189  154.7776 H   0  0  0  0  0  0  0  0  0  0  0  0
  150.0830  138.7909  153.4692 H   0  0  0  0  0  0  0  0  0  0  0  0
  148.6126  137.0290  153.2178 H   0  0  0  0  0  0  0  0  0  0  0  0
  147.5512  135.5708  152.4462 H   0  0  0  0  0  0  0  0  0  0  0  0
  145.4375  134.1734  154.0520 H   0  0  0  0  0  0  0  0  0  0  0  0
  146.8241  133.7457  151.3268 H   0  0  0  0  0  0  0  0  0  0  0  0
  147.5546  131.6728  152.2415 H   0  0  0  0  0  0  0  0  0  0  0  0
  146.1325  131.5525  153.3002 H   0  0  0  0  0  0  0  0  0  0  0  0
  146.2701  131.0314  150.3346 H   0  0  0  0  0  0  0  0  0  0  0  0
  144.9977  130.5773  151.4719 H   0  0  0  0  0  0  0  0  0  0  0  0
  144.1383  132.8313  152.6138 H   0  0  0  0  0  0  0  0  0  0  0  0
  142.6243  135.3991  151.8535 H   0  0  0  0  0  0  0  0  0  0  0  0
  143.5547  136.4927  152.8722 H   0  0  0  0  0  0  0  0  0  0  0  0
  143.1022  134.9077  153.4693 H   0  0  0  0  0  0  0  0  0  0  0  0
  144.3372  135.6523  150.0211 H   0  0  0  0  0  0  0  0  0  0  0  0
  146.0448  135.4542  150.3340 H   0  0  0  0  0  0  0  0  0  0  0  0
  145.1801  136.7828  151.0664 H   0  0  0  0  0  0  0  0  0  0  0  0
  146.9654  138.2367  156.4680 H   0  0  0  0  0  0  0  0  0  0  0  0
  147.8142  140.0356  157.5793 H   0  0  0  0  0  0  0  0  0  0  0  0
  1  2  1  0  0  0  0
  1 23  1  0  0  0  0
  1 24  1  0  0  0  0
  1 25  1  0  0  0  0
  2  3  1  0  0  0  0
  2  4  1  0  0  0  0
  3 26  1  0  0  0  0
  3 27  1  0  0  0  0
  3 28  1  0  0  0  0
  4 22  1  0  0  0  0
  4  5  2  0  0  0  0
  5  6  1  0  0  0  0
  5 29  1  0  0  0  0
  6  7  2  0  0  0  0
  6 30  1  0  0  0  0
  7  8  1  0  0  0  0
  7 21  1  0  0  0  0
  8  9  1  0  0  0  0
  8 31  1  0  0  0  0
  9 10  2  0  0  0  0
  9 11  1  0  0  0  0
 11 12  1  0  0  0  0
 11 32  1  0  0  0  0
 12 18  1  0  0  0  0
 12 13  1  0  0  0  0
 12 33  1  0  0  0  0
 13 17  1  0  0  0  0
 13 14  1  0  0  0  0
 13 34  1  0  0  0  0
 14 15  1  0  0  0  0
 14 35  1  0  0  0  0
 14 36  1  0  0  0  0
 15 16  1  0  0  0  0
 15 37  1  0  0  0  0
 15 38  1  0  0  0  0
 16 17  1  0  0  0  0
 17 18  1  0  0  0  0
 17 39  1  0  0  0  0
 18 19  1  0  0  0  0
 18 20  1  0  0  0  0
 19 40  1  0  0  0  0
 19 41  1  0  0  0  0
 19 42  1  0  0  0  0
 20 43  1  0  0  0  0
 20 44  1  0  0  0  0
 20 45  1  0  0  0  0
 21 22  2  0  0  0  0
 21 46  1  0  0  0  0
 22 47  1  0  0  0  0
M  CHG  1  22   1
M  END
> <s_m_source_file>
AV-unprocessed.smi

> <i_m_source_file_index>
2923

> <i_lp_mmshare_version>
43012

> <i_f3d_flags>
0

> <s_epik_input>
W0NIM11OKFtDSDNdKWMxW2NIXVtjSF1jKFtjSF1uMSlbTkhdQyg9TylbTkhdW0NASF0yQyhbQ0gzXSkoW0NIM10pW0NAQEhdKFtDQEhdMjMpT1tDSDJdW0NIMl0z

> <s_epik_cmdline>
J2VwaWtfcHl0aG9uJywgJy1waCcsICc3LjAnLCAnLXRuJywgJzgnLCAnLW1hJywgJzIwMCcsICctbWV0YWxfYmluZGluZycsICctaW1hZScsICc8aW5maWxlLm1hZT4nLCAnLW9tYWUnLCAnPG91dGZpbGUubWFlPic=

> <r_lp_tautomer_probability>
0.999994

> <r_epik_Ionization_Penalty>
0.252205

> <r_epik_Ionization_Penalty_Charging>
0.252185

> <r_epik_Ionization_Penalty_Neutral>
1.99479e-05

> <r_epik_State_Penalty>
0.243573

> <r_epik_Charging_Adjusted_Penalty>
0.495758

> <i_epik_Tot_Q>
1

> <i_epik_Tot_abs_Q>
1

> <r_epik_Metal_State_Penalty>
0.534372

> <b_epik_Metal_Only>
0

> <s_lp_Force_Field>
OPLS_2005

> <r_lp_Energy>
68.0101

> <b_lp_Chiralities_Consistent>
1

> <s_lp_Variant>
AV-unprocessed.smi:2923-7

> <Gold.Version>
5.8.1

> <Gold.Id.Protein>
6NUR|6NUR_protein|mol2

> <Gold.PLP.Fitness>
34.8023

> <Gold.PLP.PLP>
-29.0871

> <Gold.PLP.part.hbond>
-2.0000

> <Gold.PLP.part.metal>
0.0000

> <Gold.PLP.part.buried>
-4.8376

> <Gold.PLP.part.nonpolar>
-23.2901

> <Gold.PLP.part.repulsive>
0.1951

> <Gold.PLP.ligand.clash>
0.0000

> <Gold.PLP.ligand.torsion>
0.2647

> <Gold.PLP.Chemscore.Hbond>
1.9920

> <Gold.PLP.Chemscore.CHOScore>
0.0000

> <Gold.PLP.Chemscore.Metal>
0.0000

> <Gold.Chemscore.Hbonds>
donor molecule, donor type, donor heavy atom, donor atom, acceptor molecule, acceptor atom, score
      L1  H     8    31       P1  7948  1.00
      L1  H    11    32       P1  7948  0.98

> <Gold.PLP.Chemscore.Internal.Correction>
0.2685

> <Gold.Rescore>
     Score         DG    S(hbond)    S(metal)    S(lipo)     H(rot)  DE(clash)    DE(int)     intcor
     15.94     -17.45       1.92        0.00      69.22       1.00       0.01       1.49       ----

> <Gold.Chemscore.Fitness>
15.9447

> <Gold.Chemscore.DG>
-17.4481

> <Gold.Chemscore.ZeroCoef>
-5.4800

> <Gold.Chemscore.Hbond>
1.9248

> <Gold.Chemscore.Metal>
0.0000

> <Gold.Chemscore.Lipo>
69.2243

> <Gold.Chemscore.Internal_Hbond>
0.0000

> <Gold.Chemscore.DEClash>
0.0098

> <Gold.Chemscore.DEInternal>
1.4936

> <Gold.Chemscore.Rot>
1.0000

> <Gold.Chemscore.Internal.Correction>
   9.000000E+99

> <Gold.Chemscore.Hbonds>
donor molecule, donor type, donor heavy atom, donor atom, acceptor molecule, acceptor atom, score
      L1  H     8    31       P1  7948  0.96
      L1  H    11    32       P1  7948  0.93

> <Gold.Chemscore.Hbond.Weighted>
-6.4288

> <Gold.Chemscore.Metal.Weighted>
-0.0000

> <Gold.Chemscore.Lipo.Weighted>
-8.0992

> <Gold.Chemscore.Internal_Hbond.Weighted>
0.0000

> <Gold.Chemscore.DEClash.Weighted>
0.0098

> <Gold.Chemscore.DEInternal.Weighted>
1.4936

> <Gold.Chemscore.Rot.Weighted>
2.5600

> <Gold.Chemscore.Internal.Correction.Weighted>
   9.000000E+99

> <Gold.Protein.RotatedTorsions>
[ 6907 6896 6895 6894 ] final -143.86 input  -60.11 | X-H torsion
[ 7974 7965 7964 7962 ] final  120.69 input  175.53 | X-H torsion
[ 8008 7997 7996 7995 ] final -134.47 input   59.86 | X-H torsion
[ 10167 10162 10161 10158 ] final  174.35 input  -65.29 | X-H torsion
[ 10718 10713 10712 10709 ] final   68.99 input   66.30 | X-H torsion
[ 10763 10752 10751 10750 ] final  101.72 input  -60.55 | X-H torsion
[ 11005 11000 10999 10996 ] final   30.34 input  -57.11 | X-H torsion

> <Gold.Protein.ActiveResidues>
 VAL166  LYS551  ARG553  GLY616  TRP617  ASP618  TYR619  PRO620  LYS621  CYS622 
 ASP623  PHE694  ASN695  SER759  ASP760  ASP761  ALA762  ILE779  LEU786  VAL792 
 PHE793  MET794  SER795  GLU796  ALA797  LYS798  CYS799  TRP800  GLU811  SER814 

> <Gold.Protein.RotatedAtoms>
  151.1062  133.5207  159.2607 H   0  0  0  0  0  0  0  0  0  0  0  0  # atno 6907 bound_to 6896
  151.2019  135.0445  159.8885 H   0  0  0  0  0  0  0  0  0  0  0  0  # atno 6908 bound_to 6896
  152.5447  134.0889  159.8321 H   0  0  0  0  0  0  0  0  0  0  0  0  # atno 6909 bound_to 6896
  145.1281  139.3345  143.4679 H   0  0  0  0  0  0  0  0  0  0  0  0  # atno 7974 bound_to 7965
  155.3626  140.0483  157.3046 H   0  0  0  0  0  0  0  0  0  0  0  0  # atno 8008 bound_to 7997
  154.5170  140.2212  155.9010 H   0  0  0  0  0  0  0  0  0  0  0  0  # atno 8009 bound_to 7997
  156.1647  140.3109  155.8874 H   0  0  0  0  0  0  0  0  0  0  0  0  # atno 8010 bound_to 7997
  139.5139  144.3157  152.0250 H   0  0  0  0  0  0  0  0  0  0  0  0  # atno 10167 bound_to 10162
  157.6321  130.9402  150.0452 H   0  0  0  0  0  0  0  0  0  0  0  0  # atno 10718 bound_to 10713
  153.3303  135.4035  155.1489 H   0  0  0  0  0  0  0  0  0  0  0  0  # atno 10763 bound_to 10752
  154.8621  135.3609  154.5480 H   0  0  0  0  0  0  0  0  0  0  0  0  # atno 10764 bound_to 10752
  153.5918  135.7073  153.5479 H   0  0  0  0  0  0  0  0  0  0  0  0  # atno 10765 bound_to 10752
  140.2954  134.2817  155.7766 H   0  0  0  0  0  0  0  0  0  0  0  0  # atno 11005 bound_to 11000
  146.3516  140.1269  142.8598 LP  0  0  0  0  0  0  0  0  0  0  0  0  # atno 17320 bound_to 7965
  145.0665  140.9125  143.4907 LP  0  0  0  0  0  0  0  0  0  0  0  0  # atno 17321 bound_to 7965
  140.2600  144.4077  150.6189 LP  0  0  0  0  0  0  0  0  0  0  0  0  # atno 17342 bound_to 10162
  140.6164  143.2172  151.6783 LP  0  0  0  0  0  0  0  0  0  0  0  0  # atno 17343 bound_to 10162
  156.1532  130.3642  149.9408 LP  0  0  0  0  0  0  0  0  0  0  0  0  # atno 17370 bound_to 10713
  156.7423  130.9084  151.3633 LP  0  0  0  0  0  0  0  0  0  0  0  0  # atno 17371 bound_to 10713
  141.2138  133.7612  156.9688 LP  0  0  0  0  0  0  0  0  0  0  0  0  # atno 17394 bound_to 11000
  140.1157  134.9449  157.2131 LP  0  0  0  0  0  0  0  0  0  0  0  0  # atno 17395 bound_to 11000

$$$$
