AV-unprocessed.smi:2914|AV-procd|sdf|11186|dock4
  -GOLD-   2272016 73D 1   1.00000     0.00000
 Structure written by MMmdl.
 32 34  0  0  0  0  0  0  0  0  1 V2000
  151.4024  141.7426  158.1994 O   0  0  0  0  0  0  0  0  0  0  0  0
  150.8555  142.5425  157.4397 C   0  0  0  0  0  0  0  0  0  0  0  0
  150.3748  142.2526  156.2178 N   0  0  0  0  0  0  0  0  0  0  0  0
  150.3704  141.0596  155.5655 C   0  0  0  0  0  0  0  0  0  0  0  0
  151.1684  139.9665  155.7673 C   0  0  0  0  0  0  0  0  0  0  0  0
  150.6814  139.0457  154.7963 C   0  0  0  0  0  0  0  0  0  0  0  0
  149.6818  139.5332  154.0724 N   0  0  0  0  0  0  0  0  0  0  0  0
  149.4865  140.7844  154.5438 N   0  0  0  0  0  0  0  0  0  0  0  0
  148.4434  141.6172  153.9719 C   0  0  0  0  0  0  0  0  0  0  0  0
  147.3891  141.9778  154.9999 C   0  0  0  0  0  0  0  0  0  0  0  0
  146.0678  141.2463  155.0394 C   0  0  0  0  0  0  0  0  0  0  0  0
  146.1193  142.6877  154.5928 C   0  0  0  0  0  0  0  0  0  0  0  0
  150.6647  143.8353  157.7372 N   0  0  0  0  0  0  0  0  0  0  0  0
  151.0591  144.4727  158.9520 C   0  0  0  0  0  0  0  0  0  0  0  0
  152.2178  145.4444  158.8918 C   0  0  0  0  0  0  0  0  0  0  0  0
  152.4040  144.0986  159.5363 C   0  0  0  0  0  0  0  0  0  0  0  0
  149.9544  143.0190  155.7132 H   0  0  0  0  0  0  0  0  0  0  0  0
  151.9660  139.8268  156.4810 H   0  0  0  0  0  0  0  0  0  0  0  0
  151.0220  138.0405  154.5966 H   0  0  0  0  0  0  0  0  0  0  0  0
  148.8905  142.5286  153.5740 H   0  0  0  0  0  0  0  0  0  0  0  0
  147.9832  141.0925  153.1329 H   0  0  0  0  0  0  0  0  0  0  0  0
  147.8011  142.2566  155.9679 H   0  0  0  0  0  0  0  0  0  0  0  0
  145.8852  140.4902  154.2783 H   0  0  0  0  0  0  0  0  0  0  0  0
  145.6398  141.0365  156.0174 H   0  0  0  0  0  0  0  0  0  0  0  0
  145.7246  143.4397  155.2729 H   0  0  0  0  0  0  0  0  0  0  0  0
  145.9651  142.8895  153.5347 H   0  0  0  0  0  0  0  0  0  0  0  0
  150.2062  144.4165  157.0508 H   0  0  0  0  0  0  0  0  0  0  0  0
  150.2753  144.7080  159.6710 H   0  0  0  0  0  0  0  0  0  0  0  0
  152.6950  145.6098  157.9275 H   0  0  0  0  0  0  0  0  0  0  0  0
  152.1783  146.3130  159.5464 H   0  0  0  0  0  0  0  0  0  0  0  0
  152.4883  144.0682  160.6209 H   0  0  0  0  0  0  0  0  0  0  0  0
  153.0061  143.3656  159.0024 H   0  0  0  0  0  0  0  0  0  0  0  0
  1  2  2  0  0  0  0
  2  3  1  0  0  0  0
  2 13  1  0  0  0  0
  3  4  1  0  0  0  0
  3 17  1  0  0  0  0
  4  8  1  0  0  0  0
  4  5  2  0  0  0  0
  5  6  1  0  0  0  0
  5 18  1  0  0  0  0
  6  7  2  0  0  0  0
  6 19  1  0  0  0  0
  7  8  1  0  0  0  0
  8  9  1  0  0  0  0
  9 10  1  0  0  0  0
  9 20  1  0  0  0  0
  9 21  1  0  0  0  0
 10 12  1  0  0  0  0
 10 11  1  0  0  0  0
 10 22  1  0  0  0  0
 11 12  1  0  0  0  0
 11 23  1  0  0  0  0
 11 24  1  0  0  0  0
 12 25  1  0  0  0  0
 12 26  1  0  0  0  0
 13 14  1  0  0  0  0
 13 27  1  0  0  0  0
 14 16  1  0  0  0  0
 14 15  1  0  0  0  0
 14 28  1  0  0  0  0
 15 16  1  0  0  0  0
 15 29  1  0  0  0  0
 15 30  1  0  0  0  0
 16 31  1  0  0  0  0
 16 32  1  0  0  0  0
M  END
> <s_m_source_file>
AV-unprocessed.smi

> <i_m_source_file_index>
2914

> <i_lp_mmshare_version>
43012

> <i_f3d_flags>
0

> <s_epik_input>
W0NIMl0xW0NIMl1bQ0hdMVtOSF1DKD1PKVtOSF1jMltjSF1bY0hdbm4yW0NIMl1bQ0hdM1tDSDJdW0NIMl0z

> <s_epik_cmdline>
J2VwaWtfcHl0aG9uJywgJy1waCcsICc3LjAnLCAnLXRuJywgJzgnLCAnLW1hJywgJzIwMCcsICctbWV0YWxfYmluZGluZycsICctaW1hZScsICc8aW5maWxlLm1hZT4nLCAnLW9tYWUnLCAnPG91dGZpbGUubWFlPic=

> <r_lp_tautomer_probability>
1

> <r_epik_Ionization_Penalty>
4.83987e-05

> <r_epik_Ionization_Penalty_Charging>
0

> <r_epik_Ionization_Penalty_Neutral>
4.83987e-05

> <r_epik_State_Penalty>
-0

> <r_epik_Charging_Adjusted_Penalty>
0

> <i_epik_Tot_Q>
0

> <i_epik_Tot_abs_Q>
0

> <r_epik_Metal_State_Penalty>
-0

> <b_epik_Metal_Only>
0

> <s_lp_Force_Field>
OPLS_2005

> <r_lp_Energy>
29.2759

> <b_lp_Chiralities_Consistent>
1

> <s_lp_Variant>
AV-unprocessed.smi:2914-1

> <Gold.Version>
5.8.1

> <Gold.Id.Protein>
6NUR|6NUR_protein|mol2

> <Gold.PLP.Fitness>
42.9540

> <Gold.PLP.PLP>
-37.5730

> <Gold.PLP.part.hbond>
-2.0438

> <Gold.PLP.part.metal>
0.0000

> <Gold.PLP.part.buried>
-2.4894

> <Gold.PLP.part.nonpolar>
-33.3444

> <Gold.PLP.part.repulsive>
1.3371

> <Gold.PLP.ligand.clash>
0.0000

> <Gold.PLP.ligand.torsion>
0.6076

> <Gold.PLP.Chemscore.Hbond>
2.0000

> <Gold.PLP.Chemscore.CHOScore>
0.0000

> <Gold.PLP.Chemscore.Metal>
0.0000

> <Gold.Chemscore.Hbonds>
donor molecule, donor type, donor heavy atom, donor atom, acceptor molecule, acceptor atom, score
      L1  H     3    17       P1  8028  1.00
      L1  H    13    27       P1  8028  1.00

> <Gold.PLP.Chemscore.Internal.Correction>
0.5961

> <Gold.Rescore>
     Score         DG    S(hbond)    S(metal)    S(lipo)     H(rot)  DE(clash)    DE(int)     intcor
     13.31     -16.27       1.68        0.00      74.85       1.39       0.17       2.80       ----

> <Gold.Chemscore.Fitness>
13.3060

> <Gold.Chemscore.DG>
-16.2724

> <Gold.Chemscore.ZeroCoef>
-5.4800

> <Gold.Chemscore.Hbond>
1.6770

> <Gold.Chemscore.Metal>
0.0000

> <Gold.Chemscore.Lipo>
74.8465

> <Gold.Chemscore.Internal_Hbond>
0.0000

> <Gold.Chemscore.DEClash>
0.1683

> <Gold.Chemscore.DEInternal>
2.7981

> <Gold.Chemscore.Rot>
1.3929

> <Gold.Chemscore.Internal.Correction>
   9.000000E+99

> <Gold.Chemscore.Hbonds>
donor molecule, donor type, donor heavy atom, donor atom, acceptor molecule, acceptor atom, score
      L1  H     3    17       P1  8028  0.92
      L1  H    13    27       P1  8028  0.72

> <Gold.Chemscore.Hbond.Weighted>
-5.6010

> <Gold.Chemscore.Metal.Weighted>
-0.0000

> <Gold.Chemscore.Lipo.Weighted>
-8.7570

> <Gold.Chemscore.Internal_Hbond.Weighted>
0.0000

> <Gold.Chemscore.DEClash.Weighted>
0.1683

> <Gold.Chemscore.DEInternal.Weighted>
2.7981

> <Gold.Chemscore.Rot.Weighted>
3.5657

> <Gold.Chemscore.Internal.Correction.Weighted>
   9.000000E+99

> <Gold.Protein.RotatedTorsions>
[ 6907 6896 6895 6894 ] final    0.28 input  -60.11 | X-H torsion
[ 7974 7965 7964 7962 ] final  -40.72 input  175.53 | X-H torsion
[ 8008 7997 7996 7995 ] final  -56.93 input   59.86 | X-H torsion
[ 10167 10162 10161 10158 ] final  104.38 input  -65.29 | X-H torsion
[ 10718 10713 10712 10709 ] final  113.73 input   66.30 | X-H torsion
[ 10763 10752 10751 10750 ] final  -87.86 input  -60.55 | X-H torsion
[ 11005 11000 10999 10996 ] final  -36.76 input  -57.11 | X-H torsion

> <Gold.Protein.ActiveResidues>
 VAL166  LYS551  ARG553  GLY616  TRP617  ASP618  TYR619  PRO620  LYS621  CYS622 
 ASP623  PHE694  ASN695  SER759  ASP760  ASP761  ALA762  ILE779  LEU786  VAL792 
 PHE793  MET794  SER795  GLU796  ALA797  LYS798  CYS799  TRP800  GLU811  SER814 

> <Gold.Protein.RotatedAtoms>
  151.5739  135.1061  160.0001 H   0  0  0  0  0  0  0  0  0  0  0  0  # atno 6907 bound_to 6896
  152.4387  133.7404  159.6648 H   0  0  0  0  0  0  0  0  0  0  0  0  # atno 6908 bound_to 6896
  150.8289  133.8055  159.3130 H   0  0  0  0  0  0  0  0  0  0  0  0  # atno 6909 bound_to 6896
  146.0278  140.6769  142.9147 H   0  0  0  0  0  0  0  0  0  0  0  0  # atno 7974 bound_to 7965
  154.4248  140.1118  156.5716 H   0  0  0  0  0  0  0  0  0  0  0  0  # atno 8008 bound_to 7997
  155.6206  140.3495  155.4632 H   0  0  0  0  0  0  0  0  0  0  0  0  # atno 8009 bound_to 7997
  156.0027  140.1202  157.0521 H   0  0  0  0  0  0  0  0  0  0  0  0  # atno 8010 bound_to 7997
  139.7182  144.7064  151.0916 H   0  0  0  0  0  0  0  0  0  0  0  0  # atno 10167 bound_to 10162
  157.6321  131.0988  150.7084 H   0  0  0  0  0  0  0  0  0  0  0  0  # atno 10718 bound_to 10713
  154.6382  135.5398  153.7759 H   0  0  0  0  0  0  0  0  0  0  0  0  # atno 10763 bound_to 10752
  153.0320  135.6452  154.1199 H   0  0  0  0  0  0  0  0  0  0  0  0  # atno 10764 bound_to 10752
  154.1125  135.2926  155.3207 H   0  0  0  0  0  0  0  0  0  0  0  0  # atno 10765 bound_to 10752
  140.9899  133.7010  156.1832 H   0  0  0  0  0  0  0  0  0  0  0  0  # atno 11005 bound_to 11000
  144.7017  140.3681  143.7150 LP  0  0  0  0  0  0  0  0  0  0  0  0  # atno 17320 bound_to 7965
  145.7089  139.1680  143.2550 LP  0  0  0  0  0  0  0  0  0  0  0  0  # atno 17321 bound_to 7965
  140.7748  143.5202  150.9546 LP  0  0  0  0  0  0  0  0  0  0  0  0  # atno 17342 bound_to 10162
  139.8888  143.6979  152.3148 LP  0  0  0  0  0  0  0  0  0  0  0  0  # atno 17343 bound_to 10162
  156.7421  130.4742  149.5475 LP  0  0  0  0  0  0  0  0  0  0  0  0  # atno 17370 bound_to 10713
  156.1533  130.6324  151.0624 LP  0  0  0  0  0  0  0  0  0  0  0  0  # atno 17371 bound_to 10713
  140.7055  134.4517  157.5584 LP  0  0  0  0  0  0  0  0  0  0  0  0  # atno 17394 bound_to 11000
  139.8988  134.8606  156.1988 LP  0  0  0  0  0  0  0  0  0  0  0  0  # atno 17395 bound_to 11000

$$$$
