AV-unprocessed.smi:2973|AV-procd|sdf|11337|dock6
  -GOLD-   2272016243D 1   1.00000     0.00000
 Structure written by MMmdl.
 49 51  0  0  0  0  0  0  0  0  1 V2000
  152.5474  140.3356  159.0961 C   0  0  0  0  0  0  0  0  0  0  0  0
  152.5079  141.8518  158.8092 C   0  0  2  0  0  0  0  0  0  0  0  0
  152.2357  142.6449  160.1058 C   0  0  0  0  0  0  0  0  0  0  0  0
  152.2858  144.1617  159.8648 C   0  0  0  0  0  0  0  0  0  0  0  0
  151.3043  144.5884  158.7645 C   0  0  0  0  0  0  0  0  0  0  0  0
  151.5581  143.8109  157.4607 C   0  0  0  0  0  0  0  0  0  0  0  0
  151.5422  142.2736  157.6562 C   0  0  1  0  0  0  0  0  0  0  0  0
  151.8998  141.6208  156.4088 N   0  0  0  0  0  0  0  0  0  0  0  0
  150.9186  140.8591  155.9102 C   0  0  0  0  0  0  0  0  0  0  0  0
  150.9876  140.2045  154.8711 O   0  0  0  0  0  0  0  0  0  0  0  0
  149.8641  140.9315  156.7411 N   0  0  0  0  0  0  0  0  0  0  0  0
  148.6115  140.1894  156.5477 C   0  0  0  0  0  0  0  0  0  0  0  0
  148.6516  138.7690  157.1301 C   0  0  0  0  0  0  0  0  0  0  0  0
  148.3120  137.7954  156.4555 O   0  0  0  0  0  0  0  0  0  0  0  0
  149.0823  138.6697  158.3963 N   0  0  0  0  0  0  0  0  0  0  0  0
  149.1790  137.4285  159.1554 C   0  0  0  0  0  0  0  0  0  0  0  0
  147.8297  136.6946  159.2279 C   0  0  0  0  0  0  0  0  0  0  0  0
  147.6821  135.9022  160.5129 C   0  0  0  0  0  0  0  0  0  0  0  0
  147.5808  136.5605  161.7572 C   0  0  0  0  0  0  0  0  0  0  0  0
  147.4273  135.7793  162.9188 C   0  0  0  0  0  0  0  0  0  0  0  0
  147.3805  134.3775  162.7923 C   0  0  0  0  0  0  0  0  0  0  0  0
  147.4901  133.8168  161.5042 C   0  0  0  0  0  0  0  0  0  0  0  0
  147.6370  134.5567  160.3840 N   0  0  0  0  0  0  0  0  0  0  0  0
  150.1201  141.7239  157.7911 C   0  0  0  0  0  0  0  0  0  0  0  0
  149.3588  141.9751  158.7257 O   0  0  0  0  0  0  0  0  0  0  0  0
  151.5921  139.9691  159.4727 H   0  0  0  0  0  0  0  0  0  0  0  0
  153.3023  140.1036  159.8476 H   0  0  0  0  0  0  0  0  0  0  0  0
  152.7965  139.7618  158.2037 H   0  0  0  0  0  0  0  0  0  0  0  0
  153.5149  142.1207  158.4858 H   0  0  0  0  0  0  0  0  0  0  0  0
  151.2668  142.3707  160.5235 H   0  0  0  0  0  0  0  0  0  0  0  0
  152.9749  142.3800  160.8626 H   0  0  0  0  0  0  0  0  0  0  0  0
  152.0595  144.6924  160.7899 H   0  0  0  0  0  0  0  0  0  0  0  0
  153.2985  144.4522  159.5823 H   0  0  0  0  0  0  0  0  0  0  0  0
  150.2803  144.4331  159.1044 H   0  0  0  0  0  0  0  0  0  0  0  0
  151.4022  145.6582  158.5789 H   0  0  0  0  0  0  0  0  0  0  0  0
  150.8195  144.1091  156.7149 H   0  0  0  0  0  0  0  0  0  0  0  0
  152.5257  144.1111  157.0558 H   0  0  0  0  0  0  0  0  0  0  0  0
  152.8044  141.7343  155.9748 H   0  0  0  0  0  0  0  0  0  0  0  0
  147.7768  140.7262  157.0014 H   0  0  0  0  0  0  0  0  0  0  0  0
  148.3832  140.1330  155.4818 H   0  0  0  0  0  0  0  0  0  0  0  0
  149.3462  139.5189  158.8749 H   0  0  0  0  0  0  0  0  0  0  0  0
  149.9184  136.7935  158.6665 H   0  0  0  0  0  0  0  0  0  0  0  0
  149.5599  137.6321  160.1578 H   0  0  0  0  0  0  0  0  0  0  0  0
  147.0065  137.4070  159.1573 H   0  0  0  0  0  0  0  0  0  0  0  0
  147.7247  136.0203  158.3767 H   0  0  0  0  0  0  0  0  0  0  0  0
  147.6150  137.6384  161.8214 H   0  0  0  0  0  0  0  0  0  0  0  0
  147.3450  136.2476  163.8885 H   0  0  0  0  0  0  0  0  0  0  0  0
  147.2628  133.7465  163.6607 H   0  0  0  0  0  0  0  0  0  0  0  0
  147.4569  132.7456  161.3701 H   0  0  0  0  0  0  0  0  0  0  0  0
  1  2  1  0  0  0  0
  1 26  1  0  0  0  0
  1 27  1  0  0  0  0
  1 28  1  0  0  0  0
  2  7  1  0  0  0  0
  2  3  1  0  0  0  0
  2 29  1  0  0  0  0
  3  4  1  0  0  0  0
  3 30  1  0  0  0  0
  3 31  1  0  0  0  0
  4  5  1  0  0  0  0
  4 32  1  0  0  0  0
  4 33  1  0  0  0  0
  5  6  1  0  0  0  0
  5 34  1  0  0  0  0
  5 35  1  0  0  0  0
  6  7  1  0  0  0  0
  6 36  1  0  0  0  0
  6 37  1  0  0  0  0
  7 24  1  0  0  0  0
  7  8  1  0  0  0  0
  8  9  1  0  0  0  0
  8 38  1  0  0  0  0
  9 10  2  0  0  0  0
  9 11  1  0  0  0  0
 11 12  1  0  0  0  0
 11 24  1  0  0  0  0
 12 13  1  0  0  0  0
 12 39  1  0  0  0  0
 12 40  1  0  0  0  0
 13 14  2  0  0  0  0
 13 15  1  0  0  0  0
 15 16  1  0  0  0  0
 15 41  1  0  0  0  0
 16 17  1  0  0  0  0
 16 42  1  0  0  0  0
 16 43  1  0  0  0  0
 17 18  1  0  0  0  0
 17 44  1  0  0  0  0
 17 45  1  0  0  0  0
 18 23  1  0  0  0  0
 18 19  2  0  0  0  0
 19 20  1  0  0  0  0
 19 46  1  0  0  0  0
 20 21  2  0  0  0  0
 20 47  1  0  0  0  0
 21 22  1  0  0  0  0
 21 48  1  0  0  0  0
 22 23  2  0  0  0  0
 22 49  1  0  0  0  0
 24 25  2  0  0  0  0
M  END
> <s_m_source_file>
AV-unprocessed.smi

> <i_m_source_file_index>
2973

> <i_lp_mmshare_version>
43012

> <i_f3d_flags>
0

> <s_epik_input>
W0NIMl0xW0NIMl1bQ0gyXVtDSDJdW0NAQEhdKFtDSDNdKVtDQF0xMltOSF1DKD1PKU4oQzI9TylbQ0gyXUMoPU8pW05IXVtDSDJdW0NIMl1jM1tjSF1bY0hdW2NIXVtjSF1uMw==

> <s_epik_cmdline>
J2VwaWtfcHl0aG9uJywgJy1waCcsICc3LjAnLCAnLXRuJywgJzgnLCAnLW1hJywgJzIwMCcsICctbWV0YWxfYmluZGluZycsICctaW1hZScsICc8aW5maWxlLm1hZT4nLCAnLW9tYWUnLCAnPG91dGZpbGUubWFlPic=

> <r_lp_tautomer_probability>
1

> <r_epik_Ionization_Penalty>
0.0245152

> <r_epik_Ionization_Penalty_Charging>
0

> <r_epik_Ionization_Penalty_Neutral>
0.0245152

> <r_epik_State_Penalty>
0.0198648

> <r_epik_Charging_Adjusted_Penalty>
0.0198648

> <i_epik_Tot_Q>
0

> <i_epik_Tot_abs_Q>
0

> <r_epik_Metal_State_Penalty>
0.0400162

> <b_epik_Metal_Only>
0

> <s_lp_Force_Field>
OPLS_2005

> <r_lp_Energy>
16.1581

> <b_lp_Chiralities_Consistent>
1

> <s_lp_Variant>
AV-unprocessed.smi:2973-1

> <Gold.Version>
5.8.1

> <Gold.Id.Protein>
6NUR|6NUR_protein|mol2

> <Gold.PLP.Fitness>
47.0379

> <Gold.PLP.PLP>
-45.3940

> <Gold.PLP.part.hbond>
-1.9762

> <Gold.PLP.part.metal>
0.0000

> <Gold.PLP.part.buried>
-2.0795

> <Gold.PLP.part.nonpolar>
-42.6111

> <Gold.PLP.part.repulsive>
0.4833

> <Gold.PLP.ligand.clash>
0.0000

> <Gold.PLP.ligand.torsion>
0.6995

> <Gold.PLP.Chemscore.Hbond>
1.0000

> <Gold.PLP.Chemscore.CHOScore>
0.0000

> <Gold.PLP.Chemscore.Metal>
0.0000

> <Gold.Chemscore.Hbonds>
donor molecule, donor type, donor heavy atom, donor atom, acceptor molecule, acceptor atom, score
      P1  H  7989  7998       L1    10  1.00

> <Gold.PLP.Chemscore.Internal.Correction>
0.0430

> <Gold.Rescore>
     Score         DG    S(hbond)    S(metal)    S(lipo)     H(rot)  DE(clash)    DE(int)     intcor
     16.45     -18.64       0.96        0.00     125.78       1.86       1.66       0.53       ----

> <Gold.Chemscore.Fitness>
16.4473

> <Gold.Chemscore.DG>
-18.6417

> <Gold.Chemscore.ZeroCoef>
-5.4800

> <Gold.Chemscore.Hbond>
0.9568

> <Gold.Chemscore.Metal>
0.0000

> <Gold.Chemscore.Lipo>
125.7758

> <Gold.Chemscore.Internal_Hbond>
0.0000

> <Gold.Chemscore.DEClash>
1.6611

> <Gold.Chemscore.DEInternal>
0.5333

> <Gold.Chemscore.Rot>
1.8553

> <Gold.Chemscore.Internal.Correction>
   9.000000E+99

> <Gold.Chemscore.Hbonds>
donor molecule, donor type, donor heavy atom, donor atom, acceptor molecule, acceptor atom, score
      P1  H  7989  7998       L1    10  0.97

> <Gold.Chemscore.Hbond.Weighted>
-3.1956

> <Gold.Chemscore.Metal.Weighted>
-0.0000

> <Gold.Chemscore.Lipo.Weighted>
-14.7158

> <Gold.Chemscore.Internal_Hbond.Weighted>
0.0000

> <Gold.Chemscore.DEClash.Weighted>
1.6611

> <Gold.Chemscore.DEInternal.Weighted>
0.5333

> <Gold.Chemscore.Rot.Weighted>
4.7497

> <Gold.Chemscore.Internal.Correction.Weighted>
   9.000000E+99

> <Gold.Protein.RotatedTorsions>
[ 6907 6896 6895 6894 ] final  165.68 input  -60.11 | X-H torsion
[ 7974 7965 7964 7962 ] final   18.58 input  175.53 | X-H torsion
[ 8008 7997 7996 7995 ] final  106.00 input   59.86 | X-H torsion
[ 10167 10162 10161 10158 ] final  136.33 input  -65.29 | X-H torsion
[ 10718 10713 10712 10709 ] final  152.53 input   66.30 | X-H torsion
[ 10763 10752 10751 10750 ] final  125.18 input  -60.55 | X-H torsion
[ 11005 11000 10999 10996 ] final  148.99 input  -57.11 | X-H torsion

> <Gold.Protein.ActiveResidues>
 VAL166  LYS551  ARG553  GLY616  TRP617  ASP618  TYR619  PRO620  LYS621  CYS622 
 ASP623  PHE694  ASN695  SER759  ASP760  ASP761  ALA762  ILE779  LEU786  VAL792 
 PHE793  MET794  SER795  GLU796  ALA797  LYS798  CYS799  TRP800  GLU811  SER814 

> <Gold.Protein.RotatedAtoms>
  151.8907  133.3515  159.3796 H   0  0  0  0  0  0  0  0  0  0  0  0  # atno 6907 bound_to 6896
  150.7104  134.4927  159.5532 H   0  0  0  0  0  0  0  0  0  0  0  0  # atno 6908 bound_to 6896
  152.2496  134.8146  160.0499 H   0  0  0  0  0  0  0  0  0  0  0  0  # atno 6909 bound_to 6896
  146.2180  139.8436  142.8636 H   0  0  0  0  0  0  0  0  0  0  0  0  # atno 7974 bound_to 7965
  156.1706  140.3120  155.8967 H   0  0  0  0  0  0  0  0  0  0  0  0  # atno 8008 bound_to 7997
  155.3594  140.0475  157.3063 H   0  0  0  0  0  0  0  0  0  0  0  0  # atno 8009 bound_to 7997
  154.5237  140.2207  155.8939 H   0  0  0  0  0  0  0  0  0  0  0  0  # atno 8010 bound_to 7997
  139.5184  144.6470  151.5410 H   0  0  0  0  0  0  0  0  0  0  0  0  # atno 10167 bound_to 10162
  157.2566  131.0789  151.1694 H   0  0  0  0  0  0  0  0  0  0  0  0  # atno 10718 bound_to 10713
  153.6731  135.3327  155.3158 H   0  0  0  0  0  0  0  0  0  0  0  0  # atno 10763 bound_to 10752
  154.8485  135.4391  154.1684 H   0  0  0  0  0  0  0  0  0  0  0  0  # atno 10764 bound_to 10752
  153.2681  135.6997  153.7585 H   0  0  0  0  0  0  0  0  0  0  0  0  # atno 10765 bound_to 10752
  140.1007  134.8985  157.1791 H   0  0  0  0  0  0  0  0  0  0  0  0  # atno 11005 bound_to 11000
  145.2873  141.0157  143.3683 LP  0  0  0  0  0  0  0  0  0  0  0  0  # atno 17320 bound_to 7965
  144.9104  139.4536  143.6590 LP  0  0  0  0  0  0  0  0  0  0  0  0  # atno 17321 bound_to 7965
  140.6259  143.9169  150.6564 LP  0  0  0  0  0  0  0  0  0  0  0  0  # atno 17342 bound_to 10162
  140.2457  143.3630  152.1448 LP  0  0  0  0  0  0  0  0  0  0  0  0  # atno 17343 bound_to 10162
  157.3221  130.6942  149.6275 LP  0  0  0  0  0  0  0  0  0  0  0  0  # atno 17370 bound_to 10713
  155.9665  130.4332  150.4997 LP  0  0  0  0  0  0  0  0  0  0  0  0  # atno 17371 bound_to 10713
  140.3225  134.2901  155.7243 LP  0  0  0  0  0  0  0  0  0  0  0  0  # atno 17394 bound_to 11000
  141.2104  133.7719  156.9930 LP  0  0  0  0  0  0  0  0  0  0  0  0  # atno 17395 bound_to 11000

$$$$
