AV-unprocessed.smi:104|AV-procd|sdf|1007|dock1
  -GOLD-   2262018 03D 1   1.00000     0.00000
 Structure written by MMmdl.
 47 49  0  0  0  0  0  0  0  0  1 V2000
  143.9047  134.8106  162.4487 C   0  0  0  0  0  0  0  0  0  0  0  0
  143.7944  134.8204  160.9300 C   0  0  0  0  0  0  0  0  0  0  0  0
  142.8876  134.2253  160.3475 O   0  0  0  0  0  0  0  0  0  0  0  0
  144.7712  135.5360  160.3513 O   0  0  0  0  0  0  0  0  0  0  0  0
  144.8132  135.6578  158.9388 C   0  0  0  0  0  0  0  0  0  0  0  0
  145.9991  136.5545  158.5411 C   0  0  2  0  0  0  0  0  0  0  0  0
  146.0704  136.5785  157.1131 O   0  0  0  0  0  0  0  0  0  0  0  0
  147.2572  135.9969  156.6645 C   0  0  2  0  0  0  0  0  0  0  0  0
  146.9882  135.1759  155.4399 N   0  0  0  0  0  0  0  0  0  0  0  0
  145.8246  135.0937  154.7113 C   0  0  0  0  0  0  0  0  0  0  0  0
  144.2666  136.0807  155.1842 Br  0  0  0  0  0  0  0  0  0  0  0  0
  145.8315  134.3277  153.6569 N   0  0  0  0  0  0  0  0  0  0  0  0
  147.1319  133.8387  153.6448 C   0  0  0  0  0  0  0  0  0  0  0  0
  147.8475  132.9688  152.7840 C   0  0  0  0  0  0  0  0  0  0  0  0
  147.3007  132.3993  151.7012 N   0  0  0  0  0  0  0  0  0  0  0  0
  149.1448  132.7030  153.0640 N   0  0  0  0  0  0  0  0  0  0  0  0
  149.7149  133.2613  154.1362 C   0  0  0  0  0  0  0  0  0  0  0  0
  149.1737  134.0895  155.0323 N   0  0  0  0  0  0  0  0  0  0  0  0
  147.8650  134.3578  154.7525 C   0  0  0  0  0  0  0  0  0  0  0  0
  147.8256  135.1722  157.8252 C   0  0  2  0  0  0  0  0  0  0  0  0
  147.2479  133.8673  157.8745 O   0  0  0  0  0  0  0  0  0  0  0  0
  147.9749  132.8036  158.2581 C   0  0  0  0  0  0  0  0  0  0  0  0
  147.1733  131.5102  158.2116 C   0  0  0  0  0  0  0  0  0  0  0  0
  149.1590  132.8151  158.5933 O   0  0  0  0  0  0  0  0  0  0  0  0
  147.3736  136.0281  158.9927 C   0  0  2  0  0  0  0  0  0  0  0  0
  147.3833  135.3011  160.2167 O   0  0  0  0  0  0  0  0  0  0  0  0
  147.5811  135.9408  161.3815 C   0  0  0  0  0  0  0  0  0  0  0  0
  147.3580  135.0355  162.5853 C   0  0  0  0  0  0  0  0  0  0  0  0
  147.8993  137.1223  161.5142 O   0  0  0  0  0  0  0  0  0  0  0  0
  143.7127  135.8068  162.8472 H   0  0  0  0  0  0  0  0  0  0  0  0
  144.9039  134.5004  162.7549 H   0  0  0  0  0  0  0  0  0  0  0  0
  143.1809  134.1198  162.8814 H   0  0  0  0  0  0  0  0  0  0  0  0
  144.9292  134.6599  158.5154 H   0  0  0  0  0  0  0  0  0  0  0  0
  143.8795  136.0660  158.5516 H   0  0  0  0  0  0  0  0  0  0  0  0
  145.8428  137.5620  158.9279 H   0  0  0  0  0  0  0  0  0  0  0  0
  147.9338  136.7877  156.3394 H   0  0  0  0  0  0  0  0  0  0  0  0
  146.3355  132.5844  151.4685 H   0  0  0  0  0  0  0  0  0  0  0  0
  147.8540  131.7856  151.1207 H   0  0  0  0  0  0  0  0  0  0  0  0
  150.7522  133.0091  154.3011 H   0  0  0  0  0  0  0  0  0  0  0  0
  148.9139  135.1350  157.7597 H   0  0  0  0  0  0  0  0  0  0  0  0
  146.1485  131.6827  158.5410 H   0  0  0  0  0  0  0  0  0  0  0  0
  147.6221  130.7582  158.8610 H   0  0  0  0  0  0  0  0  0  0  0  0
  147.1496  131.1207  157.1939 H   0  0  0  0  0  0  0  0  0  0  0  0
  148.0630  136.8719  159.0593 H   0  0  0  0  0  0  0  0  0  0  0  0
  148.1016  134.2387  162.6020 H   0  0  0  0  0  0  0  0  0  0  0  0
  146.3664  134.5847  162.5426 H   0  0  0  0  0  0  0  0  0  0  0  0
  147.4386  135.6037  163.5121 H   0  0  0  0  0  0  0  0  0  0  0  0
  1  2  1  0  0  0  0
  1 30  1  0  0  0  0
  1 31  1  0  0  0  0
  1 32  1  0  0  0  0
  2  3  2  0  0  0  0
  2  4  1  0  0  0  0
  4  5  1  0  0  0  0
  5  6  1  0  0  0  0
  5 33  1  0  0  0  0
  5 34  1  0  0  0  0
  6 25  1  0  0  0  0
  6  7  1  0  0  0  0
  6 35  1  0  0  0  0
  7  8  1  0  0  0  0
  8  9  1  0  0  0  0
  8 20  1  0  0  0  0
  8 36  1  0  0  0  0
  9 19  1  0  0  0  0
  9 10  1  0  0  0  0
 10 11  1  0  0  0  0
 10 12  2  0  0  0  0
 12 13  1  0  0  0  0
 13 19  2  0  0  0  0
 13 14  1  0  0  0  0
 14 15  1  0  0  0  0
 14 16  2  0  0  0  0
 15 37  1  0  0  0  0
 15 38  1  0  0  0  0
 16 17  1  0  0  0  0
 17 18  2  0  0  0  0
 17 39  1  0  0  0  0
 18 19  1  0  0  0  0
 20 21  1  0  0  0  0
 20 25  1  0  0  0  0
 20 40  1  0  0  0  0
 21 22  1  0  0  0  0
 22 23  1  0  0  0  0
 22 24  2  0  0  0  0
 23 41  1  0  0  0  0
 23 42  1  0  0  0  0
 23 43  1  0  0  0  0
 25 26  1  0  0  0  0
 25 44  1  0  0  0  0
 26 27  1  0  0  0  0
 27 28  1  0  0  0  0
 27 29  2  0  0  0  0
 28 45  1  0  0  0  0
 28 46  1  0  0  0  0
 28 47  1  0  0  0  0
M  END
> <s_m_source_file>
AV-unprocessed.smi

> <i_m_source_file_index>
104

> <i_lp_mmshare_version>
43012

> <i_f3d_flags>
0

> <s_epik_input>
W0NIM11DKD1PKU9bQ0gyXVtDQEBIXTFPW0NASF0oW0NAQEhdKE9DKD1PKVtDSDNdKVtDQEhdMU9DKD1PKVtDSDNdKW4oYyhCciluMiljKGMyMyluW2NIXW5jM1tOSDJd

> <s_epik_cmdline>
J2VwaWtfcHl0aG9uJywgJy1waCcsICc3LjAnLCAnLXRuJywgJzgnLCAnLW1hJywgJzIwMCcsICctbWV0YWxfYmluZGluZycsICctaW1hZScsICc8aW5maWxlLm1hZT4nLCAnLW9tYWUnLCAnPG91dGZpbGUubWFlPic=

> <r_lp_tautomer_probability>
1

> <r_epik_Ionization_Penalty>
7.36622e-05

> <r_epik_Ionization_Penalty_Charging>
0

> <r_epik_Ionization_Penalty_Neutral>
7.36622e-05

> <r_epik_State_Penalty>
-0

> <r_epik_Charging_Adjusted_Penalty>
0

> <i_epik_Tot_Q>
0

> <i_epik_Tot_abs_Q>
0

> <r_epik_Metal_State_Penalty>
-0

> <b_epik_Metal_Only>
0

> <s_epik_Chemistry_Notes>
This compound has an ester and may undergo hydrolysis at high or low pH. This compound contains an acetal/aminal-like group ( X-CH(R)-Y where X, Y are N, S, or O) that may be acid/base labile, releasing an aldehyde.

> <s_lp_Force_Field>
OPLS_2005

> <r_lp_Energy>
19.209

> <b_lp_Chiralities_Consistent>
1

> <s_lp_Variant>
AV-unprocessed.smi:104-15

> <Gold.Version>
5.8.1

> <Gold.Id.Protein>
6NUR|6NUR_protein|mol2

> <Gold.PLP.Fitness>
36.3094

> <Gold.PLP.PLP>
-26.3885

> <Gold.PLP.part.hbond>
-4.0000

> <Gold.PLP.part.metal>
0.0000

> <Gold.PLP.part.buried>
-5.1213

> <Gold.PLP.part.nonpolar>
-17.3567

> <Gold.PLP.part.repulsive>
0.4491

> <Gold.PLP.ligand.clash>
0.0000

> <Gold.PLP.ligand.torsion>
1.0732

> <Gold.PLP.Chemscore.Hbond>
3.8000

> <Gold.PLP.Chemscore.CHOScore>
0.0000

> <Gold.PLP.Chemscore.Metal>
0.0000

> <Gold.Chemscore.Hbonds>
donor molecule, donor type, donor heavy atom, donor atom, acceptor molecule, acceptor atom, score
      L1  H    15    38       P1 10747  1.00
      P1  H  6896  6908       L1    24  0.72
      P1  H  6931  6943       L1    29  1.00
      P1  H  6934  6947       L1    29  0.57

> <Gold.PLP.Chemscore.Internal.Correction>
0.6673

> <Gold.Rescore>
     Score         DG    S(hbond)    S(metal)    S(lipo)     H(rot)  DE(clash)    DE(int)     intcor
      5.55      -9.89       3.71        0.00      25.93       4.31       0.00       4.33       ----

> <Gold.Chemscore.Fitness>
5.5549

> <Gold.Chemscore.DG>
-9.8865

> <Gold.Chemscore.ZeroCoef>
-5.4800

> <Gold.Chemscore.Hbond>
3.7120

> <Gold.Chemscore.Metal>
0.0000

> <Gold.Chemscore.Lipo>
25.9340

> <Gold.Chemscore.Internal_Hbond>
0.0000

> <Gold.Chemscore.DEClash>
0.0000

> <Gold.Chemscore.DEInternal>
4.3316

> <Gold.Chemscore.Rot>
4.3070

> <Gold.Chemscore.Internal.Correction>
   9.000000E+99

> <Gold.Chemscore.Hbonds>
donor molecule, donor type, donor heavy atom, donor atom, acceptor molecule, acceptor atom, score
      L1  H    15    38       P1 10747  1.00
      P1  H  6896  6908       L1    24  0.70
      P1  H  6931  6943       L1    29  0.98
      P1  H  6934  6947       L1    29  0.56

> <Gold.Chemscore.Hbond.Weighted>
-12.3981

> <Gold.Chemscore.Metal.Weighted>
-0.0000

> <Gold.Chemscore.Lipo.Weighted>
-3.0343

> <Gold.Chemscore.Internal_Hbond.Weighted>
0.0000

> <Gold.Chemscore.DEClash.Weighted>
0.0000

> <Gold.Chemscore.DEInternal.Weighted>
4.3316

> <Gold.Chemscore.Rot.Weighted>
11.0259

> <Gold.Chemscore.Internal.Correction.Weighted>
   9.000000E+99

> <Gold.Protein.RotatedTorsions>
[ 6907 6896 6895 6894 ] final  139.98 input  -60.11 | X-H torsion
[ 7974 7965 7964 7962 ] final  142.30 input  175.53 | X-H torsion
[ 8008 7997 7996 7995 ] final  -16.25 input   59.86 | X-H torsion
[ 10167 10162 10161 10158 ] final -104.83 input  -65.29 | X-H torsion
[ 10718 10713 10712 10709 ] final  -84.71 input   66.30 | X-H torsion
[ 10763 10752 10751 10750 ] final -161.55 input  -60.55 | X-H torsion
[ 11005 11000 10999 10996 ] final -169.37 input  -57.11 | X-H torsion

> <Gold.Protein.ActiveResidues>
 VAL166  LYS551  ARG553  GLY616  TRP617  ASP618  TYR619  PRO620  LYS621  CYS622 
 ASP623  PHE694  ASN695  SER759  ASP760  ASP761  ALA762  ILE779  LEU786  VAL792 
 PHE793  MET794  SER795  GLU796  ALA797  LYS798  CYS799  TRP800  GLU811  SER814 

> <Gold.Protein.RotatedAtoms>
  152.2485  133.5195  159.5310 H   0  0  0  0  0  0  0  0  0  0  0  0  # atno 6907 bound_to 6896
  150.7086  134.0993  159.3969 H   0  0  0  0  0  0  0  0  0  0  0  0  # atno 6908 bound_to 6896
  151.8913  135.0415  160.0549 H   0  0  0  0  0  0  0  0  0  0  0  0  # atno 6909 bound_to 6896
  144.9020  139.5410  143.5749 H   0  0  0  0  0  0  0  0  0  0  0  0  # atno 7974 bound_to 7965
  154.5067  140.2174  155.9236 H   0  0  0  0  0  0  0  0  0  0  0  0  # atno 8008 bound_to 7997
  156.1503  140.3163  155.8603 H   0  0  0  0  0  0  0  0  0  0  0  0  # atno 8009 bound_to 7997
  155.3952  140.0481  157.3030 H   0  0  0  0  0  0  0  0  0  0  0  0  # atno 8010 bound_to 7997
  140.2050  143.3789  152.1098 H   0  0  0  0  0  0  0  0  0  0  0  0  # atno 10167 bound_to 10162
  156.0003  130.4707  150.4451 H   0  0  0  0  0  0  0  0  0  0  0  0  # atno 10718 bound_to 10713
  154.7293  135.3043  154.8918 H   0  0  0  0  0  0  0  0  0  0  0  0  # atno 10763 bound_to 10752
  153.9766  135.6735  153.4753 H   0  0  0  0  0  0  0  0  0  0  0  0  # atno 10764 bound_to 10752
  153.0904  135.4962  154.8598 H   0  0  0  0  0  0  0  0  0  0  0  0  # atno 10765 bound_to 10752
  140.5315  134.5611  157.5076 H   0  0  0  0  0  0  0  0  0  0  0  0  # atno 11005 bound_to 11000
  146.3113  139.7757  142.9017 LP  0  0  0  0  0  0  0  0  0  0  0  0  # atno 17320 bound_to 7965
  145.3601  141.0324  143.3290 LP  0  0  0  0  0  0  0  0  0  0  0  0  # atno 17321 bound_to 7965
  139.5202  144.7030  151.5439 LP  0  0  0  0  0  0  0  0  0  0  0  0  # atno 17342 bound_to 10162
  140.6364  143.8976  150.6651 LP  0  0  0  0  0  0  0  0  0  0  0  0  # atno 17343 bound_to 10162
  157.2489  131.0542  151.2391 LP  0  0  0  0  0  0  0  0  0  0  0  0  # atno 17370 bound_to 10713
  157.3548  130.7101  149.6463 LP  0  0  0  0  0  0  0  0  0  0  0  0  # atno 17371 bound_to 10713
  139.9551  134.7548  156.0359 LP  0  0  0  0  0  0  0  0  0  0  0  0  # atno 17394 bound_to 11000
  141.1278  133.6594  156.3384 LP  0  0  0  0  0  0  0  0  0  0  0  0  # atno 17395 bound_to 11000

$$$$
