AV-unprocessed.smi:244|AV-procd|sdf|1870|dock7
  -GOLD-   2262020513D 1   1.00000     0.00000
 Structure written by MMmdl.
 57 61  0  0  0  0  0  0  0  0  2 V2000
  148.9957  143.1991  158.6031 C   0  0  0  0  0  0  0  0  0  0  0  0
  150.3053  143.6354  158.0658 N   0  3  1  0  0  0  0  0  0  0  0  0
  151.0828  144.4818  159.0082 C   0  0  0  0  0  0  0  0  0  0  0  0
  151.7502  143.6516  160.1209 C   0  0  0  0  0  0  0  0  0  0  0  0
  152.6149  142.5382  159.5165 C   0  0  1  0  0  0  0  0  0  0  0  0
  153.1770  141.7468  160.5571 O   0  0  0  0  0  0  0  0  0  0  0  0
  154.0419  140.7388  160.0429 C   0  0  0  0  0  0  0  0  0  0  0  0
  153.2431  139.7985  159.1258 C   0  0  0  0  0  0  0  0  0  0  0  0
  152.5804  140.5578  158.0691 N   0  0  0  0  0  0  0  0  0  0  0  0
  151.9555  139.7536  157.1801 C   0  0  0  0  0  0  0  0  0  0  0  0
  152.4145  139.6599  155.9041 N   0  0  0  0  0  0  0  0  0  0  0  0
  151.8112  138.8388  155.0388 C   0  0  0  0  0  0  0  0  0  0  0  0
  150.7672  138.0319  155.2428 N   0  0  0  0  0  0  0  0  0  0  0  0
  150.3117  138.1225  156.5256 C   0  0  0  0  0  0  0  0  0  0  0  0
  150.8408  138.9577  157.5480 C   0  0  0  0  0  0  0  0  0  0  0  0
  150.1250  138.7878  158.7253 N   0  0  0  0  0  0  0  0  0  0  0  0
  149.2182  137.9015  158.4153 C   0  0  0  0  0  0  0  0  0  0  0  0
  149.2712  137.4317  157.1213 N   0  0  0  0  0  0  0  0  0  0  0  0
  148.3983  136.4355  156.5195 C   0  0  0  0  0  0  0  0  0  0  0  0
  148.9797  134.9983  156.5086 C   0  0  0  0  0  0  0  0  0  0  0  0
  148.3097  134.3315  155.4541 O   0  0  0  0  0  0  0  0  0  0  0  0
  150.4961  134.9652  156.2195 C   0  0  0  0  0  0  0  0  0  0  0  0
  151.0663  133.5382  156.3068 C   0  0  0  0  0  0  0  0  0  0  0  0
  150.7740  132.9751  157.5804 O   0  0  0  0  0  0  0  0  0  0  0  0
  149.3776  132.8405  157.8181 C   0  0  0  0  0  0  0  0  0  0  0  0
  148.7090  134.2271  157.8192 C   0  0  0  0  0  0  0  0  0  0  0  0
  151.7542  141.6463  158.5968 C   0  0  2  0  0  0  0  0  0  0  0  0
  151.1114  142.5256  157.4932 C   0  0  0  0  0  0  0  0  0  0  0  0
  149.1071  142.5374  159.4621 H   0  0  0  0  0  0  0  0  0  0  0  0
  148.4270  142.6683  157.8392 H   0  0  0  0  0  0  0  0  0  0  0  0
  148.4044  144.0607  158.9141 H   0  0  0  0  0  0  0  0  0  0  0  0
  151.8514  145.0067  158.4392 H   0  0  0  0  0  0  0  0  0  0  0  0
  150.4410  145.2522  159.4374 H   0  0  0  0  0  0  0  0  0  0  0  0
  152.3636  144.2993  160.7479 H   0  0  0  0  0  0  0  0  0  0  0  0
  150.9921  143.2206  160.7755 H   0  0  0  0  0  0  0  0  0  0  0  0
  153.4237  142.9962  158.9428 H   0  0  0  0  0  0  0  0  0  0  0  0
  154.8734  141.1949  159.5035 H   0  0  0  0  0  0  0  0  0  0  0  0
  154.4706  140.1792  160.8744 H   0  0  0  0  0  0  0  0  0  0  0  0
  153.9092  139.0541  158.6865 H   0  0  0  0  0  0  0  0  0  0  0  0
  152.5013  139.2586  159.7162 H   0  0  0  0  0  0  0  0  0  0  0  0
  152.2266  138.8225  154.0419 H   0  0  0  0  0  0  0  0  0  0  0  0
  148.4884  137.5515  159.1312 H   0  0  0  0  0  0  0  0  0  0  0  0
  147.4504  136.4520  157.0594 H   0  0  0  0  0  0  0  0  0  0  0  0
  148.1710  136.7558  155.5015 H   0  0  0  0  0  0  0  0  0  0  0  0
  148.4334  134.8271  154.6590 H   0  0  0  0  0  0  0  0  0  0  0  0
  150.7098  135.3975  155.2411 H   0  0  0  0  0  0  0  0  0  0  0  0
  151.0253  135.5786  156.9484 H   0  0  0  0  0  0  0  0  0  0  0  0
  150.6666  132.9032  155.5147 H   0  0  0  0  0  0  0  0  0  0  0  0
  152.1481  133.5612  156.1749 H   0  0  0  0  0  0  0  0  0  0  0  0
  148.9299  132.1853  157.0694 H   0  0  0  0  0  0  0  0  0  0  0  0
  149.2331  132.3574  158.7846 H   0  0  0  0  0  0  0  0  0  0  0  0
  149.1079  134.7836  158.6668 H   0  0  0  0  0  0  0  0  0  0  0  0
  147.6367  134.1288  157.9929 H   0  0  0  0  0  0  0  0  0  0  0  0
  150.9624  141.1949  159.1966 H   0  0  0  0  0  0  0  0  0  0  0  0
  150.4751  141.9377  156.8307 H   0  0  0  0  0  0  0  0  0  0  0  0
  151.8930  142.9548  156.8646 H   0  0  0  0  0  0  0  0  0  0  0  0
  150.0757  144.2353  157.2862 H   0  0  0  0  0  0  0  0  0  0  0  0
  1  2  1  0  0  0  0
  1 29  1  0  0  0  0
  1 30  1  0  0  0  0
  1 31  1  0  0  0  0
  2 28  1  0  0  0  0
  2  3  1  0  0  0  0
  2 57  1  0  0  0  0
  3  4  1  0  0  0  0
  3 32  1  0  0  0  0
  3 33  1  0  0  0  0
  4  5  1  0  0  0  0
  4 34  1  0  0  0  0
  4 35  1  0  0  0  0
  5 27  1  0  0  0  0
  5  6  1  0  0  0  0
  5 36  1  0  0  0  0
  6  7  1  0  0  0  0
  7  8  1  0  0  0  0
  7 37  1  0  0  0  0
  7 38  1  0  0  0  0
  8  9  1  0  0  0  0
  8 39  1  0  0  0  0
  8 40  1  0  0  0  0
  9 10  1  0  0  0  0
  9 27  1  0  0  0  0
 10 15  1  0  0  0  0
 10 11  2  0  0  0  0
 11 12  1  0  0  0  0
 12 13  2  0  0  0  0
 12 41  1  0  0  0  0
 13 14  1  0  0  0  0
 14 18  1  0  0  0  0
 14 15  2  0  0  0  0
 15 16  1  0  0  0  0
 16 17  2  0  0  0  0
 17 18  1  0  0  0  0
 17 42  1  0  0  0  0
 18 19  1  0  0  0  0
 19 20  1  0  0  0  0
 19 43  1  0  0  0  0
 19 44  1  0  0  0  0
 20 26  1  0  0  0  0
 20 21  1  0  0  0  0
 20 22  1  0  0  0  0
 21 45  1  0  0  0  0
 22 23  1  0  0  0  0
 22 46  1  0  0  0  0
 22 47  1  0  0  0  0
 23 24  1  0  0  0  0
 23 48  1  0  0  0  0
 23 49  1  0  0  0  0
 24 25  1  0  0  0  0
 25 26  1  0  0  0  0
 25 50  1  0  0  0  0
 25 51  1  0  0  0  0
 26 52  1  0  0  0  0
 26 53  1  0  0  0  0
 27 28  1  0  0  0  0
 27 54  1  0  0  0  0
 28 55  1  0  0  0  0
 28 56  1  0  0  0  0
M  CHG  1   2   1
M  END
> <s_m_source_file>
AV-unprocessed.smi

> <i_m_source_file_index>
244

> <i_lp_mmshare_version>
43012

> <i_f3d_flags>
0

> <s_epik_input>
W0NIMl0xW0NIMl1OKFtDSDNdKVtDSDJdW0NAQEhdKFtDQEhdMTIpTihbQ0gyXVtDSDJdTzIpYyhuW2NIXW4zKWMoYzM0KW5bY0hdbjRbQ0gyXUM1KFtPSF0pW0NIMl1bQ0gyXU9bQ0gyXVtDSDJdNQ==

> <s_epik_cmdline>
J2VwaWtfcHl0aG9uJywgJy1waCcsICc3LjAnLCAnLXRuJywgJzgnLCAnLW1hJywgJzIwMCcsICctbWV0YWxfYmluZGluZycsICctaW1hZScsICc8aW5maWxlLm1hZT4nLCAnLW9tYWUnLCAnPG91dGZpbGUubWFlPic=

> <r_lp_tautomer_probability>
1

> <r_epik_Ionization_Penalty>
0.0136215

> <r_epik_Ionization_Penalty_Charging>
0.0131385

> <r_epik_Ionization_Penalty_Neutral>
0.000483022

> <r_epik_State_Penalty>
0.0104001

> <r_epik_Charging_Adjusted_Penalty>
0.0235387

> <i_epik_Tot_Q>
1

> <i_epik_Tot_abs_Q>
1

> <r_epik_Metal_State_Penalty>
0.0104469

> <b_epik_Metal_Only>
0

> <s_lp_Force_Field>
OPLS_2005

> <r_lp_Energy>
43.6006

> <b_lp_Chiralities_Consistent>
1

> <s_lp_Variant>
AV-unprocessed.smi:244-7

> <Gold.Version>
5.8.1

> <Gold.Id.Protein>
6NUR|6NUR_protein|mol2

> <Gold.PLP.Fitness>
46.7514

> <Gold.PLP.PLP>
-36.1747

> <Gold.PLP.part.hbond>
-3.6452

> <Gold.PLP.part.metal>
0.0000

> <Gold.PLP.part.buried>
-5.8764

> <Gold.PLP.part.nonpolar>
-27.6779

> <Gold.PLP.part.repulsive>
0.1185

> <Gold.PLP.ligand.clash>
0.0000

> <Gold.PLP.ligand.torsion>
0.7647

> <Gold.PLP.Chemscore.Hbond>
4.0000

> <Gold.PLP.Chemscore.CHOScore>
0.0000

> <Gold.PLP.Chemscore.Metal>
0.0000

> <Gold.Chemscore.Hbonds>
donor molecule, donor type, donor heavy atom, donor atom, acceptor molecule, acceptor atom, score
      L1  H     2    57       P1  8028  1.92
      P1  H  6896  6908       L1    24  0.85
      P1  H  7997  8009       L1    11  0.95

> <Gold.PLP.Chemscore.Internal.Correction>
0.1062

> <Gold.Rescore>
     Score         DG    S(hbond)    S(metal)    S(lipo)     H(rot)  DE(clash)    DE(int)     intcor
     17.67     -18.54       2.51        0.00      85.70       2.09       0.14       0.73       ----

> <Gold.Chemscore.Fitness>
17.6704

> <Gold.Chemscore.DG>
-18.5421

> <Gold.Chemscore.ZeroCoef>
-5.4800

> <Gold.Chemscore.Hbond>
2.5115

> <Gold.Chemscore.Metal>
0.0000

> <Gold.Chemscore.Lipo>
85.6998

> <Gold.Chemscore.Internal_Hbond>
0.0000

> <Gold.Chemscore.DEClash>
0.1412

> <Gold.Chemscore.DEInternal>
0.7305

> <Gold.Chemscore.Rot>
2.0911

> <Gold.Chemscore.Internal.Correction>
   9.000000E+99

> <Gold.Chemscore.Hbonds>
donor molecule, donor type, donor heavy atom, donor atom, acceptor molecule, acceptor atom, score
      L1  H     2    57       P1  8028  0.57
      P1  H  6896  6908       L1    24  0.14
      P1  H  7997  8009       L1    11  0.21

> <Gold.Chemscore.Hbond.Weighted>
-8.3883

> <Gold.Chemscore.Metal.Weighted>
-0.0000

> <Gold.Chemscore.Lipo.Weighted>
-10.0269

> <Gold.Chemscore.Internal_Hbond.Weighted>
0.0000

> <Gold.Chemscore.DEClash.Weighted>
0.1412

> <Gold.Chemscore.DEInternal.Weighted>
0.7305

> <Gold.Chemscore.Rot.Weighted>
5.3531

> <Gold.Chemscore.Internal.Correction.Weighted>
   9.000000E+99

> <Gold.Protein.RotatedTorsions>
[ 6907 6896 6895 6894 ] final   86.16 input  -60.11 | X-H torsion
[ 7974 7965 7964 7962 ] final -103.21 input  175.53 | X-H torsion
[ 8008 7997 7996 7995 ] final -155.56 input   59.86 | X-H torsion
[ 10167 10162 10161 10158 ] final   72.26 input  -65.29 | X-H torsion
[ 10718 10713 10712 10709 ] final -153.35 input   66.30 | X-H torsion
[ 10763 10752 10751 10750 ] final  -54.42 input  -60.55 | X-H torsion
[ 11005 11000 10999 10996 ] final  -14.37 input  -57.11 | X-H torsion

> <Gold.Protein.ActiveResidues>
 VAL166  LYS551  ARG553  GLY616  TRP617  ASP618  TYR619  PRO620  LYS621  CYS622 
 ASP623  PHE694  ASN695  SER759  ASP760  ASP761  ALA762  ILE779  LEU786  VAL792 
 PHE793  MET794  SER795  GLU796  ALA797  LYS798  CYS799  TRP800  GLU811  SER814 

> <Gold.Protein.RotatedAtoms>
  152.5389  134.2474  159.8885 H   0  0  0  0  0  0  0  0  0  0  0  0  # atno 6907 bound_to 6896
  151.2439  133.4378  159.2616 H   0  0  0  0  0  0  0  0  0  0  0  0  # atno 6908 bound_to 6896
  151.0602  134.9745  159.8312 H   0  0  0  0  0  0  0  0  0  0  0  0  # atno 6909 bound_to 6896
  145.2588  140.9262  143.3052 H   0  0  0  0  0  0  0  0  0  0  0  0  # atno 7974 bound_to 7965
  155.7037  140.0770  157.2400 H   0  0  0  0  0  0  0  0  0  0  0  0  # atno 8008 bound_to 7997
  154.4069  140.1643  156.2272 H   0  0  0  0  0  0  0  0  0  0  0  0  # atno 8009 bound_to 7997
  155.9345  140.3389  155.6279 H   0  0  0  0  0  0  0  0  0  0  0  0  # atno 8010 bound_to 7997
  140.0372  144.5419  150.7462 H   0  0  0  0  0  0  0  0  0  0  0  0  # atno 10167 bound_to 10162
  156.4846  130.8319  151.2544 H   0  0  0  0  0  0  0  0  0  0  0  0  # atno 10718 bound_to 10713
  154.1746  135.6453  153.5018 H   0  0  0  0  0  0  0  0  0  0  0  0  # atno 10763 bound_to 10752
  153.0075  135.5391  154.6577 H   0  0  0  0  0  0  0  0  0  0  0  0  # atno 10764 bound_to 10752
  154.5925  135.2935  155.0592 H   0  0  0  0  0  0  0  0  0  0  0  0  # atno 10765 bound_to 10752
  140.7857  133.8327  155.9333 H   0  0  0  0  0  0  0  0  0  0  0  0  # atno 11005 bound_to 11000
  144.9437  139.4160  143.6436 LP  0  0  0  0  0  0  0  0  0  0  0  0  # atno 17320 bound_to 7965
  146.3281  139.8409  142.8890 LP  0  0  0  0  0  0  0  0  0  0  0  0  # atno 17321 bound_to 7965
  140.7276  143.2653  151.4065 LP  0  0  0  0  0  0  0  0  0  0  0  0  # atno 17342 bound_to 10162
  139.6038  144.1241  152.2226 LP  0  0  0  0  0  0  0  0  0  0  0  0  # atno 17343 bound_to 10162
  157.7480  131.0033  150.3035 LP  0  0  0  0  0  0  0  0  0  0  0  0  # atno 17370 bound_to 10713
  156.3487  130.3827  149.7347 LP  0  0  0  0  0  0  0  0  0  0  0  0  # atno 17371 bound_to 10713
  140.9439  134.1866  157.4778 LP  0  0  0  0  0  0  0  0  0  0  0  0  # atno 17394 bound_to 11000
  139.8737  134.9882  156.5404 LP  0  0  0  0  0  0  0  0  0  0  0  0  # atno 17395 bound_to 11000

$$$$
