AV-unprocessed.smi:290|AV-procd|sdf|2243|dock2
  -GOLD-   2262022123D 1   1.00000     0.00000
 Structure written by MMmdl.
 59 62  0  0  0  0  0  0  0  0  2 V2000
  153.1989  142.4814  159.5879 C   0  0  0  0  0  0  0  0  0  0  0  0
  152.2734  143.5781  159.0381 C   0  0  2  0  0  0  0  0  0  0  0  0
  151.4732  144.0527  160.1176 O   0  0  0  0  0  0  0  0  0  0  0  0
  150.2334  144.5027  159.6017 C   0  0  0  0  0  0  0  0  0  0  0  0
  149.9119  143.4418  158.5606 C   0  0  0  0  0  0  0  0  0  0  0  0
  151.2711  143.1592  157.9247 C   0  0  1  0  0  0  0  0  0  0  0  0
  151.4315  144.0567  156.8386 O   0  0  0  0  0  0  0  0  0  0  0  0
  151.4101  141.7126  157.3813 C   0  0  0  0  0  0  0  0  0  0  0  0
  150.2668  141.2801  156.5924 N   0  0  0  0  0  0  0  0  0  0  0  0
  149.6272  141.9939  155.6046 C   0  0  0  0  0  0  0  0  0  0  0  0
  148.6253  141.3812  155.0360 N   0  0  0  0  0  0  0  0  0  0  0  0
  148.5658  140.1511  155.6817 C   0  0  0  0  0  0  0  0  0  0  0  0
  147.7275  139.0048  155.5597 C   0  0  0  0  0  0  0  0  0  0  0  0
  146.7254  138.9185  154.6438 N   0  0  0  0  0  0  0  0  0  0  0  0
  147.0032  139.4439  153.3074 C   0  0  0  0  0  0  0  0  0  0  0  0
  146.4535  138.4144  152.3118 C   0  0  0  0  0  0  0  0  0  0  0  0
  146.3120  137.1427  153.1597 C   0  0  2  0  0  0  0  0  0  0  0  0
  145.3987  136.1004  152.6092 N   0  3  2  0  0  0  0  0  0  0  0  0
  145.2491  134.9262  153.5049 C   0  0  0  0  0  0  0  0  0  0  0  0
  145.6596  135.7137  151.1920 C   0  0  0  0  0  0  0  0  0  0  0  0
  144.4607  135.0903  150.4424 C   0  0  0  0  0  0  0  0  0  0  0  0
  144.8322  133.9229  149.7418 O   0  0  0  0  0  0  0  0  0  0  0  0
  145.8870  137.7263  154.5206 C   0  0  2  0  0  0  0  0  0  0  0  0
  144.3995  138.1285  154.6105 C   0  0  0  0  0  0  0  0  0  0  0  0
  147.9687  137.9688  156.4067 N   0  0  0  0  0  0  0  0  0  0  0  0
  148.9607  138.0364  157.2991 C   0  0  0  0  0  0  0  0  0  0  0  0
  149.8220  139.0315  157.5139 N   0  0  0  0  0  0  0  0  0  0  0  0
  149.5845  140.0789  156.6740 C   0  0  0  0  0  0  0  0  0  0  0  0
  147.3026  136.7005  153.2814 H   0  0  0  0  0  0  0  0  0  0  0  0
  146.0754  136.9923  155.3030 H   0  0  0  0  0  0  0  0  0  0  0  0
  153.8520  142.0840  158.8110 H   0  0  0  0  0  0  0  0  0  0  0  0
  152.6312  141.6545  160.0151 H   0  0  0  0  0  0  0  0  0  0  0  0
  153.8377  142.8787  160.3770 H   0  0  0  0  0  0  0  0  0  0  0  0
  152.8922  144.4109  158.6983 H   0  0  0  0  0  0  0  0  0  0  0  0
  149.4743  144.5758  160.3806 H   0  0  0  0  0  0  0  0  0  0  0  0
  150.3566  145.4845  159.1413 H   0  0  0  0  0  0  0  0  0  0  0  0
  149.5443  142.5511  159.0722 H   0  0  0  0  0  0  0  0  0  0  0  0
  149.1465  143.7553  157.8491 H   0  0  0  0  0  0  0  0  0  0  0  0
  150.5754  144.3056  156.5246 H   0  0  0  0  0  0  0  0  0  0  0  0
  152.3041  141.6211  156.7631 H   0  0  0  0  0  0  0  0  0  0  0  0
  151.5286  141.0056  158.2028 H   0  0  0  0  0  0  0  0  0  0  0  0
  149.9316  142.9884  155.3129 H   0  0  0  0  0  0  0  0  0  0  0  0
  146.5387  140.4207  153.1697 H   0  0  0  0  0  0  0  0  0  0  0  0
  148.0776  139.5584  153.1543 H   0  0  0  0  0  0  0  0  0  0  0  0
  145.4813  138.7401  151.9402 H   0  0  0  0  0  0  0  0  0  0  0  0
  147.1114  138.2903  151.4520 H   0  0  0  0  0  0  0  0  0  0  0  0
  146.2127  134.4660  153.7249 H   0  0  0  0  0  0  0  0  0  0  0  0
  144.6034  134.1718  153.0544 H   0  0  0  0  0  0  0  0  0  0  0  0
  144.7962  135.2078  154.4548 H   0  0  0  0  0  0  0  0  0  0  0  0
  145.9498  136.6242  150.6662 H   0  0  0  0  0  0  0  0  0  0  0  0
  146.5316  135.0631  151.1236 H   0  0  0  0  0  0  0  0  0  0  0  0
  143.6192  134.8778  151.1005 H   0  0  0  0  0  0  0  0  0  0  0  0
  144.0961  135.8025  149.7019 H   0  0  0  0  0  0  0  0  0  0  0  0
  145.0696  134.1617  148.8583 H   0  0  0  0  0  0  0  0  0  0  0  0
  143.7377  137.2700  154.5009 H   0  0  0  0  0  0  0  0  0  0  0  0
  144.1208  138.8590  153.8509 H   0  0  0  0  0  0  0  0  0  0  0  0
  144.1844  138.5753  155.5816 H   0  0  0  0  0  0  0  0  0  0  0  0
  149.0836  137.1678  157.9293 H   0  0  0  0  0  0  0  0  0  0  0  0
  144.4884  136.5376  152.5885 H   0  0  0  0  0  0  0  0  0  0  0  0
  1  2  1  0  0  0  0
  1 31  1  0  0  0  0
  1 32  1  0  0  0  0
  1 33  1  0  0  0  0
  2  6  1  0  0  0  0
  2  3  1  0  0  0  0
  2 34  1  0  0  0  0
  3  4  1  0  0  0  0
  4  5  1  0  0  0  0
  4 35  1  0  0  0  0
  4 36  1  0  0  0  0
  5  6  1  0  0  0  0
  5 37  1  0  0  0  0
  5 38  1  0  0  0  0
  6  7  1  0  0  0  0
  6  8  1  0  0  0  0
  7 39  1  0  0  0  0
  8  9  1  0  0  0  0
  8 40  1  0  0  0  0
  8 41  1  0  0  0  0
  9 28  1  0  0  0  0
  9 10  1  0  0  0  0
 10 11  2  0  0  0  0
 10 42  1  0  0  0  0
 11 12  1  0  0  0  0
 12 28  2  0  0  0  0
 12 13  1  0  0  0  0
 13 14  1  0  0  0  0
 13 25  2  0  0  0  0
 14 23  1  0  0  0  0
 14 15  1  0  0  0  0
 15 16  1  0  0  0  0
 15 43  1  0  0  0  0
 15 44  1  0  0  0  0
 16 17  1  0  0  0  0
 16 45  1  0  0  0  0
 16 46  1  0  0  0  0
 17 29  1  0  0  0  0
 17 18  1  0  0  0  0
 17 23  1  0  0  0  0
 18 19  1  0  0  0  0
 18 20  1  0  0  0  0
 18 59  1  0  0  0  0
 19 47  1  0  0  0  0
 19 48  1  0  0  0  0
 19 49  1  0  0  0  0
 20 21  1  0  0  0  0
 20 50  1  0  0  0  0
 20 51  1  0  0  0  0
 21 22  1  0  0  0  0
 21 52  1  0  0  0  0
 21 53  1  0  0  0  0
 22 54  1  0  0  0  0
 23 30  1  0  0  0  0
 23 24  1  0  0  0  0
 24 55  1  0  0  0  0
 24 56  1  0  0  0  0
 24 57  1  0  0  0  0
 25 26  1  0  0  0  0
 26 27  2  0  0  0  0
 26 58  1  0  0  0  0
 27 28  1  0  0  0  0
M  CHG  1  18   1
M  END
> <s_m_source_file>
AV-unprocessed.smi

> <i_m_source_file_index>
290

> <i_lp_mmshare_version>
43012

> <i_f3d_flags>
0

> <s_epik_input>
W0NIMl0xW0NIMl1PW0NAQEhdKFtDSDNdKVtDQEBdMShbT0hdKVtDSDJdbihbY0hdbjIpYyhjMjMpbltjSF1uYzNONFtDSDJdW0NIMl1bQ0BIXShbQ0BIXTRbQ0gzXSlOKFtDSDNdKVtDSDJdW0NIMl1bT0hd

> <s_epik_cmdline>
J2VwaWtfcHl0aG9uJywgJy1waCcsICc3LjAnLCAnLXRuJywgJzgnLCAnLW1hJywgJzIwMCcsICctbWV0YWxfYmluZGluZycsICctaW1hZScsICc8aW5maWxlLm1hZT4nLCAnLW9tYWUnLCAnPG91dGZpbGUubWFlPic=

> <r_lp_tautomer_probability>
1

> <r_epik_Ionization_Penalty>
0.0036983

> <r_epik_Ionization_Penalty_Charging>
0.0032725

> <r_epik_Ionization_Penalty_Neutral>
0.000425798

> <r_epik_State_Penalty>
-0

> <r_epik_Charging_Adjusted_Penalty>
0.0032725

> <i_epik_Tot_Q>
1

> <i_epik_Tot_abs_Q>
1

> <r_epik_Metal_State_Penalty>
-0

> <b_epik_Metal_Only>
0

> <s_lp_Force_Field>
OPLS_2005

> <r_lp_Energy>
63.2975

> <b_lp_Chiralities_Consistent>
1

> <s_lp_Variant>
AV-unprocessed.smi:290-29

> <Gold.Version>
5.8.1

> <Gold.Id.Protein>
6NUR|6NUR_protein|mol2

> <Gold.PLP.Fitness>
42.9769

> <Gold.PLP.PLP>
-35.7091

> <Gold.PLP.part.hbond>
-2.0000

> <Gold.PLP.part.metal>
0.0000

> <Gold.PLP.part.buried>
-4.5948

> <Gold.PLP.part.nonpolar>
-30.7345

> <Gold.PLP.part.repulsive>
0.2778

> <Gold.PLP.ligand.clash>
0.0000

> <Gold.PLP.ligand.torsion>
1.0943

> <Gold.PLP.Chemscore.Hbond>
2.0000

> <Gold.PLP.Chemscore.CHOScore>
0.9611

> <Gold.PLP.Chemscore.Metal>
0.0000

> <Gold.Chemscore.Hbonds>
donor molecule, donor type, donor heavy atom, donor atom, acceptor molecule, acceptor atom, score
      L1  H     7    39       P1  8028  1.00
      L1  H    22    54       P1  7921  1.00
      L1  C    10    42       P1  8028  0.93

> <Gold.PLP.Chemscore.Internal.Correction>
0.5731

> <Gold.Rescore>
     Score         DG    S(hbond)    S(metal)    S(lipo)     H(rot)  DE(clash)    DE(int)     intcor
     10.07     -14.17       1.98        0.00      97.93       3.67       1.37       2.74       ----

> <Gold.Chemscore.Fitness>
10.0690

> <Gold.Chemscore.DG>
-14.1749

> <Gold.Chemscore.ZeroCoef>
-5.4800

> <Gold.Chemscore.Hbond>
1.9826

> <Gold.Chemscore.Metal>
0.0000

> <Gold.Chemscore.Lipo>
97.9274

> <Gold.Chemscore.Internal_Hbond>
0.0000

> <Gold.Chemscore.DEClash>
1.3695

> <Gold.Chemscore.DEInternal>
2.7364

> <Gold.Chemscore.Rot>
3.6658

> <Gold.Chemscore.Internal.Correction>
   9.000000E+99

> <Gold.Chemscore.Hbonds>
donor molecule, donor type, donor heavy atom, donor atom, acceptor molecule, acceptor atom, score
      L1  H     7    39       P1  8028  1.00
      L1  H    22    54       P1  7921  0.98

> <Gold.Chemscore.Hbond.Weighted>
-6.6218

> <Gold.Chemscore.Metal.Weighted>
-0.0000

> <Gold.Chemscore.Lipo.Weighted>
-11.4575

> <Gold.Chemscore.Internal_Hbond.Weighted>
0.0000

> <Gold.Chemscore.DEClash.Weighted>
1.3695

> <Gold.Chemscore.DEInternal.Weighted>
2.7364

> <Gold.Chemscore.Rot.Weighted>
9.3844

> <Gold.Chemscore.Internal.Correction.Weighted>
   9.000000E+99

> <Gold.Protein.RotatedTorsions>
[ 6907 6896 6895 6894 ] final  178.79 input  -60.11 | X-H torsion
[ 7974 7965 7964 7962 ] final   30.88 input  175.53 | X-H torsion
[ 8008 7997 7996 7995 ] final  -32.83 input   59.86 | X-H torsion
[ 10167 10162 10161 10158 ] final   42.95 input  -65.29 | X-H torsion
[ 10718 10713 10712 10709 ] final   36.98 input   66.30 | X-H torsion
[ 10763 10752 10751 10750 ] final   48.04 input  -60.55 | X-H torsion
[ 11005 11000 10999 10996 ] final    6.22 input  -57.11 | X-H torsion

> <Gold.Protein.ActiveResidues>
 VAL166  LYS551  ARG553  GLY616  TRP617  ASP618  TYR619  PRO620  LYS621  CYS622 
 ASP623  PHE694  ASN695  SER759  ASP760  ASP761  ALA762  ILE779  LEU786  VAL792 
 PHE793  MET794  SER795  GLU796  ALA797  LYS798  CYS799  TRP800  GLU811  SER814 

> <Gold.Protein.RotatedAtoms>
  151.6822  133.3312  159.3221 H   0  0  0  0  0  0  0  0  0  0  0  0  # atno 6907 bound_to 6896
  150.7817  134.6771  159.6433 H   0  0  0  0  0  0  0  0  0  0  0  0  # atno 6908 bound_to 6896
  152.3877  134.6495  160.0171 H   0  0  0  0  0  0  0  0  0  0  0  0  # atno 6909 bound_to 6896
  146.1585  139.6730  142.9050 H   0  0  0  0  0  0  0  0  0  0  0  0  # atno 7974 bound_to 7965
  154.4167  140.1727  156.1790 H   0  0  0  0  0  0  0  0  0  0  0  0  # atno 8008 bound_to 7997
  155.9698  140.3386  155.6541 H   0  0  0  0  0  0  0  0  0  0  0  0  # atno 8009 bound_to 7997
  155.6640  140.0704  157.2534 H   0  0  0  0  0  0  0  0  0  0  0  0  # atno 8010 bound_to 7997
  140.3493  144.2371  150.6147 H   0  0  0  0  0  0  0  0  0  0  0  0  # atno 10167 bound_to 10162
  157.3414  130.7550  149.6914 H   0  0  0  0  0  0  0  0  0  0  0  0  # atno 10718 bound_to 10713
  152.9795  135.5957  154.3861 H   0  0  0  0  0  0  0  0  0  0  0  0  # atno 10763 bound_to 10752
  154.3521  135.2767  155.2368 H   0  0  0  0  0  0  0  0  0  0  0  0  # atno 10764 bound_to 10752
  154.4403  135.6015  153.6180 H   0  0  0  0  0  0  0  0  0  0  0  0  # atno 10765 bound_to 10752
  140.5619  134.0184  155.7975 H   0  0  0  0  0  0  0  0  0  0  0  0  # atno 11005 bound_to 11000
  145.4649  141.0434  143.2731 LP  0  0  0  0  0  0  0  0  0  0  0  0  # atno 17320 bound_to 7965
  144.7994  139.6169  143.7078 LP  0  0  0  0  0  0  0  0  0  0  0  0  # atno 17321 bound_to 7965
  140.5234  143.2260  151.8352 LP  0  0  0  0  0  0  0  0  0  0  0  0  # atno 17342 bound_to 10162
  139.4829  144.4808  151.9308 LP  0  0  0  0  0  0  0  0  0  0  0  0  # atno 17343 bound_to 10162
  155.9708  130.4166  150.4241 LP  0  0  0  0  0  0  0  0  0  0  0  0  # atno 17370 bound_to 10713
  157.2290  131.0499  151.2503 LP  0  0  0  0  0  0  0  0  0  0  0  0  # atno 17371 bound_to 10713
  141.1109  133.9617  157.2911 LP  0  0  0  0  0  0  0  0  0  0  0  0  # atno 17394 bound_to 11000
  139.9404  135.0192  156.8689 LP  0  0  0  0  0  0  0  0  0  0  0  0  # atno 17395 bound_to 11000

$$$$
