AV-unprocessed.smi:2498|AV-procd|sdf|9830|dock10
  -GOLD-   2272013463D 1   1.00000     0.00000
 Structure written by MMmdl.
 36 36  0  0  0  0  0  0  0  0  2 V2000
  151.6983  139.0955  156.4140 C   0  0  0  0  0  0  0  0  0  0  0  0
  152.0441  140.1817  157.3929 C   0  0  0  0  0  0  0  0  0  0  0  0
  153.0398  139.9805  158.2390 N   0  0  0  0  0  0  0  0  0  0  0  0
  153.1364  141.1281  158.9417 N   0  0  0  0  0  0  0  0  0  0  0  0
  154.1333  141.2458  159.9919 C   0  0  0  0  0  0  0  0  0  0  0  0
  153.5395  141.5482  161.1462 F   0  0  0  0  0  0  0  0  0  0  0  0
  154.8216  140.1101  160.1200 F   0  0  0  0  0  0  0  0  0  0  0  0
  152.1700  142.0405  158.5645 C   0  0  0  0  0  0  0  0  0  0  0  0
  152.0510  143.3840  159.2081 C   0  0  0  0  0  0  0  0  0  0  0  0
  151.4431  141.4659  157.5560 C   0  0  0  0  0  0  0  0  0  0  0  0
  150.2875  142.0529  156.7823 C   0  0  0  0  0  0  0  0  0  0  0  0
  148.9689  141.6122  157.4176 C   0  0  0  0  0  0  0  0  0  0  0  0
  148.9356  140.5796  158.0855 O   0  0  0  0  0  0  0  0  0  0  0  0
  147.9182  142.4208  157.1850 N   0  0  0  0  0  0  0  0  0  0  0  0
  146.5442  142.4227  157.7063 C   0  0  0  0  0  0  0  0  0  0  0  0
  145.6578  143.1824  156.6952 C   0  0  0  0  0  0  0  0  0  0  0  0
  145.9384  141.0147  157.9484 C   0  0  0  0  0  0  0  0  0  0  0  0
  146.6113  143.1926  159.0461 C   0  0  0  0  0  0  0  0  0  0  0  0
  145.9651  144.2599  159.1446 O   0  0  0  0  0  0  0  0  0  0  0  0
  147.2718  142.6814  159.9786 O   0  5  0  0  0  0  0  0  0  0  0  0
  150.7971  139.3318  155.8494 H   0  0  0  0  0  0  0  0  0  0  0  0
  151.5290  138.1460  156.9223 H   0  0  0  0  0  0  0  0  0  0  0  0
  152.5051  138.9498  155.6950 H   0  0  0  0  0  0  0  0  0  0  0  0
  154.8447  142.0367  159.7543 H   0  0  0  0  0  0  0  0  0  0  0  0
  151.1587  143.9095  158.8692 H   0  0  0  0  0  0  0  0  0  0  0  0
  152.9136  144.0045  158.9655 H   0  0  0  0  0  0  0  0  0  0  0  0
  151.9923  143.2920  160.2927 H   0  0  0  0  0  0  0  0  0  0  0  0
  150.3260  143.1422  156.7632 H   0  0  0  0  0  0  0  0  0  0  0  0
  150.3060  141.7390  155.7384 H   0  0  0  0  0  0  0  0  0  0  0  0
  148.1239  143.2223  156.6064 H   0  0  0  0  0  0  0  0  0  0  0  0
  144.6443  143.3162  157.0756 H   0  0  0  0  0  0  0  0  0  0  0  0
  145.5828  142.6350  155.7552 H   0  0  0  0  0  0  0  0  0  0  0  0
  146.0563  144.1700  156.4578 H   0  0  0  0  0  0  0  0  0  0  0  0
  144.9567  141.0853  158.4189 H   0  0  0  0  0  0  0  0  0  0  0  0
  146.5636  140.3984  158.5961 H   0  0  0  0  0  0  0  0  0  0  0  0
  145.7986  140.4743  157.0119 H   0  0  0  0  0  0  0  0  0  0  0  0
  1  2  1  0  0  0  0
  1 21  1  0  0  0  0
  1 22  1  0  0  0  0
  1 23  1  0  0  0  0
  2 10  1  0  0  0  0
  2  3  2  0  0  0  0
  3  4  1  0  0  0  0
  4  5  1  0  0  0  0
  4  8  1  0  0  0  0
  5  6  1  0  0  0  0
  5  7  1  0  0  0  0
  5 24  1  0  0  0  0
  8  9  1  0  0  0  0
  8 10  2  0  0  0  0
  9 25  1  0  0  0  0
  9 26  1  0  0  0  0
  9 27  1  0  0  0  0
 10 11  1  0  0  0  0
 11 12  1  0  0  0  0
 11 28  1  0  0  0  0
 11 29  1  0  0  0  0
 12 13  2  0  0  0  0
 12 14  1  0  0  0  0
 14 15  1  0  0  0  0
 14 30  1  0  0  0  0
 15 16  1  0  0  0  0
 15 17  1  0  0  0  0
 15 18  1  0  0  0  0
 16 31  1  0  0  0  0
 16 32  1  0  0  0  0
 16 33  1  0  0  0  0
 17 34  1  0  0  0  0
 17 35  1  0  0  0  0
 17 36  1  0  0  0  0
 18 19  2  0  0  0  0
 18 20  1  0  0  0  0
M  CHG  1  20  -1
M  END
> <s_m_source_file>
AV-unprocessed.smi

> <i_m_source_file_index>
2498

> <i_lp_mmshare_version>
43012

> <i_f3d_flags>
0

> <s_epik_input>
W0NIM11jMW5uKFtDSF0oRilGKWMoW0NIM10pYzFbQ0gyXUMoPU8pW05IXUMoW0NIM10pKFtDSDNdKUMoPU8pW09IXQ==

> <s_epik_cmdline>
J2VwaWtfcHl0aG9uJywgJy1waCcsICc3LjAnLCAnLXRuJywgJzgnLCAnLW1hJywgJzIwMCcsICctbWV0YWxfYmluZGluZycsICctaW1hZScsICc8aW5maWxlLm1hZT4nLCAnLW9tYWUnLCAnPG91dGZpbGUubWFlPic=

> <r_lp_tautomer_probability>
1

> <r_epik_Ionization_Penalty>
0.000275972

> <r_epik_Ionization_Penalty_Charging>
0.000275542

> <r_epik_Ionization_Penalty_Neutral>
4.29922e-07

> <r_epik_State_Penalty>
-0

> <r_epik_Charging_Adjusted_Penalty>
0.000275542

> <i_epik_Tot_Q>
-1

> <i_epik_Tot_abs_Q>
1

> <r_epik_Metal_State_Penalty>
-0

> <b_epik_Metal_Only>
0

> <s_lp_Force_Field>
OPLS_2005

> <r_lp_Energy>
1.362

> <b_lp_Chiralities_Consistent>
1

> <s_lp_Variant>
AV-unprocessed.smi:2498-1

> <Gold.Version>
5.8.1

> <Gold.Id.Protein>
6NUR|6NUR_protein|mol2

> <Gold.PLP.Fitness>
45.2334

> <Gold.PLP.PLP>
-32.5958

> <Gold.PLP.part.hbond>
-4.1662

> <Gold.PLP.part.metal>
0.0000

> <Gold.PLP.part.buried>
-2.9861

> <Gold.PLP.part.nonpolar>
-25.9950

> <Gold.PLP.part.repulsive>
0.1996

> <Gold.PLP.ligand.clash>
0.0000

> <Gold.PLP.ligand.torsion>
1.2629

> <Gold.PLP.Chemscore.Hbond>
5.0320

> <Gold.PLP.Chemscore.CHOScore>
0.0000

> <Gold.PLP.Chemscore.Metal>
0.0000

> <Gold.Chemscore.Hbonds>
donor molecule, donor type, donor heavy atom, donor atom, acceptor molecule, acceptor atom, score
      L1  H    14    30       P1  8028  0.95
      P1  H  6933  6944       L1    20  1.50
      P1  H  6934  6946       L1    20  1.44
      P1  H  7997  8008       L1     3  1.00

> <Gold.PLP.Chemscore.Internal.Correction>
0.0675

> <Gold.Rescore>
     Score         DG    S(hbond)    S(metal)    S(lipo)     H(rot)  DE(clash)    DE(int)     intcor
     11.68     -13.56       1.96        0.00      60.06       2.15       0.01       1.87       ----

> <Gold.Chemscore.Fitness>
11.6816

> <Gold.Chemscore.DG>
-13.5627

> <Gold.Chemscore.ZeroCoef>
-5.4800

> <Gold.Chemscore.Hbond>
1.9639

> <Gold.Chemscore.Metal>
0.0000

> <Gold.Chemscore.Lipo>
60.0642

> <Gold.Chemscore.Internal_Hbond>
0.0000

> <Gold.Chemscore.DEClash>
0.0127

> <Gold.Chemscore.DEInternal>
1.8684

> <Gold.Chemscore.Rot>
2.1501

> <Gold.Chemscore.Internal.Correction>
   9.000000E+99

> <Gold.Chemscore.Hbonds>
donor molecule, donor type, donor heavy atom, donor atom, acceptor molecule, acceptor atom, score
      L1  H    14    30       P1  8028  0.21
      P1  H  6933  6944       L1    20  0.74
      P1  H  6934  6946       L1    20  0.70
      P1  H  7997  8008       L1     3  0.15

> <Gold.Chemscore.Hbond.Weighted>
-6.5595

> <Gold.Chemscore.Metal.Weighted>
-0.0000

> <Gold.Chemscore.Lipo.Weighted>
-7.0275

> <Gold.Chemscore.Internal_Hbond.Weighted>
0.0000

> <Gold.Chemscore.DEClash.Weighted>
0.0127

> <Gold.Chemscore.DEInternal.Weighted>
1.8684

> <Gold.Chemscore.Rot.Weighted>
5.5043

> <Gold.Chemscore.Internal.Correction.Weighted>
   9.000000E+99

> <Gold.Protein.RotatedTorsions>
[ 6907 6896 6895 6894 ] final  122.67 input  -60.11 | X-H torsion
[ 7974 7965 7964 7962 ] final   55.33 input  175.53 | X-H torsion
[ 8008 7997 7996 7995 ] final  -91.64 input   59.86 | X-H torsion
[ 10167 10162 10161 10158 ] final   59.32 input  -65.29 | X-H torsion
[ 10718 10713 10712 10709 ] final  -59.63 input   66.30 | X-H torsion
[ 10763 10752 10751 10750 ] final  -55.36 input  -60.55 | X-H torsion
[ 11005 11000 10999 10996 ] final -129.51 input  -57.11 | X-H torsion

> <Gold.Protein.ActiveResidues>
 VAL166  LYS551  ARG553  GLY616  TRP617  ASP618  TYR619  PRO620  LYS621  CYS622 
 ASP623  PHE694  ASN695  SER759  ASP760  ASP761  ALA762  ILE779  LEU786  VAL792 
 PHE793  MET794  SER795  GLU796  ALA797  LYS798  CYS799  TRP800  GLU811  SER814 

> <Gold.Protein.RotatedAtoms>
  152.4224  133.7138  159.6493 H   0  0  0  0  0  0  0  0  0  0  0  0  # atno 6907 bound_to 6896
  150.8100  133.8428  159.3193 H   0  0  0  0  0  0  0  0  0  0  0  0  # atno 6908 bound_to 6896
  151.6141  135.1040  160.0139 H   0  0  0  0  0  0  0  0  0  0  0  0  # atno 6909 bound_to 6896
  145.9515  139.3976  143.0303 H   0  0  0  0  0  0  0  0  0  0  0  0  # atno 7974 bound_to 7965
  154.7132  140.0517  157.0570 H   0  0  0  0  0  0  0  0  0  0  0  0  # atno 8008 bound_to 7997
  155.0526  140.3181  155.4668 H   0  0  0  0  0  0  0  0  0  0  0  0  # atno 8009 bound_to 7997
  156.2795  140.2113  156.5652 H   0  0  0  0  0  0  0  0  0  0  0  0  # atno 8010 bound_to 7997
  140.1777  144.4213  150.6630 H   0  0  0  0  0  0  0  0  0  0  0  0  # atno 10167 bound_to 10162
  156.1048  130.4182  150.0741 H   0  0  0  0  0  0  0  0  0  0  0  0  # atno 10718 bound_to 10713
  154.1895  135.6429  153.5056 H   0  0  0  0  0  0  0  0  0  0  0  0  # atno 10763 bound_to 10752
  153.0038  135.5425  154.6430 H   0  0  0  0  0  0  0  0  0  0  0  0  # atno 10764 bound_to 10752
  154.5815  135.2925  155.0701 H   0  0  0  0  0  0  0  0  0  0  0  0  # atno 10765 bound_to 10752
  140.9425  134.1174  157.4138 H   0  0  0  0  0  0  0  0  0  0  0  0  # atno 11005 bound_to 11000
  145.8164  140.9700  143.0921 LP  0  0  0  0  0  0  0  0  0  0  0  0  # atno 17320 bound_to 7965
  144.6797  139.9986  143.7484 LP  0  0  0  0  0  0  0  0  0  0  0  0  # atno 17321 bound_to 7965
  140.6540  143.2232  151.6011 LP  0  0  0  0  0  0  0  0  0  0  0  0  # atno 17342 bound_to 10162
  139.5310  144.2917  152.1146 LP  0  0  0  0  0  0  0  0  0  0  0  0  # atno 17343 bound_to 10162
  156.8720  130.9527  151.3608 LP  0  0  0  0  0  0  0  0  0  0  0  0  # atno 17370 bound_to 10713
  157.6223  130.8665  149.9130 LP  0  0  0  0  0  0  0  0  0  0  0  0  # atno 17371 bound_to 10713
  139.8824  135.0041  156.6228 LP  0  0  0  0  0  0  0  0  0  0  0  0  # atno 17394 bound_to 11000
  140.7715  133.8735  155.8495 LP  0  0  0  0  0  0  0  0  0  0  0  0  # atno 17395 bound_to 11000

$$$$
