AV-unprocessed.smi:2279|AV-procd|sdf|9190|dock5
  -GOLD-   2272012403D 1   1.00000     0.00000
 Structure written by MMmdl.
 57 59  0  0  0  0  0  0  0  0  2 V2000
  154.1140  141.5091  161.5071 C   0  0  0  0  0  0  0  0  0  0  0  0
  153.0947  142.1170  160.5665 C   0  0  0  0  0  0  0  0  0  0  0  0
  152.6287  143.4321  160.7566 C   0  0  0  0  0  0  0  0  0  0  0  0
  151.6813  143.9393  159.8460 C   0  0  0  0  0  0  0  0  0  0  0  0
  151.1362  145.3443  159.9912 C   0  0  0  0  0  0  0  0  0  0  0  0
  151.1997  143.2223  158.8083 N   0  0  0  0  0  0  0  0  0  0  0  0
  151.6396  141.9540  158.6164 C   0  0  0  0  0  0  0  0  0  0  0  0
  151.1891  141.1157  157.5616 N   0  0  0  0  0  0  0  0  0  0  0  0
  150.0250  141.1804  156.8913 C   0  0  0  0  0  0  0  0  0  0  0  0
  149.1505  142.0303  157.0615 O   0  0  0  0  0  0  0  0  0  0  0  0
  149.9201  140.1874  155.9952 N   0  0  0  0  0  0  0  0  0  0  0  0
  148.7732  139.9730  155.1170 C   0  0  2  0  0  0  0  0  0  0  0  0
  148.6426  141.1151  154.0879 C   0  0  0  0  0  0  0  0  0  0  0  0
  147.3576  140.9618  153.2534 C   0  0  0  0  0  0  0  0  0  0  0  0
  146.1417  140.9228  154.1149 N   0  3  2  0  0  0  0  0  0  0  0  0
  145.7619  142.2275  154.7560 C   0  0  0  0  0  0  0  0  0  0  0  0
  144.5544  142.0736  155.7113 C   0  0  0  0  0  0  0  0  0  0  0  0
  144.0873  143.4236  156.2810 C   0  0  0  0  0  0  0  0  0  0  0  0
  143.7181  144.3267  155.1951 N   0  0  0  0  0  0  0  0  0  0  0  0
  143.2121  145.5716  155.7559 C   0  0  0  0  0  0  0  0  0  0  0  0
  144.8944  144.6084  154.3776 C   0  0  0  0  0  0  0  0  0  0  0  0
  145.4006  143.3157  153.7160 C   0  0  0  0  0  0  0  0  0  0  0  0
  146.2402  139.7634  155.0481 C   0  0  0  0  0  0  0  0  0  0  0  0
  147.4854  139.8552  155.9528 C   0  0  0  0  0  0  0  0  0  0  0  0
  152.5927  141.3709  159.4812 C   0  0  0  0  0  0  0  0  0  0  0  0
  154.4043  142.2134  162.2873 H   0  0  0  0  0  0  0  0  0  0  0  0
  155.0102  141.2207  160.9574 H   0  0  0  0  0  0  0  0  0  0  0  0
  153.7031  140.6199  161.9858 H   0  0  0  0  0  0  0  0  0  0  0  0
  152.9873  144.0358  161.5777 H   0  0  0  0  0  0  0  0  0  0  0  0
  151.7215  145.9228  160.7066 H   0  0  0  0  0  0  0  0  0  0  0  0
  150.1032  145.3138  160.3386 H   0  0  0  0  0  0  0  0  0  0  0  0
  151.1612  145.8655  159.0334 H   0  0  0  0  0  0  0  0  0  0  0  0
  151.8178  140.3699  157.3031 H   0  0  0  0  0  0  0  0  0  0  0  0
  150.6864  139.5349  155.9150 H   0  0  0  0  0  0  0  0  0  0  0  0
  148.9131  139.0321  154.5809 H   0  0  0  0  0  0  0  0  0  0  0  0
  148.6484  142.0817  154.5929 H   0  0  0  0  0  0  0  0  0  0  0  0
  149.5050  141.1178  153.4206 H   0  0  0  0  0  0  0  0  0  0  0  0
  147.2946  141.7299  152.4851 H   0  0  0  0  0  0  0  0  0  0  0  0
  147.4095  140.0242  152.6981 H   0  0  0  0  0  0  0  0  0  0  0  0
  146.6069  142.5956  155.3378 H   0  0  0  0  0  0  0  0  0  0  0  0
  143.7251  141.5906  155.1918 H   0  0  0  0  0  0  0  0  0  0  0  0
  144.8050  141.4393  156.5600 H   0  0  0  0  0  0  0  0  0  0  0  0
  143.2247  143.2629  156.9293 H   0  0  0  0  0  0  0  0  0  0  0  0
  144.8715  143.8689  156.8960 H   0  0  0  0  0  0  0  0  0  0  0  0
  142.9264  146.2617  154.9612 H   0  0  0  0  0  0  0  0  0  0  0  0
  143.9602  146.0613  156.3812 H   0  0  0  0  0  0  0  0  0  0  0  0
  142.3268  145.3850  156.3650 H   0  0  0  0  0  0  0  0  0  0  0  0
  144.6348  145.3324  153.6041 H   0  0  0  0  0  0  0  0  0  0  0  0
  145.6813  145.0583  154.9856 H   0  0  0  0  0  0  0  0  0  0  0  0
  146.2693  143.5857  153.1169 H   0  0  0  0  0  0  0  0  0  0  0  0
  144.6443  142.9388  153.0256 H   0  0  0  0  0  0  0  0  0  0  0  0
  145.3378  139.6356  155.6418 H   0  0  0  0  0  0  0  0  0  0  0  0
  146.3068  138.8532  154.4501 H   0  0  0  0  0  0  0  0  0  0  0  0
  147.5394  138.9705  156.5886 H   0  0  0  0  0  0  0  0  0  0  0  0
  147.3936  140.7061  156.6285 H   0  0  0  0  0  0  0  0  0  0  0  0
  152.9356  140.3593  159.3181 H   0  0  0  0  0  0  0  0  0  0  0  0
  145.3761  140.7088  153.4916 H   0  0  0  0  0  0  0  0  0  0  0  0
  1  2  1  0  0  0  0
  1 26  1  0  0  0  0
  1 27  1  0  0  0  0
  1 28  1  0  0  0  0
  2 25  1  0  0  0  0
  2  3  2  0  0  0  0
  3  4  1  0  0  0  0
  3 29  1  0  0  0  0
  4  5  1  0  0  0  0
  4  6  2  0  0  0  0
  5 30  1  0  0  0  0
  5 31  1  0  0  0  0
  5 32  1  0  0  0  0
  6  7  1  0  0  0  0
  7  8  1  0  0  0  0
  7 25  2  0  0  0  0
  8  9  1  0  0  0  0
  8 33  1  0  0  0  0
  9 10  2  0  0  0  0
  9 11  1  0  0  0  0
 11 12  1  0  0  0  0
 11 34  1  0  0  0  0
 12 24  1  0  0  0  0
 12 13  1  0  0  0  0
 12 35  1  0  0  0  0
 13 14  1  0  0  0  0
 13 36  1  0  0  0  0
 13 37  1  0  0  0  0
 14 15  1  0  0  0  0
 14 38  1  0  0  0  0
 14 39  1  0  0  0  0
 15 16  1  0  0  0  0
 15 23  1  0  0  0  0
 15 57  1  0  0  0  0
 16 22  1  0  0  0  0
 16 17  1  0  0  0  0
 16 40  1  0  0  0  0
 17 18  1  0  0  0  0
 17 41  1  0  0  0  0
 17 42  1  0  0  0  0
 18 19  1  0  0  0  0
 18 43  1  0  0  0  0
 18 44  1  0  0  0  0
 19 20  1  0  0  0  0
 19 21  1  0  0  0  0
 20 45  1  0  0  0  0
 20 46  1  0  0  0  0
 20 47  1  0  0  0  0
 21 22  1  0  0  0  0
 21 48  1  0  0  0  0
 21 49  1  0  0  0  0
 22 50  1  0  0  0  0
 22 51  1  0  0  0  0
 23 24  1  0  0  0  0
 23 52  1  0  0  0  0
 23 53  1  0  0  0  0
 24 54  1  0  0  0  0
 24 55  1  0  0  0  0
 25 56  1  0  0  0  0
M  CHG  1  15   1
M  END
> <s_m_source_file>
AV-unprocessed.smi

> <i_m_source_file_index>
2279

> <i_lp_mmshare_version>
43012

> <i_f3d_flags>
0

> <s_epik_input>
W0NIM11jMVtjSF1jKFtDSDNdKW5jKFtjSF0xKVtOSF1DKD1PKVtOSF1bQ0hdMltDSDJdW0NIMl1OKFtDSDJdW0NIMl0yKVtDSF0zW0NIMl1bQ0gyXU4oW0NIM10pW0NIMl1bQ0gyXTM=

> <s_epik_cmdline>
J2VwaWtfcHl0aG9uJywgJy1waCcsICc3LjAnLCAnLXRuJywgJzgnLCAnLW1hJywgJzIwMCcsICctbWV0YWxfYmluZGluZycsICctaW1hZScsICc8aW5maWxlLm1hZT4nLCAnLW9tYWUnLCAnPG91dGZpbGUubWFlPic=

> <r_epik_Ionization_Penalty>
1.37263

> <r_epik_Ionization_Penalty_Charging>
0.00081195

> <r_epik_Ionization_Penalty_Neutral>
1.37182

> <r_epik_State_Penalty>
1.55149

> <r_epik_Charging_Adjusted_Penalty>
1.5523

> <i_epik_Tot_Q>
1

> <i_epik_Tot_abs_Q>
1

> <r_epik_Metal_State_Penalty>
1.5515

> <b_epik_Metal_Only>
0

> <s_lp_Force_Field>
OPLS_2005

> <r_lp_Energy>
33.7825

> <b_lp_Chiralities_Consistent>
1

> <s_lp_Variant>
AV-unprocessed.smi:2279-8

> <Gold.Version>
5.8.1

> <Gold.Id.Protein>
6NUR|6NUR_protein|mol2

> <Gold.PLP.Fitness>
49.5486

> <Gold.PLP.PLP>
-43.9943

> <Gold.PLP.part.hbond>
-1.0000

> <Gold.PLP.part.metal>
0.0000

> <Gold.PLP.part.buried>
-7.7791

> <Gold.PLP.part.nonpolar>
-36.4007

> <Gold.PLP.part.repulsive>
1.6269

> <Gold.PLP.ligand.clash>
0.0000

> <Gold.PLP.ligand.torsion>
0.2444

> <Gold.PLP.Chemscore.Hbond>
2.0000

> <Gold.PLP.Chemscore.CHOScore>
0.0000

> <Gold.PLP.Chemscore.Metal>
0.0000

> <Gold.Chemscore.Hbonds>
donor molecule, donor type, donor heavy atom, donor atom, acceptor molecule, acceptor atom, score
      L1  H    15    57       P1 10175  2.00

> <Gold.PLP.Chemscore.Internal.Correction>
0.0430

> <Gold.Rescore>
     Score         DG    S(hbond)    S(metal)    S(lipo)     H(rot)  DE(clash)    DE(int)     intcor
     16.48     -19.50       0.97        0.00     118.19       1.19       0.28       2.74       ----

> <Gold.Chemscore.Fitness>
16.4811

> <Gold.Chemscore.DG>
-19.4960

> <Gold.Chemscore.ZeroCoef>
-5.4800

> <Gold.Chemscore.Hbond>
0.9693

> <Gold.Chemscore.Metal>
0.0000

> <Gold.Chemscore.Lipo>
118.1917

> <Gold.Chemscore.Internal_Hbond>
0.0000

> <Gold.Chemscore.DEClash>
0.2765

> <Gold.Chemscore.DEInternal>
2.7385

> <Gold.Chemscore.Rot>
1.1913

> <Gold.Chemscore.Internal.Correction>
   9.000000E+99

> <Gold.Chemscore.Hbonds>
donor molecule, donor type, donor heavy atom, donor atom, acceptor molecule, acceptor atom, score
      L1  H    15    57       P1 10175  0.88

> <Gold.Chemscore.Hbond.Weighted>
-3.2373

> <Gold.Chemscore.Metal.Weighted>
-0.0000

> <Gold.Chemscore.Lipo.Weighted>
-13.8284

> <Gold.Chemscore.Internal_Hbond.Weighted>
0.0000

> <Gold.Chemscore.DEClash.Weighted>
0.2765

> <Gold.Chemscore.DEInternal.Weighted>
2.7385

> <Gold.Chemscore.Rot.Weighted>
3.0497

> <Gold.Chemscore.Internal.Correction.Weighted>
   9.000000E+99

> <Gold.Protein.RotatedTorsions>
[ 6907 6896 6895 6894 ] final  -22.78 input  -60.11 | X-H torsion
[ 7974 7965 7964 7962 ] final   65.29 input  175.53 | X-H torsion
[ 8008 7997 7996 7995 ] final   99.67 input   59.86 | X-H torsion
[ 10167 10162 10161 10158 ] final  -44.23 input  -65.29 | X-H torsion
[ 10718 10713 10712 10709 ] final   47.77 input   66.30 | X-H torsion
[ 10763 10752 10751 10750 ] final  175.49 input  -60.55 | X-H torsion
[ 11005 11000 10999 10996 ] final   23.77 input  -57.11 | X-H torsion

> <Gold.Protein.ActiveResidues>
 VAL166  LYS551  ARG553  GLY616  TRP617  ASP618  TYR619  PRO620  LYS621  CYS622 
 ASP623  PHE694  ASN695  SER759  ASP760  ASP761  ALA762  ILE779  LEU786  VAL792 
 PHE793  MET794  SER795  GLU796  ALA797  LYS798  CYS799  TRP800  GLU811  SER814 

> <Gold.Protein.RotatedAtoms>
  151.2136  135.0491  159.8921 H   0  0  0  0  0  0  0  0  0  0  0  0  # atno 6907 bound_to 6896
  152.5422  134.0717  159.8207 H   0  0  0  0  0  0  0  0  0  0  0  0  # atno 6908 bound_to 6896
  151.0874  133.5295  159.2649 H   0  0  0  0  0  0  0  0  0  0  0  0  # atno 6909 bound_to 6896
  145.8402  139.3191  143.0936 H   0  0  0  0  0  0  0  0  0  0  0  0  # atno 7974 bound_to 7965
  156.1128  140.3225  155.8097 H   0  0  0  0  0  0  0  0  0  0  0  0  # atno 8008 bound_to 7997
  155.4642  140.0541  157.3004 H   0  0  0  0  0  0  0  0  0  0  0  0  # atno 8009 bound_to 7997
  154.4772  140.2037  155.9864 H   0  0  0  0  0  0  0  0  0  0  0  0  # atno 8010 bound_to 7997
  140.6904  143.2941  151.3466 H   0  0  0  0  0  0  0  0  0  0  0  0  # atno 10167 bound_to 10162
  157.4618  130.8201  149.7895 H   0  0  0  0  0  0  0  0  0  0  0  0  # atno 10718 bound_to 10713
  154.4683  135.2770  155.1662 H   0  0  0  0  0  0  0  0  0  0  0  0  # atno 10763 bound_to 10752
  154.3421  135.6168  153.5605 H   0  0  0  0  0  0  0  0  0  0  0  0  # atno 10764 bound_to 10752
  152.9861  135.5791  154.5059 H   0  0  0  0  0  0  0  0  0  0  0  0  # atno 10765 bound_to 10752
  140.3660  134.2074  155.7669 H   0  0  0  0  0  0  0  0  0  0  0  0  # atno 11005 bound_to 11000
  145.9473  140.8935  143.0277 LP  0  0  0  0  0  0  0  0  0  0  0  0  # atno 17320 bound_to 7965
  144.6734  140.1632  143.7420 LP  0  0  0  0  0  0  0  0  0  0  0  0  # atno 17321 bound_to 7965
  139.6302  144.0735  152.2470 LP  0  0  0  0  0  0  0  0  0  0  0  0  # atno 17342 bound_to 10162
  140.0208  144.6155  150.7568 LP  0  0  0  0  0  0  0  0  0  0  0  0  # atno 17343 bound_to 10162
  156.0032  130.3869  150.2526 LP  0  0  0  0  0  0  0  0  0  0  0  0  # atno 17370 bound_to 10713
  157.0704  131.0115  151.3192 LP  0  0  0  0  0  0  0  0  0  0  0  0  # atno 17371 bound_to 10713
  141.1969  133.8071  157.0650 LP  0  0  0  0  0  0  0  0  0  0  0  0  # atno 17394 bound_to 11000
  140.0589  134.9765  157.1269 LP  0  0  0  0  0  0  0  0  0  0  0  0  # atno 17395 bound_to 11000

$$$$
