AV-unprocessed.smi:515|AV-procd|sdf|2782|dock4
  -GOLD-   2262023253D 1   1.00000     0.00000
 Structure written by MMmdl.
 46 48  0  0  0  0  0  0  0  0  2 V2000
  146.7256  142.3672  154.6053 C   0  0  0  0  0  0  0  0  0  0  0  0
  147.7319  141.9891  153.5160 C   0  0  0  0  0  0  0  0  0  0  0  0
  148.3819  140.7857  153.8879 O   0  0  0  0  0  0  0  0  0  0  0  0
  149.1122  140.9103  155.0965 C   0  0  0  0  0  0  0  0  0  0  0  0
  150.5351  140.3837  154.8741 C   0  0  0  0  0  0  0  0  0  0  0  0
  151.1788  140.0332  156.1359 N   0  0  0  0  0  0  0  0  0  0  0  0
  151.4311  140.8531  157.1905 C   0  0  0  0  0  0  0  0  0  0  0  0
  151.0646  142.3146  157.1891 C   0  0  0  0  0  0  0  0  0  0  0  0
  151.7472  143.1258  158.1983 N   0  0  0  0  0  0  0  0  0  0  0  0
  151.3192  144.5183  158.1345 C   0  0  0  0  0  0  0  0  0  0  0  0
  152.0330  145.3846  159.1868 C   0  0  0  0  0  0  0  0  0  0  0  0
  151.8063  144.8433  160.4845 O   0  0  0  0  0  0  0  0  0  0  0  0
  152.2464  143.4940  160.6030 C   0  0  0  0  0  0  0  0  0  0  0  0
  151.5303  142.6253  159.5550 C   0  0  0  0  0  0  0  0  0  0  0  0
  152.0671  140.2520  158.2024 N   0  0  0  0  0  0  0  0  0  0  0  0
  152.2160  138.9472  157.7598 C   0  0  0  0  0  0  0  0  0  0  0  0
  151.6973  138.7917  156.5140 C   0  0  0  0  0  0  0  0  0  0  0  0
  151.7304  137.5189  155.7608 C   0  0  0  0  0  0  0  0  0  0  0  0
  151.2685  137.4417  154.6240 O   0  0  0  0  0  0  0  0  0  0  0  0
  152.3213  136.5105  156.4771 N   0  5  0  0  0  0  0  0  0  0  0  0
  152.8524  136.6208  157.7447 C   0  0  0  0  0  0  0  0  0  0  0  0
  153.3660  135.6604  158.3202 O   0  0  0  0  0  0  0  0  0  0  0  0
  152.8152  137.8261  158.3959 N   0  0  0  0  0  0  0  0  0  0  0  0
  153.3755  137.9750  159.7420 C   0  0  0  0  0  0  0  0  0  0  0  0
  146.2023  143.2886  154.3495 H   0  0  0  0  0  0  0  0  0  0  0  0
  147.2249  142.5201  155.5623 H   0  0  0  0  0  0  0  0  0  0  0  0
  145.9789  141.5837  154.7373 H   0  0  0  0  0  0  0  0  0  0  0  0
  147.2173  141.8602  152.5625 H   0  0  0  0  0  0  0  0  0  0  0  0
  148.4632  142.7892  153.3918 H   0  0  0  0  0  0  0  0  0  0  0  0
  149.1421  141.9545  155.4112 H   0  0  0  0  0  0  0  0  0  0  0  0
  148.6213  140.3412  155.8876 H   0  0  0  0  0  0  0  0  0  0  0  0
  150.5136  139.5181  154.2152 H   0  0  0  0  0  0  0  0  0  0  0  0
  151.1426  141.1216  154.3519 H   0  0  0  0  0  0  0  0  0  0  0  0
  151.2970  142.6989  156.1952 H   0  0  0  0  0  0  0  0  0  0  0  0
  149.9887  142.4235  157.3201 H   0  0  0  0  0  0  0  0  0  0  0  0
  151.5186  144.9217  157.1412 H   0  0  0  0  0  0  0  0  0  0  0  0
  150.2405  144.5816  158.2862 H   0  0  0  0  0  0  0  0  0  0  0  0
  153.1046  145.4304  158.9869 H   0  0  0  0  0  0  0  0  0  0  0  0
  151.6570  146.4073  159.1552 H   0  0  0  0  0  0  0  0  0  0  0  0
  153.3283  143.4434  160.4713 H   0  0  0  0  0  0  0  0  0  0  0  0
  152.0283  143.1338  161.6082 H   0  0  0  0  0  0  0  0  0  0  0  0
  150.4620  142.6043  159.7753 H   0  0  0  0  0  0  0  0  0  0  0  0
  151.8840  141.5987  159.6449 H   0  0  0  0  0  0  0  0  0  0  0  0
  152.8546  137.3239  160.4455 H   0  0  0  0  0  0  0  0  0  0  0  0
  153.2962  138.9941  160.1202 H   0  0  0  0  0  0  0  0  0  0  0  0
  154.4333  137.7083  159.7481 H   0  0  0  0  0  0  0  0  0  0  0  0
  1  2  1  0  0  0  0
  1 25  1  0  0  0  0
  1 26  1  0  0  0  0
  1 27  1  0  0  0  0
  2  3  1  0  0  0  0
  2 28  1  0  0  0  0
  2 29  1  0  0  0  0
  3  4  1  0  0  0  0
  4  5  1  0  0  0  0
  4 30  1  0  0  0  0
  4 31  1  0  0  0  0
  5  6  1  0  0  0  0
  5 32  1  0  0  0  0
  5 33  1  0  0  0  0
  6 17  1  0  0  0  0
  6  7  1  0  0  0  0
  7  8  1  0  0  0  0
  7 15  2  0  0  0  0
  8  9  1  0  0  0  0
  8 34  1  0  0  0  0
  8 35  1  0  0  0  0
  9 14  1  0  0  0  0
  9 10  1  0  0  0  0
 10 11  1  0  0  0  0
 10 36  1  0  0  0  0
 10 37  1  0  0  0  0
 11 12  1  0  0  0  0
 11 38  1  0  0  0  0
 11 39  1  0  0  0  0
 12 13  1  0  0  0  0
 13 14  1  0  0  0  0
 13 40  1  0  0  0  0
 13 41  1  0  0  0  0
 14 42  1  0  0  0  0
 14 43  1  0  0  0  0
 15 16  1  0  0  0  0
 16 23  1  0  0  0  0
 16 17  2  0  0  0  0
 17 18  1  0  0  0  0
 18 19  2  0  0  0  0
 18 20  1  0  0  0  0
 20 21  1  0  0  0  0
 21 22  2  0  0  0  0
 21 23  1  0  0  0  0
 23 24  1  0  0  0  0
 24 44  1  0  0  0  0
 24 45  1  0  0  0  0
 24 46  1  0  0  0  0
M  CHG  1  20  -1
M  END
> <s_m_source_file>
AV-unprocessed.smi

> <i_m_source_file_index>
515

> <i_lp_mmshare_version>
43012

> <i_f3d_flags>
0

> <s_epik_input>
W0NIM11uMWMoPU8pW25IXWMoPU8pYyhjMTIpbihbQ0gyXVtDSDJdT1tDSDJdW0NIM10pYyhuMilbQ0gyXU4zW0NIMl1bQ0gyXU9bQ0gyXVtDSDJdMw==

> <s_epik_cmdline>
J2VwaWtfcHl0aG9uJywgJy1waCcsICc3LjAnLCAnLXRuJywgJzgnLCAnLW1hJywgJzIwMCcsICctbWV0YWxfYmluZGluZycsICctaW1hZScsICc8aW5maWxlLm1hZT4nLCAnLW9tYWUnLCAnPG91dGZpbGUubWFlPic=

> <r_epik_Ionization_Penalty>
4.8833

> <r_epik_Ionization_Penalty_Charging>
0.035962

> <r_epik_Ionization_Penalty_Neutral>
4.84734

> <r_epik_State_Penalty>
4.83718

> <r_epik_Charging_Adjusted_Penalty>
4.87314

> <i_epik_Tot_Q>
-1

> <i_epik_Tot_abs_Q>
1

> <r_epik_Metal_State_Penalty>
1.06056

> <b_epik_Metal_Only>
1

> <s_lp_Force_Field>
OPLS_2005

> <r_lp_Energy>
45.1348

> <b_lp_Chiralities_Consistent>
1

> <s_lp_Variant>
AV-unprocessed.smi:515-3

> <Gold.Version>
5.8.1

> <Gold.Id.Protein>
6NUR|6NUR_protein|mol2

> <Gold.PLP.Fitness>
45.3797

> <Gold.PLP.PLP>
-40.6805

> <Gold.PLP.part.hbond>
-1.5249

> <Gold.PLP.part.metal>
0.0000

> <Gold.PLP.part.buried>
-6.4001

> <Gold.PLP.part.nonpolar>
-33.5801

> <Gold.PLP.part.repulsive>
0.4957

> <Gold.PLP.ligand.clash>
0.0000

> <Gold.PLP.ligand.torsion>
0.6713

> <Gold.PLP.Chemscore.Hbond>
2.0000

> <Gold.PLP.Chemscore.CHOScore>
0.0000

> <Gold.PLP.Chemscore.Metal>
0.0000

> <Gold.Chemscore.Hbonds>
donor molecule, donor type, donor heavy atom, donor atom, acceptor molecule, acceptor atom, score
      P1  H  6896  6909       L1    22  0.35
      P1  H 10752 10764       L1    20  1.80

> <Gold.PLP.Chemscore.Internal.Correction>
0.0418

> <Gold.Rescore>
     Score         DG    S(hbond)    S(metal)    S(lipo)     H(rot)  DE(clash)    DE(int)     intcor
     12.72     -14.85       1.11        0.00      94.45       2.10       0.07       2.06       ----

> <Gold.Chemscore.Fitness>
12.7179

> <Gold.Chemscore.DG>
-14.8528

> <Gold.Chemscore.ZeroCoef>
-5.4800

> <Gold.Chemscore.Hbond>
1.1064

> <Gold.Chemscore.Metal>
0.0000

> <Gold.Chemscore.Lipo>
94.4537

> <Gold.Chemscore.Internal_Hbond>
0.0000

> <Gold.Chemscore.DEClash>
0.0736

> <Gold.Chemscore.DEInternal>
2.0613

> <Gold.Chemscore.Rot>
2.0991

> <Gold.Chemscore.Internal.Correction>
   9.000000E+99

> <Gold.Chemscore.Hbonds>
donor molecule, donor type, donor heavy atom, donor atom, acceptor molecule, acceptor atom, score
      P1  H  6896  6909       L1    22  0.35
      P1  H 10752 10764       L1    20  0.17

> <Gold.Chemscore.Hbond.Weighted>
-3.6955

> <Gold.Chemscore.Metal.Weighted>
-0.0000

> <Gold.Chemscore.Lipo.Weighted>
-11.0511

> <Gold.Chemscore.Internal_Hbond.Weighted>
0.0000

> <Gold.Chemscore.DEClash.Weighted>
0.0736

> <Gold.Chemscore.DEInternal.Weighted>
2.0613

> <Gold.Chemscore.Rot.Weighted>
5.3737

> <Gold.Chemscore.Internal.Correction.Weighted>
   9.000000E+99

> <Gold.Protein.RotatedTorsions>
[ 6907 6896 6895 6894 ] final -170.28 input  -60.11 | X-H torsion
[ 7974 7965 7964 7962 ] final  142.61 input  175.53 | X-H torsion
[ 8008 7997 7996 7995 ] final -101.51 input   59.86 | X-H torsion
[ 10167 10162 10161 10158 ] final -158.75 input  -65.29 | X-H torsion
[ 10718 10713 10712 10709 ] final   86.03 input   66.30 | X-H torsion
[ 10763 10752 10751 10750 ] final  -37.90 input  -60.55 | X-H torsion
[ 11005 11000 10999 10996 ] final   28.32 input  -57.11 | X-H torsion

> <Gold.Protein.ActiveResidues>
 VAL166  LYS551  ARG553  GLY616  TRP617  ASP618  TYR619  PRO620  LYS621  CYS622 
 ASP623  PHE694  ASN695  SER759  ASP760  ASP761  ALA762  ILE779  LEU786  VAL792 
 PHE793  MET794  SER795  GLU796  ALA797  LYS798  CYS799  TRP800  GLU811  SER814 

> <Gold.Protein.RotatedAtoms>
  151.5052  133.3496  159.2875 H   0  0  0  0  0  0  0  0  0  0  0  0  # atno 6907 bound_to 6896
  150.8747  134.8130  159.7192 H   0  0  0  0  0  0  0  0  0  0  0  0  # atno 6908 bound_to 6896
  152.4722  134.4941  159.9756 H   0  0  0  0  0  0  0  0  0  0  0  0  # atno 6909 bound_to 6896
  144.8993  139.5446  143.5761 H   0  0  0  0  0  0  0  0  0  0  0  0  # atno 7974 bound_to 7965
  154.8436  140.0434  157.1558 H   0  0  0  0  0  0  0  0  0  0  0  0  # atno 8008 bound_to 7997
  154.9020  140.3001  155.5292 H   0  0  0  0  0  0  0  0  0  0  0  0  # atno 8009 bound_to 7997
  156.2993  140.2374  156.4049 H   0  0  0  0  0  0  0  0  0  0  0  0  # atno 8010 bound_to 7997
  139.6668  143.9815  152.2259 H   0  0  0  0  0  0  0  0  0  0  0  0  # atno 10167 bound_to 10162
  157.6923  131.0199  150.2912 H   0  0  0  0  0  0  0  0  0  0  0  0  # atno 10718 bound_to 10713
  153.9039  135.6799  153.4754 H   0  0  0  0  0  0  0  0  0  0  0  0  # atno 10763 bound_to 10752
  153.1114  135.4781  154.9039 H   0  0  0  0  0  0  0  0  0  0  0  0  # atno 10764 bound_to 10752
  154.7561  135.3198  154.8422 H   0  0  0  0  0  0  0  0  0  0  0  0  # atno 10765 bound_to 10752
  140.3168  134.2588  155.7724 H   0  0  0  0  0  0  0  0  0  0  0  0  # atno 11005 bound_to 11000
  146.3099  139.7710  142.9028 LP  0  0  0  0  0  0  0  0  0  0  0  0  # atno 17320 bound_to 7965
  145.3645  141.0332  143.3266 LP  0  0  0  0  0  0  0  0  0  0  0  0  # atno 17321 bound_to 7965
  139.9569  144.6583  150.8117 LP  0  0  0  0  0  0  0  0  0  0  0  0  # atno 17342 bound_to 10162
  140.7602  143.3147  151.2762 LP  0  0  0  0  0  0  0  0  0  0  0  0  # atno 17343 bound_to 10162
  156.3443  130.3820  149.7383 LP  0  0  0  0  0  0  0  0  0  0  0  0  # atno 17370 bound_to 10713
  156.4881  130.8072  151.3083 LP  0  0  0  0  0  0  0  0  0  0  0  0  # atno 17371 bound_to 10713
  141.2096  133.7745  156.9988 LP  0  0  0  0  0  0  0  0  0  0  0  0  # atno 17394 bound_to 11000
  140.0976  134.9555  157.1874 LP  0  0  0  0  0  0  0  0  0  0  0  0  # atno 17395 bound_to 11000

$$$$
