AV-unprocessed.smi:1306|AV-procd|sdf|5434|dock6
  -GOLD-   22720 4593D 1   1.00000     0.00000
 Structure written by MMmdl.
 39 40  0  0  0  0  0  0  0  0  1 V2000
  146.3223  137.8654  154.2946 O   0  0  0  0  0  0  0  0  0  0  0  0
  146.2770  137.9303  153.0651 C   0  0  0  0  0  0  0  0  0  0  0  0
  145.7442  136.7557  152.2315 C   0  0  0  0  0  0  0  0  0  0  0  0
  144.4143  136.2974  152.6593 N   0  0  0  0  0  0  0  0  0  0  0  0
  143.3206  137.1475  152.5749 C   0  0  0  0  0  0  0  0  0  0  0  0
  142.0677  136.7895  152.9429 C   0  0  0  0  0  0  0  0  0  0  0  0
  141.8039  135.4514  153.4607 C   0  0  0  0  0  0  0  0  0  0  0  0
  140.7056  135.0344  153.8214 O   0  0  0  0  0  0  0  0  0  0  0  0
  142.9287  134.6247  153.5279 N   0  0  0  0  0  0  0  0  0  0  0  0
  144.2223  134.9864  153.1481 C   0  0  0  0  0  0  0  0  0  0  0  0
  145.1442  134.1771  153.2433 O   0  0  0  0  0  0  0  0  0  0  0  0
  146.6924  139.0009  152.3719 N   0  0  0  0  0  0  0  0  0  0  0  0
  147.2133  140.2317  152.9573 C   0  0  0  0  0  0  0  0  0  0  0  0
  148.2895  139.9545  154.0196 C   0  0  0  0  0  0  0  0  0  0  0  0
  148.8709  141.4795  154.8160 S   0  0  0  0  0  0  0  0  0  0  0  0
  150.4649  140.9153  155.4776 C   0  0  0  0  0  0  0  0  0  0  0  0
  150.8856  139.5582  154.9089 C   0  0  0  0  0  0  0  0  0  0  0  0
  151.8255  138.9437  155.9553 C   0  0  0  0  0  0  0  0  0  0  0  0
  151.6327  139.7550  157.2455 C   0  0  0  0  0  0  0  0  0  0  0  0
  150.4417  140.6807  156.9882 C   0  0  0  0  0  0  0  0  0  0  0  0
  142.7938  133.6875  153.8782 H   0  0  0  0  0  0  0  0  0  0  0  0
  145.7226  137.0357  151.1762 H   0  0  0  0  0  0  0  0  0  0  0  0
  146.4642  135.9387  152.2971 H   0  0  0  0  0  0  0  0  0  0  0  0
  143.4683  138.1478  152.1931 H   0  0  0  0  0  0  0  0  0  0  0  0
  141.2561  137.4970  152.8527 H   0  0  0  0  0  0  0  0  0  0  0  0
  146.6229  138.9701  151.3651 H   0  0  0  0  0  0  0  0  0  0  0  0
  147.6183  140.8716  152.1717 H   0  0  0  0  0  0  0  0  0  0  0  0
  146.3834  140.7808  153.4026 H   0  0  0  0  0  0  0  0  0  0  0  0
  147.9094  139.2738  154.7821 H   0  0  0  0  0  0  0  0  0  0  0  0
  149.1418  139.4608  153.5528 H   0  0  0  0  0  0  0  0  0  0  0  0
  151.2314  141.6533  155.2364 H   0  0  0  0  0  0  0  0  0  0  0  0
  150.0109  138.9163  154.7938 H   0  0  0  0  0  0  0  0  0  0  0  0
  151.3554  139.6484  153.9291 H   0  0  0  0  0  0  0  0  0  0  0  0
  151.5913  137.8899  156.1098 H   0  0  0  0  0  0  0  0  0  0  0  0
  152.8636  139.0007  155.6266 H   0  0  0  0  0  0  0  0  0  0  0  0
  151.4730  139.1179  158.1162 H   0  0  0  0  0  0  0  0  0  0  0  0
  152.5255  140.3519  157.4365 H   0  0  0  0  0  0  0  0  0  0  0  0
  150.5058  141.6061  157.5610 H   0  0  0  0  0  0  0  0  0  0  0  0
  149.5181  140.1751  157.2738 H   0  0  0  0  0  0  0  0  0  0  0  0
  1  2  2  0  0  0  0
  2  3  1  0  0  0  0
  2 12  1  0  0  0  0
  3  4  1  0  0  0  0
  3 22  1  0  0  0  0
  3 23  1  0  0  0  0
  4 10  1  0  0  0  0
  4  5  1  0  0  0  0
  5  6  2  0  0  0  0
  5 24  1  0  0  0  0
  6  7  1  0  0  0  0
  6 25  1  0  0  0  0
  7  8  2  0  0  0  0
  7  9  1  0  0  0  0
  9 21  1  0  0  0  0
  9 10  1  0  0  0  0
 10 11  2  0  0  0  0
 12 13  1  0  0  0  0
 12 26  1  0  0  0  0
 13 14  1  0  0  0  0
 13 27  1  0  0  0  0
 13 28  1  0  0  0  0
 14 15  1  0  0  0  0
 14 29  1  0  0  0  0
 14 30  1  0  0  0  0
 15 16  1  0  0  0  0
 16 20  1  0  0  0  0
 16 17  1  0  0  0  0
 16 31  1  0  0  0  0
 17 18  1  0  0  0  0
 17 32  1  0  0  0  0
 17 33  1  0  0  0  0
 18 19  1  0  0  0  0
 18 34  1  0  0  0  0
 18 35  1  0  0  0  0
 19 20  1  0  0  0  0
 19 36  1  0  0  0  0
 19 37  1  0  0  0  0
 20 38  1  0  0  0  0
 20 39  1  0  0  0  0
M  END
> <s_m_source_file>
AV-unprocessed.smi

> <i_m_source_file_index>
1306

> <i_lp_mmshare_version>
43012

> <i_f3d_flags>
0

> <s_epik_input>
Tz1jMVtuSF1jKD1PKVtjSF1bY0hdbjFbQ0gyXUMoPU8pW05IXVtDSDJdW0NIMl1TW0NIXTJbQ0gyXVtDSDJdW0NIMl1bQ0gyXTI=

> <s_epik_cmdline>
J2VwaWtfcHl0aG9uJywgJy1waCcsICc3LjAnLCAnLXRuJywgJzgnLCAnLW1hJywgJzIwMCcsICctbWV0YWxfYmluZGluZycsICctaW1hZScsICc8aW5maWxlLm1hZT4nLCAnLW9tYWUnLCAnPG91dGZpbGUubWFlPic=

> <r_lp_tautomer_probability>
0.999537

> <r_epik_Ionization_Penalty>
0.00337646

> <r_epik_Ionization_Penalty_Charging>
0.00337644

> <r_epik_Ionization_Penalty_Neutral>
2.37506e-08

> <r_epik_State_Penalty>
0.00238979

> <r_epik_Charging_Adjusted_Penalty>
0.00576623

> <i_epik_Tot_Q>
0

> <i_epik_Tot_abs_Q>
0

> <r_epik_Metal_State_Penalty>
0.366399

> <b_epik_Metal_Only>
0

> <s_lp_Force_Field>
OPLS_2005

> <r_lp_Energy>
19.0409

> <b_lp_Chiralities_Consistent>
1

> <s_lp_Variant>
AV-unprocessed.smi:1306-1

> <Gold.Version>
5.8.1

> <Gold.Id.Protein>
6NUR|6NUR_protein|mol2

> <Gold.PLP.Fitness>
42.9431

> <Gold.PLP.PLP>
-33.1732

> <Gold.PLP.part.hbond>
-3.2216

> <Gold.PLP.part.metal>
0.0000

> <Gold.PLP.part.buried>
-3.2850

> <Gold.PLP.part.nonpolar>
-26.5359

> <Gold.PLP.part.repulsive>
0.4403

> <Gold.PLP.ligand.clash>
0.0000

> <Gold.PLP.ligand.torsion>
0.8757

> <Gold.PLP.Chemscore.Hbond>
2.0000

> <Gold.PLP.Chemscore.CHOScore>
1.8245

> <Gold.PLP.Chemscore.Metal>
0.0000

> <Gold.Chemscore.Hbonds>
donor molecule, donor type, donor heavy atom, donor atom, acceptor molecule, acceptor atom, score
      L1  H     9    21       P1 10957  0.76
      P1  H 11000 11005       L1     8  0.91
      L1  C     5    24       P1 10171  0.85
      L1  C     5    24       P1 10175  1.00

> <Gold.PLP.Chemscore.Internal.Correction>
0.0478

> <Gold.Rescore>
     Score         DG    S(hbond)    S(metal)    S(lipo)     H(rot)  DE(clash)    DE(int)     intcor
     10.90     -13.13       1.99        0.00      62.14       2.45       0.07       2.17       ----

> <Gold.Chemscore.Fitness>
10.8960

> <Gold.Chemscore.DG>
-13.1325

> <Gold.Chemscore.ZeroCoef>
-5.4800

> <Gold.Chemscore.Hbond>
1.9898

> <Gold.Chemscore.Metal>
0.0000

> <Gold.Chemscore.Lipo>
62.1412

> <Gold.Chemscore.Internal_Hbond>
0.0000

> <Gold.Chemscore.DEClash>
0.0691

> <Gold.Chemscore.DEInternal>
2.1675

> <Gold.Chemscore.Rot>
2.4469

> <Gold.Chemscore.Internal.Correction>
   9.000000E+99

> <Gold.Chemscore.Hbonds>
donor molecule, donor type, donor heavy atom, donor atom, acceptor molecule, acceptor atom, score
      L1  H     9    21       P1 10957  0.77
      P1  H 11000 11005       L1     8  0.87

> <Gold.Chemscore.Hbond.Weighted>
-6.6459

> <Gold.Chemscore.Metal.Weighted>
-0.0000

> <Gold.Chemscore.Lipo.Weighted>
-7.2705

> <Gold.Chemscore.Internal_Hbond.Weighted>
0.0000

> <Gold.Chemscore.DEClash.Weighted>
0.0691

> <Gold.Chemscore.DEInternal.Weighted>
2.1675

> <Gold.Chemscore.Rot.Weighted>
6.2640

> <Gold.Chemscore.Internal.Correction.Weighted>
   9.000000E+99

> <Gold.Protein.RotatedTorsions>
[ 6907 6896 6895 6894 ] final   54.54 input  -60.11 | X-H torsion
[ 7974 7965 7964 7962 ] final  -15.05 input  175.53 | X-H torsion
[ 8008 7997 7996 7995 ] final   42.07 input   59.86 | X-H torsion
[ 10167 10162 10161 10158 ] final -136.73 input  -65.29 | X-H torsion
[ 10718 10713 10712 10709 ] final -161.90 input   66.30 | X-H torsion
[ 10763 10752 10751 10750 ] final  -45.02 input  -60.55 | X-H torsion
[ 11005 11000 10999 10996 ] final   31.16 input  -57.11 | X-H torsion

> <Gold.Protein.ActiveResidues>
 VAL166  LYS551  ARG553  GLY616  TRP617  ASP618  TYR619  PRO620  LYS621  CYS622 
 ASP623  PHE694  ASN695  SER759  ASP760  ASP761  ALA762  ILE779  LEU786  VAL792 
 PHE793  MET794  SER795  GLU796  ALA797  LYS798  CYS799  TRP800  GLU811  SER814 

> <Gold.Protein.RotatedAtoms>
  152.3449  134.7085  160.0252 H   0  0  0  0  0  0  0  0  0  0  0  0  # atno 6907 bound_to 6896
  151.7458  133.3319  159.3386 H   0  0  0  0  0  0  0  0  0  0  0  0  # atno 6908 bound_to 6896
  150.7503  134.6170  159.6160 H   0  0  0  0  0  0  0  0  0  0  0  0  # atno 6909 bound_to 6896
  146.2048  140.3436  142.8410 H   0  0  0  0  0  0  0  0  0  0  0  0  # atno 7974 bound_to 7965
  155.2801  140.3372  155.4259 H   0  0  0  0  0  0  0  0  0  0  0  0  # atno 8008 bound_to 7997
  156.2093  140.1763  156.7770 H   0  0  0  0  0  0  0  0  0  0  0  0  # atno 8009 bound_to 7997
  154.5664  140.0678  156.8883 H   0  0  0  0  0  0  0  0  0  0  0  0  # atno 8010 bound_to 7997
  139.8649  143.7031  152.2646 H   0  0  0  0  0  0  0  0  0  0  0  0  # atno 10167 bound_to 10162
  156.6027  130.8817  151.2918 H   0  0  0  0  0  0  0  0  0  0  0  0  # atno 10718 bound_to 10713
  154.0217  135.6668  153.4773 H   0  0  0  0  0  0  0  0  0  0  0  0  # atno 10763 bound_to 10752
  153.0577  135.5046  154.8017 H   0  0  0  0  0  0  0  0  0  0  0  0  # atno 10764 bound_to 10752
  154.6933  135.3065  154.9412 H   0  0  0  0  0  0  0  0  0  0  0  0  # atno 10765 bound_to 10752
  140.2868  134.2910  155.7786 H   0  0  0  0  0  0  0  0  0  0  0  0  # atno 11005 bound_to 11000
  144.8768  140.7347  143.6012 LP  0  0  0  0  0  0  0  0  0  0  0  0  # atno 17320 bound_to 7965
  145.3356  139.1747  143.4513 LP  0  0  0  0  0  0  0  0  0  0  0  0  # atno 17321 bound_to 7965
  139.7339  144.7576  151.0759 LP  0  0  0  0  0  0  0  0  0  0  0  0  # atno 17342 bound_to 10162
  140.7769  143.5055  150.9718 LP  0  0  0  0  0  0  0  0  0  0  0  0  # atno 17343 bound_to 10162
  157.7275  130.9644  150.1702 LP  0  0  0  0  0  0  0  0  0  0  0  0  # atno 17370 bound_to 10713
  156.2455  130.3695  149.8289 LP  0  0  0  0  0  0  0  0  0  0  0  0  # atno 17371 bound_to 10713
  141.2153  133.7559  156.9563 LP  0  0  0  0  0  0  0  0  0  0  0  0  # atno 17394 bound_to 11000
  140.1233  134.9403  157.2234 LP  0  0  0  0  0  0  0  0  0  0  0  0  # atno 17395 bound_to 11000

$$$$
