AV-unprocessed.smi:740|AV-procd|sdf|3553|dock5
  -GOLD-   22720 0553D 1   1.00000     0.00000
 Structure written by MMmdl.
 45 47  0  0  0  0  0  0  0  0  2 V2000
  152.1504  144.4302  161.5852 C   0  0  0  0  0  0  0  0  0  0  0  0
  151.9498  143.4864  160.4119 C   0  0  0  0  0  0  0  0  0  0  0  0
  151.1598  143.9214  159.3241 C   0  0  0  0  0  0  0  0  0  0  0  0
  150.9952  143.0363  158.2654 C   0  0  0  0  0  0  0  0  0  0  0  0
  150.2907  143.1666  157.0667 N   0  3  0  0  0  0  0  0  0  0  0  0
  150.4232  142.0257  156.3357 C   0  0  0  0  0  0  0  0  0  0  0  0
  151.1990  141.1670  157.0512 N   0  0  0  0  0  0  0  0  0  0  0  0
  151.6424  139.8070  156.7135 C   0  0  0  0  0  0  0  0  0  0  0  0
  152.0760  139.6716  155.2408 C   0  0  1  0  0  0  0  0  0  0  0  0
  153.2629  138.9045  155.1817 O   0  0  0  0  0  0  0  0  0  0  0  0
  150.9926  138.9753  154.3923 C   0  0  0  0  0  0  0  0  0  0  0  0
  150.3578  137.8653  155.1122 N   0  0  0  0  0  0  0  0  0  0  0  0
  151.0246  136.8165  155.6130 C   0  0  0  0  0  0  0  0  0  0  0  0
  152.2388  136.6263  155.5460 O   0  0  0  0  0  0  0  0  0  0  0  0
  150.0783  135.8506  156.3120 C   0  0  0  0  0  0  0  0  0  0  0  0
  148.7047  136.5176  156.1426 C   0  0  2  0  0  0  0  0  0  0  0  0
  147.6786  135.6434  155.4030 C   0  0  0  0  0  0  0  0  0  0  0  0
  149.0428  137.7846  155.3593 C   0  0  0  0  0  0  0  0  0  0  0  0
  148.1891  138.6040  155.0188 O   0  0  0  0  0  0  0  0  0  0  0  0
  151.5817  141.7556  158.2627 C   0  0  0  0  0  0  0  0  0  0  0  0
  152.3643  141.3122  159.3266 C   0  0  0  0  0  0  0  0  0  0  0  0
  152.5465  142.1990  160.4117 C   0  0  0  0  0  0  0  0  0  0  0  0
  153.4009  141.7442  161.5828 C   0  0  0  0  0  0  0  0  0  0  0  0
  151.6027  145.3625  161.4454 H   0  0  0  0  0  0  0  0  0  0  0  0
  153.2058  144.6775  161.7008 H   0  0  0  0  0  0  0  0  0  0  0  0
  151.7974  143.9731  162.5100 H   0  0  0  0  0  0  0  0  0  0  0  0
  150.7054  144.9014  159.3154 H   0  0  0  0  0  0  0  0  0  0  0  0
  149.9923  141.8363  155.3630 H   0  0  0  0  0  0  0  0  0  0  0  0
  152.4367  139.5013  157.3948 H   0  0  0  0  0  0  0  0  0  0  0  0
  150.7998  139.1436  156.9118 H   0  0  0  0  0  0  0  0  0  0  0  0
  152.2841  140.6668  154.8453 H   0  0  0  0  0  0  0  0  0  0  0  0
  153.0320  137.9890  155.2205 H   0  0  0  0  0  0  0  0  0  0  0  0
  150.2535  139.6985  154.0422 H   0  0  0  0  0  0  0  0  0  0  0  0
  151.4456  138.5721  153.4847 H   0  0  0  0  0  0  0  0  0  0  0  0
  150.1282  134.8686  155.8398 H   0  0  0  0  0  0  0  0  0  0  0  0
  150.3500  135.7448  157.3628 H   0  0  0  0  0  0  0  0  0  0  0  0
  148.3082  136.8070  157.1167 H   0  0  0  0  0  0  0  0  0  0  0  0
  146.7199  136.1544  155.3072 H   0  0  0  0  0  0  0  0  0  0  0  0
  147.5013  134.7131  155.9432 H   0  0  0  0  0  0  0  0  0  0  0  0
  148.0207  135.3844  154.4002 H   0  0  0  0  0  0  0  0  0  0  0  0
  152.8223  140.3345  159.3274 H   0  0  0  0  0  0  0  0  0  0  0  0
  153.8110  140.7479  161.4145 H   0  0  0  0  0  0  0  0  0  0  0  0
  152.8096  141.7108  162.4979 H   0  0  0  0  0  0  0  0  0  0  0  0
  154.2378  142.4260  161.7349 H   0  0  0  0  0  0  0  0  0  0  0  0
  149.7597  143.9742  156.7662 H   0  0  0  0  0  0  0  0  0  0  0  0
  1  2  1  0  0  0  0
  1 24  1  0  0  0  0
  1 25  1  0  0  0  0
  1 26  1  0  0  0  0
  2 22  1  0  0  0  0
  2  3  2  0  0  0  0
  3  4  1  0  0  0  0
  3 27  1  0  0  0  0
  4 20  2  0  0  0  0
  4  5  1  0  0  0  0
  5  6  2  0  0  0  0
  5 45  1  0  0  0  0
  6  7  1  0  0  0  0
  6 28  1  0  0  0  0
  7  8  1  0  0  0  0
  7 20  1  0  0  0  0
  8  9  1  0  0  0  0
  8 29  1  0  0  0  0
  8 30  1  0  0  0  0
  9 10  1  0  0  0  0
  9 11  1  0  0  0  0
  9 31  1  0  0  0  0
 10 32  1  0  0  0  0
 11 12  1  0  0  0  0
 11 33  1  0  0  0  0
 11 34  1  0  0  0  0
 12 18  1  0  0  0  0
 12 13  1  0  0  0  0
 13 14  2  0  0  0  0
 13 15  1  0  0  0  0
 15 16  1  0  0  0  0
 15 35  1  0  0  0  0
 15 36  1  0  0  0  0
 16 17  1  0  0  0  0
 16 18  1  0  0  0  0
 16 37  1  0  0  0  0
 17 38  1  0  0  0  0
 17 39  1  0  0  0  0
 17 40  1  0  0  0  0
 18 19  2  0  0  0  0
 20 21  1  0  0  0  0
 21 22  2  0  0  0  0
 21 41  1  0  0  0  0
 22 23  1  0  0  0  0
 23 42  1  0  0  0  0
 23 43  1  0  0  0  0
 23 44  1  0  0  0  0
M  CHG  1   5   1
M  END
> <s_m_source_file>
AV-unprocessed.smi

> <i_m_source_file_index>
740

> <i_lp_mmshare_version>
43012

> <i_f3d_flags>
0

> <s_epik_input>
W0NIM11jKFtjSF0xKWMoW0NIM10pW2NIXWMoYzEyKW4oW2NIXW4yKVtDSDJdW0NASF0oW09IXSlbQ0gyXU4zQyg9TylbQ0gyXVtDQEBIXShbQ0gzXSlDMz1P

> <s_epik_cmdline>
J2VwaWtfcHl0aG9uJywgJy1waCcsICc3LjAnLCAnLXRuJywgJzgnLCAnLW1hJywgJzIwMCcsICctbWV0YWxfYmluZGluZycsICctaW1hZScsICc8aW5maWxlLm1hZT4nLCAnLW9tYWUnLCAnPG91dGZpbGUubWFlPic=

> <r_lp_tautomer_probability>
1

> <r_epik_Ionization_Penalty>
1.08202

> <r_epik_Ionization_Penalty_Charging>
1.08202

> <r_epik_Ionization_Penalty_Neutral>
1.16605e-06

> <r_epik_State_Penalty>
1.13754

> <r_epik_Charging_Adjusted_Penalty>
2.21956

> <i_epik_Tot_Q>
1

> <i_epik_Tot_abs_Q>
1

> <r_epik_Metal_State_Penalty>
5.13645

> <b_epik_Metal_Only>
0

> <s_lp_Force_Field>
OPLS_2005

> <r_lp_Energy>
22.4261

> <b_lp_Chiralities_Consistent>
1

> <s_lp_Variant>
AV-unprocessed.smi:740-8

> <Gold.Version>
5.8.1

> <Gold.Id.Protein>
6NUR|6NUR_protein|mol2

> <Gold.PLP.Fitness>
51.8673

> <Gold.PLP.PLP>
-42.2467

> <Gold.PLP.part.hbond>
-2.8301

> <Gold.PLP.part.metal>
0.0000

> <Gold.PLP.part.buried>
-3.6710

> <Gold.PLP.part.nonpolar>
-36.2344

> <Gold.PLP.part.repulsive>
0.1153

> <Gold.PLP.ligand.clash>
0.0000

> <Gold.PLP.ligand.torsion>
1.0514

> <Gold.PLP.Chemscore.Hbond>
3.9000

> <Gold.PLP.Chemscore.CHOScore>
0.0000

> <Gold.PLP.Chemscore.Metal>
0.0000

> <Gold.Chemscore.Hbonds>
donor molecule, donor type, donor heavy atom, donor atom, acceptor molecule, acceptor atom, score
      L1  H     5    45       P1  8028  2.00
      P1  H  7997  8010       L1    10  0.90
      P1  H 10752 10763       L1    14  0.94

> <Gold.PLP.Chemscore.Internal.Correction>
0.0234

> <Gold.Rescore>
     Score         DG    S(hbond)    S(metal)    S(lipo)     H(rot)  DE(clash)    DE(int)     intcor
     16.02     -18.90       2.08        0.00     107.31       2.37       0.14       2.75       ----

> <Gold.Chemscore.Fitness>
16.0167

> <Gold.Chemscore.DG>
-18.9002

> <Gold.Chemscore.ZeroCoef>
-5.4800

> <Gold.Chemscore.Hbond>
2.0773

> <Gold.Chemscore.Metal>
0.0000

> <Gold.Chemscore.Lipo>
107.3099

> <Gold.Chemscore.Internal_Hbond>
0.0000

> <Gold.Chemscore.DEClash>
0.1379

> <Gold.Chemscore.DEInternal>
2.7455

> <Gold.Chemscore.Rot>
2.3724

> <Gold.Chemscore.Internal.Correction>
   9.000000E+99

> <Gold.Chemscore.Hbonds>
donor molecule, donor type, donor heavy atom, donor atom, acceptor molecule, acceptor atom, score
      L1  H     5    45       P1  8028  0.91
      P1  H  7997  8010       L1    10  0.18
      P1  H 10752 10763       L1    14  0.87

> <Gold.Chemscore.Hbond.Weighted>
-6.9383

> <Gold.Chemscore.Metal.Weighted>
-0.0000

> <Gold.Chemscore.Lipo.Weighted>
-12.5553

> <Gold.Chemscore.Internal_Hbond.Weighted>
0.0000

> <Gold.Chemscore.DEClash.Weighted>
0.1379

> <Gold.Chemscore.DEInternal.Weighted>
2.7455

> <Gold.Chemscore.Rot.Weighted>
6.0734

> <Gold.Chemscore.Internal.Correction.Weighted>
   9.000000E+99

> <Gold.Protein.RotatedTorsions>
[ 6907 6896 6895 6894 ] final  126.07 input  -60.11 | X-H torsion
[ 7974 7965 7964 7962 ] final -146.53 input  175.53 | X-H torsion
[ 8008 7997 7996 7995 ] final   95.06 input   59.86 | X-H torsion
[ 10167 10162 10161 10158 ] final  -58.64 input  -65.29 | X-H torsion
[ 10718 10713 10712 10709 ] final   56.43 input   66.30 | X-H torsion
[ 10763 10752 10751 10750 ] final   79.56 input  -60.55 | X-H torsion
[ 11005 11000 10999 10996 ] final   39.97 input  -57.11 | X-H torsion

> <Gold.Protein.ActiveResidues>
 VAL166  LYS551  ARG553  GLY616  TRP617  ASP618  TYR619  PRO620  LYS621  CYS622 
 ASP623  PHE694  ASN695  SER759  ASP760  ASP761  ALA762  ILE779  LEU786  VAL792 
 PHE793  MET794  SER795  GLU796  ALA797  LYS798  CYS799  TRP800  GLU811  SER814 

> <Gold.Protein.RotatedAtoms>
  152.3936  133.6714  159.6257 H   0  0  0  0  0  0  0  0  0  0  0  0  # atno 6907 bound_to 6896
  150.7839  133.8912  159.3322 H   0  0  0  0  0  0  0  0  0  0  0  0  # atno 6908 bound_to 6896
  151.6693  135.0980  160.0246 H   0  0  0  0  0  0  0  0  0  0  0  0  # atno 6909 bound_to 6896
  144.8153  140.5444  143.5614 H   0  0  0  0  0  0  0  0  0  0  0  0  # atno 7974 bound_to 7965
  156.0648  140.3291  155.7504 H   0  0  0  0  0  0  0  0  0  0  0  0  # atno 8008 bound_to 7997
  155.5398  140.0600  157.2889 H   0  0  0  0  0  0  0  0  0  0  0  0  # atno 8009 bound_to 7997
  154.4499  140.1912  156.0568 H   0  0  0  0  0  0  0  0  0  0  0  0  # atno 8010 bound_to 7997
  140.6184  143.2411  151.5540 H   0  0  0  0  0  0  0  0  0  0  0  0  # atno 10167 bound_to 10162
  157.5430  130.8711  149.8850 H   0  0  0  0  0  0  0  0  0  0  0  0  # atno 10718 bound_to 10713
  153.0962  135.4835  154.8783 H   0  0  0  0  0  0  0  0  0  0  0  0  # atno 10763 bound_to 10752
  154.7327  135.3064  154.8866 H   0  0  0  0  0  0  0  0  0  0  0  0  # atno 10764 bound_to 10752
  153.9497  135.6825  153.4797 H   0  0  0  0  0  0  0  0  0  0  0  0  # atno 10765 bound_to 10752
  140.1976  134.3910  155.8113 H   0  0  0  0  0  0  0  0  0  0  0  0  # atno 11005 bound_to 11000
  145.5228  139.1476  143.3543 LP  0  0  0  0  0  0  0  0  0  0  0  0  # atno 17320 bound_to 7965
  146.2456  140.5369  142.8915 LP  0  0  0  0  0  0  0  0  0  0  0  0  # atno 17321 bound_to 7965
  139.5418  144.2627  152.1366 LP  0  0  0  0  0  0  0  0  0  0  0  0  # atno 17342 bound_to 10162
  140.1841  144.4815  150.6512 LP  0  0  0  0  0  0  0  0  0  0  0  0  # atno 17343 bound_to 10162
  156.0512  130.3717  150.1196 LP  0  0  0  0  0  0  0  0  0  0  0  0  # atno 17370 bound_to 10713
  156.9375  130.9733  151.3522 LP  0  0  0  0  0  0  0  0  0  0  0  0  # atno 17371 bound_to 10713
  141.2227  133.7077  156.8202 LP  0  0  0  0  0  0  0  0  0  0  0  0  # atno 17394 bound_to 11000
  140.2090  134.8841  157.3254 LP  0  0  0  0  0  0  0  0  0  0  0  0  # atno 17395 bound_to 11000

$$$$
