AV-unprocessed.smi:1754|AV-procd|sdf|7068|dock6
  -GOLD-   22720 8283D 1   1.00000     0.00000
 Structure written by MMmdl.
 44 45  0  0  0  0  0  0  0  0  3 V2000
  148.2207  127.8987  151.5002 C   0  0  0  0  0  0  0  0  0  0  0  0
  147.7745  128.7999  152.6620 C   0  0  0  0  0  0  0  0  0  0  0  0
  148.8917  129.2556  153.4889 N   0  0  0  0  0  0  0  0  0  0  0  0
  149.3177  128.3710  154.5760 C   0  0  0  0  0  0  0  0  0  0  0  0
  150.8184  128.4824  154.8898 C   0  0  0  0  0  0  0  0  0  0  0  0
  148.9611  130.6540  153.6843 C   0  0  0  0  0  0  0  0  0  0  0  0
  149.6048  131.2275  154.8068 C   0  0  0  0  0  0  0  0  0  0  0  0
  149.6597  132.6294  154.9443 C   0  0  0  0  0  0  0  0  0  0  0  0
  149.0846  133.4522  153.9547 C   0  0  0  0  0  0  0  0  0  0  0  0
  149.1434  134.8584  154.1424 N   0  0  0  0  0  0  0  0  0  0  0  0
  149.2919  135.5640  155.2910 C   0  0  0  0  0  0  0  0  0  0  0  0
  149.3121  134.9593  156.3619 O   0  0  0  0  0  0  0  0  0  0  0  0
  149.3891  136.9278  155.2433 N   0  5  0  0  0  0  0  0  0  0  0  0
  150.5029  137.7922  155.6648 C   0  0  2  0  0  0  0  0  0  0  0  0
  151.5165  137.9975  154.5199 C   0  0  0  0  0  0  0  0  0  0  0  0
  152.8063  138.5892  155.1058 C   0  0  0  0  0  0  0  0  0  0  0  0
  152.9383  137.9126  156.8064 S   0  0  0  0  0  0  0  0  0  0  0  0
  153.9418  136.8374  156.8320 O   0  0  0  0  0  0  0  0  0  0  0  0
  153.0091  139.0309  157.7601 O   0  0  0  0  0  0  0  0  0  0  0  0
  151.2596  137.1700  156.8461 C   0  0  0  0  0  0  0  0  0  0  0  0
  148.4375  132.8333  152.8601 C   0  0  0  0  0  0  0  0  0  0  0  0
  148.4059  131.4864  152.7693 N   0  3  0  0  0  0  0  0  0  0  0  0
  147.3636  127.5946  150.8993 H   0  0  0  0  0  0  0  0  0  0  0  0
  148.7072  126.9924  151.8621 H   0  0  0  0  0  0  0  0  0  0  0  0
  148.9190  128.4140  150.8404 H   0  0  0  0  0  0  0  0  0  0  0  0
  147.2639  129.6756  152.2602 H   0  0  0  0  0  0  0  0  0  0  0  0
  147.0291  128.2836  153.2654 H   0  0  0  0  0  0  0  0  0  0  0  0
  148.7290  128.5733  155.4716 H   0  0  0  0  0  0  0  0  0  0  0  0
  149.0964  127.3393  154.3002 H   0  0  0  0  0  0  0  0  0  0  0  0
  151.0986  127.7783  155.6733 H   0  0  0  0  0  0  0  0  0  0  0  0
  151.0969  129.4787  155.2327 H   0  0  0  0  0  0  0  0  0  0  0  0
  151.4196  128.2520  154.0099 H   0  0  0  0  0  0  0  0  0  0  0  0
  150.0461  130.6084  155.5732 H   0  0  0  0  0  0  0  0  0  0  0  0
  150.1455  133.0676  155.8040 H   0  0  0  0  0  0  0  0  0  0  0  0
  149.0120  135.4142  153.3100 H   0  0  0  0  0  0  0  0  0  0  0  0
  150.1547  138.7771  155.9806 H   0  0  0  0  0  0  0  0  0  0  0  0
  151.7507  137.0329  154.0665 H   0  0  0  0  0  0  0  0  0  0  0  0
  151.1134  138.6302  153.7288 H   0  0  0  0  0  0  0  0  0  0  0  0
  153.6913  138.3247  154.5271 H   0  0  0  0  0  0  0  0  0  0  0  0
  152.7500  139.6766  155.1744 H   0  0  0  0  0  0  0  0  0  0  0  0
  150.7825  137.3630  157.8068 H   0  0  0  0  0  0  0  0  0  0  0  0
  151.3707  136.0921  156.7220 H   0  0  0  0  0  0  0  0  0  0  0  0
  147.9342  133.3578  152.0615 H   0  0  0  0  0  0  0  0  0  0  0  0
  147.9356  131.0735  151.9640 H   0  0  0  0  0  0  0  0  0  0  0  0
  1  2  1  0  0  0  0
  1 23  1  0  0  0  0
  1 24  1  0  0  0  0
  1 25  1  0  0  0  0
  2  3  1  0  0  0  0
  2 26  1  0  0  0  0
  2 27  1  0  0  0  0
  3  4  1  0  0  0  0
  3  6  1  0  0  0  0
  4  5  1  0  0  0  0
  4 28  1  0  0  0  0
  4 29  1  0  0  0  0
  5 30  1  0  0  0  0
  5 31  1  0  0  0  0
  5 32  1  0  0  0  0
  6 22  1  0  0  0  0
  6  7  2  0  0  0  0
  7  8  1  0  0  0  0
  7 33  1  0  0  0  0
  8  9  2  0  0  0  0
  8 34  1  0  0  0  0
  9 10  1  0  0  0  0
  9 21  1  0  0  0  0
 10 11  1  0  0  0  0
 10 35  1  0  0  0  0
 11 12  2  0  0  0  0
 11 13  1  0  0  0  0
 13 14  1  0  0  0  0
 14 20  1  0  0  0  0
 14 15  1  0  0  0  0
 14 36  1  0  0  0  0
 15 16  1  0  0  0  0
 15 37  1  0  0  0  0
 15 38  1  0  0  0  0
 16 17  1  0  0  0  0
 16 39  1  0  0  0  0
 16 40  1  0  0  0  0
 17 18  2  0  0  0  0
 17 19  2  0  0  0  0
 17 20  1  0  0  0  0
 20 41  1  0  0  0  0
 20 42  1  0  0  0  0
 21 22  2  0  0  0  0
 21 43  1  0  0  0  0
 22 44  1  0  0  0  0
M  CHG  1  13  -1
M  CHG  1  22   1
M  END
> <s_m_source_file>
AV-unprocessed.smi

> <i_m_source_file_index>
1754

> <i_lp_mmshare_version>
43012

> <i_f3d_flags>
0

> <s_epik_input>
W0NIM11bQ0gyXU4oW0NIMl1bQ0gzXSljMVtjSF1bY0hdYyhbY0hdbjEpW05IXUMoPU8pW05IXVtDQEBIXShbQ0gyXTIpW0NIMl1bQ0gyXVMyKD1PKT1P

> <s_epik_cmdline>
J2VwaWtfcHl0aG9uJywgJy1waCcsICc3LjAnLCAnLXRuJywgJzgnLCAnLW1hJywgJzIwMCcsICctbWV0YWxfYmluZGluZycsICctaW1hZScsICc8aW5maWxlLm1hZT4nLCAnLW9tYWUnLCAnPG91dGZpbGUubWFlPic=

> <r_lp_tautomer_probability>
0.999994

> <r_epik_Ionization_Penalty>
7.1175

> <r_epik_Ionization_Penalty_Charging>
7.11749

> <r_epik_Ionization_Penalty_Neutral>
3.13064e-06

> <r_epik_State_Penalty>
6.65299

> <r_epik_Charging_Adjusted_Penalty>
13.7705

> <i_epik_Tot_Q>
0

> <i_epik_Tot_abs_Q>
2

> <r_epik_Metal_State_Penalty>
2.60496

> <b_epik_Metal_Only>
1

> <s_lp_Force_Field>
OPLS_2005

> <r_lp_Energy>
20.9126

> <b_lp_Chiralities_Consistent>
1

> <s_lp_Variant>
AV-unprocessed.smi:1754-5

> <Gold.Version>
5.8.1

> <Gold.Id.Protein>
6NUR|6NUR_protein|mol2

> <Gold.PLP.Fitness>
44.4371

> <Gold.PLP.PLP>
-38.0533

> <Gold.PLP.part.hbond>
-4.0000

> <Gold.PLP.part.metal>
0.0000

> <Gold.PLP.part.buried>
-3.5439

> <Gold.PLP.part.nonpolar>
-30.6498

> <Gold.PLP.part.repulsive>
0.1709

> <Gold.PLP.ligand.clash>
0.0213

> <Gold.PLP.ligand.torsion>
1.6479

> <Gold.PLP.Chemscore.Hbond>
2.9212

> <Gold.PLP.Chemscore.CHOScore>
0.0000

> <Gold.PLP.Chemscore.Metal>
0.0000

> <Gold.Chemscore.Hbonds>
donor molecule, donor type, donor heavy atom, donor atom, acceptor molecule, acceptor atom, score
      L1  H    10    35       P1  7948  1.00
      L1  H    22    44       P1 10747  0.35
      P1  H  7997  8009       L1    19  0.90
      P1  H 10752 10763       L1    18  0.76

> <Gold.PLP.Chemscore.Internal.Correction>
0.9374

> <Gold.Rescore>
     Score         DG    S(hbond)    S(metal)    S(lipo)     H(rot)  DE(clash)    DE(int)     intcor
     15.98     -19.08       2.51        0.00      74.93       1.39       0.04       3.06       ----

> <Gold.Chemscore.Fitness>
15.9794

> <Gold.Chemscore.DG>
-19.0827

> <Gold.Chemscore.ZeroCoef>
-5.4800

> <Gold.Chemscore.Hbond>
2.5114

> <Gold.Chemscore.Metal>
0.0000

> <Gold.Chemscore.Lipo>
74.9325

> <Gold.Chemscore.Internal_Hbond>
0.0000

> <Gold.Chemscore.DEClash>
0.0396

> <Gold.Chemscore.DEInternal>
3.0637

> <Gold.Chemscore.Rot>
1.3876

> <Gold.Chemscore.Internal.Correction>
   9.000000E+99

> <Gold.Chemscore.Hbonds>
donor molecule, donor type, donor heavy atom, donor atom, acceptor molecule, acceptor atom, score
      L1  H    10    35       P1  7948  0.55
      L1  H    22    44       P1 10747  0.35
      P1  H  7997  8009       L1    19  0.17
      P1  H 10752 10763       L1    18  0.69

> <Gold.Chemscore.Hbond.Weighted>
-8.3880

> <Gold.Chemscore.Metal.Weighted>
-0.0000

> <Gold.Chemscore.Lipo.Weighted>
-8.7671

> <Gold.Chemscore.Internal_Hbond.Weighted>
0.0000

> <Gold.Chemscore.DEClash.Weighted>
0.0396

> <Gold.Chemscore.DEInternal.Weighted>
3.0637

> <Gold.Chemscore.Rot.Weighted>
3.5524

> <Gold.Chemscore.Internal.Correction.Weighted>
   9.000000E+99

> <Gold.Protein.RotatedTorsions>
[ 6907 6896 6895 6894 ] final  -21.02 input  -60.11 | X-H torsion
[ 7974 7965 7964 7962 ] final -153.48 input  175.53 | X-H torsion
[ 8008 7997 7996 7995 ] final  163.05 input   59.86 | X-H torsion
[ 10167 10162 10161 10158 ] final  123.14 input  -65.29 | X-H torsion
[ 10718 10713 10712 10709 ] final  -94.89 input   66.30 | X-H torsion
[ 10763 10752 10751 10750 ] final  132.88 input  -60.55 | X-H torsion
[ 11005 11000 10999 10996 ] final  -42.41 input  -57.11 | X-H torsion

> <Gold.Protein.ActiveResidues>
 VAL166  LYS551  ARG553  GLY616  TRP617  ASP618  TYR619  PRO620  LYS621  CYS622 
 ASP623  PHE694  ASN695  SER759  ASP760  ASP761  ALA762  ILE779  LEU786  VAL792 
 PHE793  MET794  SER795  GLU796  ALA797  LYS798  CYS799  TRP800  GLU811  SER814 

> <Gold.Protein.RotatedAtoms>
  151.2395  135.0583  159.9019 H   0  0  0  0  0  0  0  0  0  0  0  0  # atno 6907 bound_to 6896
  152.5395  134.0450  159.8094 H   0  0  0  0  0  0  0  0  0  0  0  0  # atno 6908 bound_to 6896
  151.0641  133.5471  159.2663 H   0  0  0  0  0  0  0  0  0  0  0  0  # atno 6909 bound_to 6896
  144.7739  140.4520  143.5887 H   0  0  0  0  0  0  0  0  0  0  0  0  # atno 7974 bound_to 7965
  156.1986  140.1734  156.7947 H   0  0  0  0  0  0  0  0  0  0  0  0  # atno 8008 bound_to 7997
  154.5562  140.0708  156.8777 H   0  0  0  0  0  0  0  0  0  0  0  0  # atno 8009 bound_to 7997
  155.2935  140.3357  155.4253 H   0  0  0  0  0  0  0  0  0  0  0  0  # atno 8010 bound_to 7997
  139.5817  144.6989  151.3512 H   0  0  0  0  0  0  0  0  0  0  0  0  # atno 10167 bound_to 10162
  156.0034  130.5086  150.5994 H   0  0  0  0  0  0  0  0  0  0  0  0  # atno 10718 bound_to 10713
  153.7980  135.3146  155.3386 H   0  0  0  0  0  0  0  0  0  0  0  0  # atno 10763 bound_to 10752
  154.8100  135.4673  154.0495 H   0  0  0  0  0  0  0  0  0  0  0  0  # atno 10764 bound_to 10752
  153.1833  135.6897  153.8535 H   0  0  0  0  0  0  0  0  0  0  0  0  # atno 10765 bound_to 10752
  141.0314  133.6818  156.2591 H   0  0  0  0  0  0  0  0  0  0  0  0  # atno 11005 bound_to 11000
  145.6244  139.1528  143.3004 LP  0  0  0  0  0  0  0  0  0  0  0  0  # atno 17320 bound_to 7965
  146.1905  140.6352  142.9148 LP  0  0  0  0  0  0  0  0  0  0  0  0  # atno 17321 bound_to 7965
  140.7094  143.7429  150.7540 LP  0  0  0  0  0  0  0  0  0  0  0  0  # atno 17342 bound_to 10162
  140.0963  143.4829  152.2450 LP  0  0  0  0  0  0  0  0  0  0  0  0  # atno 17343 bound_to 10162
  157.3846  131.0786  151.1447 LP  0  0  0  0  0  0  0  0  0  0  0  0  # atno 17370 bound_to 10713
  157.2159  130.6459  149.5792 LP  0  0  0  0  0  0  0  0  0  0  0  0  # atno 17371 bound_to 10713
  140.6400  134.5175  157.5568 LP  0  0  0  0  0  0  0  0  0  0  0  0  # atno 17394 bound_to 11000
  139.9210  134.8148  156.1211 LP  0  0  0  0  0  0  0  0  0  0  0  0  # atno 17395 bound_to 11000

$$$$
