AV-unprocessed.smi:102|AV-procd|sdf|947|dock5
  -GOLD-   2262017473D 1   1.00000     0.00000
 Structure written by MMmdl.
 44 45  0  0  0  0  0  0  0  0  1 V2000
  147.3110  135.3904  161.8288 C   0  0  0  0  0  0  0  0  0  0  0  0
  147.6331  136.3462  160.6879 C   0  0  0  0  0  0  0  0  0  0  0  0
  147.1903  137.4945  160.6661 O   0  0  0  0  0  0  0  0  0  0  0  0
  148.4230  135.7884  159.7603 O   0  0  0  0  0  0  0  0  0  0  0  0
  148.6571  136.4666  158.5356 C   0  0  0  0  0  0  0  0  0  0  0  0
  149.4156  137.7784  158.7830 C   0  0  2  0  0  0  0  0  0  0  0  0
  148.6663  138.8938  158.3066 O   0  0  0  0  0  0  0  0  0  0  0  0
  149.4041  139.6295  157.3755 C   0  0  2  0  0  0  0  0  0  0  0  0
  148.9325  139.2271  155.9843 N   0  0  0  0  0  0  0  0  0  0  0  0
  147.7396  138.5557  155.7233 C   0  0  0  0  0  0  0  0  0  0  0  0
  147.3200  138.2514  154.4723 C   0  0  0  0  0  0  0  0  0  0  0  0
  146.1540  137.6051  154.3033 F   0  0  0  0  0  0  0  0  0  0  0  0
  148.1112  138.6277  153.3064 C   0  0  0  0  0  0  0  0  0  0  0  0
  147.8122  138.3969  152.1366 O   0  0  0  0  0  0  0  0  0  0  0  0
  149.2908  139.3104  153.6094 N   0  0  0  0  0  0  0  0  0  0  0  0
  149.7346  139.6324  154.8923 C   0  0  0  0  0  0  0  0  0  0  0  0
  150.7899  140.2487  155.0358 O   0  0  0  0  0  0  0  0  0  0  0  0
  150.8800  139.3135  157.6700 C   0  0  1  0  0  0  0  0  0  0  0  0
  151.3390  140.1606  158.7203 O   0  0  0  0  0  0  0  0  0  0  0  0
  151.5172  141.4756  158.5058 C   0  0  0  0  0  0  0  0  0  0  0  0
  152.1500  142.1785  159.6992 C   0  0  0  0  0  0  0  0  0  0  0  0
  151.2127  142.0911  157.4841 O   0  0  0  0  0  0  0  0  0  0  0  0
  150.8020  137.8604  158.1350 C   0  0  1  0  0  0  0  0  0  0  0  0
  151.8424  137.5139  159.0420 O   0  0  0  0  0  0  0  0  0  0  0  0
  153.1170  137.8356  158.7596 C   0  0  0  0  0  0  0  0  0  0  0  0
  154.0929  137.3319  159.8145 C   0  0  0  0  0  0  0  0  0  0  0  0
  153.5025  138.4718  157.7785 O   0  0  0  0  0  0  0  0  0  0  0  0
  149.8695  139.5990  152.8341 H   0  0  0  0  0  0  0  0  0  0  0  0
  148.2192  134.9080  162.1905 H   0  0  0  0  0  0  0  0  0  0  0  0
  146.6190  134.6195  161.4903 H   0  0  0  0  0  0  0  0  0  0  0  0
  146.8511  135.9267  162.6589 H   0  0  0  0  0  0  0  0  0  0  0  0
  149.2313  135.8279  157.8632 H   0  0  0  0  0  0  0  0  0  0  0  0
  147.7035  136.6779  158.0499 H   0  0  0  0  0  0  0  0  0  0  0  0
  149.5153  137.9260  159.8591 H   0  0  0  0  0  0  0  0  0  0  0  0
  149.1821  140.6970  157.4384 H   0  0  0  0  0  0  0  0  0  0  0  0
  147.0862  138.2455  156.5215 H   0  0  0  0  0  0  0  0  0  0  0  0
  151.5131  139.4427  156.7925 H   0  0  0  0  0  0  0  0  0  0  0  0
  152.9291  141.5568  160.1409 H   0  0  0  0  0  0  0  0  0  0  0  0
  151.3959  142.3831  160.4589 H   0  0  0  0  0  0  0  0  0  0  0  0
  152.5970  143.1242  159.3921 H   0  0  0  0  0  0  0  0  0  0  0  0
  150.8264  137.1950  157.2724 H   0  0  0  0  0  0  0  0  0  0  0  0
  153.7717  136.3661  160.2055 H   0  0  0  0  0  0  0  0  0  0  0  0
  154.1510  138.0395  160.6415 H   0  0  0  0  0  0  0  0  0  0  0  0
  155.0893  137.2159  159.3877 H   0  0  0  0  0  0  0  0  0  0  0  0
  1  2  1  0  0  0  0
  1 29  1  0  0  0  0
  1 30  1  0  0  0  0
  1 31  1  0  0  0  0
  2  3  2  0  0  0  0
  2  4  1  0  0  0  0
  4  5  1  0  0  0  0
  5  6  1  0  0  0  0
  5 32  1  0  0  0  0
  5 33  1  0  0  0  0
  6 23  1  0  0  0  0
  6  7  1  0  0  0  0
  6 34  1  0  0  0  0
  7  8  1  0  0  0  0
  8  9  1  0  0  0  0
  8 18  1  0  0  0  0
  8 35  1  0  0  0  0
  9 16  1  0  0  0  0
  9 10  1  0  0  0  0
 10 11  2  0  0  0  0
 10 36  1  0  0  0  0
 11 12  1  0  0  0  0
 11 13  1  0  0  0  0
 13 14  2  0  0  0  0
 13 15  1  0  0  0  0
 15 28  1  0  0  0  0
 15 16  1  0  0  0  0
 16 17  2  0  0  0  0
 18 19  1  0  0  0  0
 18 23  1  0  0  0  0
 18 37  1  0  0  0  0
 19 20  1  0  0  0  0
 20 21  1  0  0  0  0
 20 22  2  0  0  0  0
 21 38  1  0  0  0  0
 21 39  1  0  0  0  0
 21 40  1  0  0  0  0
 23 24  1  0  0  0  0
 23 41  1  0  0  0  0
 24 25  1  0  0  0  0
 25 26  1  0  0  0  0
 25 27  2  0  0  0  0
 26 42  1  0  0  0  0
 26 43  1  0  0  0  0
 26 44  1  0  0  0  0
M  END
> <s_m_source_file>
AV-unprocessed.smi

> <i_m_source_file_index>
102

> <i_lp_mmshare_version>
43012

> <i_f3d_flags>
0

> <s_epik_input>
W0NIM11DKD1PKU9bQ0gyXVtDQEBIXTFPW0NASF0oW0NAQEhdKE9DKD1PKVtDSDNdKVtDQEhdMU9DKD1PKVtDSDNdKW4yW2NIXWMoRiljKD1PKVtuSF1jMj1P

> <s_epik_cmdline>
J2VwaWtfcHl0aG9uJywgJy1waCcsICc3LjAnLCAnLXRuJywgJzgnLCAnLW1hJywgJzIwMCcsICctbWV0YWxfYmluZGluZycsICctaW1hZScsICc8aW5maWxlLm1hZT4nLCAnLW9tYWUnLCAnPG91dGZpbGUubWFlPic=

> <r_lp_tautomer_probability>
0.999537

> <r_epik_Ionization_Penalty>
0.058267

> <r_epik_Ionization_Penalty_Charging>
0.058267

> <r_epik_Ionization_Penalty_Neutral>
6.57791e-16

> <r_epik_State_Penalty>
0.0503774

> <r_epik_Charging_Adjusted_Penalty>
0.108644

> <i_epik_Tot_Q>
0

> <i_epik_Tot_abs_Q>
0

> <r_epik_Metal_State_Penalty>
2.6644

> <b_epik_Metal_Only>
0

> <s_epik_Chemistry_Notes>
This compound has an ester and may undergo hydrolysis at high or low pH. This compound contains an acetal/aminal-like group ( X-CH(R)-Y where X, Y are N, S, or O) that may be acid/base labile, releasing an aldehyde.

> <s_lp_Force_Field>
OPLS_2005

> <r_lp_Energy>
12.8292

> <b_lp_Chiralities_Consistent>
1

> <s_lp_Variant>
AV-unprocessed.smi:102-3

> <Gold.Version>
5.8.1

> <Gold.Id.Protein>
6NUR|6NUR_protein|mol2

> <Gold.PLP.Fitness>
41.1819

> <Gold.PLP.PLP>
-29.4836

> <Gold.PLP.part.hbond>
-6.0000

> <Gold.PLP.part.metal>
0.0000

> <Gold.PLP.part.buried>
-7.9408

> <Gold.PLP.part.nonpolar>
-17.0068

> <Gold.PLP.part.repulsive>
1.1753

> <Gold.PLP.ligand.clash>
0.0000

> <Gold.PLP.ligand.torsion>
1.3359

> <Gold.PLP.Chemscore.Hbond>
4.7200

> <Gold.PLP.Chemscore.CHOScore>
0.0000

> <Gold.PLP.Chemscore.Metal>
0.0000

> <Gold.Chemscore.Hbonds>
donor molecule, donor type, donor heavy atom, donor atom, acceptor molecule, acceptor atom, score
      L1  H    15    28       P1  7957  0.74
      P1  H  6931  6943       L1     3  0.08
      P1  H  6934  6947       L1     3  1.00
      P1  H  7954  7966       L1    14  0.28
      P1  H  7989  7998       L1    17  1.00
      P1  H  7997  8008       L1    27  0.93

> <Gold.PLP.Chemscore.Internal.Correction>
0.2101

> <Gold.Rescore>
     Score         DG    S(hbond)    S(metal)    S(lipo)     H(rot)  DE(clash)    DE(int)     intcor
      8.22     -12.42       3.87        0.00      37.42       4.05       0.11       4.09       ----

> <Gold.Chemscore.Fitness>
8.2181

> <Gold.Chemscore.DG>
-12.4181

> <Gold.Chemscore.ZeroCoef>
-5.4800

> <Gold.Chemscore.Hbond>
3.8722

> <Gold.Chemscore.Metal>
0.0000

> <Gold.Chemscore.Lipo>
37.4194

> <Gold.Chemscore.Internal_Hbond>
0.0000

> <Gold.Chemscore.DEClash>
0.1103

> <Gold.Chemscore.DEInternal>
4.0897

> <Gold.Chemscore.Rot>
4.0520

> <Gold.Chemscore.Internal.Correction>
   9.000000E+99

> <Gold.Chemscore.Hbonds>
donor molecule, donor type, donor heavy atom, donor atom, acceptor molecule, acceptor atom, score
      L1  H    15    28       P1  7957  0.74
      P1  H  6934  6947       L1     3  0.95
      P1  H  7954  7966       L1    14  0.27
      P1  H  7989  7998       L1    17  0.95
      P1  H  7997  8008       L1    27  0.86

> <Gold.Chemscore.Hbond.Weighted>
-12.9332

> <Gold.Chemscore.Metal.Weighted>
-0.0000

> <Gold.Chemscore.Lipo.Weighted>
-4.3781

> <Gold.Chemscore.Internal_Hbond.Weighted>
0.0000

> <Gold.Chemscore.DEClash.Weighted>
0.1103

> <Gold.Chemscore.DEInternal.Weighted>
4.0897

> <Gold.Chemscore.Rot.Weighted>
10.3732

> <Gold.Chemscore.Internal.Correction.Weighted>
   9.000000E+99

> <Gold.Protein.RotatedTorsions>
[ 6907 6896 6895 6894 ] final    3.53 input  -60.11 | X-H torsion
[ 7974 7965 7964 7962 ] final -106.47 input  175.53 | X-H torsion
[ 8008 7997 7996 7995 ] final  -73.84 input   59.86 | X-H torsion
[ 10167 10162 10161 10158 ] final   74.99 input  -65.29 | X-H torsion
[ 10718 10713 10712 10709 ] final -103.39 input   66.30 | X-H torsion
[ 10763 10752 10751 10750 ] final   30.88 input  -60.55 | X-H torsion
[ 11005 11000 10999 10996 ] final -160.92 input  -57.11 | X-H torsion

> <Gold.Protein.ActiveResidues>
 VAL166  LYS551  ARG553  GLY616  TRP617  ASP618  TYR619  PRO620  LYS621  CYS622 
 ASP623  PHE694  ASN695  SER759  ASP760  ASP761  ALA762  ILE779  LEU786  VAL792 
 PHE793  MET794  SER795  GLU796  ALA797  LYS798  CYS799  TRP800  GLU811  SER814 

> <Gold.Protein.RotatedAtoms>
  151.6266  135.1027  160.0112 H   0  0  0  0  0  0  0  0  0  0  0  0  # atno 6907 bound_to 6896
  152.4129  133.6987  159.6422 H   0  0  0  0  0  0  0  0  0  0  0  0  # atno 6908 bound_to 6896
  150.8018  133.8509  159.3246 H   0  0  0  0  0  0  0  0  0  0  0  0  # atno 6909 bound_to 6896
  145.2174  140.9121  143.3279 H   0  0  0  0  0  0  0  0  0  0  0  0  # atno 7974 bound_to 7965
  154.5281  140.0772  156.8295 H   0  0  0  0  0  0  0  0  0  0  0  0  # atno 8008 bound_to 7997
  155.3433  140.3408  155.4221 H   0  0  0  0  0  0  0  0  0  0  0  0  # atno 8009 bound_to 7997
  156.1752  140.1633  156.8361 H   0  0  0  0  0  0  0  0  0  0  0  0  # atno 8010 bound_to 7997
  140.0078  144.5637  150.7683 H   0  0  0  0  0  0  0  0  0  0  0  0  # atno 10167 bound_to 10162
  156.0263  130.5465  150.7245 H   0  0  0  0  0  0  0  0  0  0  0  0  # atno 10718 bound_to 10713
  153.0347  135.6453  154.1113 H   0  0  0  0  0  0  0  0  0  0  0  0  # atno 10763 bound_to 10752
  154.0829  135.2872  155.3288 H   0  0  0  0  0  0  0  0  0  0  0  0  # atno 10764 bound_to 10752
  154.6517  135.5423  153.7974 H   0  0  0  0  0  0  0  0  0  0  0  0  # atno 10765 bound_to 10752
  140.6262  134.4699  157.5227 H   0  0  0  0  0  0  0  0  0  0  0  0  # atno 11005 bound_to 11000
  144.9798  139.3795  143.6268 LP  0  0  0  0  0  0  0  0  0  0  0  0  # atno 17320 bound_to 7965
  146.3384  139.8933  142.8805 LP  0  0  0  0  0  0  0  0  0  0  0  0  # atno 17321 bound_to 7965
  140.7393  143.2790  151.3655 LP  0  0  0  0  0  0  0  0  0  0  0  0  # atno 17342 bound_to 10162
  139.6226  144.0876  152.2405 LP  0  0  0  0  0  0  0  0  0  0  0  0  # atno 17343 bound_to 10162
  157.4853  131.0906  151.0489 LP  0  0  0  0  0  0  0  0  0  0  0  0  # atno 17370 bound_to 10713
  157.0911  130.5943  149.5440 LP  0  0  0  0  0  0  0  0  0  0  0  0  # atno 17371 bound_to 10713
  139.9134  134.8297  156.1450 LP  0  0  0  0  0  0  0  0  0  0  0  0  # atno 17394 bound_to 11000
  141.0708  133.6798  156.2136 LP  0  0  0  0  0  0  0  0  0  0  0  0  # atno 17395 bound_to 11000

$$$$
