#       Name:                AV-unprocessed.smi:3193
#       Creating user name   scv26
#       Creation time:       Fri Mar 27 18:04:18 2020


#       File generated by GOLD software.
#

@<TRIPOS>MOLECULE
AV-unprocessed.smi:3193
    41    42     1
SMALL
NO_CHARGES


@<TRIPOS>ATOM
      1 ****        -3.6313   0.6767   0.4921 C.3            1 S1                 0.0000
      2 ****        -2.7433   1.4968  -0.4664 C.3            1 S1                 0.0000
      3 ****        -3.1771   2.9772  -0.5159 C.3            1 S1                 0.0000
      4 ****        -2.7964   3.7422   0.7629 C.3            1 S1                 0.0000
      5 ****        -1.2941   3.6207   1.0564 C.3            1 S1                 0.0000
      6 ****        -0.8486   2.1506   1.1183 C.3            1 S1                 0.0000
      7 ****        -1.2223   1.3903  -0.1742 C.3            1 S1                 0.0000
      8 ****        -0.7200  -0.0677  -0.1665 C.3            1 S1                 0.0000
      9 ****         0.7529  -0.1377  -0.2522 N.4            1 S1                 1.0000
     10 ****         1.2863  -1.5137  -0.2934 C.3            1 S1                 0.0000
     11 ****         2.8188  -1.5128  -0.3902 C.3            1 S1                 0.0000
     12 ****         3.3617  -2.8710  -0.4748 N.pl3          1 S1                 0.0000
     13 ****         3.6684  -3.5742  -1.6119 C.2            1 S1                 0.0000
     14 ****         4.1431  -4.7934  -1.2017 C.2            1 S1                 0.0000
     15 ****         4.1053  -4.7834   0.1670 N.pl3          1 S1                 1.0000
     16 ****         3.6306  -3.6134   0.6075 C.2            1 S1                 0.0000
     17 ****        -3.5087   0.9813   1.5311 H              1 S1                 0.0000
     18 ****        -3.4118  -0.3889   0.4314 H              1 S1                 0.0000
     19 ****        -4.6853   0.7962   0.2399 H              1 S1                 0.0000
     20 ****        -2.9129   1.0871  -1.4631 H              1 S1                 0.0000
     21 ****        -2.7033   3.4606  -1.3715 H              1 S1                 0.0000
     22 ****        -4.2513   3.0513  -0.6883 H              1 S1                 0.0000
     23 ****        -3.0685   4.7932   0.6596 H              1 S1                 0.0000
     24 ****        -3.3689   3.3623   1.6095 H              1 S1                 0.0000
     25 ****        -0.7298   4.1396   0.2806 H              1 S1                 0.0000
     26 ****        -1.0579   4.1219   1.9956 H              1 S1                 0.0000
     27 ****         0.2290   2.1154   1.2796 H              1 S1                 0.0000
     28 ****        -1.2996   1.6667   1.9852 H              1 S1                 0.0000
     29 ****        -0.7169   1.8933  -1.0008 H              1 S1                 0.0000
     30 ****        -1.0534  -0.5850   0.7341 H              1 S1                 0.0000
     31 ****        -1.1379  -0.6053  -1.0189 H              1 S1                 0.0000
     32 ****         1.0454   0.3471  -1.0889 H              1 S1                 0.0000
     33 ****         0.9677  -2.0490   0.6023 H              1 S1                 0.0000
     34 ****         0.8595  -2.0365  -1.1506 H              1 S1                 0.0000
     35 ****         3.1489  -0.9675  -1.2756 H              1 S1                 0.0000
     36 ****         3.2643  -1.0205   0.4757 H              1 S1                 0.0000
     37 ****         3.5313  -3.1675  -2.6038 H              1 S1                 0.0000
     38 ****         4.4957  -5.6448  -1.7661 H              1 S1                 0.0000
     39 ****         3.4921  -3.3276   1.6352 H              1 S1                 0.0000
     40 ****         1.1420   0.3389   0.5490 H              1 S1                 0.0000
     41 ****         4.3962  -5.5498   0.7615 H              1 S1                 0.0000
@<TRIPOS>BOND
    1    1    2 1     
    2    1   17 1     
    3    1   18 1     
    4    1   19 1     
    5    2    7 1     
    6    2    3 1     
    7    2   20 1     
    8    3    4 1     
    9    3   21 1     
   10    3   22 1     
   11    4    5 1     
   12    4   23 1     
   13    4   24 1     
   14    5    6 1     
   15    5   25 1     
   16    5   26 1     
   17    6    7 1     
   18    6   27 1     
   19    6   28 1     
   20    7    8 1     
   21    7   29 1     
   22    8    9 1     
   23    8   30 1     
   24    8   31 1     
   25    9   10 1     
   26    9   32 1     
   27    9   40 1     
   28   10   11 1     
   29   10   33 1     
   30   10   34 1     
   31   11   12 1     
   32   11   35 1     
   33   11   36 1     
   34   12   16 1     
   35   12   13 1     
   36   13   14 2     
   37   13   37 1     
   38   14   15 1     
   39   14   38 1     
   40   15   16 2     
   41   15   41 1     
   42   16   39 1     
@<TRIPOS>SUBSTRUCTURE
      1 S1             1
@<TRIPOS>SET
DONOR_HYDROGENS      STATIC     ATOMS    <user>   **** ""
3 32 40 41
ATOM$RED        STATIC     ATOMS    COLORGROUP SYSTEM
3 32 40 41
