AV-unprocessed.smi:1868|AV-procd|sdf|7591|dock2
  -GOLD-   22720 9303D 1   1.00000     0.00000
 Structure written by MMmdl.
 48 50  0  0  0  0  0  0  0  0  3 V2000
  148.9382  140.9774  154.1560 C   0  0  0  0  0  0  0  0  0  0  0  0
  149.8315  141.2700  155.3146 C   0  0  0  0  0  0  0  0  0  0  0  0
  149.9099  142.4527  155.9876 N   0  3  0  0  0  0  0  0  0  0  0  0
  150.8572  142.3542  157.0080 C   0  0  0  0  0  0  0  0  0  0  0  0
  151.2849  143.2858  157.9489 C   0  0  0  0  0  0  0  0  0  0  0  0
  152.2762  142.8587  158.8568 C   0  0  0  0  0  0  0  0  0  0  0  0
  152.8044  141.5522  158.8070 C   0  0  0  0  0  0  0  0  0  0  0  0
  152.3639  140.6166  157.8476 C   0  0  0  0  0  0  0  0  0  0  0  0
  151.3821  141.0466  156.9553 C   0  0  0  0  0  0  0  0  0  0  0  0
  150.7186  140.4133  155.8986 N   0  0  0  0  0  0  0  0  0  0  0  0
  151.0513  139.0173  155.5743 C   0  0  0  0  0  0  0  0  0  0  0  0
  149.8533  138.2224  155.0176 C   0  0  1  0  0  0  0  0  0  0  0  0
  149.9357  138.1807  153.6062 O   0  0  0  0  0  0  0  0  0  0  0  0
  149.8327  136.7774  155.5543 C   0  0  0  0  0  0  0  0  0  0  0  0
  148.8769  135.9079  154.8210 N   0  3  2  0  0  0  0  0  0  0  0  0
  147.4635  136.0987  155.2420 C   0  0  0  0  0  0  0  0  0  0  0  0
  146.5052  135.2797  154.3589 C   0  0  0  0  0  0  0  0  0  0  0  0
  146.8665  133.7831  154.3373 C   0  0  2  0  0  0  0  0  0  0  0  0
  146.4924  133.0603  155.6431 C   0  0  0  0  0  0  0  0  0  0  0  0
  148.3531  133.6201  153.9717 C   0  0  0  0  0  0  0  0  0  0  0  0
  149.2703  134.4764  154.8632 C   0  0  0  0  0  0  0  0  0  0  0  0
  148.3194  141.8436  153.9199 H   0  0  0  0  0  0  0  0  0  0  0  0
  148.2835  140.1370  154.3873 H   0  0  0  0  0  0  0  0  0  0  0  0
  149.5321  140.7262  153.2772 H   0  0  0  0  0  0  0  0  0  0  0  0
  150.8833  144.2879  157.9889 H   0  0  0  0  0  0  0  0  0  0  0  0
  152.6397  143.5480  159.6055 H   0  0  0  0  0  0  0  0  0  0  0  0
  153.5640  141.2623  159.5187 H   0  0  0  0  0  0  0  0  0  0  0  0
  152.7764  139.6191  157.8168 H   0  0  0  0  0  0  0  0  0  0  0  0
  151.8665  139.0312  154.8497 H   0  0  0  0  0  0  0  0  0  0  0  0
  151.4502  138.5435  156.4721 H   0  0  0  0  0  0  0  0  0  0  0  0
  148.9339  138.7413  155.2858 H   0  0  0  0  0  0  0  0  0  0  0  0
  149.3291  137.5287  153.2887 H   0  0  0  0  0  0  0  0  0  0  0  0
  150.8413  136.3679  155.4738 H   0  0  0  0  0  0  0  0  0  0  0  0
  149.5865  136.7654  156.6173 H   0  0  0  0  0  0  0  0  0  0  0  0
  147.3511  135.8157  156.2894 H   0  0  0  0  0  0  0  0  0  0  0  0
  147.1866  137.1498  155.1746 H   0  0  0  0  0  0  0  0  0  0  0  0
  145.4768  135.4154  154.6957 H   0  0  0  0  0  0  0  0  0  0  0  0
  146.5428  135.6708  153.3412 H   0  0  0  0  0  0  0  0  0  0  0  0
  146.2796  133.3142  153.5461 H   0  0  0  0  0  0  0  0  0  0  0  0
  147.0307  133.4578  156.5030 H   0  0  0  0  0  0  0  0  0  0  0  0
  146.7177  131.9954  155.5776 H   0  0  0  0  0  0  0  0  0  0  0  0
  145.4260  133.1550  155.8496 H   0  0  0  0  0  0  0  0  0  0  0  0
  148.6447  132.5710  154.0317 H   0  0  0  0  0  0  0  0  0  0  0  0
  148.4985  133.9142  152.9311 H   0  0  0  0  0  0  0  0  0  0  0  0
  150.2984  134.3688  154.5147 H   0  0  0  0  0  0  0  0  0  0  0  0
  149.2497  134.1195  155.8939 H   0  0  0  0  0  0  0  0  0  0  0  0
  148.9371  136.1835  153.8507 H   0  0  0  0  0  0  0  0  0  0  0  0
  149.3560  143.2689  155.7610 H   0  0  0  0  0  0  0  0  0  0  0  0
  1  2  1  0  0  0  0
  1 22  1  0  0  0  0
  1 23  1  0  0  0  0
  1 24  1  0  0  0  0
  2 10  1  0  0  0  0
  2  3  2  0  0  0  0
  3  4  1  0  0  0  0
  3 48  1  0  0  0  0
  4  9  2  0  0  0  0
  4  5  1  0  0  0  0
  5  6  2  0  0  0  0
  5 25  1  0  0  0  0
  6  7  1  0  0  0  0
  6 26  1  0  0  0  0
  7  8  2  0  0  0  0
  7 27  1  0  0  0  0
  8  9  1  0  0  0  0
  8 28  1  0  0  0  0
  9 10  1  0  0  0  0
 10 11  1  0  0  0  0
 11 12  1  0  0  0  0
 11 29  1  0  0  0  0
 11 30  1  0  0  0  0
 12 13  1  0  0  0  0
 12 14  1  0  0  0  0
 12 31  1  0  0  0  0
 13 32  1  0  0  0  0
 14 15  1  0  0  0  0
 14 33  1  0  0  0  0
 14 34  1  0  0  0  0
 15 21  1  0  0  0  0
 15 16  1  0  0  0  0
 15 47  1  0  0  0  0
 16 17  1  0  0  0  0
 16 35  1  0  0  0  0
 16 36  1  0  0  0  0
 17 18  1  0  0  0  0
 17 37  1  0  0  0  0
 17 38  1  0  0  0  0
 18 19  1  0  0  0  0
 18 20  1  0  0  0  0
 18 39  1  0  0  0  0
 19 40  1  0  0  0  0
 19 41  1  0  0  0  0
 19 42  1  0  0  0  0
 20 21  1  0  0  0  0
 20 43  1  0  0  0  0
 20 44  1  0  0  0  0
 21 45  1  0  0  0  0
 21 46  1  0  0  0  0
M  CHG  1   3   1
M  CHG  1  15   1
M  END
> <s_m_source_file>
AV-unprocessed.smi

> <i_m_source_file_index>
1868

> <i_lp_mmshare_version>
43012

> <i_f3d_flags>
0

> <s_epik_input>
W2NIXTFbY0hdW2NIXVtjSF1jKGMxMiluKGMobjIpW0NIM10pW0NIMl1bQ0BIXShbT0hdKVtDSDJdTjNbQ0gyXVtDSDJdW0NIXShbQ0gzXSlbQ0gyXVtDSDJdMw==

> <s_epik_cmdline>
J2VwaWtfcHl0aG9uJywgJy1waCcsICc3LjAnLCAnLXRuJywgJzgnLCAnLW1hJywgJzIwMCcsICctbWV0YWxfYmluZGluZycsICctaW1hZScsICc8aW5maWxlLm1hZT4nLCAnLW9tYWUnLCAnPG91dGZpbGUubWFlPic=

> <r_epik_Ionization_Penalty>
1.10901

> <r_epik_Ionization_Penalty_Charging>
1.10901

> <r_epik_Ionization_Penalty_Neutral>
6.90208e-07

> <r_epik_State_Penalty>
1.18788

> <r_epik_Charging_Adjusted_Penalty>
2.29689

> <i_epik_Tot_Q>
2

> <i_epik_Tot_abs_Q>
2

> <r_epik_Metal_State_Penalty>
5.19353

> <b_epik_Metal_Only>
0

> <s_lp_Force_Field>
OPLS_2005

> <r_lp_Energy>
31.454

> <b_lp_Chiralities_Consistent>
1

> <s_lp_Variant>
AV-unprocessed.smi:1868-8

> <Gold.Version>
5.8.1

> <Gold.Id.Protein>
6NUR|6NUR_protein|mol2

> <Gold.PLP.Fitness>
51.0921

> <Gold.PLP.PLP>
-38.5210

> <Gold.PLP.part.hbond>
-4.3750

> <Gold.PLP.part.metal>
0.0000

> <Gold.PLP.part.buried>
-0.8516

> <Gold.PLP.part.nonpolar>
-31.7345

> <Gold.PLP.part.repulsive>
0.1463

> <Gold.PLP.ligand.clash>
0.0000

> <Gold.PLP.ligand.torsion>
1.2324

> <Gold.PLP.Chemscore.Hbond>
5.0000

> <Gold.PLP.Chemscore.CHOScore>
0.0000

> <Gold.PLP.Chemscore.Metal>
0.0000

> <Gold.Chemscore.Hbonds>
donor molecule, donor type, donor heavy atom, donor atom, acceptor molecule, acceptor atom, score
      L1  H     3    48       P1  8028  1.98
      L1  H    13    32       P1  7948  0.88
      L1  H    15    47       P1  7948  2.00

> <Gold.PLP.Chemscore.Internal.Correction>
0.0359

> <Gold.Rescore>
     Score         DG    S(hbond)    S(metal)    S(lipo)     H(rot)  DE(clash)    DE(int)     intcor
     18.60     -19.87       2.77        0.00      87.47       1.99       0.00       1.27       ----

> <Gold.Chemscore.Fitness>
18.6001

> <Gold.Chemscore.DG>
-19.8745

> <Gold.Chemscore.ZeroCoef>
-5.4800

> <Gold.Chemscore.Hbond>
2.7680

> <Gold.Chemscore.Metal>
0.0000

> <Gold.Chemscore.Lipo>
87.4730

> <Gold.Chemscore.Internal_Hbond>
0.0000

> <Gold.Chemscore.DEClash>
0.0000

> <Gold.Chemscore.DEInternal>
1.2745

> <Gold.Chemscore.Rot>
1.9863

> <Gold.Chemscore.Internal.Correction>
   9.000000E+99

> <Gold.Chemscore.Hbonds>
donor molecule, donor type, donor heavy atom, donor atom, acceptor molecule, acceptor atom, score
      L1  H     3    48       P1  8028  0.92
      L1  H    13    32       P1  7948  0.83
      L1  H    15    47       P1  7948  0.97

> <Gold.Chemscore.Hbond.Weighted>
-9.2452

> <Gold.Chemscore.Metal.Weighted>
-0.0000

> <Gold.Chemscore.Lipo.Weighted>
-10.2343

> <Gold.Chemscore.Internal_Hbond.Weighted>
0.0000

> <Gold.Chemscore.DEClash.Weighted>
0.0000

> <Gold.Chemscore.DEInternal.Weighted>
1.2745

> <Gold.Chemscore.Rot.Weighted>
5.0850

> <Gold.Chemscore.Internal.Correction.Weighted>
   9.000000E+99

> <Gold.Protein.RotatedTorsions>
[ 6907 6896 6895 6894 ] final   64.46 input  -60.11 | X-H torsion
[ 7974 7965 7964 7962 ] final  -49.99 input  175.53 | X-H torsion
[ 8008 7997 7996 7995 ] final -109.30 input   59.86 | X-H torsion
[ 10167 10162 10161 10158 ] final  -82.01 input  -65.29 | X-H torsion
[ 10718 10713 10712 10709 ] final   68.58 input   66.30 | X-H torsion
[ 10763 10752 10751 10750 ] final -111.52 input  -60.55 | X-H torsion
[ 11005 11000 10999 10996 ] final  106.19 input  -57.11 | X-H torsion

> <Gold.Protein.ActiveResidues>
 VAL166  LYS551  ARG553  GLY616  TRP617  ASP618  TYR619  PRO620  LYS621  CYS622 
 ASP623  PHE694  ASN695  SER759  ASP760  ASP761  ALA762  ILE779  LEU786  VAL792 
 PHE793  MET794  SER795  GLU796  ALA797  LYS798  CYS799  TRP800  GLU811  SER814 

> <Gold.Protein.RotatedAtoms>
  152.4333  134.5736  159.9927 H   0  0  0  0  0  0  0  0  0  0  0  0  # atno 6907 bound_to 6896
  151.5853  133.3367  159.3024 H   0  0  0  0  0  0  0  0  0  0  0  0  # atno 6908 bound_to 6896
  150.8228  134.7480  159.6852 H   0  0  0  0  0  0  0  0  0  0  0  0  # atno 6909 bound_to 6896
  145.9346  140.7718  142.9582 H   0  0  0  0  0  0  0  0  0  0  0  0  # atno 7974 bound_to 7965
  154.9573  140.0399  157.2173 H   0  0  0  0  0  0  0  0  0  0  0  0  # atno 8008 bound_to 7997
  154.7922  140.2837  155.5961 H   0  0  0  0  0  0  0  0  0  0  0  0  # atno 8009 bound_to 7997
  156.2951  140.2571  156.2772 H   0  0  0  0  0  0  0  0  0  0  0  0  # atno 8010 bound_to 7997
  140.4359  143.2532  151.8694 H   0  0  0  0  0  0  0  0  0  0  0  0  # atno 10167 bound_to 10162
  157.6297  130.9381  150.0397 H   0  0  0  0  0  0  0  0  0  0  0  0  # atno 10718 bound_to 10713
  154.8304  135.4524  154.1051 H   0  0  0  0  0  0  0  0  0  0  0  0  # atno 10763 bound_to 10752
  153.2329  135.6907  153.7875 H   0  0  0  0  0  0  0  0  0  0  0  0  # atno 10764 bound_to 10752
  153.7251  135.3335  155.3251 H   0  0  0  0  0  0  0  0  0  0  0  0  # atno 10765 bound_to 10752
  139.8811  134.9361  156.5629 H   0  0  0  0  0  0  0  0  0  0  0  0  # atno 11005 bound_to 11000
  144.6770  140.2182  143.7369 LP  0  0  0  0  0  0  0  0  0  0  0  0  # atno 17320 bound_to 7965
  145.8380  139.2116  143.1844 LP  0  0  0  0  0  0  0  0  0  0  0  0  # atno 17321 bound_to 7965
  139.4787  144.5283  151.8703 LP  0  0  0  0  0  0  0  0  0  0  0  0  # atno 17342 bound_to 10162
  140.4374  144.2033  150.5890 LP  0  0  0  0  0  0  0  0  0  0  0  0  # atno 17343 bound_to 10162
  156.1492  130.3642  149.9463 LP  0  0  0  0  0  0  0  0  0  0  0  0  # atno 17370 bound_to 10713
  156.7487  130.9107  151.3636 LP  0  0  0  0  0  0  0  0  0  0  0  0  # atno 17371 bound_to 10713
  140.8156  133.8394  155.8849 LP  0  0  0  0  0  0  0  0  0  0  0  0  # atno 17394 bound_to 11000
  140.9466  134.1832  157.4759 LP  0  0  0  0  0  0  0  0  0  0  0  0  # atno 17395 bound_to 11000

$$$$
