#       Name:                AV-unprocessed.smi:2163
#       Creating user name   scv26
#       Creation time:       Fri Mar 27 11:59:32 2020


#       File generated by GOLD software.
#

@<TRIPOS>MOLECULE
AV-unprocessed.smi:2163
    49    51     1
SMALL
NO_CHARGES


@<TRIPOS>ATOM
      1 ****        -3.1440   2.6602  -2.4687 C.3            1 S1                 0.0000
      2 ****        -3.5876   1.9653  -1.2255 C.2            1 S1                 0.0000
      3 ****        -4.8766   1.6903  -0.8781 N.pl3          1 S1                 1.0000
      4 ****        -4.9037   1.0310   0.3518 C.ar           1 S1                 0.0000
      5 ****        -5.9701   0.5525   1.1070 C.ar           1 S1                 0.0000
      6 ****        -5.6486  -0.0775   2.3273 C.ar           1 S1                 0.0000
      7 ****        -4.3116  -0.2117   2.7550 C.ar           1 S1                 0.0000
      8 ****        -3.2389   0.2779   1.9810 C.ar           1 S1                 0.0000
      9 ****        -3.5656   0.8981   0.7755 C.ar           1 S1                 0.0000
     10 ****        -2.7892   1.4856  -0.2290 N.pl3          1 S1                 0.0000
     11 ****        -1.3248   1.5037  -0.0865 C.3            1 S1                 0.0000
     12 ****        -0.6682   0.1544  -0.4442 C.3            1 S1                 0.0000
     13 ****        -1.0132  -0.1843  -1.7734 O.3            1 S1                 0.0000
     14 ****         0.8637   0.2150  -0.3362 C.3            1 S1                 0.0000
     15 ****         1.3673  -1.1068  -0.1942 O.3            1 S1                 0.0000
     16 ****         2.7338  -1.2858  -0.1628 C.ar           1 S1                 0.0000
     17 ****         3.6780  -0.2281  -0.1880 C.ar           1 S1                 0.0000
     18 ****         5.0590  -0.5041  -0.1643 C.ar           1 S1                 0.0000
     19 ****         5.5166  -1.8352  -0.1117 C.ar           1 S1                 0.0000
     20 ****         7.0021  -2.1292  -0.0927 C.3            1 S1                 0.0000
     21 ****         7.5558  -2.0947   1.2692 C.1            1 S1                 0.0000
     22 ****         7.9919  -2.0676   2.3406 N.1            1 S1                 0.0000
     23 ****         4.5846  -2.8904  -0.0765 C.ar           1 S1                 0.0000
     24 ****         3.2041  -2.6138  -0.1020 C.ar           1 S1                 0.0000
     25 ****        -3.9994   2.8982  -3.1013 H              1 S1                 0.0000
     26 ****        -2.4621   2.0240  -3.0331 H              1 S1                 0.0000
     27 ****        -2.6292   3.5878  -2.2176 H              1 S1                 0.0000
     28 ****        -6.9951   0.6539   0.7818 H              1 S1                 0.0000
     29 ****        -6.4436  -0.4658   2.9474 H              1 S1                 0.0000
     30 ****        -4.1039  -0.7009   3.6957 H              1 S1                 0.0000
     31 ****        -2.2180   0.1691   2.3156 H              1 S1                 0.0000
     32 ****        -0.9379   2.2953  -0.7292 H              1 S1                 0.0000
     33 ****        -1.0848   1.7958   0.9367 H              1 S1                 0.0000
     34 ****        -1.0501  -0.6185   0.2236 H              1 S1                 0.0000
     35 ****        -0.6342   0.4568  -2.3549 H              1 S1                 0.0000
     36 ****         1.2891   0.7220  -1.2044 H              1 S1                 0.0000
     37 ****         1.1429   0.7835   0.5524 H              1 S1                 0.0000
     38 ****         3.3687   0.8052  -0.2259 H              1 S1                 0.0000
     39 ****         5.7681   0.3106  -0.1868 H              1 S1                 0.0000
     40 ****         7.1960  -3.1136  -0.5195 H              1 S1                 0.0000
     41 ****         7.5346  -1.3977  -0.7009 H              1 S1                 0.0000
     42 ****         4.9257  -3.9143  -0.0317 H              1 S1                 0.0000
     43 ****         2.4981  -3.4310  -0.0788 H              1 S1                 0.0000
     44 ****        -5.6785   1.9355  -1.4445 H              1 S1                 0.0000
     45 ****        -2.0082  -0.1842  -1.8739 LP             1 S1                 0.0000
     46 ****        -0.6561  -1.0920  -1.9935 LP             1 S1                 0.0000
     47 ****         1.0162  -1.6415  -0.9628 LP             1 S1                 0.0000
     48 ****         1.0010  -1.4728   0.6613 LP             1 S1                 0.0000
     49 ****         8.3688  -2.0442   3.2666 LP             1 S1                 0.0000
@<TRIPOS>BOND
    1    1    2 1     
    2    1   25 1     
    3    1   26 1     
    4    1   27 1     
    5    2   10 1     
    6    2    3 2     
    7    3    4 1     
    8    3   44 1     
    9    4    9 ar    
   10    4    5 ar    
   11    5    6 ar    
   12    5   28 1     
   13    6    7 ar    
   14    6   29 1     
   15    7    8 ar    
   16    7   30 1     
   17    8    9 ar    
   18    8   31 1     
   19    9   10 1     
   20   10   11 1     
   21   11   12 1     
   22   11   32 1     
   23   11   33 1     
   24   12   13 1     
   25   12   14 1     
   26   12   34 1     
   27   13   35 1     
   28   14   15 1     
   29   14   36 1     
   30   14   37 1     
   31   15   16 1     
   32   16   24 ar    
   33   16   17 ar    
   34   17   18 ar    
   35   17   38 1     
   36   18   19 ar    
   37   18   39 1     
   38   19   20 1     
   39   19   23 ar    
   40   20   21 1     
   41   20   40 1     
   42   20   41 1     
   43   21   22 3     
   44   23   24 ar    
   45   23   42 1     
   46   24   43 1     
   47   13   45 1     
   48   13   46 1     
   49   15   47 1     
   50   15   48 1     
   51   22   49 1     
@<TRIPOS>SUBSTRUCTURE
      1 S1             1
@<TRIPOS>SET
LONE_PAIRS      STATIC     ATOMS    <user>   **** ""
5 45 46 47 48 49
DONOR_HYDROGENS      STATIC     ATOMS    <user>   **** ""
2 44 35
ATOM$BLUE        STATIC     ATOMS    COLORGROUP SYSTEM
5 45 46 47 48 49
ATOM$RED        STATIC     ATOMS    COLORGROUP SYSTEM
2 44 35
