AV-unprocessed.smi:249|AV-procd|sdf|1901|dock9
  -GOLD-   2262020573D 1   1.00000     0.00000
 Structure written by MMmdl.
 64 67  0  0  0  0  0  0  0  0  2 V2000
  146.6716  133.2566  150.7553 C   0  0  0  0  0  0  0  0  0  0  0  0
  146.2610  133.8526  152.1100 C   0  0  0  0  0  0  0  0  0  0  0  0
  147.4185  134.1826  152.9851 N   0  3  1  0  0  0  0  0  0  0  0  0
  146.9991  134.9068  154.2154 C   0  0  0  0  0  0  0  0  0  0  0  0
  148.2095  135.4475  154.9923 C   0  0  0  0  0  0  0  0  0  0  0  0
  149.1956  134.3117  155.3263 C   0  0  2  0  0  0  0  0  0  0  0  0
  150.3342  134.7364  156.1528 N   0  0  0  0  0  0  0  0  0  0  0  0
  150.4608  134.1579  157.4865 C   0  0  0  0  0  0  0  0  0  0  0  0
  150.9288  135.9519  156.0180 C   0  0  0  0  0  0  0  0  0  0  0  0
  151.2227  136.4401  154.7844 N   0  0  0  0  0  0  0  0  0  0  0  0
  151.7856  137.6443  154.6478 C   0  0  0  0  0  0  0  0  0  0  0  0
  152.1310  138.5155  155.5967 N   0  0  0  0  0  0  0  0  0  0  0  0
  151.8372  138.0356  156.8384 C   0  0  0  0  0  0  0  0  0  0  0  0
  151.2403  136.7776  157.1360 C   0  0  0  0  0  0  0  0  0  0  0  0
  151.1018  136.6347  158.5118 N   0  0  0  0  0  0  0  0  0  0  0  0
  151.5829  137.7457  158.9990 C   0  0  0  0  0  0  0  0  0  0  0  0
  152.0395  138.6459  158.0640 N   0  0  0  0  0  0  0  0  0  0  0  0
  152.6183  139.9508  158.3333 C   0  0  0  0  0  0  0  0  0  0  0  0
  151.5991  140.9583  158.9204 C   0  0  2  0  0  0  0  0  0  0  0  0
  150.3919  141.2003  157.9814 C   0  0  0  0  0  0  0  0  0  0  0  0
  149.4475  142.0722  158.5680 O   0  0  0  0  0  0  0  0  0  0  0  0
  152.2837  142.2807  159.3495 C   0  0  2  0  0  0  0  0  0  0  0  0
  151.6014  143.0104  160.4933 C   0  0  0  0  0  0  0  0  0  0  0  0
  152.1789  144.4156  160.3680 C   0  0  0  0  0  0  0  0  0  0  0  0
  152.3963  144.6175  158.9765 O   0  0  0  0  0  0  0  0  0  0  0  0
  152.2835  143.3796  158.2811 C   0  0  0  0  0  0  0  0  0  0  0  0
  149.5942  133.5592  154.0381 C   0  0  0  0  0  0  0  0  0  0  0  0
  148.3604  133.0524  153.2624 C   0  0  1  0  0  0  0  0  0  0  0  0
  147.6931  131.8404  153.9482 C   0  0  0  0  0  0  0  0  0  0  0  0
  145.8042  133.1629  150.1017 H   0  0  0  0  0  0  0  0  0  0  0  0
  147.1001  132.2601  150.8606 H   0  0  0  0  0  0  0  0  0  0  0  0
  147.3998  133.8896  150.2477 H   0  0  0  0  0  0  0  0  0  0  0  0
  145.7091  134.7722  151.9109 H   0  0  0  0  0  0  0  0  0  0  0  0
  145.5635  133.1916  152.6247 H   0  0  0  0  0  0  0  0  0  0  0  0
  146.3562  135.7452  153.9446 H   0  0  0  0  0  0  0  0  0  0  0  0
  146.4006  134.2525  154.8500 H   0  0  0  0  0  0  0  0  0  0  0  0
  148.6923  136.2212  154.3967 H   0  0  0  0  0  0  0  0  0  0  0  0
  147.8661  135.9332  155.9060 H   0  0  0  0  0  0  0  0  0  0  0  0
  148.6558  133.5970  155.9482 H   0  0  0  0  0  0  0  0  0  0  0  0
  151.3819  133.5803  157.5613 H   0  0  0  0  0  0  0  0  0  0  0  0
  149.6312  133.4860  157.7073 H   0  0  0  0  0  0  0  0  0  0  0  0
  150.4747  134.9301  158.2568 H   0  0  0  0  0  0  0  0  0  0  0  0
  151.9857  137.9557  153.6332 H   0  0  0  0  0  0  0  0  0  0  0  0
  151.6150  137.9429  160.0608 H   0  0  0  0  0  0  0  0  0  0  0  0
  153.4508  139.8018  159.0208 H   0  0  0  0  0  0  0  0  0  0  0  0
  153.0488  140.3418  157.4107 H   0  0  0  0  0  0  0  0  0  0  0  0
  151.1934  140.5024  159.8248 H   0  0  0  0  0  0  0  0  0  0  0  0
  150.7135  141.6220  157.0292 H   0  0  0  0  0  0  0  0  0  0  0  0
  149.8944  140.2615  157.7384 H   0  0  0  0  0  0  0  0  0  0  0  0
  148.6338  141.9986  158.0932 H   0  0  0  0  0  0  0  0  0  0  0  0
  153.3162  142.0808  159.6409 H   0  0  0  0  0  0  0  0  0  0  0  0
  150.5212  143.0354  160.3414 H   0  0  0  0  0  0  0  0  0  0  0  0
  151.8001  142.5662  161.4688 H   0  0  0  0  0  0  0  0  0  0  0  0
  151.5193  145.1768  160.7847 H   0  0  0  0  0  0  0  0  0  0  0  0
  153.1386  144.4792  160.8824 H   0  0  0  0  0  0  0  0  0  0  0  0
  153.0937  143.2607  157.5612 H   0  0  0  0  0  0  0  0  0  0  0  0
  151.3417  143.3843  157.7304 H   0  0  0  0  0  0  0  0  0  0  0  0
  150.1651  134.2064  153.3735 H   0  0  0  0  0  0  0  0  0  0  0  0
  150.2519  132.7238  154.2815 H   0  0  0  0  0  0  0  0  0  0  0  0
  148.7424  132.6992  152.3050 H   0  0  0  0  0  0  0  0  0  0  0  0
  148.4279  131.0601  154.1485 H   0  0  0  0  0  0  0  0  0  0  0  0
  146.9256  131.3913  153.3186 H   0  0  0  0  0  0  0  0  0  0  0  0
  147.2320  132.1007  154.9003 H   0  0  0  0  0  0  0  0  0  0  0  0
  147.9604  134.8549  152.4610 H   0  0  0  0  0  0  0  0  0  0  0  0
  1  2  1  0  0  0  0
  1 30  1  0  0  0  0
  1 31  1  0  0  0  0
  1 32  1  0  0  0  0
  2  3  1  0  0  0  0
  2 33  1  0  0  0  0
  2 34  1  0  0  0  0
  3 28  1  0  0  0  0
  3  4  1  0  0  0  0
  3 64  1  0  0  0  0
  4  5  1  0  0  0  0
  4 35  1  0  0  0  0
  4 36  1  0  0  0  0
  5  6  1  0  0  0  0
  5 37  1  0  0  0  0
  5 38  1  0  0  0  0
  6  7  1  0  0  0  0
  6 27  1  0  0  0  0
  6 39  1  0  0  0  0
  7  8  1  0  0  0  0
  7  9  1  0  0  0  0
  8 40  1  0  0  0  0
  8 41  1  0  0  0  0
  8 42  1  0  0  0  0
  9 14  1  0  0  0  0
  9 10  2  0  0  0  0
 10 11  1  0  0  0  0
 11 12  2  0  0  0  0
 11 43  1  0  0  0  0
 12 13  1  0  0  0  0
 13 17  1  0  0  0  0
 13 14  2  0  0  0  0
 14 15  1  0  0  0  0
 15 16  2  0  0  0  0
 16 17  1  0  0  0  0
 16 44  1  0  0  0  0
 17 18  1  0  0  0  0
 18 19  1  0  0  0  0
 18 45  1  0  0  0  0
 18 46  1  0  0  0  0
 19 20  1  0  0  0  0
 19 22  1  0  0  0  0
 19 47  1  0  0  0  0
 20 21  1  0  0  0  0
 20 48  1  0  0  0  0
 20 49  1  0  0  0  0
 21 50  1  0  0  0  0
 22 26  1  0  0  0  0
 22 23  1  0  0  0  0
 22 51  1  0  0  0  0
 23 24  1  0  0  0  0
 23 52  1  0  0  0  0
 23 53  1  0  0  0  0
 24 25  1  0  0  0  0
 24 54  1  0  0  0  0
 24 55  1  0  0  0  0
 25 26  1  0  0  0  0
 26 56  1  0  0  0  0
 26 57  1  0  0  0  0
 27 28  1  0  0  0  0
 27 58  1  0  0  0  0
 27 59  1  0  0  0  0
 28 29  1  0  0  0  0
 28 60  1  0  0  0  0
 29 61  1  0  0  0  0
 29 62  1  0  0  0  0
 29 63  1  0  0  0  0
M  CHG  1   3   1
M  END
> <s_m_source_file>
AV-unprocessed.smi

> <i_m_source_file_index>
249

> <i_lp_mmshare_version>
43012

> <i_f3d_flags>
0

> <s_epik_input>
W0NIM11bQ0gyXU4xW0NIMl1bQ0gyXVtDQEhdKFtDSDJdW0NASF0xW0NIM10pTihbQ0gzXSljKG5bY0hdbjIpYyhjMjMpbltjSF1uM1tDSDJdW0NASF0oW0NIMl1bT0hdKVtDQEBIXTRbQ0gyXVtDSDJdT1tDSDJdNA==

> <s_epik_cmdline>
J2VwaWtfcHl0aG9uJywgJy1waCcsICc3LjAnLCAnLXRuJywgJzgnLCAnLW1hJywgJzIwMCcsICctbWV0YWxfYmluZGluZycsICctaW1hZScsICc8aW5maWxlLm1hZT4nLCAnLW9tYWUnLCAnPG91dGZpbGUubWFlPic=

> <r_lp_tautomer_probability>
1

> <r_epik_Ionization_Penalty>
0.00294688

> <r_epik_Ionization_Penalty_Charging>
0.00169971

> <r_epik_Ionization_Penalty_Neutral>
0.00124717

> <r_epik_State_Penalty>
-0

> <r_epik_Charging_Adjusted_Penalty>
0.00169971

> <i_epik_Tot_Q>
1

> <i_epik_Tot_abs_Q>
1

> <r_epik_Metal_State_Penalty>
-0

> <b_epik_Metal_Only>
0

> <s_lp_Force_Field>
OPLS_2005

> <r_lp_Energy>
54.0004

> <b_lp_Chiralities_Consistent>
1

> <s_lp_Variant>
AV-unprocessed.smi:249-4

> <Gold.Version>
5.8.1

> <Gold.Id.Protein>
6NUR|6NUR_protein|mol2

> <Gold.PLP.Fitness>
49.7986

> <Gold.PLP.PLP>
-42.0033

> <Gold.PLP.part.hbond>
-3.7125

> <Gold.PLP.part.metal>
0.0000

> <Gold.PLP.part.buried>
-3.5323

> <Gold.PLP.part.nonpolar>
-37.2111

> <Gold.PLP.part.repulsive>
0.1814

> <Gold.PLP.ligand.clash>
0.0000

> <Gold.PLP.ligand.torsion>
1.5637

> <Gold.PLP.Chemscore.Hbond>
3.2640

> <Gold.PLP.Chemscore.CHOScore>
0.0000

> <Gold.PLP.Chemscore.Metal>
0.0000

> <Gold.Chemscore.Hbonds>
donor molecule, donor type, donor heavy atom, donor atom, acceptor molecule, acceptor atom, score
      L1  H     3    64       P1  7948  2.00
      P1  H  6896  6909       L1    15  0.78
      P1  H 10752 10763       L1    10  0.40

> <Gold.PLP.Chemscore.Internal.Correction>
1.1306

> <Gold.Rescore>
     Score         DG    S(hbond)    S(metal)    S(lipo)     H(rot)  DE(clash)    DE(int)     intcor
     11.90     -16.42       1.62        0.00     105.25       2.65       1.47       3.05       ----

> <Gold.Chemscore.Fitness>
11.9009

> <Gold.Chemscore.DG>
-16.4211

> <Gold.Chemscore.ZeroCoef>
-5.4800

> <Gold.Chemscore.Hbond>
1.6211

> <Gold.Chemscore.Metal>
0.0000

> <Gold.Chemscore.Lipo>
105.2515

> <Gold.Chemscore.Internal_Hbond>
0.0000

> <Gold.Chemscore.DEClash>
1.4724

> <Gold.Chemscore.DEInternal>
3.0478

> <Gold.Chemscore.Rot>
2.6515

> <Gold.Chemscore.Internal.Correction>
   9.000000E+99

> <Gold.Chemscore.Hbonds>
donor molecule, donor type, donor heavy atom, donor atom, acceptor molecule, acceptor atom, score
      L1  H     3    64       P1  7948  0.78
      P1  H  6896  6909       L1    15  0.58
      P1  H 10752 10763       L1    10  0.01

> <Gold.Chemscore.Hbond.Weighted>
-5.4146

> <Gold.Chemscore.Metal.Weighted>
-0.0000

> <Gold.Chemscore.Lipo.Weighted>
-12.3144

> <Gold.Chemscore.Internal_Hbond.Weighted>
0.0000

> <Gold.Chemscore.DEClash.Weighted>
1.4724

> <Gold.Chemscore.DEInternal.Weighted>
3.0478

> <Gold.Chemscore.Rot.Weighted>
6.7880

> <Gold.Chemscore.Internal.Correction.Weighted>
   9.000000E+99

> <Gold.Protein.RotatedTorsions>
[ 6907 6896 6895 6894 ] final   98.75 input  -60.11 | X-H torsion
[ 7974 7965 7964 7962 ] final  -53.06 input  175.53 | X-H torsion
[ 8008 7997 7996 7995 ] final -154.98 input   59.86 | X-H torsion
[ 10167 10162 10161 10158 ] final   -6.64 input  -65.29 | X-H torsion
[ 10718 10713 10712 10709 ] final  -57.36 input   66.30 | X-H torsion
[ 10763 10752 10751 10750 ] final   41.63 input  -60.55 | X-H torsion
[ 11005 11000 10999 10996 ] final  -40.00 input  -57.11 | X-H torsion

> <Gold.Protein.ActiveResidues>
 VAL166  LYS551  ARG553  GLY616  TRP617  ASP618  TYR619  PRO620  LYS621  CYS622 
 ASP623  PHE694  ASN695  SER759  ASP760  ASP761  ALA762  ILE779  LEU786  VAL792 
 PHE793  MET794  SER795  GLU796  ALA797  LYS798  CYS799  TRP800  GLU811  SER814 

> <Gold.Protein.RotatedAtoms>
  152.5404  134.0533  159.8119 H   0  0  0  0  0  0  0  0  0  0  0  0  # atno 6907 bound_to 6896
  151.0672  133.5488  159.2637 H   0  0  0  0  0  0  0  0  0  0  0  0  # atno 6908 bound_to 6896
  151.2365  135.0581  159.9062 H   0  0  0  0  0  0  0  0  0  0  0  0  # atno 6909 bound_to 6896
  145.9011  140.7993  142.9743 H   0  0  0  0  0  0  0  0  0  0  0  0  # atno 7974 bound_to 7965
  155.6948  140.0759  157.2434 H   0  0  0  0  0  0  0  0  0  0  0  0  # atno 8008 bound_to 7997
  154.4082  140.1658  156.2179 H   0  0  0  0  0  0  0  0  0  0  0  0  # atno 8009 bound_to 7997
  155.9420  140.3384  155.6338 H   0  0  0  0  0  0  0  0  0  0  0  0  # atno 8010 bound_to 7997
  140.7003  143.6171  150.8648 H   0  0  0  0  0  0  0  0  0  0  0  0  # atno 10167 bound_to 10162
  156.1216  130.4166  150.0431 H   0  0  0  0  0  0  0  0  0  0  0  0  # atno 10718 bound_to 10713
  152.9903  135.6156  154.2818 H   0  0  0  0  0  0  0  0  0  0  0  0  # atno 10763 bound_to 10752
  154.2547  135.2784  155.2804 H   0  0  0  0  0  0  0  0  0  0  0  0  # atno 10764 bound_to 10752
  154.5257  135.5802  153.6775 H   0  0  0  0  0  0  0  0  0  0  0  0  # atno 10765 bound_to 10752
  141.0143  133.6893  156.2262 H   0  0  0  0  0  0  0  0  0  0  0  0  # atno 11005 bound_to 11000
  144.6736  140.1678  143.7417 LP  0  0  0  0  0  0  0  0  0  0  0  0  # atno 17320 bound_to 7965
  145.8790  139.2312  143.1616 LP  0  0  0  0  0  0  0  0  0  0  0  0  # atno 17321 bound_to 7965
  139.9893  143.5865  152.2916 LP  0  0  0  0  0  0  0  0  0  0  0  0  # atno 17342 bound_to 10162
  139.6514  144.7661  151.2140 LP  0  0  0  0  0  0  0  0  0  0  0  0  # atno 17343 bound_to 10162
  156.8367  130.9411  151.3634 LP  0  0  0  0  0  0  0  0  0  0  0  0  # atno 17370 bound_to 10713
  157.6399  130.8797  149.9429 LP  0  0  0  0  0  0  0  0  0  0  0  0  # atno 17371 bound_to 10713
  140.6682  134.4896  157.5586 LP  0  0  0  0  0  0  0  0  0  0  0  0  # atno 17394 bound_to 11000
  139.9107  134.8350  156.1537 LP  0  0  0  0  0  0  0  0  0  0  0  0  # atno 17395 bound_to 11000

$$$$
