AV-unprocessed.smi:561|AV-procd|sdf|2938|dock7
  -GOLD-   2262023433D 1   1.00000     0.00000
 Structure written by MMmdl.
 36 37  0  0  0  0  0  0  0  0  1 V2000
  145.6416  134.2789  153.5428 C   0  0  0  0  0  0  0  0  0  0  0  0
  145.4574  135.4274  152.5422 C   0  0  2  0  0  0  0  0  0  0  0  0
  145.8442  134.9967  151.1122 C   0  0  0  0  0  0  0  0  0  0  0  0
  145.1920  133.7662  150.7028 N   0  0  0  0  0  0  0  0  0  0  0  0
  143.8396  133.5804  150.4454 C   0  0  0  0  0  0  0  0  0  0  0  0
  143.6836  132.2569  150.1011 C   0  0  0  0  0  0  0  0  0  0  0  0
  144.9195  131.6150  150.1337 N   0  0  0  0  0  0  0  0  0  0  0  0
  145.7638  132.5720  150.4965 C   0  0  0  0  0  0  0  0  0  0  0  0
  146.2652  136.5679  152.9721 N   0  0  0  0  0  0  0  0  0  0  0  0
  145.7974  137.6987  153.5336 C   0  0  0  0  0  0  0  0  0  0  0  0
  144.6064  137.8814  153.7870 O   0  0  0  0  0  0  0  0  0  0  0  0
  146.8106  138.7479  153.8214 C   0  0  0  0  0  0  0  0  0  0  0  0
  146.5119  139.9995  153.6624 N   0  0  0  0  0  0  0  0  0  0  0  0
  147.4131  141.0079  153.9363 N   0  0  0  0  0  0  0  0  0  0  0  0
  146.8383  142.3512  153.9729 C   0  0  0  0  0  0  0  0  0  0  0  0
  148.7413  140.8213  154.1384 C   0  0  0  0  0  0  0  0  0  0  0  0
  149.5284  141.7312  154.3990 O   0  0  0  0  0  0  0  0  0  0  0  0
  149.2581  139.3868  153.9957 C   0  0  0  0  0  0  0  0  0  0  0  0
  148.1775  138.3412  154.3347 C   0  0  0  0  0  0  0  0  0  0  0  0
  145.0350  133.4163  153.2653 H   0  0  0  0  0  0  0  0  0  0  0  0
  145.3425  134.5810  154.5470 H   0  0  0  0  0  0  0  0  0  0  0  0
  146.6815  133.9534  153.5880 H   0  0  0  0  0  0  0  0  0  0  0  0
  144.3990  135.6942  152.5505 H   0  0  0  0  0  0  0  0  0  0  0  0
  145.5958  135.7804  150.3951 H   0  0  0  0  0  0  0  0  0  0  0  0
  146.9220  134.8427  151.0452 H   0  0  0  0  0  0  0  0  0  0  0  0
  143.1200  134.3810  150.5330 H   0  0  0  0  0  0  0  0  0  0  0  0
  142.7843  131.7218  149.8342 H   0  0  0  0  0  0  0  0  0  0  0  0
  146.8228  132.3990  150.6212 H   0  0  0  0  0  0  0  0  0  0  0  0
  147.2590  136.5083  152.8025 H   0  0  0  0  0  0  0  0  0  0  0  0
  147.3185  142.9967  153.2358 H   0  0  0  0  0  0  0  0  0  0  0  0
  146.9747  142.7984  154.9586 H   0  0  0  0  0  0  0  0  0  0  0  0
  145.7682  142.3456  153.7585 H   0  0  0  0  0  0  0  0  0  0  0  0
  149.5827  139.2573  152.9625 H   0  0  0  0  0  0  0  0  0  0  0  0
  150.1383  139.2399  154.6225 H   0  0  0  0  0  0  0  0  0  0  0  0
  148.1265  138.1952  155.4143 H   0  0  0  0  0  0  0  0  0  0  0  0
  148.4793  137.3834  153.9089 H   0  0  0  0  0  0  0  0  0  0  0  0
  1  2  1  0  0  0  0
  1 20  1  0  0  0  0
  1 21  1  0  0  0  0
  1 22  1  0  0  0  0
  2  3  1  0  0  0  0
  2  9  1  0  0  0  0
  2 23  1  0  0  0  0
  3  4  1  0  0  0  0
  3 24  1  0  0  0  0
  3 25  1  0  0  0  0
  4  8  1  0  0  0  0
  4  5  1  0  0  0  0
  5  6  2  0  0  0  0
  5 26  1  0  0  0  0
  6  7  1  0  0  0  0
  6 27  1  0  0  0  0
  7  8  2  0  0  0  0
  8 28  1  0  0  0  0
  9 10  1  0  0  0  0
  9 29  1  0  0  0  0
 10 11  2  0  0  0  0
 10 12  1  0  0  0  0
 12 19  1  0  0  0  0
 12 13  2  0  0  0  0
 13 14  1  0  0  0  0
 14 15  1  0  0  0  0
 14 16  1  0  0  0  0
 15 30  1  0  0  0  0
 15 31  1  0  0  0  0
 15 32  1  0  0  0  0
 16 17  2  0  0  0  0
 16 18  1  0  0  0  0
 18 19  1  0  0  0  0
 18 33  1  0  0  0  0
 18 34  1  0  0  0  0
 19 35  1  0  0  0  0
 19 36  1  0  0  0  0
M  END
> <s_m_source_file>
AV-unprocessed.smi

> <i_m_source_file_index>
561

> <i_lp_mmshare_version>
43012

> <i_f3d_flags>
0

> <s_epik_input>
W2NIXTFuW2NIXVtjSF1uMVtDSDJdW0NAQEhdKFtDSDNdKVtOSF1DKD1PKUMyPU5OKFtDSDNdKUMoPU8pW0NIMl1bQ0gyXTI=

> <s_epik_cmdline>
J2VwaWtfcHl0aG9uJywgJy1waCcsICc3LjAnLCAnLXRuJywgJzgnLCAnLW1hJywgJzIwMCcsICctbWV0YWxfYmluZGluZycsICctaW1hZScsICc8aW5maWxlLm1hZT4nLCAnLW9tYWUnLCAnPG91dGZpbGUubWFlPic=

> <r_lp_tautomer_probability>
1

> <r_epik_Ionization_Penalty>
0.46798

> <r_epik_Ionization_Penalty_Charging>
0.467902

> <r_epik_Ionization_Penalty_Neutral>
7.78263e-05

> <r_epik_State_Penalty>
0.47192

> <r_epik_Charging_Adjusted_Penalty>
0.939822

> <i_epik_Tot_Q>
0

> <i_epik_Tot_abs_Q>
0

> <r_epik_Metal_State_Penalty>
0.280825

> <b_epik_Metal_Only>
0

> <s_epik_Chemistry_Notes>
This compound has an imine and may undergo hydrolysis.

> <s_lp_Force_Field>
OPLS_2005

> <r_lp_Energy>
18.1828

> <b_lp_Chiralities_Consistent>
1

> <s_lp_Variant>
AV-unprocessed.smi:561-3

> <Gold.Version>
5.8.1

> <Gold.Id.Protein>
6NUR|6NUR_protein|mol2

> <Gold.PLP.Fitness>
40.6725

> <Gold.PLP.PLP>
-29.5024

> <Gold.PLP.part.hbond>
-3.1063

> <Gold.PLP.part.metal>
0.0000

> <Gold.PLP.part.buried>
-2.0739

> <Gold.PLP.part.nonpolar>
-25.3804

> <Gold.PLP.part.repulsive>
0.6120

> <Gold.PLP.ligand.clash>
0.0000

> <Gold.PLP.ligand.torsion>
0.8093

> <Gold.PLP.Chemscore.Hbond>
1.2579

> <Gold.PLP.Chemscore.CHOScore>
2.9922

> <Gold.PLP.Chemscore.Metal>
0.0000

> <Gold.Chemscore.Hbonds>
donor molecule, donor type, donor heavy atom, donor atom, acceptor molecule, acceptor atom, score
      L1  H     9    29       P1  7948  1.00
      P1  H  7989  7998       L1    17  0.01
      P1  H  8011  8017       L1    17  0.24
      L1  C     5    26       P1 10186  0.93
      L1  C     6    27       P1 10952  1.00
      L1  C     8    28       P1 10747  0.66

> <Gold.PLP.Chemscore.Internal.Correction>
0.0385

> <Gold.Rescore>
     Score         DG    S(hbond)    S(metal)    S(lipo)     H(rot)  DE(clash)    DE(int)     intcor
      9.46     -10.40       1.00        0.00      50.94       1.71       0.13       0.82       ----

> <Gold.Chemscore.Fitness>
9.4595

> <Gold.Chemscore.DG>
-10.4015

> <Gold.Chemscore.ZeroCoef>
-5.4800

> <Gold.Chemscore.Hbond>
0.9987

> <Gold.Chemscore.Metal>
0.0000

> <Gold.Chemscore.Lipo>
50.9387

> <Gold.Chemscore.Internal_Hbond>
0.0000

> <Gold.Chemscore.DEClash>
0.1261

> <Gold.Chemscore.DEInternal>
0.8159

> <Gold.Chemscore.Rot>
1.7086

> <Gold.Chemscore.Internal.Correction>
   9.000000E+99

> <Gold.Chemscore.Hbonds>
donor molecule, donor type, donor heavy atom, donor atom, acceptor molecule, acceptor atom, score
      L1  H     9    29       P1  7948  0.98
      P1  H  7989  7998       L1    17  0.01
      P1  H  8011  8017       L1    17  0.04

> <Gold.Chemscore.Hbond.Weighted>
-3.3356

> <Gold.Chemscore.Metal.Weighted>
-0.0000

> <Gold.Chemscore.Lipo.Weighted>
-5.9598

> <Gold.Chemscore.Internal_Hbond.Weighted>
0.0000

> <Gold.Chemscore.DEClash.Weighted>
0.1261

> <Gold.Chemscore.DEInternal.Weighted>
0.8159

> <Gold.Chemscore.Rot.Weighted>
4.3739

> <Gold.Chemscore.Internal.Correction.Weighted>
   9.000000E+99

> <Gold.Protein.RotatedTorsions>
[ 6907 6896 6895 6894 ] final   72.75 input  -60.11 | X-H torsion
[ 7974 7965 7964 7962 ] final  123.69 input  175.53 | X-H torsion
[ 8008 7997 7996 7995 ] final   15.19 input   59.86 | X-H torsion
[ 10167 10162 10161 10158 ] final  -99.74 input  -65.29 | X-H torsion
[ 10718 10713 10712 10709 ] final   53.66 input   66.30 | X-H torsion
[ 10763 10752 10751 10750 ] final  -75.33 input  -60.55 | X-H torsion
[ 11005 11000 10999 10996 ] final -172.14 input  -57.11 | X-H torsion

> <Gold.Protein.ActiveResidues>
 VAL166  LYS551  ARG553  GLY616  TRP617  ASP618  TYR619  PRO620  LYS621  CYS622 
 ASP623  PHE694  ASN695  SER759  ASP760  ASP761  ALA762  ILE779  LEU786  VAL792 
 PHE793  MET794  SER795  GLU796  ALA797  LYS798  CYS799  TRP800  GLU811  SER814 

> <Gold.Protein.RotatedAtoms>
  152.4885  134.4524  159.9578 H   0  0  0  0  0  0  0  0  0  0  0  0  # atno 6907 bound_to 6896
  151.4516  133.3610  159.2804 H   0  0  0  0  0  0  0  0  0  0  0  0  # atno 6908 bound_to 6896
  150.9018  134.8455  159.7425 H   0  0  0  0  0  0  0  0  0  0  0  0  # atno 6909 bound_to 6896
  145.0929  139.3573  143.4851 H   0  0  0  0  0  0  0  0  0  0  0  0  # atno 7974 bound_to 7965
  154.8592  140.2941  155.5550 H   0  0  0  0  0  0  0  0  0  0  0  0  # atno 8008 bound_to 7997
  156.3019  140.2481  156.3496 H   0  0  0  0  0  0  0  0  0  0  0  0  # atno 8009 bound_to 7997
  154.8937  140.0393  157.1842 H   0  0  0  0  0  0  0  0  0  0  0  0  # atno 8010 bound_to 7997
  140.2593  143.3418  152.0641 H   0  0  0  0  0  0  0  0  0  0  0  0  # atno 10167 bound_to 10162
  157.5187  130.8550  149.8530 H   0  0  0  0  0  0  0  0  0  0  0  0  # atno 10718 bound_to 10713
  154.4851  135.5835  153.6417 H   0  0  0  0  0  0  0  0  0  0  0  0  # atno 10763 bound_to 10752
  152.9853  135.6099  154.3197 H   0  0  0  0  0  0  0  0  0  0  0  0  # atno 10764 bound_to 10752
  154.3092  135.2845  155.2553 H   0  0  0  0  0  0  0  0  0  0  0  0  # atno 10765 bound_to 10752
  140.5003  134.5900  157.4985 H   0  0  0  0  0  0  0  0  0  0  0  0  # atno 11005 bound_to 11000
  146.3531  140.0772  142.8620 LP  0  0  0  0  0  0  0  0  0  0  0  0  # atno 17320 bound_to 7965
  145.1044  140.9366  143.4693 LP  0  0  0  0  0  0  0  0  0  0  0  0  # atno 17321 bound_to 7965
  139.5022  144.6729  151.6199 LP  0  0  0  0  0  0  0  0  0  0  0  0  # atno 17342 bound_to 10162
  140.5979  143.9663  150.6366 LP  0  0  0  0  0  0  0  0  0  0  0  0  # atno 17343 bound_to 10162
  156.0338  130.3757  150.1615 LP  0  0  0  0  0  0  0  0  0  0  0  0  # atno 17370 bound_to 10713
  156.9803  130.9862  151.3439 LP  0  0  0  0  0  0  0  0  0  0  0  0  # atno 17371 bound_to 10713
  139.9717  134.7282  156.0028 LP  0  0  0  0  0  0  0  0  0  0  0  0  # atno 17394 bound_to 11000
  141.1439  133.6559  156.3809 LP  0  0  0  0  0  0  0  0  0  0  0  0  # atno 17395 bound_to 11000

$$$$
