AV-unprocessed.smi:1116|AV-procd|sdf|4809|dock10
  -GOLD-   22720 3363D 1   1.00000     0.00000
 Structure written by MMmdl.
 35 36  0  0  0  0  0  0  0  0  2 V2000
  152.2932  144.9682  158.6685 C   0  0  0  0  0  0  0  0  0  0  0  0
  152.1338  143.5170  158.3686 C   0  0  0  0  0  0  0  0  0  0  0  0
  151.2911  143.0396  157.4487 N   0  0  0  0  0  0  0  0  0  0  0  0
  151.3253  141.6443  157.3598 C   0  0  0  0  0  0  0  0  0  0  0  0
  150.4361  140.9323  156.3864 C   0  0  0  0  0  0  0  0  0  0  0  0
  151.1678  139.7893  155.6629 C   0  0  0  0  0  0  0  0  0  0  0  0
  150.7835  138.4843  156.1869 N   0  0  0  0  0  0  0  0  0  0  0  0
  151.1002  137.3036  155.6338 C   0  0  0  0  0  0  0  0  0  0  0  0
  151.7555  137.1951  154.5969 O   0  0  0  0  0  0  0  0  0  0  0  0
  150.5949  136.0562  156.3604 C   0  0  0  0  0  0  0  0  0  0  0  0
  150.6943  134.7922  155.4864 C   0  0  0  0  0  0  0  0  0  0  0  0
  150.0233  133.5628  156.1338 C   0  0  2  0  0  0  0  0  0  0  0  0
  150.7553  133.1152  157.3062 N   0  5  0  0  0  0  0  0  0  0  0  0
  151.1301  131.8286  157.1134 C   0  0  0  0  0  0  0  0  0  0  0  0
  151.7556  131.1043  157.8844 O   0  0  0  0  0  0  0  0  0  0  0  0
  150.7275  131.3931  155.9151 N   0  0  0  0  0  0  0  0  0  0  0  0
  150.0771  132.3368  155.2421 C   0  0  0  0  0  0  0  0  0  0  0  0
  149.5988  132.2541  154.1117 O   0  0  0  0  0  0  0  0  0  0  0  0
  152.2174  141.0685  158.2297 C   0  0  0  0  0  0  0  0  0  0  0  0
  153.0433  142.2592  159.1967 S   0  0  0  0  0  0  0  0  0  0  0  0
  151.5664  145.5591  158.1103 H   0  0  0  0  0  0  0  0  0  0  0  0
  153.2958  145.2965  158.3941 H   0  0  0  0  0  0  0  0  0  0  0  0
  152.1448  145.1472  159.7335 H   0  0  0  0  0  0  0  0  0  0  0  0
  149.5607  140.5407  156.9058 H   0  0  0  0  0  0  0  0  0  0  0  0
  150.0531  141.6401  155.6500 H   0  0  0  0  0  0  0  0  0  0  0  0
  150.9227  139.8076  154.6005 H   0  0  0  0  0  0  0  0  0  0  0  0
  152.2492  139.9173  155.7355 H   0  0  0  0  0  0  0  0  0  0  0  0
  150.2423  138.4753  157.0396 H   0  0  0  0  0  0  0  0  0  0  0  0
  151.1617  135.9186  157.2824 H   0  0  0  0  0  0  0  0  0  0  0  0
  149.5589  136.2228  156.6570 H   0  0  0  0  0  0  0  0  0  0  0  0
  150.2221  134.9930  154.5232 H   0  0  0  0  0  0  0  0  0  0  0  0
  151.7414  134.5731  155.2672 H   0  0  0  0  0  0  0  0  0  0  0  0
  148.9770  133.7803  156.3528 H   0  0  0  0  0  0  0  0  0  0  0  0
  150.9056  130.4646  155.5624 H   0  0  0  0  0  0  0  0  0  0  0  0
  152.4353  140.0189  158.3611 H   0  0  0  0  0  0  0  0  0  0  0  0
  1  2  1  0  0  0  0
  1 21  1  0  0  0  0
  1 22  1  0  0  0  0
  1 23  1  0  0  0  0
  2 20  1  0  0  0  0
  2  3  2  0  0  0  0
  3  4  1  0  0  0  0
  4  5  1  0  0  0  0
  4 19  2  0  0  0  0
  5  6  1  0  0  0  0
  5 24  1  0  0  0  0
  5 25  1  0  0  0  0
  6  7  1  0  0  0  0
  6 26  1  0  0  0  0
  6 27  1  0  0  0  0
  7  8  1  0  0  0  0
  7 28  1  0  0  0  0
  8  9  2  0  0  0  0
  8 10  1  0  0  0  0
 10 11  1  0  0  0  0
 10 29  1  0  0  0  0
 10 30  1  0  0  0  0
 11 12  1  0  0  0  0
 11 31  1  0  0  0  0
 11 32  1  0  0  0  0
 12 17  1  0  0  0  0
 12 13  1  0  0  0  0
 12 33  1  0  0  0  0
 13 14  1  0  0  0  0
 14 15  2  0  0  0  0
 14 16  1  0  0  0  0
 16 17  1  0  0  0  0
 16 34  1  0  0  0  0
 17 18  2  0  0  0  0
 19 20  1  0  0  0  0
 19 35  1  0  0  0  0
M  CHG  1  13  -1
M  END
> <s_m_source_file>
AV-unprocessed.smi

> <i_m_source_file_index>
1116

> <i_lp_mmshare_version>
43012

> <i_f3d_flags>
0

> <s_epik_input>
W0NIM11jMW5jKFtjSF1zMSlbQ0gyXVtDSDJdW05IXUMoPU8pW0NIMl1bQ0gyXVtDQEBIXTJbTkhdQyg9TylbTkhdQzI9Tw==

> <s_epik_cmdline>
J2VwaWtfcHl0aG9uJywgJy1waCcsICc3LjAnLCAnLXRuJywgJzgnLCAnLW1hJywgJzIwMCcsICctbWV0YWxfYmluZGluZycsICctaW1hZScsICc8aW5maWxlLm1hZT4nLCAnLW9tYWUnLCAnPG91dGZpbGUubWFlPic=

> <r_lp_tautomer_probability>
1

> <r_epik_Ionization_Penalty>
5.7962

> <r_epik_Ionization_Penalty_Charging>
5.79516

> <r_epik_Ionization_Penalty_Neutral>
0.00104588

> <r_epik_State_Penalty>
5.80096

> <r_epik_Charging_Adjusted_Penalty>
11.5961

> <i_epik_Tot_Q>
-1

> <i_epik_Tot_abs_Q>
1

> <r_epik_Metal_State_Penalty>
2.1448

> <b_epik_Metal_Only>
1

> <s_lp_Force_Field>
OPLS_2005

> <r_lp_Energy>
4.59195

> <b_lp_Chiralities_Consistent>
1

> <s_lp_Variant>
AV-unprocessed.smi:1116-3

> <Gold.Version>
5.8.1

> <Gold.Id.Protein>
6NUR|6NUR_protein|mol2

> <Gold.PLP.Fitness>
40.1007

> <Gold.PLP.PLP>
-33.5398

> <Gold.PLP.part.hbond>
-2.0000

> <Gold.PLP.part.metal>
0.0000

> <Gold.PLP.part.buried>
-6.1535

> <Gold.PLP.part.nonpolar>
-26.9852

> <Gold.PLP.part.repulsive>
0.3509

> <Gold.PLP.ligand.clash>
0.0000

> <Gold.PLP.ligand.torsion>
0.8100

> <Gold.PLP.Chemscore.Hbond>
2.7040

> <Gold.PLP.Chemscore.CHOScore>
0.0000

> <Gold.PLP.Chemscore.Metal>
0.0000

> <Gold.Chemscore.Hbonds>
donor molecule, donor type, donor heavy atom, donor atom, acceptor molecule, acceptor atom, score
      P1  H  6896  6908       L1    13  1.82
      P1  H 10752 10765       L1     9  0.83

> <Gold.PLP.Chemscore.Internal.Correction>
0.0690

> <Gold.Rescore>
     Score         DG    S(hbond)    S(metal)    S(lipo)     H(rot)  DE(clash)    DE(int)     intcor
     12.86     -13.69       1.98        0.00      74.10       2.77       0.01       0.82       ----

> <Gold.Chemscore.Fitness>
12.8595

> <Gold.Chemscore.DG>
-13.6895

> <Gold.Chemscore.ZeroCoef>
-5.4800

> <Gold.Chemscore.Hbond>
1.9848

> <Gold.Chemscore.Metal>
0.0000

> <Gold.Chemscore.Lipo>
74.0952

> <Gold.Chemscore.Internal_Hbond>
0.0000

> <Gold.Chemscore.DEClash>
0.0126

> <Gold.Chemscore.DEInternal>
0.8174

> <Gold.Chemscore.Rot>
2.7691

> <Gold.Chemscore.Internal.Correction>
   9.000000E+99

> <Gold.Chemscore.Hbonds>
donor molecule, donor type, donor heavy atom, donor atom, acceptor molecule, acceptor atom, score
      P1  H  6896  6908       L1    13  0.30
      P1  H 10752 10765       L1     9  0.58

> <Gold.Chemscore.Hbond.Weighted>
-6.6292

> <Gold.Chemscore.Metal.Weighted>
-0.0000

> <Gold.Chemscore.Lipo.Weighted>
-8.6691

> <Gold.Chemscore.Internal_Hbond.Weighted>
0.0000

> <Gold.Chemscore.DEClash.Weighted>
0.0126

> <Gold.Chemscore.DEInternal.Weighted>
0.8174

> <Gold.Chemscore.Rot.Weighted>
7.0889

> <Gold.Chemscore.Internal.Correction.Weighted>
   9.000000E+99

> <Gold.Protein.RotatedTorsions>
[ 6907 6896 6895 6894 ] final   83.35 input  -60.11 | X-H torsion
[ 7974 7965 7964 7962 ] final  138.30 input  175.53 | X-H torsion
[ 8008 7997 7996 7995 ] final   38.67 input   59.86 | X-H torsion
[ 10167 10162 10161 10158 ] final   51.28 input  -65.29 | X-H torsion
[ 10718 10713 10712 10709 ] final  168.71 input   66.30 | X-H torsion
[ 10763 10752 10751 10750 ] final -171.19 input  -60.55 | X-H torsion
[ 11005 11000 10999 10996 ] final    8.57 input  -57.11 | X-H torsion

> <Gold.Protein.ActiveResidues>
 VAL166  LYS551  ARG553  GLY616  TRP617  ASP618  TYR619  PRO620  LYS621  CYS622 
 ASP623  PHE694  ASN695  SER759  ASP760  ASP761  ALA762  ILE779  LEU786  VAL792 
 PHE793  MET794  SER795  GLU796  ALA797  LYS798  CYS799  TRP800  GLU811  SER814 

> <Gold.Protein.RotatedAtoms>
  152.5325  134.2909  159.9042 H   0  0  0  0  0  0  0  0  0  0  0  0  # atno 6907 bound_to 6896
  151.2861  133.4180  159.2637 H   0  0  0  0  0  0  0  0  0  0  0  0  # atno 6908 bound_to 6896
  151.0241  134.9507  159.8132 H   0  0  0  0  0  0  0  0  0  0  0  0  # atno 6909 bound_to 6896
  144.9385  139.4959  143.5583 H   0  0  0  0  0  0  0  0  0  0  0  0  # atno 7974 bound_to 7965
  155.2240  140.3333  155.4312 H   0  0  0  0  0  0  0  0  0  0  0  0  # atno 8008 bound_to 7997
  156.2322  140.1855  156.7261 H   0  0  0  0  0  0  0  0  0  0  0  0  # atno 8009 bound_to 7997
  154.5997  140.0625  156.9337 H   0  0  0  0  0  0  0  0  0  0  0  0  # atno 8010 bound_to 7997
  140.2636  144.3345  150.6311 H   0  0  0  0  0  0  0  0  0  0  0  0  # atno 10167 bound_to 10162
  157.0332  131.0265  151.2738 H   0  0  0  0  0  0  0  0  0  0  0  0  # atno 10718 bound_to 10713
  154.6333  135.2889  155.0191 H   0  0  0  0  0  0  0  0  0  0  0  0  # atno 10763 bound_to 10752
  154.1343  135.6528  153.4932 H   0  0  0  0  0  0  0  0  0  0  0  0  # atno 10764 bound_to 10752
  153.0290  135.5318  154.7169 H   0  0  0  0  0  0  0  0  0  0  0  0  # atno 10765 bound_to 10752
  140.5355  134.0425  155.7887 H   0  0  0  0  0  0  0  0  0  0  0  0  # atno 11005 bound_to 11000
  146.3276  139.8387  142.8894 LP  0  0  0  0  0  0  0  0  0  0  0  0  # atno 17320 bound_to 7965
  145.3028  141.0199  143.3599 LP  0  0  0  0  0  0  0  0  0  0  0  0  # atno 17321 bound_to 7965
  140.5946  143.2167  151.7188 LP  0  0  0  0  0  0  0  0  0  0  0  0  # atno 17342 bound_to 10162
  139.5009  144.3887  152.0302 LP  0  0  0  0  0  0  0  0  0  0  0  0  # atno 17343 bound_to 10162
  157.5162  130.7969  149.7758 LP  0  0  0  0  0  0  0  0  0  0  0  0  # atno 17370 bound_to 10713
  156.0063  130.3854  150.2421 LP  0  0  0  0  0  0  0  0  0  0  0  0  # atno 17371 bound_to 10713
  141.1257  133.9387  157.2640 LP  0  0  0  0  0  0  0  0  0  0  0  0  # atno 17394 bound_to 11000
  139.9531  135.0171  156.9052 LP  0  0  0  0  0  0  0  0  0  0  0  0  # atno 17395 bound_to 11000

$$$$
