AV-unprocessed.smi:710|AV-procd|sdf|3463|dock8
  -GOLD-   22720 0453D 1   1.00000     0.00000
 Structure written by MMmdl.
 40 41  0  0  0  0  0  0  0  0  1 V2000
  153.3185  138.5944  154.5158 C   0  0  0  0  0  0  0  0  0  0  0  0
  152.2111  139.1582  155.3599 C   0  0  0  0  0  0  0  0  0  0  0  0
  152.4936  140.1102  156.2326 N   0  0  0  0  0  0  0  0  0  0  0  0
  151.3174  140.4017  156.8214 N   0  0  0  0  0  0  0  0  0  0  0  0
  151.2911  141.4321  157.8421 C   0  0  0  0  0  0  0  0  0  0  0  0
  150.2859  139.6289  156.3194 C   0  0  0  0  0  0  0  0  0  0  0  0
  148.8762  139.7592  156.8013 C   0  0  0  0  0  0  0  0  0  0  0  0
  150.8285  138.8068  155.3670 C   0  0  0  0  0  0  0  0  0  0  0  0
  150.1417  137.7706  154.5132 C   0  0  0  0  0  0  0  0  0  0  0  0
  150.6510  136.3784  154.8860 C   0  0  0  0  0  0  0  0  0  0  0  0
  151.5807  136.2569  155.6829 O   0  0  0  0  0  0  0  0  0  0  0  0
  150.0371  135.3406  154.2979 N   0  0  0  0  0  0  0  0  0  0  0  0
  150.3723  133.9342  154.5022 C   0  0  0  0  0  0  0  0  0  0  0  0
  149.1592  132.9867  154.3347 C   0  0  2  0  0  0  0  0  0  0  0  0
  148.3396  133.1154  155.4829 O   0  0  0  0  0  0  0  0  0  0  0  0
  149.5902  131.5117  154.2622 C   0  0  0  0  0  0  0  0  0  0  0  0
  148.3787  130.6874  153.8133 C   0  0  0  0  0  0  0  0  0  0  0  0
  147.4023  131.7165  152.6881 S   0  0  0  0  0  0  0  0  0  0  0  0
  148.3172  133.2347  153.0696 C   0  0  0  0  0  0  0  0  0  0  0  0
  152.9287  138.0661  153.6460 H   0  0  0  0  0  0  0  0  0  0  0  0
  153.9246  137.8911  155.0868 H   0  0  0  0  0  0  0  0  0  0  0  0
  153.9776  139.3822  154.1502 H   0  0  0  0  0  0  0  0  0  0  0  0
  150.3069  141.4968  158.3048 H   0  0  0  0  0  0  0  0  0  0  0  0
  151.5336  142.3964  157.3949 H   0  0  0  0  0  0  0  0  0  0  0  0
  152.0256  141.2036  158.6150 H   0  0  0  0  0  0  0  0  0  0  0  0
  148.2128  139.0680  156.2825 H   0  0  0  0  0  0  0  0  0  0  0  0
  148.5014  140.7688  156.6320 H   0  0  0  0  0  0  0  0  0  0  0  0
  148.8098  139.5458  157.8682 H   0  0  0  0  0  0  0  0  0  0  0  0
  149.0600  137.7986  154.6490 H   0  0  0  0  0  0  0  0  0  0  0  0
  150.3104  137.9463  153.4502 H   0  0  0  0  0  0  0  0  0  0  0  0
  149.2859  135.5404  153.6539 H   0  0  0  0  0  0  0  0  0  0  0  0
  151.1203  133.6978  153.7449 H   0  0  0  0  0  0  0  0  0  0  0  0
  150.8665  133.7799  155.4634 H   0  0  0  0  0  0  0  0  0  0  0  0
  148.6160  133.8799  155.9648 H   0  0  0  0  0  0  0  0  0  0  0  0
  150.3781  131.4016  153.5155 H   0  0  0  0  0  0  0  0  0  0  0  0
  149.9989  131.1502  155.2068 H   0  0  0  0  0  0  0  0  0  0  0  0
  148.6734  129.7533  153.3348 H   0  0  0  0  0  0  0  0  0  0  0  0
  147.7553  130.4363  154.6719 H   0  0  0  0  0  0  0  0  0  0  0  0
  147.6409  134.0843  153.1725 H   0  0  0  0  0  0  0  0  0  0  0  0
  148.9717  133.4389  152.2214 H   0  0  0  0  0  0  0  0  0  0  0  0
  1  2  1  0  0  0  0
  1 20  1  0  0  0  0
  1 21  1  0  0  0  0
  1 22  1  0  0  0  0
  2  8  1  0  0  0  0
  2  3  2  0  0  0  0
  3  4  1  0  0  0  0
  4  5  1  0  0  0  0
  4  6  1  0  0  0  0
  5 23  1  0  0  0  0
  5 24  1  0  0  0  0
  5 25  1  0  0  0  0
  6  7  1  0  0  0  0
  6  8  2  0  0  0  0
  7 26  1  0  0  0  0
  7 27  1  0  0  0  0
  7 28  1  0  0  0  0
  8  9  1  0  0  0  0
  9 10  1  0  0  0  0
  9 29  1  0  0  0  0
  9 30  1  0  0  0  0
 10 11  2  0  0  0  0
 10 12  1  0  0  0  0
 12 13  1  0  0  0  0
 12 31  1  0  0  0  0
 13 14  1  0  0  0  0
 13 32  1  0  0  0  0
 13 33  1  0  0  0  0
 14 19  1  0  0  0  0
 14 15  1  0  0  0  0
 14 16  1  0  0  0  0
 15 34  1  0  0  0  0
 16 17  1  0  0  0  0
 16 35  1  0  0  0  0
 16 36  1  0  0  0  0
 17 18  1  0  0  0  0
 17 37  1  0  0  0  0
 17 38  1  0  0  0  0
 18 19  1  0  0  0  0
 19 39  1  0  0  0  0
 19 40  1  0  0  0  0
M  END
> <s_m_source_file>
AV-unprocessed.smi

> <i_m_source_file_index>
710

> <i_lp_mmshare_version>
43012

> <i_f3d_flags>
0

> <s_epik_input>
W0NIM11jMW5uKFtDSDNdKWMoW0NIM10pYzFbQ0gyXUMoPU8pW05IXVtDSDJdW0NAQF0yKFtPSF0pW0NIMl1bQ0gyXVNbQ0gyXTI=

> <s_epik_cmdline>
J2VwaWtfcHl0aG9uJywgJy1waCcsICc3LjAnLCAnLXRuJywgJzgnLCAnLW1hJywgJzIwMCcsICctbWV0YWxfYmluZGluZycsICctaW1hZScsICc8aW5maWxlLm1hZT4nLCAnLW9tYWUnLCAnPG91dGZpbGUubWFlPic=

> <r_lp_tautomer_probability>
1

> <r_epik_Ionization_Penalty>
0.00343686

> <r_epik_Ionization_Penalty_Charging>
0

> <r_epik_Ionization_Penalty_Neutral>
0.00343686

> <r_epik_State_Penalty>
0.00243544

> <r_epik_Charging_Adjusted_Penalty>
0.00243544

> <i_epik_Tot_Q>
0

> <i_epik_Tot_abs_Q>
0

> <r_epik_Metal_State_Penalty>
-0

> <b_epik_Metal_Only>
0

> <s_lp_Force_Field>
OPLS_2005

> <r_lp_Energy>
11.3483

> <b_lp_Chiralities_Consistent>
1

> <s_lp_Variant>
AV-unprocessed.smi:710-2

> <Gold.Version>
5.8.1

> <Gold.Id.Protein>
6NUR|6NUR_protein|mol2

> <Gold.PLP.Fitness>
38.1159

> <Gold.PLP.PLP>
-30.2887

> <Gold.PLP.part.hbond>
-3.3741

> <Gold.PLP.part.metal>
0.0000

> <Gold.PLP.part.buried>
-0.3570

> <Gold.PLP.part.nonpolar>
-27.2184

> <Gold.PLP.part.repulsive>
0.1041

> <Gold.PLP.ligand.clash>
0.0000

> <Gold.PLP.ligand.torsion>
0.3902

> <Gold.PLP.Chemscore.Hbond>
2.8640

> <Gold.PLP.Chemscore.CHOScore>
0.0000

> <Gold.PLP.Chemscore.Metal>
0.0000

> <Gold.Chemscore.Hbonds>
donor molecule, donor type, donor heavy atom, donor atom, acceptor molecule, acceptor atom, score
      L1  H    12    31       P1  7948  0.80
      P1  H  7997  8009       L1     3  1.00
      P1  H 10752 10763       L1    11  1.00

> <Gold.PLP.Chemscore.Internal.Correction>
0.0155

> <Gold.Rescore>
     Score         DG    S(hbond)    S(metal)    S(lipo)     H(rot)  DE(clash)    DE(int)     intcor
     15.85     -17.13       2.39        0.00      76.92       2.07       0.11       1.17       ----

> <Gold.Chemscore.Fitness>
15.8507

> <Gold.Chemscore.DG>
-17.1347

> <Gold.Chemscore.ZeroCoef>
-5.4800

> <Gold.Chemscore.Hbond>
2.3852

> <Gold.Chemscore.Metal>
0.0000

> <Gold.Chemscore.Lipo>
76.9241

> <Gold.Chemscore.Internal_Hbond>
0.0000

> <Gold.Chemscore.DEClash>
0.1142

> <Gold.Chemscore.DEInternal>
1.1698

> <Gold.Chemscore.Rot>
2.0750

> <Gold.Chemscore.Internal.Correction>
   9.000000E+99

> <Gold.Chemscore.Hbonds>
donor molecule, donor type, donor heavy atom, donor atom, acceptor molecule, acceptor atom, score
      L1  H    12    31       P1  7948  0.36
      P1  H  7997  8009       L1     3  0.29
      P1  H 10752 10763       L1    11  0.60

> <Gold.Chemscore.Hbond.Weighted>
-7.9666

> <Gold.Chemscore.Metal.Weighted>
-0.0000

> <Gold.Chemscore.Lipo.Weighted>
-9.0001

> <Gold.Chemscore.Internal_Hbond.Weighted>
0.0000

> <Gold.Chemscore.DEClash.Weighted>
0.1142

> <Gold.Chemscore.DEInternal.Weighted>
1.1698

> <Gold.Chemscore.Rot.Weighted>
5.3120

> <Gold.Chemscore.Internal.Correction.Weighted>
   9.000000E+99

> <Gold.Protein.RotatedTorsions>
[ 6907 6896 6895 6894 ] final  -74.50 input  -60.11 | X-H torsion
[ 7974 7965 7964 7962 ] final  -48.30 input  175.53 | X-H torsion
[ 8008 7997 7996 7995 ] final -147.21 input   59.86 | X-H torsion
[ 10167 10162 10161 10158 ] final   40.23 input  -65.29 | X-H torsion
[ 10718 10713 10712 10709 ] final -115.08 input   66.30 | X-H torsion
[ 10763 10752 10751 10750 ] final   70.51 input  -60.55 | X-H torsion
[ 11005 11000 10999 10996 ] final  166.26 input  -57.11 | X-H torsion

> <Gold.Protein.ActiveResidues>
 VAL166  LYS551  ARG553  GLY616  TRP617  ASP618  TYR619  PRO620  LYS621  CYS622 
 ASP623  PHE694  ASN695  SER759  ASP760  ASP761  ALA762  ILE779  LEU786  VAL792 
 PHE793  MET794  SER795  GLU796  ALA797  LYS798  CYS799  TRP800  GLU811  SER814 

> <Gold.Protein.RotatedAtoms>
  150.7091  134.4859  159.5492 H   0  0  0  0  0  0  0  0  0  0  0  0  # atno 6907 bound_to 6896
  152.2487  134.8152  160.0458 H   0  0  0  0  0  0  0  0  0  0  0  0  # atno 6908 bound_to 6896
  151.8907  133.3480  159.3834 H   0  0  0  0  0  0  0  0  0  0  0  0  # atno 6909 bound_to 6896
  145.9526  140.7557  142.9497 H   0  0  0  0  0  0  0  0  0  0  0  0  # atno 7974 bound_to 7965
  155.5719  140.0635  157.2804 H   0  0  0  0  0  0  0  0  0  0  0  0  # atno 8008 bound_to 7997
  154.4358  140.1867  156.0933 H   0  0  0  0  0  0  0  0  0  0  0  0  # atno 8009 bound_to 7997
  156.0370  140.3300  155.7205 H   0  0  0  0  0  0  0  0  0  0  0  0  # atno 8010 bound_to 7997
  140.3762  144.2040  150.6131 H   0  0  0  0  0  0  0  0  0  0  0  0  # atno 10167 bound_to 10162
  156.0872  130.6061  150.8859 H   0  0  0  0  0  0  0  0  0  0  0  0  # atno 10718 bound_to 10713
  153.0346  135.5171  154.7452 H   0  0  0  0  0  0  0  0  0  0  0  0  # atno 10763 bound_to 10752
  154.6440  135.2916  155.0071 H   0  0  0  0  0  0  0  0  0  0  0  0  # atno 10764 bound_to 10752
  154.0979  135.6640  153.4916 H   0  0  0  0  0  0  0  0  0  0  0  0  # atno 10765 bound_to 10752
  140.2646  134.7875  157.3620 H   0  0  0  0  0  0  0  0  0  0  0  0  # atno 11005 bound_to 11000
  144.6799  140.2460  143.7338 LP  0  0  0  0  0  0  0  0  0  0  0  0  # atno 17320 bound_to 7965
  145.8150  139.2019  143.1971 LP  0  0  0  0  0  0  0  0  0  0  0  0  # atno 17321 bound_to 7965
  140.4983  143.2325  151.8716 LP  0  0  0  0  0  0  0  0  0  0  0  0  # atno 17342 bound_to 10162
  139.4799  144.5088  151.8961 LP  0  0  0  0  0  0  0  0  0  0  0  0  # atno 17343 bound_to 10162
  157.6010  131.0941  150.8960 LP  0  0  0  0  0  0  0  0  0  0  0  0  # atno 17370 bound_to 10713
  156.9118  130.5283  149.5280 LP  0  0  0  0  0  0  0  0  0  0  0  0  # atno 17371 bound_to 10713
  140.1432  134.4945  155.8016 LP  0  0  0  0  0  0  0  0  0  0  0  0  # atno 17394 bound_to 11000
  141.2186  133.6833  156.7247 LP  0  0  0  0  0  0  0  0  0  0  0  0  # atno 17395 bound_to 11000

$$$$
