#       Name:                AV-unprocessed.smi:2074
#       Creating user name   scv26
#       Creation time:       Fri Mar 27 11:15:07 2020


#       File generated by GOLD software.
#

@<TRIPOS>MOLECULE
AV-unprocessed.smi:2074
    51    52     1
SMALL
NO_CHARGES


@<TRIPOS>ATOM
      1 ****        -3.8007   0.9292   0.6799 C.3            1 S1                 0.0000
      2 ****        -3.6732   1.3287  -0.7624 C.2            1 S1                 0.0000
      3 ****        -3.9385   2.5760  -1.1116 N.2            1 S1                 0.0000
      4 ****        -3.7349   2.6394  -2.4933 O.3            1 S1                 0.0000
      5 ****        -3.3492   1.4129  -2.9272 C.2            1 S1                 0.0000
      6 ****        -3.0796   1.2779  -4.3877 C.3            1 S1                 0.0000
      7 ****        -3.2893   0.5331  -1.8810 C.2            1 S1                 0.0000
      8 ****        -2.9071  -0.9252  -1.9028 C.3            1 S1                 0.0000
      9 ****        -1.3867  -1.0594  -1.8161 C.2            1 S1                 0.0000
     10 ****        -0.7316  -1.3309  -2.8217 O.2            1 S1                 0.0000
     11 ****        -0.8370  -0.8584  -0.6098 N.am           1 S1                 0.0000
     12 ****         0.5939  -0.8974  -0.3337 C.3            1 S1                 0.0000
     13 ****         0.9389  -0.2961   1.0550 C.3            1 S1                 0.0000
     14 ****         0.3881   1.1462   1.1642 C.3            1 S1                 0.0000
     15 ****         2.4073  -0.3221   1.3660 N.4            1 S1                 1.0000
     16 ****         2.6966  -0.0668   2.8046 C.3            1 S1                 0.0000
     17 ****         4.2099  -0.0327   3.0735 C.3            1 S1                 0.0000
     18 ****         4.7900  -1.2622   2.6669 O.3            1 S1                 0.0000
     19 ****         4.6263  -1.4747   1.2733 C.3            1 S1                 0.0000
     20 ****         3.1292  -1.5487   0.9249 C.3            1 S1                 0.0000
     21 ****        -3.2497   0.0130   0.8906 H              1 S1                 0.0000
     22 ****        -4.8437   0.7566   0.9457 H              1 S1                 0.0000
     23 ****        -3.4112   1.7040   1.3411 H              1 S1                 0.0000
     24 ****        -2.4894   0.3853  -4.5961 H              1 S1                 0.0000
     25 ****        -2.5274   2.1401  -4.7618 H              1 S1                 0.0000
     26 ****        -4.0127   1.2038  -4.9462 H              1 S1                 0.0000
     27 ****        -3.3622  -1.4737  -1.0776 H              1 S1                 0.0000
     28 ****        -3.2569  -1.4114  -2.8144 H              1 S1                 0.0000
     29 ****        -1.4505  -0.6412   0.1622 H              1 S1                 0.0000
     30 ****         0.8834  -1.9468  -0.3923 H              1 S1                 0.0000
     31 ****         1.1351  -0.3620  -1.1162 H              1 S1                 0.0000
     32 ****         0.4341  -0.9119   1.8015 H              1 S1                 0.0000
     33 ****        -0.6758   1.1984   0.9347 H              1 S1                 0.0000
     34 ****         0.9029   1.8155   0.4743 H              1 S1                 0.0000
     35 ****         0.4882   1.5598   2.1659 H              1 S1                 0.0000
     36 ****         2.2769   0.8827   3.1301 H              1 S1                 0.0000
     37 ****         2.2322  -0.8444   3.4134 H              1 S1                 0.0000
     38 ****         4.6823   0.8017   2.5521 H              1 S1                 0.0000
     39 ****         4.3985   0.1097   4.1377 H              1 S1                 0.0000
     40 ****         5.1180  -0.6789   0.7113 H              1 S1                 0.0000
     41 ****         5.1211  -2.4068   0.9998 H              1 S1                 0.0000
     42 ****         2.6786  -2.4267   1.3905 H              1 S1                 0.0000
     43 ****         3.0579  -1.6757  -0.1547 H              1 S1                 0.0000
     44 ****         2.8191   0.4396   0.8458 H              1 S1                 0.0000
     45 ****        -4.2260   3.3216  -0.5103 LP             1 S1                 0.0000
     46 ****        -3.0220   3.3098  -2.6990 LP             1 S1                 0.0000
     47 ****        -4.5847   2.9064  -2.9478 LP             1 S1                 0.0000
     48 ****        -1.1936  -1.4643  -3.6984 LP             1 S1                 0.0000
     49 ****         0.2628  -1.4181  -2.7621 LP             1 S1                 0.0000
     50 ****         4.3500  -2.0100   3.1642 LP             1 S1                 0.0000
     51 ****         5.7665  -1.2482   2.8817 LP             1 S1                 0.0000
@<TRIPOS>BOND
    1    1    2 1     
    2    1   21 1     
    3    1   22 1     
    4    1   23 1     
    5    2    7 1     
    6    2    3 2     
    7    3    4 1     
    8    4    5 1     
    9    5    6 1     
   10    5    7 2     
   11    6   24 1     
   12    6   25 1     
   13    6   26 1     
   14    7    8 1     
   15    8    9 1     
   16    8   27 1     
   17    8   28 1     
   18    9   10 2     
   19    9   11 am    
   20   11   12 1     
   21   11   29 1     
   22   12   13 1     
   23   12   30 1     
   24   12   31 1     
   25   13   14 1     
   26   13   15 1     
   27   13   32 1     
   28   14   33 1     
   29   14   34 1     
   30   14   35 1     
   31   15   20 1     
   32   15   16 1     
   33   15   44 1     
   34   16   17 1     
   35   16   36 1     
   36   16   37 1     
   37   17   18 1     
   38   17   38 1     
   39   17   39 1     
   40   18   19 1     
   41   19   20 1     
   42   19   40 1     
   43   19   41 1     
   44   20   42 1     
   45   20   43 1     
   46    3   45 1     
   47    4   46 1     
   48    4   47 1     
   49   10   48 1     
   50   10   49 1     
   51   18   50 1     
   52   18   51 1     
@<TRIPOS>SUBSTRUCTURE
      1 S1             1
@<TRIPOS>SET
LONE_PAIRS      STATIC     ATOMS    <user>   **** ""
7 45 46 47 48 49 50 51
DONOR_HYDROGENS      STATIC     ATOMS    <user>   **** ""
2 29 44
ATOM$BLUE        STATIC     ATOMS    COLORGROUP SYSTEM
7 45 46 47 48 49 50 51
ATOM$RED        STATIC     ATOMS    COLORGROUP SYSTEM
2 29 44
