AV-unprocessed.smi:1428|AV-procd|sdf|5815|dock3
  -GOLD-   22720 5473D 1   1.00000     0.00000
 Structure written by MMmdl.
 44 45  0  0  0  0  0  0  0  0  2 V2000
  151.5533  145.4047  159.1553 C   0  0  0  0  0  0  0  0  0  0  0  0
  151.0897  144.3320  158.3424 O   0  0  0  0  0  0  0  0  0  0  0  0
  151.5671  143.0597  158.5941 C   0  0  0  0  0  0  0  0  0  0  0  0
  152.5176  142.9037  159.5496 N   0  0  0  0  0  0  0  0  0  0  0  0
  152.9808  141.6616  159.7984 C   0  0  0  0  0  0  0  0  0  0  0  0
  152.5208  140.5178  159.1209 C   0  0  0  0  0  0  0  0  0  0  0  0
  151.5354  140.6767  158.1292 C   0  0  0  0  0  0  0  0  0  0  0  0
  151.0512  141.9767  157.8446 C   0  0  0  0  0  0  0  0  0  0  0  0
  150.0481  142.2503  156.8748 N   0  0  0  0  0  0  0  0  0  0  0  0
  149.4426  141.3958  156.0335 C   0  0  0  0  0  0  0  0  0  0  0  0
  149.6407  140.1824  155.9826 O   0  0  0  0  0  0  0  0  0  0  0  0
  148.5936  142.0405  155.2203 N   0  0  0  0  0  0  0  0  0  0  0  0
  147.7912  141.4172  154.1685 C   0  0  2  0  0  0  0  0  0  0  0  0
  146.9188  142.4488  153.4251 C   0  0  0  0  0  0  0  0  0  0  0  0
  145.7772  142.9789  154.3096 C   0  0  0  0  0  0  0  0  0  0  0  0
  144.9388  141.8640  154.8260 N   0  3  2  0  0  0  0  0  0  0  0  0
  143.7420  142.3321  155.5713 C   0  0  0  0  0  0  0  0  0  0  0  0
  142.7715  141.1984  155.9180 C   0  0  0  0  0  0  0  0  0  0  0  0
  142.2972  140.4783  154.8989 N   0  0  0  0  0  0  0  0  0  0  0  0
  142.4407  140.9837  157.0828 O   0  0  0  0  0  0  0  0  0  0  0  0
  145.7455  140.8891  155.6039 C   0  0  0  0  0  0  0  0  0  0  0  0
  146.8961  140.3130  154.7577 C   0  0  0  0  0  0  0  0  0  0  0  0
  151.0766  146.3311  158.8353 H   0  0  0  0  0  0  0  0  0  0  0  0
  152.6318  145.5385  159.0617 H   0  0  0  0  0  0  0  0  0  0  0  0
  151.3007  145.2486  160.2051 H   0  0  0  0  0  0  0  0  0  0  0  0
  153.7361  141.5763  160.5657 H   0  0  0  0  0  0  0  0  0  0  0  0
  152.9117  139.5399  159.3597 H   0  0  0  0  0  0  0  0  0  0  0  0
  151.1633  139.8013  157.6200 H   0  0  0  0  0  0  0  0  0  0  0  0
  149.8338  143.2284  156.7454 H   0  0  0  0  0  0  0  0  0  0  0  0
  148.4937  143.0379  155.3403 H   0  0  0  0  0  0  0  0  0  0  0  0
  148.4756  140.9542  153.4551 H   0  0  0  0  0  0  0  0  0  0  0  0
  147.5261  143.2784  153.0619 H   0  0  0  0  0  0  0  0  0  0  0  0
  146.4917  141.9806  152.5372 H   0  0  0  0  0  0  0  0  0  0  0  0
  146.1811  143.5517  155.1457 H   0  0  0  0  0  0  0  0  0  0  0  0
  145.1674  143.6682  153.7251 H   0  0  0  0  0  0  0  0  0  0  0  0
  144.0505  142.7765  156.5187 H   0  0  0  0  0  0  0  0  0  0  0  0
  143.2327  143.1164  155.0083 H   0  0  0  0  0  0  0  0  0  0  0  0
  141.6565  139.7163  155.0692 H   0  0  0  0  0  0  0  0  0  0  0  0
  142.5843  140.6962  153.9551 H   0  0  0  0  0  0  0  0  0  0  0  0
  146.1362  141.3720  156.5010 H   0  0  0  0  0  0  0  0  0  0  0  0
  145.1083  140.0700  155.9395 H   0  0  0  0  0  0  0  0  0  0  0  0
  146.4753  139.7227  153.9425 H   0  0  0  0  0  0  0  0  0  0  0  0
  147.4915  139.6212  155.3549 H   0  0  0  0  0  0  0  0  0  0  0  0
  144.5875  141.3638  154.0214 H   0  0  0  0  0  0  0  0  0  0  0  0
  1  2  1  0  0  0  0
  1 23  1  0  0  0  0
  1 24  1  0  0  0  0
  1 25  1  0  0  0  0
  2  3  1  0  0  0  0
  3  8  1  0  0  0  0
  3  4  2  0  0  0  0
  4  5  1  0  0  0  0
  5  6  2  0  0  0  0
  5 26  1  0  0  0  0
  6  7  1  0  0  0  0
  6 27  1  0  0  0  0
  7  8  2  0  0  0  0
  7 28  1  0  0  0  0
  8  9  1  0  0  0  0
  9 10  1  0  0  0  0
  9 29  1  0  0  0  0
 10 11  2  0  0  0  0
 10 12  1  0  0  0  0
 12 13  1  0  0  0  0
 12 30  1  0  0  0  0
 13 22  1  0  0  0  0
 13 14  1  0  0  0  0
 13 31  1  0  0  0  0
 14 15  1  0  0  0  0
 14 32  1  0  0  0  0
 14 33  1  0  0  0  0
 15 16  1  0  0  0  0
 15 34  1  0  0  0  0
 15 35  1  0  0  0  0
 16 17  1  0  0  0  0
 16 21  1  0  0  0  0
 16 44  1  0  0  0  0
 17 18  1  0  0  0  0
 17 36  1  0  0  0  0
 17 37  1  0  0  0  0
 18 19  1  0  0  0  0
 18 20  2  0  0  0  0
 19 38  1  0  0  0  0
 19 39  1  0  0  0  0
 21 22  1  0  0  0  0
 21 40  1  0  0  0  0
 21 41  1  0  0  0  0
 22 42  1  0  0  0  0
 22 43  1  0  0  0  0
M  CHG  1  16   1
M  END
> <s_m_source_file>
AV-unprocessed.smi

> <i_m_source_file_index>
1428

> <i_lp_mmshare_version>
43012

> <i_f3d_flags>
0

> <s_epik_input>
W0NIM11PYzFuW2NIXVtjSF1bY0hdYzFbTkhdQyg9TylbTkhdW0NIXTJbQ0gyXVtDSDJdTihbQ0gyXVtDSDJdMilbQ0gyXUMoPU8pW05IMl0=

> <s_epik_cmdline>
J2VwaWtfcHl0aG9uJywgJy1waCcsICc3LjAnLCAnLXRuJywgJzgnLCAnLW1hJywgJzIwMCcsICctbWV0YWxfYmluZGluZycsICctaW1hZScsICc8aW5maWxlLm1hZT4nLCAnLW9tYWUnLCAnPG91dGZpbGUubWFlPic=

> <r_lp_tautomer_probability>
1

> <r_epik_Ionization_Penalty>
0.838963

> <r_epik_Ionization_Penalty_Charging>
0.838844

> <r_epik_Ionization_Penalty_Neutral>
0.000119189

> <r_epik_State_Penalty>
0.8734

> <r_epik_Charging_Adjusted_Penalty>
1.71224

> <i_epik_Tot_Q>
1

> <i_epik_Tot_abs_Q>
1

> <r_epik_Metal_State_Penalty>
0.890706

> <b_epik_Metal_Only>
0

> <s_lp_Force_Field>
OPLS_2005

> <r_lp_Energy>
14.3057

> <b_lp_Chiralities_Consistent>
1

> <s_lp_Variant>
AV-unprocessed.smi:1428-3

> <Gold.Version>
5.8.1

> <Gold.Id.Protein>
6NUR|6NUR_protein|mol2

> <Gold.PLP.Fitness>
49.1328

> <Gold.PLP.PLP>
-34.3416

> <Gold.PLP.part.hbond>
-4.0000

> <Gold.PLP.part.metal>
0.0000

> <Gold.PLP.part.buried>
-8.1948

> <Gold.PLP.part.nonpolar>
-23.7860

> <Gold.PLP.part.repulsive>
0.3898

> <Gold.PLP.ligand.clash>
0.0000

> <Gold.PLP.ligand.torsion>
0.0498

> <Gold.PLP.Chemscore.Hbond>
4.9516

> <Gold.PLP.Chemscore.CHOScore>
0.0000

> <Gold.PLP.Chemscore.Metal>
0.0000

> <Gold.Chemscore.Hbonds>
donor molecule, donor type, donor heavy atom, donor atom, acceptor molecule, acceptor atom, score
      L1  H     9    29       P1  8028  0.89
      L1  H    12    30       P1  8028  1.00
      L1  H    16    44       P1 10175  2.00
      L1  H    19    39       P1 10175  1.00

> <Gold.PLP.Chemscore.Internal.Correction>
0.0361

> <Gold.Rescore>
     Score         DG    S(hbond)    S(metal)    S(lipo)     H(rot)  DE(clash)    DE(int)     intcor
     17.23     -20.49       3.85        0.00      69.21       2.33       0.83       2.43       ----

> <Gold.Chemscore.Fitness>
17.2322

> <Gold.Chemscore.DG>
-20.4887

> <Gold.Chemscore.ZeroCoef>
-5.4800

> <Gold.Chemscore.Hbond>
3.8527

> <Gold.Chemscore.Metal>
0.0000

> <Gold.Chemscore.Lipo>
69.2122

> <Gold.Chemscore.Internal_Hbond>
0.0000

> <Gold.Chemscore.DEClash>
0.8301

> <Gold.Chemscore.DEInternal>
2.4264

> <Gold.Chemscore.Rot>
2.3271

> <Gold.Chemscore.Internal.Correction>
   9.000000E+99

> <Gold.Chemscore.Hbonds>
donor molecule, donor type, donor heavy atom, donor atom, acceptor molecule, acceptor atom, score
      L1  H     9    29       P1  8028  0.82
      L1  H    12    30       P1  8028  1.00
      L1  H    16    44       P1 10175  0.39
      L1  H    19    39       P1 10175  0.49

> <Gold.Chemscore.Hbond.Weighted>
-12.8682

> <Gold.Chemscore.Metal.Weighted>
-0.0000

> <Gold.Chemscore.Lipo.Weighted>
-8.0978

> <Gold.Chemscore.Internal_Hbond.Weighted>
0.0000

> <Gold.Chemscore.DEClash.Weighted>
0.8301

> <Gold.Chemscore.DEInternal.Weighted>
2.4264

> <Gold.Chemscore.Rot.Weighted>
5.9573

> <Gold.Chemscore.Internal.Correction.Weighted>
   9.000000E+99

> <Gold.Protein.RotatedTorsions>
[ 6907 6896 6895 6894 ] final  117.30 input  -60.11 | X-H torsion
[ 7974 7965 7964 7962 ] final   99.50 input  175.53 | X-H torsion
[ 8008 7997 7996 7995 ] final -102.09 input   59.86 | X-H torsion
[ 10167 10162 10161 10158 ] final -118.47 input  -65.29 | X-H torsion
[ 10718 10713 10712 10709 ] final   83.92 input   66.30 | X-H torsion
[ 10763 10752 10751 10750 ] final -118.20 input  -60.55 | X-H torsion
[ 11005 11000 10999 10996 ] final   17.76 input  -57.11 | X-H torsion

> <Gold.Protein.ActiveResidues>
 VAL166  LYS551  ARG553  GLY616  TRP617  ASP618  TYR619  PRO620  LYS621  CYS622 
 ASP623  PHE694  ASN695  SER759  ASP760  ASP761  ALA762  ILE779  LEU786  VAL792 
 PHE793  MET794  SER795  GLU796  ALA797  LYS798  CYS799  TRP800  GLU811  SER814 

> <Gold.Protein.RotatedAtoms>
  152.4621  133.7844  159.6867 H   0  0  0  0  0  0  0  0  0  0  0  0  # atno 6907 bound_to 6896
  150.8569  133.7692  159.3012 H   0  0  0  0  0  0  0  0  0  0  0  0  # atno 6908 bound_to 6896
  151.5270  135.1071  159.9945 H   0  0  0  0  0  0  0  0  0  0  0  0  # atno 6909 bound_to 6896
  145.3980  139.2352  143.3315 H   0  0  0  0  0  0  0  0  0  0  0  0  # atno 7974 bound_to 7965
  154.8517  140.0430  157.1608 H   0  0  0  0  0  0  0  0  0  0  0  0  # atno 8008 bound_to 7997
  154.8935  140.2990  155.5336 H   0  0  0  0  0  0  0  0  0  0  0  0  # atno 8009 bound_to 7997
  156.2996  140.2389  156.3954 H   0  0  0  0  0  0  0  0  0  0  0  0  # atno 8010 bound_to 7997
  140.0572  143.5003  152.2051 H   0  0  0  0  0  0  0  0  0  0  0  0  # atno 10167 bound_to 10162
  157.6888  131.0111  150.2595 H   0  0  0  0  0  0  0  0  0  0  0  0  # atno 10718 bound_to 10713
  154.8580  135.4282  154.2101 H   0  0  0  0  0  0  0  0  0  0  0  0  # atno 10763 bound_to 10752
  153.3129  135.6977  153.7105 H   0  0  0  0  0  0  0  0  0  0  0  0  # atno 10764 bound_to 10752
  153.6191  135.3505  155.2978 H   0  0  0  0  0  0  0  0  0  0  0  0  # atno 10765 bound_to 10752
  140.4324  134.1406  155.7682 H   0  0  0  0  0  0  0  0  0  0  0  0  # atno 11005 bound_to 11000
  146.2766  140.4673  142.8793 LP  0  0  0  0  0  0  0  0  0  0  0  0  # atno 17320 bound_to 7965
  144.8394  140.6833  143.6239 LP  0  0  0  0  0  0  0  0  0  0  0  0  # atno 17321 bound_to 7965
  139.5916  144.7552  151.3386 LP  0  0  0  0  0  0  0  0  0  0  0  0  # atno 17342 bound_to 10162
  140.7189  143.7190  150.7710 LP  0  0  0  0  0  0  0  0  0  0  0  0  # atno 17343 bound_to 10162
  156.3177  130.3781  149.7603 LP  0  0  0  0  0  0  0  0  0  0  0  0  # atno 17370 bound_to 10713
  156.5183  130.8203  151.3194 LP  0  0  0  0  0  0  0  0  0  0  0  0  # atno 17371 bound_to 10713
  141.1740  133.8552  157.1481 LP  0  0  0  0  0  0  0  0  0  0  0  0  # atno 17394 bound_to 11000
  140.0125  134.9982  157.0425 LP  0  0  0  0  0  0  0  0  0  0  0  0  # atno 17395 bound_to 11000

$$$$
