AV-unprocessed.smi:2822|AV-procd|sdf|10864|dock6
  -GOLD-   2272015313D 1   1.00000     0.00000
 Structure written by MMmdl.
 41 43  0  0  0  0  0  0  0  0  3 V2000
  150.3324  138.6036  154.0333 Cl  0  0  0  0  0  0  0  0  0  0  0  0
  149.1504  139.8581  154.1700 C   0  0  0  0  0  0  0  0  0  0  0  0
  149.4266  140.9795  154.9794 C   0  0  0  0  0  0  0  0  0  0  0  0
  148.5144  141.9671  155.0998 N   0  3  0  0  0  0  0  0  0  0  0  0
  147.3218  141.9386  154.4687 C   0  0  0  0  0  0  0  0  0  0  0  0
  146.9883  140.8444  153.6446 C   0  0  0  0  0  0  0  0  0  0  0  0
  147.9111  139.7798  153.4873 C   0  0  0  0  0  0  0  0  0  0  0  0
  147.6381  138.6632  152.6816 N   0  0  0  0  0  0  0  0  0  0  0  0
  146.2763  138.3522  152.2730 C   0  0  0  0  0  0  0  0  0  0  0  0
  145.8409  136.9628  152.7613 C   0  0  2  0  0  0  0  0  0  0  0  0
  146.5270  135.8402  151.9615 C   0  0  0  0  0  0  0  0  0  0  0  0
  146.0266  134.5110  152.3921 N   0  3  2  0  0  0  0  0  0  0  0  0
  146.6850  133.3686  151.7061 C   0  0  0  0  0  0  0  0  0  0  0  0
  146.1864  133.1915  150.2591 C   0  0  0  0  0  0  0  0  0  0  0  0
  144.6570  133.0744  150.2126 C   0  0  0  0  0  0  0  0  0  0  0  0
  144.0070  134.2723  150.9192 C   0  0  0  0  0  0  0  0  0  0  0  0
  144.5403  134.4242  152.3610 C   0  0  2  0  0  0  0  0  0  0  0  0
  143.9208  135.6266  153.1000 C   0  0  0  0  0  0  0  0  0  0  0  0
  144.4338  136.8462  152.5771 O   0  0  0  0  0  0  0  0  0  0  0  0
  150.3453  141.1144  155.5314 H   0  0  0  0  0  0  0  0  0  0  0  0
  146.6740  142.7862  154.6393 H   0  0  0  0  0  0  0  0  0  0  0  0
  146.0311  140.8423  153.1452 H   0  0  0  0  0  0  0  0  0  0  0  0
  148.3382  137.9387  152.6027 H   0  0  0  0  0  0  0  0  0  0  0  0
  145.5921  139.1136  152.6505 H   0  0  0  0  0  0  0  0  0  0  0  0
  146.2292  138.3828  151.1836 H   0  0  0  0  0  0  0  0  0  0  0  0
  146.0876  136.8600  153.8202 H   0  0  0  0  0  0  0  0  0  0  0  0
  146.3518  135.9857  150.8955 H   0  0  0  0  0  0  0  0  0  0  0  0
  147.6063  135.8843  152.1120 H   0  0  0  0  0  0  0  0  0  0  0  0
  147.7680  133.4961  151.7246 H   0  0  0  0  0  0  0  0  0  0  0  0
  146.4744  132.4617  152.2742 H   0  0  0  0  0  0  0  0  0  0  0  0
  146.5103  134.0307  149.6431 H   0  0  0  0  0  0  0  0  0  0  0  0
  146.6380  132.3015  149.8196 H   0  0  0  0  0  0  0  0  0  0  0  0
  144.3148  133.0151  149.1790 H   0  0  0  0  0  0  0  0  0  0  0  0
  144.3447  132.1484  150.6973 H   0  0  0  0  0  0  0  0  0  0  0  0
  144.1916  135.1813  150.3457 H   0  0  0  0  0  0  0  0  0  0  0  0
  142.9248  134.1399  150.9355 H   0  0  0  0  0  0  0  0  0  0  0  0
  144.2602  133.5231  152.9087 H   0  0  0  0  0  0  0  0  0  0  0  0
  142.8359  135.6211  152.9936 H   0  0  0  0  0  0  0  0  0  0  0  0
  144.1293  135.5694  154.1695 H   0  0  0  0  0  0  0  0  0  0  0  0
  146.2871  134.4346  153.3650 H   0  0  0  0  0  0  0  0  0  0  0  0
  148.7363  142.7686  155.6912 H   0  0  0  0  0  0  0  0  0  0  0  0
  1  2  1  0  0  0  0
  2  7  1  0  0  0  0
  2  3  2  0  0  0  0
  3  4  1  0  0  0  0
  3 20  1  0  0  0  0
  4  5  2  0  0  0  0
  4 41  1  0  0  0  0
  5  6  1  0  0  0  0
  5 21  1  0  0  0  0
  6  7  2  0  0  0  0
  6 22  1  0  0  0  0
  7  8  1  0  0  0  0
  8  9  1  0  0  0  0
  8 23  1  0  0  0  0
  9 10  1  0  0  0  0
  9 24  1  0  0  0  0
  9 25  1  0  0  0  0
 10 19  1  0  0  0  0
 10 11  1  0  0  0  0
 10 26  1  0  0  0  0
 11 12  1  0  0  0  0
 11 27  1  0  0  0  0
 11 28  1  0  0  0  0
 12 17  1  0  0  0  0
 12 13  1  0  0  0  0
 12 40  1  0  0  0  0
 13 14  1  0  0  0  0
 13 29  1  0  0  0  0
 13 30  1  0  0  0  0
 14 15  1  0  0  0  0
 14 31  1  0  0  0  0
 14 32  1  0  0  0  0
 15 16  1  0  0  0  0
 15 33  1  0  0  0  0
 15 34  1  0  0  0  0
 16 17  1  0  0  0  0
 16 35  1  0  0  0  0
 16 36  1  0  0  0  0
 17 18  1  0  0  0  0
 17 37  1  0  0  0  0
 18 19  1  0  0  0  0
 18 38  1  0  0  0  0
 18 39  1  0  0  0  0
M  CHG  1   4   1
M  CHG  1  12   1
M  END
> <s_m_source_file>
AV-unprocessed.smi

> <i_m_source_file_index>
2822

> <i_lp_mmshare_version>
43012

> <i_f3d_flags>
0

> <s_epik_input>
Q2xjMVtjSF1uW2NIXVtjSF1jMVtOSF1bQ0gyXVtDQEhdKFtDSDJdMilPW0NIMl1bQ0BASF0oTjIzKVtDSDJdW0NIMl1bQ0gyXVtDSDJdMw==

> <s_epik_cmdline>
J2VwaWtfcHl0aG9uJywgJy1waCcsICc3LjAnLCAnLXRuJywgJzgnLCAnLW1hJywgJzIwMCcsICctbWV0YWxfYmluZGluZycsICctaW1hZScsICc8aW5maWxlLm1hZT4nLCAnLW9tYWUnLCAnPG91dGZpbGUubWFlPic=

> <r_lp_tautomer_probability>
1

> <r_epik_Ionization_Penalty>
0.254999

> <r_epik_Ionization_Penalty_Charging>
0.254956

> <r_epik_Ionization_Penalty_Neutral>
4.33524e-05

> <r_epik_State_Penalty>
0.230978

> <r_epik_Charging_Adjusted_Penalty>
0.485934

> <i_epik_Tot_Q>
2

> <i_epik_Tot_abs_Q>
2

> <r_epik_Metal_State_Penalty>
3.47007

> <b_epik_Metal_Only>
0

> <s_lp_Force_Field>
OPLS_2005

> <r_lp_Energy>
39.695

> <b_lp_Chiralities_Consistent>
1

> <s_lp_Variant>
AV-unprocessed.smi:2822-5

> <Gold.Version>
5.8.1

> <Gold.Id.Protein>
6NUR|6NUR_protein|mol2

> <Gold.PLP.Fitness>
41.2509

> <Gold.PLP.PLP>
-32.7087

> <Gold.PLP.part.hbond>
-3.0000

> <Gold.PLP.part.metal>
0.0000

> <Gold.PLP.part.buried>
2.2551

> <Gold.PLP.part.nonpolar>
-33.5237

> <Gold.PLP.part.repulsive>
0.7492

> <Gold.PLP.ligand.clash>
0.0000

> <Gold.PLP.ligand.torsion>
0.1452

> <Gold.PLP.Chemscore.Hbond>
2.9440

> <Gold.PLP.Chemscore.CHOScore>
0.0000

> <Gold.PLP.Chemscore.Metal>
0.0000

> <Gold.Chemscore.Hbonds>
donor molecule, donor type, donor heavy atom, donor atom, acceptor molecule, acceptor atom, score
      L1  H     4    41       P1  8028  1.66
      L1  H     8    23       P1  7948  1.00

> <Gold.PLP.Chemscore.Internal.Correction>
0.0006

> <Gold.Rescore>
     Score         DG    S(hbond)    S(metal)    S(lipo)     H(rot)  DE(clash)    DE(int)     intcor
     16.83     -19.90       1.90        0.00      95.00       1.20       2.89       0.17       ----

> <Gold.Chemscore.Fitness>
16.8323

> <Gold.Chemscore.DG>
-19.8954

> <Gold.Chemscore.ZeroCoef>
-5.4800

> <Gold.Chemscore.Hbond>
1.9049

> <Gold.Chemscore.Metal>
0.0000

> <Gold.Chemscore.Lipo>
95.0035

> <Gold.Chemscore.Internal_Hbond>
0.0000

> <Gold.Chemscore.DEClash>
2.8913

> <Gold.Chemscore.DEInternal>
0.1718

> <Gold.Chemscore.Rot>
1.1962

> <Gold.Chemscore.Internal.Correction>
   9.000000E+99

> <Gold.Chemscore.Hbonds>
donor molecule, donor type, donor heavy atom, donor atom, acceptor molecule, acceptor atom, score
      L1  H     4    41       P1  8028  0.82
      L1  H     8    23       P1  7948  0.95

> <Gold.Chemscore.Hbond.Weighted>
-6.3623

> <Gold.Chemscore.Metal.Weighted>
-0.0000

> <Gold.Chemscore.Lipo.Weighted>
-11.1154

> <Gold.Chemscore.Internal_Hbond.Weighted>
0.0000

> <Gold.Chemscore.DEClash.Weighted>
2.8913

> <Gold.Chemscore.DEInternal.Weighted>
0.1718

> <Gold.Chemscore.Rot.Weighted>
3.0623

> <Gold.Chemscore.Internal.Correction.Weighted>
   9.000000E+99

> <Gold.Protein.RotatedTorsions>
[ 6907 6896 6895 6894 ] final  176.52 input  -60.11 | X-H torsion
[ 7974 7965 7964 7962 ] final  -79.60 input  175.53 | X-H torsion
[ 8008 7997 7996 7995 ] final  -83.31 input   59.86 | X-H torsion
[ 10167 10162 10161 10158 ] final  123.07 input  -65.29 | X-H torsion
[ 10718 10713 10712 10709 ] final  124.77 input   66.30 | X-H torsion
[ 10763 10752 10751 10750 ] final -155.11 input  -60.55 | X-H torsion
[ 11005 11000 10999 10996 ] final  125.64 input  -57.11 | X-H torsion

> <Gold.Protein.ActiveResidues>
 VAL166  LYS551  ARG553  GLY616  TRP617  ASP618  TYR619  PRO620  LYS621  CYS622 
 ASP623  PHE694  ASN695  SER759  ASP760  ASP761  ALA762  ILE779  LEU786  VAL792 
 PHE793  MET794  SER795  GLU796  ALA797  LYS798  CYS799  TRP800  GLU811  SER814 

> <Gold.Protein.RotatedAtoms>
  151.7188  133.3314  159.3309 H   0  0  0  0  0  0  0  0  0  0  0  0  # atno 6907 bound_to 6896
  150.7661  134.6466  159.6275 H   0  0  0  0  0  0  0  0  0  0  0  0  # atno 6908 bound_to 6896
  152.3665  134.6799  160.0242 H   0  0  0  0  0  0  0  0  0  0  0  0  # atno 6909 bound_to 6896
  145.5711  140.9466  143.1395 H   0  0  0  0  0  0  0  0  0  0  0  0  # atno 7974 bound_to 7965
  154.6177  140.0620  156.9576 H   0  0  0  0  0  0  0  0  0  0  0  0  # atno 8008 bound_to 7997
  155.1868  140.3304  155.4347 H   0  0  0  0  0  0  0  0  0  0  0  0  # atno 8009 bound_to 7997
  156.2414  140.1888  156.6961 H   0  0  0  0  0  0  0  0  0  0  0  0  # atno 8010 bound_to 7997
  139.5821  144.6990  151.3502 H   0  0  0  0  0  0  0  0  0  0  0  0  # atno 10167 bound_to 10162
  157.5558  131.1092  150.8624 H   0  0  0  0  0  0  0  0  0  0  0  0  # atno 10718 bound_to 10713
  154.7811  135.3175  154.7988 H   0  0  0  0  0  0  0  0  0  0  0  0  # atno 10763 bound_to 10752
  153.8699  135.6845  153.4779 H   0  0  0  0  0  0  0  0  0  0  0  0  # atno 10764 bound_to 10752
  153.1448  135.4724  154.9487 H   0  0  0  0  0  0  0  0  0  0  0  0  # atno 10765 bound_to 10752
  139.9416  134.9635  156.8589 H   0  0  0  0  0  0  0  0  0  0  0  0  # atno 11005 bound_to 11000
  144.7437  139.7377  143.7300 LP  0  0  0  0  0  0  0  0  0  0  0  0  # atno 17320 bound_to 7965
  146.1784  139.4965  142.9882 LP  0  0  0  0  0  0  0  0  0  0  0  0  # atno 17321 bound_to 7965
  140.7098  143.7421  150.7546 LP  0  0  0  0  0  0  0  0  0  0  0  0  # atno 17342 bound_to 10162
  140.0956  143.4836  152.2454 LP  0  0  0  0  0  0  0  0  0  0  0  0  # atno 17343 bound_to 10162
  156.9136  130.5289  149.5280 LP  0  0  0  0  0  0  0  0  0  0  0  0  # atno 17370 bound_to 10713
  156.0617  130.5668  150.9206 LP  0  0  0  0  0  0  0  0  0  0  0  0  # atno 17371 bound_to 10713
  140.5936  134.0238  155.7509 LP  0  0  0  0  0  0  0  0  0  0  0  0  # atno 17394 bound_to 11000
  141.1053  133.9703  157.3008 LP  0  0  0  0  0  0  0  0  0  0  0  0  # atno 17395 bound_to 11000

$$$$
