AV-unprocessed.smi:730|AV-procd|sdf|3523|dock9
  -GOLD-   22720 0513D 1   1.00000     0.00000
 Structure written by MMmdl.
 40 41  0  0  0  0  0  0  0  0  1 V2000
  148.9317  124.5952  152.2873 C   0  0  0  0  0  0  0  0  0  0  0  0
  148.6659  125.4645  151.0417 C   0  0  0  0  0  0  0  0  0  0  0  0
  150.0118  125.7379  150.3443 C   0  0  0  0  0  0  0  0  0  0  0  0
  147.7505  124.6765  150.0864 C   0  0  0  0  0  0  0  0  0  0  0  0
  148.0133  126.7631  151.4255 C   0  0  0  0  0  0  0  0  0  0  0  0
  147.6458  127.8771  150.7203 C   0  0  0  0  0  0  0  0  0  0  0  0
  147.0773  128.7182  151.7129 C   0  0  0  0  0  0  0  0  0  0  0  0
  146.5610  129.9948  151.3751 N   0  0  0  0  0  0  0  0  0  0  0  0
  146.1790  130.9720  152.2144 C   0  0  0  0  0  0  0  0  0  0  0  0
  146.2210  130.9103  153.4435 O   0  0  0  0  0  0  0  0  0  0  0  0
  145.7245  132.0396  151.5426 N   0  0  0  0  0  0  0  0  0  0  0  0
  145.2134  133.2659  152.1574 C   0  0  1  0  0  0  0  0  0  0  0  0
  146.1240  134.4552  151.8022 C   0  0  0  0  0  0  0  0  0  0  0  0
  145.3405  135.2953  150.7953 C   0  0  0  0  0  0  0  0  0  0  0  0
  143.8862  135.1212  151.2222 C   0  0  0  0  0  0  0  0  0  0  0  0
  143.7857  133.6626  151.6866 C   0  0  1  0  0  0  0  0  0  0  0  0
  143.3099  132.8737  150.6096 O   0  0  0  0  0  0  0  0  0  0  0  0
  147.0970  128.1742  152.9190 N   0  0  0  0  0  0  0  0  0  0  0  0
  147.6958  126.9221  152.7416 O   0  0  0  0  0  0  0  0  0  0  0  0
  149.4033  123.6491  152.0194 H   0  0  0  0  0  0  0  0  0  0  0  0
  148.0061  124.3599  152.8144 H   0  0  0  0  0  0  0  0  0  0  0  0
  149.5930  125.1010  152.9920 H   0  0  0  0  0  0  0  0  0  0  0  0
  150.6892  126.2917  150.9955 H   0  0  0  0  0  0  0  0  0  0  0  0
  149.8793  126.3249  149.4347 H   0  0  0  0  0  0  0  0  0  0  0  0
  150.5113  124.8101  150.0631 H   0  0  0  0  0  0  0  0  0  0  0  0
  148.1993  123.7247  149.7994 H   0  0  0  0  0  0  0  0  0  0  0  0
  147.5543  125.2339  149.1698 H   0  0  0  0  0  0  0  0  0  0  0  0
  146.7877  124.4594  150.5504 H   0  0  0  0  0  0  0  0  0  0  0  0
  147.7623  128.0588  149.6623 H   0  0  0  0  0  0  0  0  0  0  0  0
  146.4613  130.1797  150.3880 H   0  0  0  0  0  0  0  0  0  0  0  0
  145.7174  132.0019  150.5339 H   0  0  0  0  0  0  0  0  0  0  0  0
  145.2214  133.1480  153.2428 H   0  0  0  0  0  0  0  0  0  0  0  0
  146.3032  135.0503  152.6988 H   0  0  0  0  0  0  0  0  0  0  0  0
  147.1001  134.1561  151.4176 H   0  0  0  0  0  0  0  0  0  0  0  0
  145.6543  136.3395  150.7841 H   0  0  0  0  0  0  0  0  0  0  0  0
  145.4800  134.8930  149.7909 H   0  0  0  0  0  0  0  0  0  0  0  0
  143.6820  135.7827  152.0653 H   0  0  0  0  0  0  0  0  0  0  0  0
  143.1788  135.3766  150.4318 H   0  0  0  0  0  0  0  0  0  0  0  0
  143.0688  133.5697  152.5033 H   0  0  0  0  0  0  0  0  0  0  0  0
  142.6900  133.3886  150.1156 H   0  0  0  0  0  0  0  0  0  0  0  0
  1  2  1  0  0  0  0
  1 20  1  0  0  0  0
  1 21  1  0  0  0  0
  1 22  1  0  0  0  0
  2  3  1  0  0  0  0
  2  4  1  0  0  0  0
  2  5  1  0  0  0  0
  3 23  1  0  0  0  0
  3 24  1  0  0  0  0
  3 25  1  0  0  0  0
  4 26  1  0  0  0  0
  4 27  1  0  0  0  0
  4 28  1  0  0  0  0
  5 19  1  0  0  0  0
  5  6  2  0  0  0  0
  6  7  1  0  0  0  0
  6 29  1  0  0  0  0
  7  8  1  0  0  0  0
  7 18  2  0  0  0  0
  8  9  1  0  0  0  0
  8 30  1  0  0  0  0
  9 10  2  0  0  0  0
  9 11  1  0  0  0  0
 11 12  1  0  0  0  0
 11 31  1  0  0  0  0
 12 16  1  0  0  0  0
 12 13  1  0  0  0  0
 12 32  1  0  0  0  0
 13 14  1  0  0  0  0
 13 33  1  0  0  0  0
 13 34  1  0  0  0  0
 14 15  1  0  0  0  0
 14 35  1  0  0  0  0
 14 36  1  0  0  0  0
 15 16  1  0  0  0  0
 15 37  1  0  0  0  0
 15 38  1  0  0  0  0
 16 17  1  0  0  0  0
 16 39  1  0  0  0  0
 17 40  1  0  0  0  0
 18 19  1  0  0  0  0
M  END
> <s_m_source_file>
AV-unprocessed.smi

> <i_m_source_file_index>
730

> <i_lp_mmshare_version>
43012

> <i_f3d_flags>
0

> <s_epik_input>
W0NIM11DKFtDSDNdKShbQ0gzXSljMVtjSF1jKG5vMSlbTkhdQyg9TylbTkhdW0NAQEhdMltDSDJdW0NIMl1bQ0gyXVtDQEhdMltPSF0=

> <s_epik_cmdline>
J2VwaWtfcHl0aG9uJywgJy1waCcsICc3LjAnLCAnLXRuJywgJzgnLCAnLW1hJywgJzIwMCcsICctbWV0YWxfYmluZGluZycsICctaW1hZScsICc8aW5maWxlLm1hZT4nLCAnLW9tYWUnLCAnPG91dGZpbGUubWFlPic=

> <r_lp_tautomer_probability>
1

> <r_epik_Ionization_Penalty>
2.23071e-05

> <r_epik_Ionization_Penalty_Charging>
0

> <r_epik_Ionization_Penalty_Neutral>
2.23071e-05

> <r_epik_State_Penalty>
-0

> <r_epik_Charging_Adjusted_Penalty>
0

> <i_epik_Tot_Q>
0

> <i_epik_Tot_abs_Q>
0

> <r_epik_Metal_State_Penalty>
-0

> <b_epik_Metal_Only>
0

> <s_lp_Force_Field>
OPLS_2005

> <r_lp_Energy>
21.0344

> <b_lp_Chiralities_Consistent>
1

> <s_lp_Variant>
AV-unprocessed.smi:730-2

> <Gold.Version>
5.8.1

> <Gold.Id.Protein>
6NUR|6NUR_protein|mol2

> <Gold.PLP.Fitness>
39.0935

> <Gold.PLP.PLP>
-36.2831

> <Gold.PLP.part.hbond>
-2.0000

> <Gold.PLP.part.metal>
0.0000

> <Gold.PLP.part.buried>
-5.4348

> <Gold.PLP.part.nonpolar>
-28.9283

> <Gold.PLP.part.repulsive>
0.3673

> <Gold.PLP.ligand.clash>
0.0000

> <Gold.PLP.ligand.torsion>
0.0954

> <Gold.PLP.Chemscore.Hbond>
1.0000

> <Gold.PLP.Chemscore.CHOScore>
0.0000

> <Gold.PLP.Chemscore.Metal>
0.0000

> <Gold.Chemscore.Hbonds>
donor molecule, donor type, donor heavy atom, donor atom, acceptor molecule, acceptor atom, score
      L1  H    17    40       P1 10186  0.94

> <Gold.PLP.Chemscore.Internal.Correction>
0.0011

> <Gold.Rescore>
     Score         DG    S(hbond)    S(metal)    S(lipo)     H(rot)  DE(clash)    DE(int)     intcor
     11.46     -12.77       1.00        0.00      71.32       1.71       0.04       1.28       ----

> <Gold.Chemscore.Fitness>
11.4571

> <Gold.Chemscore.DG>
-12.7744

> <Gold.Chemscore.ZeroCoef>
-5.4800

> <Gold.Chemscore.Hbond>
0.9983

> <Gold.Chemscore.Metal>
0.0000

> <Gold.Chemscore.Lipo>
71.3182

> <Gold.Chemscore.Internal_Hbond>
0.0000

> <Gold.Chemscore.DEClash>
0.0383

> <Gold.Chemscore.DEInternal>
1.2790

> <Gold.Chemscore.Rot>
1.7125

> <Gold.Chemscore.Internal.Correction>
   9.000000E+99

> <Gold.Chemscore.Hbonds>
donor molecule, donor type, donor heavy atom, donor atom, acceptor molecule, acceptor atom, score
      L1  H    17    40       P1 10186  0.90

> <Gold.Chemscore.Hbond.Weighted>
-3.3342

> <Gold.Chemscore.Metal.Weighted>
-0.0000

> <Gold.Chemscore.Lipo.Weighted>
-8.3442

> <Gold.Chemscore.Internal_Hbond.Weighted>
0.0000

> <Gold.Chemscore.DEClash.Weighted>
0.0383

> <Gold.Chemscore.DEInternal.Weighted>
1.2790

> <Gold.Chemscore.Rot.Weighted>
4.3841

> <Gold.Chemscore.Internal.Correction.Weighted>
   9.000000E+99

> <Gold.Protein.RotatedTorsions>
[ 6907 6896 6895 6894 ] final   51.56 input  -60.11 | X-H torsion
[ 7974 7965 7964 7962 ] final  129.20 input  175.53 | X-H torsion
[ 8008 7997 7996 7995 ] final  -47.42 input   59.86 | X-H torsion
[ 10167 10162 10161 10158 ] final  144.66 input  -65.29 | X-H torsion
[ 10718 10713 10712 10709 ] final  -49.14 input   66.30 | X-H torsion
[ 10763 10752 10751 10750 ] final   22.43 input  -60.55 | X-H torsion
[ 11005 11000 10999 10996 ] final  -64.52 input  -57.11 | X-H torsion

> <Gold.Protein.ActiveResidues>
 VAL166  LYS551  ARG553  GLY616  TRP617  ASP618  TYR619  PRO620  LYS621  CYS622 
 ASP623  PHE694  ASN695  SER759  ASP760  ASP761  ALA762  ILE779  LEU786  VAL792 
 PHE793  MET794  SER795  GLU796  ALA797  LYS798  CYS799  TRP800  GLU811  SER814 

> <Gold.Protein.RotatedAtoms>
  152.3140  134.7463  160.0329 H   0  0  0  0  0  0  0  0  0  0  0  0  # atno 6907 bound_to 6896
  151.7934  133.3356  159.3514 H   0  0  0  0  0  0  0  0  0  0  0  0  # atno 6908 bound_to 6896
  150.7335  134.5752  159.5955 H   0  0  0  0  0  0  0  0  0  0  0  0  # atno 6909 bound_to 6896
  145.0312  139.4044  143.5149 H   0  0  0  0  0  0  0  0  0  0  0  0  # atno 7974 bound_to 7965
  154.4016  140.1347  156.4172 H   0  0  0  0  0  0  0  0  0  0  0  0  # atno 8008 bound_to 7997
  155.7677  140.3484  155.5210 H   0  0  0  0  0  0  0  0  0  0  0  0  # atno 8009 bound_to 7997
  155.8797  140.0985  157.1484 H   0  0  0  0  0  0  0  0  0  0  0  0  # atno 8010 bound_to 7997
  139.4942  144.5956  151.6589 H   0  0  0  0  0  0  0  0  0  0  0  0  # atno 10167 bound_to 10162
  156.1921  130.4153  149.9357 H   0  0  0  0  0  0  0  0  0  0  0  0  # atno 10718 bound_to 10713
  153.0916  135.6648  153.9843 H   0  0  0  0  0  0  0  0  0  0  0  0  # atno 10763 bound_to 10752
  153.9438  135.2991  155.3443 H   0  0  0  0  0  0  0  0  0  0  0  0  # atno 10764 bound_to 10752
  154.7331  135.5114  153.9070 H   0  0  0  0  0  0  0  0  0  0  0  0  # atno 10765 bound_to 10752
  141.1427  133.6667  156.5846 H   0  0  0  0  0  0  0  0  0  0  0  0  # atno 11005 bound_to 11000
  146.3499  139.9863  142.8690 LP  0  0  0  0  0  0  0  0  0  0  0  0  # atno 17320 bound_to 7965
  145.1768  140.9748  143.4289 LP  0  0  0  0  0  0  0  0  0  0  0  0  # atno 17321 bound_to 7965
  140.5593  144.0295  150.6162 LP  0  0  0  0  0  0  0  0  0  0  0  0  # atno 17342 bound_to 10162
  140.3375  143.3039  152.0623 LP  0  0  0  0  0  0  0  0  0  0  0  0  # atno 17343 bound_to 10162
  156.7094  130.8964  151.3608 LP  0  0  0  0  0  0  0  0  0  0  0  0  # atno 17370 bound_to 10713
  157.6935  130.9258  150.0580 LP  0  0  0  0  0  0  0  0  0  0  0  0  # atno 17371 bound_to 10713
  140.3811  134.7522  157.4661 LP  0  0  0  0  0  0  0  0  0  0  0  0  # atno 17394 bound_to 11000
  140.0637  134.5959  155.8719 LP  0  0  0  0  0  0  0  0  0  0  0  0  # atno 17395 bound_to 11000

$$$$
