AV-unprocessed.smi:49|AV-procd|sdf|467|dock3
  -GOLD-   2262016333D 1   1.00000     0.00000
 Structure written by MMmdl.
 28 29  0  0  0  0  0  0  0  0  2 V2000
  153.5113  141.7965  160.5981 C   0  0  0  0  0  0  0  0  0  0  0  0
  152.5262  142.9701  160.5551 C   0  0  0  0  0  0  0  0  0  0  0  0
  151.7332  142.9961  159.2906 C   0  0  0  0  0  0  0  0  0  0  0  0
  151.9308  142.1020  158.2752 N   0  0  0  0  0  0  0  0  0  0  0  0
  151.0480  142.5526  157.3860 C   0  0  0  0  0  0  0  0  0  0  0  0
  150.7747  141.9590  156.0365 C   0  0  2  0  0  0  0  0  0  0  0  0
  149.3273  141.5256  155.8010 C   0  0  0  0  0  0  0  0  0  0  0  0
  149.4733  140.3429  154.8448 C   0  0  1  0  0  0  0  0  0  0  0  0
  149.5392  140.8035  153.5097 O   0  0  0  0  0  0  0  0  0  0  0  0
  150.8126  139.7004  155.2410 C   0  0  0  0  0  0  0  0  0  0  0  0
  151.5808  140.7241  155.9794 N   0  3  0  0  0  0  0  0  0  0  0  0
  150.3858  143.6239  157.8293 N   0  0  0  0  0  0  0  0  0  0  0  0
  150.8233  143.9422  159.0656 N   0  0  0  0  0  0  0  0  0  0  0  0
  151.1077  142.6328  155.2453 H   0  0  0  0  0  0  0  0  0  0  0  0
  148.6429  139.6411  154.9300 H   0  0  0  0  0  0  0  0  0  0  0  0
  149.6691  144.1486  157.3480 H   0  0  0  0  0  0  0  0  0  0  0  0
  154.0775  141.7988  161.5299 H   0  0  0  0  0  0  0  0  0  0  0  0
  154.2246  141.8512  159.7751 H   0  0  0  0  0  0  0  0  0  0  0  0
  152.9896  140.8415  160.5277 H   0  0  0  0  0  0  0  0  0  0  0  0
  151.8425  142.9105  161.4028 H   0  0  0  0  0  0  0  0  0  0  0  0
  153.0670  143.9114  160.6598 H   0  0  0  0  0  0  0  0  0  0  0  0
  148.8916  141.1644  156.7342 H   0  0  0  0  0  0  0  0  0  0  0  0
  148.6896  142.3286  155.4289 H   0  0  0  0  0  0  0  0  0  0  0  0
  149.3723  140.0761  152.9290 H   0  0  0  0  0  0  0  0  0  0  0  0
  150.6426  138.8606  155.9156 H   0  0  0  0  0  0  0  0  0  0  0  0
  151.3726  139.3246  154.3835 H   0  0  0  0  0  0  0  0  0  0  0  0
  152.4705  140.9037  155.5369 H   0  0  0  0  0  0  0  0  0  0  0  0
  151.7296  140.3951  156.9232 H   0  0  0  0  0  0  0  0  0  0  0  0
  1  2  1  0  0  0  0
  1 17  1  0  0  0  0
  1 18  1  0  0  0  0
  1 19  1  0  0  0  0
  2 20  1  0  0  0  0
  2 21  1  0  0  0  0
  2  3  1  0  0  0  0
  3  4  1  0  0  0  0
  3 13  2  0  0  0  0
  4  5  2  0  0  0  0
  5  6  1  0  0  0  0
  5 12  1  0  0  0  0
  6 14  1  0  0  0  0
  6 11  1  0  0  0  0
  6  7  1  0  0  0  0
  7  8  1  0  0  0  0
  7 22  1  0  0  0  0
  7 23  1  0  0  0  0
  8 15  1  0  0  0  0
  8  9  1  0  0  0  0
  8 10  1  0  0  0  0
  9 24  1  0  0  0  0
 10 11  1  0  0  0  0
 10 25  1  0  0  0  0
 10 26  1  0  0  0  0
 11 27  1  0  0  0  0
 11 28  1  0  0  0  0
 12 13  1  0  0  0  0
 12 16  1  0  0  0  0
M  CHG  1  11   1
M  END
> <s_m_source_file>
AV-unprocessed.smi

> <i_m_source_file_index>
49

> <i_lp_mmshare_version>
43012

> <i_f3d_flags>
0

> <s_epik_input>
W0NIM11bQ0gyXWMxbmMobltuSF0xKVtDQEBIXTJbQ0gyXVtDQEBIXShbT0hdKVtDSDJdW05IXTI=

> <s_epik_cmdline>
J2VwaWtfcHl0aG9uJywgJy1waCcsICc3LjAnLCAnLXRuJywgJzgnLCAnLW1hJywgJzIwMCcsICctbWV0YWxfYmluZGluZycsICctaW1hZScsICc8aW5maWxlLm1hZT4nLCAnLW9tYWUnLCAnPG91dGZpbGUubWFlPic=

> <r_epik_Ionization_Penalty>
0.372103

> <r_epik_Ionization_Penalty_Charging>
0.0688988

> <r_epik_Ionization_Penalty_Neutral>
0.303204

> <r_epik_State_Penalty>
0.737493

> <r_epik_Charging_Adjusted_Penalty>
0.806392

> <i_epik_Tot_Q>
1

> <i_epik_Tot_abs_Q>
1

> <r_epik_Metal_State_Penalty>
1.01235

> <b_epik_Metal_Only>
0

> <s_lp_Force_Field>
OPLS_2005

> <r_lp_Energy>
18.9462

> <b_lp_Chiralities_Consistent>
1

> <s_lp_Variant>
AV-unprocessed.smi:49-5

> <Gold.Version>
5.8.1

> <Gold.Id.Protein>
6NUR|6NUR_protein|mol2

> <Gold.PLP.Fitness>
36.2812

> <Gold.PLP.PLP>
-27.8713

> <Gold.PLP.part.hbond>
-3.7502

> <Gold.PLP.part.metal>
0.0000

> <Gold.PLP.part.buried>
-3.5646

> <Gold.PLP.part.nonpolar>
-20.7510

> <Gold.PLP.part.repulsive>
0.2941

> <Gold.PLP.ligand.clash>
0.0000

> <Gold.PLP.ligand.torsion>
0.0432

> <Gold.PLP.Chemscore.Hbond>
2.8256

> <Gold.PLP.Chemscore.CHOScore>
0.0000

> <Gold.PLP.Chemscore.Metal>
0.0000

> <Gold.Chemscore.Hbonds>
donor molecule, donor type, donor heavy atom, donor atom, acceptor molecule, acceptor atom, score
      L1  H     9    24       P1  7957  0.53
      L1  H    12    16       P1  8028  0.99
      P1  H  7989  7998       L1     9  0.23
      P1  H  8011  8017       L1     9  1.00

> <Gold.PLP.Chemscore.Internal.Correction>
0.0196

> <Gold.Rescore>
     Score         DG    S(hbond)    S(metal)    S(lipo)     H(rot)  DE(clash)    DE(int)     intcor
     13.45     -13.66       2.18        0.00      49.01       1.89       0.18       0.02       ----

> <Gold.Chemscore.Fitness>
13.4536

> <Gold.Chemscore.DG>
-13.6555

> <Gold.Chemscore.ZeroCoef>
-5.4800

> <Gold.Chemscore.Hbond>
2.1781

> <Gold.Chemscore.Metal>
0.0000

> <Gold.Chemscore.Lipo>
49.0137

> <Gold.Chemscore.Internal_Hbond>
0.0000

> <Gold.Chemscore.DEClash>
0.1849

> <Gold.Chemscore.DEInternal>
0.0169

> <Gold.Chemscore.Rot>
1.8883

> <Gold.Chemscore.Internal.Correction>
   9.000000E+99

> <Gold.Chemscore.Hbonds>
donor molecule, donor type, donor heavy atom, donor atom, acceptor molecule, acceptor atom, score
      L1  H     9    24       P1  7957  0.54
      L1  H    12    16       P1  8028  0.37
      P1  H  7989  7998       L1     9  0.01
      P1  H  8011  8017       L1     9  0.52

> <Gold.Chemscore.Hbond.Weighted>
-7.2748

> <Gold.Chemscore.Metal.Weighted>
-0.0000

> <Gold.Chemscore.Lipo.Weighted>
-5.7346

> <Gold.Chemscore.Internal_Hbond.Weighted>
0.0000

> <Gold.Chemscore.DEClash.Weighted>
0.1849

> <Gold.Chemscore.DEInternal.Weighted>
0.0169

> <Gold.Chemscore.Rot.Weighted>
4.8340

> <Gold.Chemscore.Internal.Correction.Weighted>
   9.000000E+99

> <Gold.Protein.RotatedTorsions>
[ 6907 6896 6895 6894 ] final  167.07 input  -60.11 | X-H torsion
[ 7974 7965 7964 7962 ] final  -94.98 input  175.53 | X-H torsion
[ 8008 7997 7996 7995 ] final  163.74 input   59.86 | X-H torsion
[ 10167 10162 10161 10158 ] final  -71.47 input  -65.29 | X-H torsion
[ 10718 10713 10712 10709 ] final  -25.66 input   66.30 | X-H torsion
[ 10763 10752 10751 10750 ] final  -52.07 input  -60.55 | X-H torsion
[ 11005 11000 10999 10996 ] final -107.00 input  -57.11 | X-H torsion

> <Gold.Protein.ActiveResidues>
 VAL166  LYS551  ARG553  GLY616  TRP617  ASP618  TYR619  PRO620  LYS621  CYS622 
 ASP623  PHE694  ASN695  SER759  ASP760  ASP761  ALA762  ILE779  LEU786  VAL792 
 PHE793  MET794  SER795  GLU796  ALA797  LYS798  CYS799  TRP800  GLU811  SER814 

> <Gold.Protein.RotatedAtoms>
  151.8690  133.3472  159.3728 H   0  0  0  0  0  0  0  0  0  0  0  0  # atno 6907 bound_to 6896
  150.7158  134.5131  159.5626 H   0  0  0  0  0  0  0  0  0  0  0  0  # atno 6908 bound_to 6896
  152.2660  134.7984  160.0473 H   0  0  0  0  0  0  0  0  0  0  0  0  # atno 6909 bound_to 6896
  145.3661  140.9499  143.2473 H   0  0  0  0  0  0  0  0  0  0  0  0  # atno 7974 bound_to 7965
  156.1934  140.1715  156.8047 H   0  0  0  0  0  0  0  0  0  0  0  0  # atno 8008 bound_to 7997
  154.5499  140.0719  156.8682 H   0  0  0  0  0  0  0  0  0  0  0  0  # atno 8009 bound_to 7997
  155.3049  140.3364  155.4248 H   0  0  0  0  0  0  0  0  0  0  0  0  # atno 8010 bound_to 7997
  140.5271  143.2325  151.7329 H   0  0  0  0  0  0  0  0  0  0  0  0  # atno 10167 bound_to 10162
  156.4614  130.4505  149.6926 H   0  0  0  0  0  0  0  0  0  0  0  0  # atno 10718 bound_to 10713
  154.1369  135.6511  153.4934 H   0  0  0  0  0  0  0  0  0  0  0  0  # atno 10763 bound_to 10752
  153.0178  135.5306  154.6945 H   0  0  0  0  0  0  0  0  0  0  0  0  # atno 10764 bound_to 10752
  154.6195  135.2963  155.0313 H   0  0  0  0  0  0  0  0  0  0  0  0  # atno 10765 bound_to 10752
  141.0976  133.8943  157.1924 H   0  0  0  0  0  0  0  0  0  0  0  0  # atno 11005 bound_to 11000
  144.8610  139.5177  143.6812 LP  0  0  0  0  0  0  0  0  0  0  0  0  # atno 17320 bound_to 7965
  146.2906  139.7128  142.9164 LP  0  0  0  0  0  0  0  0  0  0  0  0  # atno 17321 bound_to 7965
  139.4942  144.4170  152.0019 LP  0  0  0  0  0  0  0  0  0  0  0  0  # atno 17342 bound_to 10162
  140.3270  144.3361  150.5996 LP  0  0  0  0  0  0  0  0  0  0  0  0  # atno 17343 bound_to 10162
  156.3712  130.7532  151.2515 LP  0  0  0  0  0  0  0  0  0  0  0  0  # atno 17370 bound_to 10713
  157.7497  131.0322  150.4217 LP  0  0  0  0  0  0  0  0  0  0  0  0  # atno 17371 bound_to 10713
  139.9817  135.0096  156.9766 LP  0  0  0  0  0  0  0  0  0  0  0  0  # atno 17394 bound_to 11000
  140.5101  134.1010  155.7268 LP  0  0  0  0  0  0  0  0  0  0  0  0  # atno 17395 bound_to 11000

$$$$
