AV-unprocessed.smi:2232|AV-procd|sdf|9039|dock7
  -GOLD-   2272012243D 1   1.00000     0.00000
 Structure written by MMmdl.
 43 44  0  0  0  0  0  0  0  0  2 V2000
  151.9504  145.8200  160.1160 C   0  0  0  0  0  0  0  0  0  0  0  0
  152.0298  144.5104  159.3600 C   0  0  0  0  0  0  0  0  0  0  0  0
  152.9853  143.5351  159.7037 C   0  0  0  0  0  0  0  0  0  0  0  0
  153.0105  142.3384  158.9610 C   0  0  0  0  0  0  0  0  0  0  0  0
  154.0092  141.2452  159.2775 C   0  0  0  0  0  0  0  0  0  0  0  0
  152.1649  142.0879  157.9388 N   0  0  0  0  0  0  0  0  0  0  0  0
  151.2415  143.0207  157.5978 C   0  0  0  0  0  0  0  0  0  0  0  0
  150.3119  142.8564  156.5367 N   0  0  0  0  0  0  0  0  0  0  0  0
  150.0765  141.7537  155.8040 C   0  0  0  0  0  0  0  0  0  0  0  0
  150.6289  140.6636  155.9563 O   0  0  0  0  0  0  0  0  0  0  0  0
  149.1502  141.9812  154.8612 N   0  0  0  0  0  0  0  0  0  0  0  0
  148.6807  140.9863  153.9036 C   0  0  0  0  0  0  0  0  0  0  0  0
  147.2197  141.2473  153.4882 C   0  0  0  0  0  0  0  0  0  0  0  0
  146.4450  139.9933  153.3167 N   0  3  0  0  0  0  0  0  0  0  0  0
  146.9846  139.1430  152.2284 C   0  0  0  0  0  0  0  0  0  0  0  0
  146.1277  137.8777  152.0555 C   0  0  0  0  0  0  0  0  0  0  0  0
  146.0765  137.1653  153.2850 O   0  0  0  0  0  0  0  0  0  0  0  0
  145.4793  137.9355  154.3204 C   0  0  0  0  0  0  0  0  0  0  0  0
  146.3107  139.2057  154.5680 C   0  0  0  0  0  0  0  0  0  0  0  0
  151.1476  144.2475  158.2925 C   0  0  0  0  0  0  0  0  0  0  0  0
  152.5124  145.7716  161.0492 H   0  0  0  0  0  0  0  0  0  0  0  0
  150.9140  146.0594  160.3561 H   0  0  0  0  0  0  0  0  0  0  0  0
  152.3598  146.6292  159.5107 H   0  0  0  0  0  0  0  0  0  0  0  0
  153.6802  143.6997  160.5142 H   0  0  0  0  0  0  0  0  0  0  0  0
  154.6748  141.5399  160.0892 H   0  0  0  0  0  0  0  0  0  0  0  0
  154.6189  141.0225  158.4014 H   0  0  0  0  0  0  0  0  0  0  0  0
  153.4903  140.3339  159.5762 H   0  0  0  0  0  0  0  0  0  0  0  0
  149.7748  143.6776  156.3011 H   0  0  0  0  0  0  0  0  0  0  0  0
  148.7411  142.9028  154.8044 H   0  0  0  0  0  0  0  0  0  0  0  0
  149.3481  140.9821  153.0415 H   0  0  0  0  0  0  0  0  0  0  0  0
  148.7655  140.0027  154.3665 H   0  0  0  0  0  0  0  0  0  0  0  0
  146.7510  141.8529  154.2654 H   0  0  0  0  0  0  0  0  0  0  0  0
  147.1680  141.8338  152.5695 H   0  0  0  0  0  0  0  0  0  0  0  0
  147.0017  139.7032  151.2928 H   0  0  0  0  0  0  0  0  0  0  0  0
  148.0155  138.8670  152.4566 H   0  0  0  0  0  0  0  0  0  0  0  0
  145.1194  138.1311  151.7243 H   0  0  0  0  0  0  0  0  0  0  0  0
  146.5611  137.2323  151.2913 H   0  0  0  0  0  0  0  0  0  0  0  0
  144.4510  138.1876  154.0566 H   0  0  0  0  0  0  0  0  0  0  0  0
  145.4361  137.3328  155.2279 H   0  0  0  0  0  0  0  0  0  0  0  0
  147.3007  138.9339  154.9379 H   0  0  0  0  0  0  0  0  0  0  0  0
  145.8325  139.7996  155.3457 H   0  0  0  0  0  0  0  0  0  0  0  0
  150.4079  144.9829  158.0108 H   0  0  0  0  0  0  0  0  0  0  0  0
  145.5141  140.2621  153.0319 H   0  0  0  0  0  0  0  0  0  0  0  0
  1  2  1  0  0  0  0
  1 21  1  0  0  0  0
  1 22  1  0  0  0  0
  1 23  1  0  0  0  0
  2 20  1  0  0  0  0
  2  3  2  0  0  0  0
  3  4  1  0  0  0  0
  3 24  1  0  0  0  0
  4  5  1  0  0  0  0
  4  6  2  0  0  0  0
  5 25  1  0  0  0  0
  5 26  1  0  0  0  0
  5 27  1  0  0  0  0
  6  7  1  0  0  0  0
  7  8  1  0  0  0  0
  7 20  2  0  0  0  0
  8  9  1  0  0  0  0
  8 28  1  0  0  0  0
  9 10  2  0  0  0  0
  9 11  1  0  0  0  0
 11 12  1  0  0  0  0
 11 29  1  0  0  0  0
 12 13  1  0  0  0  0
 12 30  1  0  0  0  0
 12 31  1  0  0  0  0
 13 14  1  0  0  0  0
 13 32  1  0  0  0  0
 13 33  1  0  0  0  0
 14 19  1  0  0  0  0
 14 15  1  0  0  0  0
 14 43  1  0  0  0  0
 15 16  1  0  0  0  0
 15 34  1  0  0  0  0
 15 35  1  0  0  0  0
 16 17  1  0  0  0  0
 16 36  1  0  0  0  0
 16 37  1  0  0  0  0
 17 18  1  0  0  0  0
 18 19  1  0  0  0  0
 18 38  1  0  0  0  0
 18 39  1  0  0  0  0
 19 40  1  0  0  0  0
 19 41  1  0  0  0  0
 20 42  1  0  0  0  0
M  CHG  1  14   1
M  END
> <s_m_source_file>
AV-unprocessed.smi

> <i_m_source_file_index>
2232

> <i_lp_mmshare_version>
43012

> <i_f3d_flags>
0

> <s_epik_input>
W0NIM11jMVtjSF1jKFtDSDNdKW5jKFtjSF0xKVtOSF1DKD1PKVtOSF1bQ0gyXVtDSDJdTjJbQ0gyXVtDSDJdT1tDSDJdW0NIMl0y

> <s_epik_cmdline>
J2VwaWtfcHl0aG9uJywgJy1waCcsICc3LjAnLCAnLXRuJywgJzgnLCAnLW1hJywgJzIwMCcsICctbWV0YWxfYmluZGluZycsICctaW1hZScsICc8aW5maWxlLm1hZT4nLCAnLW9tYWUnLCAnPG91dGZpbGUubWFlPic=

> <r_epik_Ionization_Penalty>
0.602717

> <r_epik_Ionization_Penalty_Charging>
0.602531

> <r_epik_Ionization_Penalty_Neutral>
0.000186219

> <r_epik_State_Penalty>
0.617039

> <r_epik_Charging_Adjusted_Penalty>
1.21957

> <i_epik_Tot_Q>
1

> <i_epik_Tot_abs_Q>
1

> <r_epik_Metal_State_Penalty>
0.617067

> <b_epik_Metal_Only>
0

> <s_lp_Force_Field>
OPLS_2005

> <r_lp_Energy>
15.6528

> <b_lp_Chiralities_Consistent>
1

> <s_lp_Variant>
AV-unprocessed.smi:2232-2

> <Gold.Version>
5.8.1

> <Gold.Id.Protein>
6NUR|6NUR_protein|mol2

> <Gold.PLP.Fitness>
54.3210

> <Gold.PLP.PLP>
-43.6395

> <Gold.PLP.part.hbond>
-3.0000

> <Gold.PLP.part.metal>
0.0000

> <Gold.PLP.part.buried>
-4.4197

> <Gold.PLP.part.nonpolar>
-37.2336

> <Gold.PLP.part.repulsive>
0.4247

> <Gold.PLP.ligand.clash>
0.0000

> <Gold.PLP.ligand.torsion>
0.4661

> <Gold.PLP.Chemscore.Hbond>
3.8640

> <Gold.PLP.Chemscore.CHOScore>
0.0000

> <Gold.PLP.Chemscore.Metal>
0.0000

> <Gold.Chemscore.Hbonds>
donor molecule, donor type, donor heavy atom, donor atom, acceptor molecule, acceptor atom, score
      L1  H     8    28       P1  8028  0.94
      L1  H    11    29       P1  8028  0.83
      L1  H    14    43       P1 10175  2.00

> <Gold.PLP.Chemscore.Internal.Correction>
0.0217

> <Gold.Rescore>
     Score         DG    S(hbond)    S(metal)    S(lipo)     H(rot)  DE(clash)    DE(int)     intcor
     21.48     -23.33       2.90        0.00     102.58       1.49       0.17       1.68       ----

> <Gold.Chemscore.Fitness>
21.4818

> <Gold.Chemscore.DG>
-23.3318

> <Gold.Chemscore.ZeroCoef>
-5.4800

> <Gold.Chemscore.Hbond>
2.8960

> <Gold.Chemscore.Metal>
0.0000

> <Gold.Chemscore.Lipo>
102.5750

> <Gold.Chemscore.Internal_Hbond>
0.0000

> <Gold.Chemscore.DEClash>
0.1717

> <Gold.Chemscore.DEInternal>
1.6783

> <Gold.Chemscore.Rot>
1.4930

> <Gold.Chemscore.Internal.Correction>
   9.000000E+99

> <Gold.Chemscore.Hbonds>
donor molecule, donor type, donor heavy atom, donor atom, acceptor molecule, acceptor atom, score
      L1  H     8    28       P1  8028  0.90
      L1  H    11    29       P1  8028  0.80
      L1  H    14    43       P1 10175  0.96

> <Gold.Chemscore.Hbond.Weighted>
-9.6725

> <Gold.Chemscore.Metal.Weighted>
-0.0000

> <Gold.Chemscore.Lipo.Weighted>
-12.0013

> <Gold.Chemscore.Internal_Hbond.Weighted>
0.0000

> <Gold.Chemscore.DEClash.Weighted>
0.1717

> <Gold.Chemscore.DEInternal.Weighted>
1.6783

> <Gold.Chemscore.Rot.Weighted>
3.8220

> <Gold.Chemscore.Internal.Correction.Weighted>
   9.000000E+99

> <Gold.Protein.RotatedTorsions>
[ 6907 6896 6895 6894 ] final  118.44 input  -60.11 | X-H torsion
[ 7974 7965 7964 7962 ] final  103.57 input  175.53 | X-H torsion
[ 8008 7997 7996 7995 ] final   79.02 input   59.86 | X-H torsion
[ 10167 10162 10161 10158 ] final  138.66 input  -65.29 | X-H torsion
[ 10718 10713 10712 10709 ] final  159.93 input   66.30 | X-H torsion
[ 10763 10752 10751 10750 ] final    8.57 input  -60.55 | X-H torsion
[ 11005 11000 10999 10996 ] final  129.72 input  -57.11 | X-H torsion

> <Gold.Protein.ActiveResidues>
 VAL166  LYS551  ARG553  GLY616  TRP617  ASP618  TYR619  PRO620  LYS621  CYS622 
 ASP623  PHE694  ASN695  SER759  ASP760  ASP761  ALA762  ILE779  LEU786  VAL792 
 PHE793  MET794  SER795  GLU796  ALA797  LYS798  CYS799  TRP800  GLU811  SER814 

> <Gold.Protein.RotatedAtoms>
  152.4542  133.7690  159.6788 H   0  0  0  0  0  0  0  0  0  0  0  0  # atno 6907 bound_to 6896
  150.8464  133.7845  159.3048 H   0  0  0  0  0  0  0  0  0  0  0  0  # atno 6908 bound_to 6896
  151.5455  135.1071  159.9988 H   0  0  0  0  0  0  0  0  0  0  0  0  # atno 6909 bound_to 6896
  145.3442  139.2455  143.3593 H   0  0  0  0  0  0  0  0  0  0  0  0  # atno 7974 bound_to 7965
  155.8638  140.3452  155.5774 H   0  0  0  0  0  0  0  0  0  0  0  0  # atno 8008 bound_to 7997
  155.7904  140.0871  157.2031 H   0  0  0  0  0  0  0  0  0  0  0  0  # atno 8009 bound_to 7997
  154.4013  140.1484  156.3143 H   0  0  0  0  0  0  0  0  0  0  0  0  # atno 8010 bound_to 7997
  139.5103  144.6340  151.5744 H   0  0  0  0  0  0  0  0  0  0  0  0  # atno 10167 bound_to 10162
  157.1574  131.0579  151.2249 H   0  0  0  0  0  0  0  0  0  0  0  0  # atno 10718 bound_to 10713
  153.2236  135.6884  153.7972 H   0  0  0  0  0  0  0  0  0  0  0  0  # atno 10763 bound_to 10752
  153.7162  135.3274  155.3258 H   0  0  0  0  0  0  0  0  0  0  0  0  # atno 10764 bound_to 10752
  154.8281  135.4602  154.1093 H   0  0  0  0  0  0  0  0  0  0  0  0  # atno 10765 bound_to 10752
  139.9631  134.9597  156.9189 H   0  0  0  0  0  0  0  0  0  0  0  0  # atno 11005 bound_to 11000
  146.2995  140.4045  142.8709 LP  0  0  0  0  0  0  0  0  0  0  0  0  # atno 17320 bound_to 7965
  144.8767  140.7346  143.6012 LP  0  0  0  0  0  0  0  0  0  0  0  0  # atno 17321 bound_to 7965
  140.6083  143.9484  150.6434 LP  0  0  0  0  0  0  0  0  0  0  0  0  # atno 17342 bound_to 10162
  140.2718  143.3450  152.1231 LP  0  0  0  0  0  0  0  0  0  0  0  0  # atno 17343 bound_to 10162
  157.4164  130.7413  149.6879 LP  0  0  0  0  0  0  0  0  0  0  0  0  # atno 17370 bound_to 10713
  155.9759  130.4082  150.3812 LP  0  0  0  0  0  0  0  0  0  0  0  0  # atno 17371 bound_to 10713
  140.5456  134.0678  155.7354 LP  0  0  0  0  0  0  0  0  0  0  0  0  # atno 17394 bound_to 11000
  141.1310  133.9303  157.2536 LP  0  0  0  0  0  0  0  0  0  0  0  0  # atno 17395 bound_to 11000

$$$$
