AV-unprocessed.smi:160|AV-procd|sdf|1347|dock2
  -GOLD-   2262019 43D 1   1.00000     0.00000
 Structure written by MMmdl.
 29 30  0  0  0  0  0  0  0  0  1 V2000
  150.6816  137.8137  159.2139 N   0  0  0  0  0  0  0  0  0  0  0  0
  149.8835  136.9352  158.5993 C   0  0  0  0  0  0  0  0  0  0  0  0
  149.4198  135.9512  159.1735 O   0  0  0  0  0  0  0  0  0  0  0  0
  149.5797  137.2176  157.1543 C   0  0  0  0  0  0  0  0  0  0  0  0
  148.9525  136.3056  156.3511 N   0  0  0  0  0  0  0  0  0  0  0  0
  148.9166  137.0103  155.2276 C   0  0  0  0  0  0  0  0  0  0  0  0
  149.4887  138.2170  155.3183 N   0  0  0  0  0  0  0  0  0  0  0  0
  149.5977  139.3253  154.3187 C   0  0  2  0  0  0  0  0  0  0  0  0
  150.5397  140.2456  154.7890 O   0  0  0  0  0  0  0  0  0  0  0  0
  149.9049  141.4129  155.3071 C   0  0  2  0  0  0  0  0  0  0  0  0
  149.5884  141.2336  156.8102 C   0  0  0  0  0  0  0  0  0  0  0  0
  148.9211  142.3771  157.2994 O   0  0  0  0  0  0  0  0  0  0  0  0
  148.6806  141.5265  154.3877 C   0  0  2  0  0  0  0  0  0  0  0  0
  147.6339  142.2931  154.9500 O   0  0  0  0  0  0  0  0  0  0  0  0
  148.2617  140.0786  154.1645 C   0  0  1  0  0  0  0  0  0  0  0  0
  147.7234  139.9322  152.8660 O   0  0  0  0  0  0  0  0  0  0  0  0
  149.9047  138.3843  156.5980 N   0  0  0  0  0  0  0  0  0  0  0  0
  149.9542  138.8382  153.4101 H   0  0  0  0  0  0  0  0  0  0  0  0
  150.5519  142.2811  155.1749 H   0  0  0  0  0  0  0  0  0  0  0  0
  148.9931  141.9801  153.4453 H   0  0  0  0  0  0  0  0  0  0  0  0
  147.5476  139.7553  154.9240 H   0  0  0  0  0  0  0  0  0  0  0  0
  150.9244  137.6808  160.1845 H   0  0  0  0  0  0  0  0  0  0  0  0
  151.0371  138.6067  158.6995 H   0  0  0  0  0  0  0  0  0  0  0  0
  148.4663  136.6380  154.3190 H   0  0  0  0  0  0  0  0  0  0  0  0
  148.9108  140.3933  156.9599 H   0  0  0  0  0  0  0  0  0  0  0  0
  150.4763  141.0277  157.4060 H   0  0  0  0  0  0  0  0  0  0  0  0
  148.8047  142.9850  156.5853 H   0  0  0  0  0  0  0  0  0  0  0  0
  148.0007  143.1001  155.2781 H   0  0  0  0  0  0  0  0  0  0  0  0
  148.4271  139.7119  152.2745 H   0  0  0  0  0  0  0  0  0  0  0  0
  1  2  1  0  0  0  0
  1 22  1  0  0  0  0
  1 23  1  0  0  0  0
  2  3  2  0  0  0  0
  2  4  1  0  0  0  0
  4 17  2  0  0  0  0
  4  5  1  0  0  0  0
  5  6  2  0  0  0  0
  6  7  1  0  0  0  0
  6 24  1  0  0  0  0
  7  8  1  0  0  0  0
  7 17  1  0  0  0  0
  8 18  1  0  0  0  0
  8 15  1  0  0  0  0
  8  9  1  0  0  0  0
  9 10  1  0  0  0  0
 10 19  1  0  0  0  0
 10 11  1  0  0  0  0
 10 13  1  0  0  0  0
 11 12  1  0  0  0  0
 11 25  1  0  0  0  0
 11 26  1  0  0  0  0
 12 27  1  0  0  0  0
 13 20  1  0  0  0  0
 13 14  1  0  0  0  0
 13 15  1  0  0  0  0
 14 28  1  0  0  0  0
 15 21  1  0  0  0  0
 15 16  1  0  0  0  0
 16 29  1  0  0  0  0
M  END
> <s_m_source_file>
AV-unprocessed.smi

> <i_m_source_file_index>
160

> <i_lp_mmshare_version>
43012

> <i_f3d_flags>
0

> <s_epik_input>
W05IMl1DKD1PKWMxbltjSF1uKG4xKVtDQEBIXTJPW0NASF0oW0NIMl1bT0hdKVtDQEBIXShbT0hdKVtDQEhdMltPSF0=

> <s_epik_cmdline>
J2VwaWtfcHl0aG9uJywgJy1waCcsICc3LjAnLCAnLXRuJywgJzgnLCAnLW1hJywgJzIwMCcsICctbWV0YWxfYmluZGluZycsICctaW1hZScsICc8aW5maWxlLm1hZT4nLCAnLW9tYWUnLCAnPG91dGZpbGUubWFlPic=

> <r_lp_tautomer_probability>
1

> <r_epik_Ionization_Penalty>
1.06932e-05

> <r_epik_Ionization_Penalty_Charging>
0

> <r_epik_Ionization_Penalty_Neutral>
1.06932e-05

> <r_epik_State_Penalty>
-0

> <r_epik_Charging_Adjusted_Penalty>
0

> <i_epik_Tot_Q>
0

> <i_epik_Tot_abs_Q>
0

> <r_epik_Metal_State_Penalty>
0.0142097

> <b_epik_Metal_Only>
0

> <s_epik_Chemistry_Notes>
This compound contains an acetal/aminal-like group ( X-CH(R)-Y where X, Y are N, S, or O) that may be acid/base labile, releasing an aldehyde.

> <s_lp_Force_Field>
OPLS_2005

> <r_lp_Energy>
36.3531

> <b_lp_Chiralities_Consistent>
1

> <s_lp_Variant>
AV-unprocessed.smi:160-5

> <Gold.Version>
5.8.1

> <Gold.Id.Protein>
6NUR|6NUR_protein|mol2

> <Gold.PLP.Fitness>
39.1652

> <Gold.PLP.PLP>
-22.1587

> <Gold.PLP.part.hbond>
-4.9186

> <Gold.PLP.part.metal>
0.0000

> <Gold.PLP.part.buried>
-4.0421

> <Gold.PLP.part.nonpolar>
-13.7129

> <Gold.PLP.part.repulsive>
0.3030

> <Gold.PLP.ligand.clash>
0.0000

> <Gold.PLP.ligand.torsion>
0.5250

> <Gold.PLP.Chemscore.Hbond>
5.0000

> <Gold.PLP.Chemscore.CHOScore>
1.0000

> <Gold.PLP.Chemscore.Metal>
0.0000

> <Gold.Chemscore.Hbonds>
donor molecule, donor type, donor heavy atom, donor atom, acceptor molecule, acceptor atom, score
      L1  H    12    27       P1  8028  1.00
      L1  H    14    28       P1  8028  1.00
      L1  H    16    29       P1  7957  1.00
      P1  H  6896  6909       L1     3  1.00
      P1  H  7989  7998       L1     9  1.00
      L1  C     6    24       P1  7948  1.00

> <Gold.PLP.Chemscore.Internal.Correction>
0.0565

> <Gold.Rescore>
     Score         DG    S(hbond)    S(metal)    S(lipo)     H(rot)  DE(clash)    DE(int)     intcor
     11.60     -12.56       4.29        0.00      27.02       4.06       0.12       0.84       ----

> <Gold.Chemscore.Fitness>
11.5972

> <Gold.Chemscore.DG>
-12.5596

> <Gold.Chemscore.ZeroCoef>
-5.4800

> <Gold.Chemscore.Hbond>
4.2851

> <Gold.Chemscore.Metal>
0.0000

> <Gold.Chemscore.Lipo>
27.0167

> <Gold.Chemscore.Internal_Hbond>
0.0000

> <Gold.Chemscore.DEClash>
0.1214

> <Gold.Chemscore.DEInternal>
0.8409

> <Gold.Chemscore.Rot>
4.0600

> <Gold.Chemscore.Internal.Correction>
   9.000000E+99

> <Gold.Chemscore.Hbonds>
donor molecule, donor type, donor heavy atom, donor atom, acceptor molecule, acceptor atom, score
      L1  H    12    27       P1  8028  0.92
      L1  H    14    28       P1  8028  0.85
      L1  H    16    29       P1  7957  0.98
      P1  H  6896  6909       L1     3  0.78
      P1  H  7989  7998       L1     9  0.38

> <Gold.Chemscore.Hbond.Weighted>
-14.3123

> <Gold.Chemscore.Metal.Weighted>
-0.0000

> <Gold.Chemscore.Lipo.Weighted>
-3.1609

> <Gold.Chemscore.Internal_Hbond.Weighted>
0.0000

> <Gold.Chemscore.DEClash.Weighted>
0.1214

> <Gold.Chemscore.DEInternal.Weighted>
0.8409

> <Gold.Chemscore.Rot.Weighted>
10.3936

> <Gold.Chemscore.Internal.Correction.Weighted>
   9.000000E+99

> <Gold.Protein.RotatedTorsions>
[ 6907 6896 6895 6894 ] final   63.53 input  -60.11 | X-H torsion
[ 7974 7965 7964 7962 ] final  -31.07 input  175.53 | X-H torsion
[ 8008 7997 7996 7995 ] final  128.63 input   59.86 | X-H torsion
[ 10167 10162 10161 10158 ] final  -38.95 input  -65.29 | X-H torsion
[ 10718 10713 10712 10709 ] final -162.11 input   66.30 | X-H torsion
[ 10763 10752 10751 10750 ] final -107.74 input  -60.55 | X-H torsion
[ 11005 11000 10999 10996 ] final  -76.35 input  -57.11 | X-H torsion

> <Gold.Protein.ActiveResidues>
 VAL166  LYS551  ARG553  GLY616  TRP617  ASP618  TYR619  PRO620  LYS621  CYS622 
 ASP623  PHE694  ASN695  SER759  ASP760  ASP761  ALA762  ILE779  LEU786  VAL792 
 PHE793  MET794  SER795  GLU796  ALA797  LYS798  CYS799  TRP800  GLU811  SER814 

> <Gold.Protein.RotatedAtoms>
  152.4260  134.5867  159.9962 H   0  0  0  0  0  0  0  0  0  0  0  0  # atno 6907 bound_to 6896
  151.6003  133.3351  159.3054 H   0  0  0  0  0  0  0  0  0  0  0  0  # atno 6908 bound_to 6896
  150.8150  134.7363  159.6787 H   0  0  0  0  0  0  0  0  0  0  0  0  # atno 6909 bound_to 6896
  146.1095  140.5621  142.8784 H   0  0  0  0  0  0  0  0  0  0  0  0  # atno 7974 bound_to 7965
  156.2919  140.2640  156.2467 H   0  0  0  0  0  0  0  0  0  0  0  0  # atno 8008 bound_to 7997
  154.9924  140.0388  157.2343 H   0  0  0  0  0  0  0  0  0  0  0  0  # atno 8009 bound_to 7997
  154.7674  140.2772  155.6169 H   0  0  0  0  0  0  0  0  0  0  0  0  # atno 8010 bound_to 7997
  140.7078  143.3245  151.2713 H   0  0  0  0  0  0  0  0  0  0  0  0  # atno 10167 bound_to 10162
  156.6057  130.8829  151.2924 H   0  0  0  0  0  0  0  0  0  0  0  0  # atno 10718 bound_to 10713
  154.8094  135.4663  154.0476 H   0  0  0  0  0  0  0  0  0  0  0  0  # atno 10763 bound_to 10752
  153.1919  135.6856  153.8348 H   0  0  0  0  0  0  0  0  0  0  0  0  # atno 10764 bound_to 10752
  153.7863  135.3249  155.3350 H   0  0  0  0  0  0  0  0  0  0  0  0  # atno 10765 bound_to 10752
  141.1653  133.6980  156.7655 H   0  0  0  0  0  0  0  0  0  0  0  0  # atno 11005 bound_to 11000
  144.7499  140.5165  143.6809 LP  0  0  0  0  0  0  0  0  0  0  0  0  # atno 17320 bound_to 7965
  145.5692  139.1482  143.3298 LP  0  0  0  0  0  0  0  0  0  0  0  0  # atno 17321 bound_to 7965
  139.6709  144.0022  152.2752 LP  0  0  0  0  0  0  0  0  0  0  0  0  # atno 17342 bound_to 10162
  139.9620  144.6551  150.8070 LP  0  0  0  0  0  0  0  0  0  0  0  0  # atno 17343 bound_to 10162
  157.7268  130.9634  150.1670 LP  0  0  0  0  0  0  0  0  0  0  0  0  # atno 17370 bound_to 10713
  156.2432  130.3693  149.8314 LP  0  0  0  0  0  0  0  0  0  0  0  0  # atno 17371 bound_to 10713
  140.2502  134.8546  157.3660 LP  0  0  0  0  0  0  0  0  0  0  0  0  # atno 17394 bound_to 11000
  140.1710  134.4609  155.7832 LP  0  0  0  0  0  0  0  0  0  0  0  0  # atno 17395 bound_to 11000

$$$$
