AV-unprocessed.smi:109|AV-procd|sdf|1034|dock10
  -GOLD-   2262018 43D 1   1.00000     0.00000
 Structure written by MMmdl.
 58 61  0  0  0  0  0  0  0  0  1 V2000
  148.7314  141.6598  153.1752 O   0  0  0  0  0  0  0  0  0  0  0  0
  147.7056  141.9517  154.0994 C   0  0  0  0  0  0  0  0  0  0  0  0
  147.9926  141.2513  155.4372 C   0  0  0  0  0  0  0  0  0  0  0  0
  148.3511  139.7582  155.2688 C   0  0  1  0  0  0  0  0  0  0  0  0
  147.4809  139.1513  154.2614 N   0  0  0  0  0  0  0  0  0  0  0  0
  147.1604  137.8385  154.2972 C   0  0  0  0  0  0  0  0  0  0  0  0
  147.4833  137.0600  155.3627 N   0  0  0  0  0  0  0  0  0  0  0  0
  147.1459  135.7675  155.3730 C   0  0  0  0  0  0  0  0  0  0  0  0
  146.4949  135.0686  154.4413 N   0  0  0  0  0  0  0  0  0  0  0  0
  146.1675  135.8438  153.3667 C   0  0  0  0  0  0  0  0  0  0  0  0
  146.4645  137.2280  153.2215 C   0  0  0  0  0  0  0  0  0  0  0  0
  145.9792  137.6892  152.0050 N   0  0  0  0  0  0  0  0  0  0  0  0
  145.4256  136.6362  151.4669 C   0  0  0  0  0  0  0  0  0  0  0  0
  145.4883  135.4836  152.2183 N   0  0  0  0  0  0  0  0  0  0  0  0
  144.9338  134.1374  151.8575 C   0  0  1  0  0  0  0  0  0  0  0  0
  144.2472  134.2274  150.6422 O   0  0  0  0  0  0  0  0  0  0  0  0
  144.7988  133.3049  149.7066 C   0  0  2  0  0  0  0  0  0  0  0  0
  143.7331  132.8513  148.6932 C   0  0  0  0  0  0  0  0  0  0  0  0
  143.4221  133.8648  147.7594 O   0  0  0  0  0  0  0  0  0  0  0  0
  145.4530  132.2218  150.5682 C   0  0  1  0  0  0  0  0  0  0  0  0
  146.4321  131.4666  149.8794 O   0  0  0  0  0  0  0  0  0  0  0  0
  146.0208  133.0500  151.7134 C   0  0  1  0  0  0  0  0  0  0  0  0
  147.3103  133.5719  151.4292 O   0  0  0  0  0  0  0  0  0  0  0  0
  149.8463  139.4969  154.9369 C   0  0  0  0  0  0  0  0  0  0  0  0
  150.1549  138.0005  154.7122 C   0  0  0  0  0  0  0  0  0  0  0  0
  151.6165  137.7859  154.2862 C   0  0  0  0  0  0  0  0  0  0  0  0
  152.5887  138.3904  155.3111 C   0  0  0  0  0  0  0  0  0  0  0  0
  152.2908  139.8795  155.5462 C   0  0  0  0  0  0  0  0  0  0  0  0
  150.8283  140.0961  155.9693 C   0  0  0  0  0  0  0  0  0  0  0  0
  144.2170  133.9125  152.6482 H   0  0  0  0  0  0  0  0  0  0  0  0
  145.5789  133.8414  149.1644 H   0  0  0  0  0  0  0  0  0  0  0  0
  144.6996  131.5430  150.9688 H   0  0  0  0  0  0  0  0  0  0  0  0
  146.0841  132.4734  152.6367 H   0  0  0  0  0  0  0  0  0  0  0  0
  148.4315  140.9704  152.6023 H   0  0  0  0  0  0  0  0  0  0  0  0
  147.6475  143.0321  154.2357 H   0  0  0  0  0  0  0  0  0  0  0  0
  146.7535  141.6238  153.6812 H   0  0  0  0  0  0  0  0  0  0  0  0
  148.7974  141.7744  155.9552 H   0  0  0  0  0  0  0  0  0  0  0  0
  147.1091  141.3534  156.0659 H   0  0  0  0  0  0  0  0  0  0  0  0
  148.1441  139.2852  156.2295 H   0  0  0  0  0  0  0  0  0  0  0  0
  147.1477  139.7747  153.5400 H   0  0  0  0  0  0  0  0  0  0  0  0
  147.4369  135.2149  156.2540 H   0  0  0  0  0  0  0  0  0  0  0  0
  144.9474  136.6726  150.4990 H   0  0  0  0  0  0  0  0  0  0  0  0
  144.0630  131.9556  148.1665 H   0  0  0  0  0  0  0  0  0  0  0  0
  142.8146  132.5904  149.2192 H   0  0  0  0  0  0  0  0  0  0  0  0
  144.1863  134.4079  147.6408 H   0  0  0  0  0  0  0  0  0  0  0  0
  147.2588  131.5693  150.3255 H   0  0  0  0  0  0  0  0  0  0  0  0
  147.3042  134.4993  151.6090 H   0  0  0  0  0  0  0  0  0  0  0  0
  150.0501  139.9888  153.9845 H   0  0  0  0  0  0  0  0  0  0  0  0
  149.9672  137.4300  155.6214 H   0  0  0  0  0  0  0  0  0  0  0  0
  149.4908  137.5935  153.9489 H   0  0  0  0  0  0  0  0  0  0  0  0
  151.8164  136.7206  154.1681 H   0  0  0  0  0  0  0  0  0  0  0  0
  151.7839  138.2416  153.3095 H   0  0  0  0  0  0  0  0  0  0  0  0
  152.5086  137.8482  156.2542 H   0  0  0  0  0  0  0  0  0  0  0  0
  153.6161  138.2657  154.9683 H   0  0  0  0  0  0  0  0  0  0  0  0
  152.9607  140.2759  156.3097 H   0  0  0  0  0  0  0  0  0  0  0  0
  152.4947  140.4419  154.6341 H   0  0  0  0  0  0  0  0  0  0  0  0
  150.6425  141.1633  156.0928 H   0  0  0  0  0  0  0  0  0  0  0  0
  150.6724  139.6388  156.9467 H   0  0  0  0  0  0  0  0  0  0  0  0
  1  2  1  0  0  0  0
  1 34  1  0  0  0  0
  2  3  1  0  0  0  0
  2 35  1  0  0  0  0
  2 36  1  0  0  0  0
  3  4  1  0  0  0  0
  3 37  1  0  0  0  0
  3 38  1  0  0  0  0
  4  5  1  0  0  0  0
  4 24  1  0  0  0  0
  4 39  1  0  0  0  0
  5  6  1  0  0  0  0
  5 40  1  0  0  0  0
  6 11  1  0  0  0  0
  6  7  2  0  0  0  0
  7  8  1  0  0  0  0
  8  9  2  0  0  0  0
  8 41  1  0  0  0  0
  9 10  1  0  0  0  0
 10 14  1  0  0  0  0
 10 11  2  0  0  0  0
 11 12  1  0  0  0  0
 12 13  2  0  0  0  0
 13 14  1  0  0  0  0
 13 42  1  0  0  0  0
 14 15  1  0  0  0  0
 15 30  1  0  0  0  0
 15 22  1  0  0  0  0
 15 16  1  0  0  0  0
 16 17  1  0  0  0  0
 17 31  1  0  0  0  0
 17 18  1  0  0  0  0
 17 20  1  0  0  0  0
 18 19  1  0  0  0  0
 18 43  1  0  0  0  0
 18 44  1  0  0  0  0
 19 45  1  0  0  0  0
 20 32  1  0  0  0  0
 20 21  1  0  0  0  0
 20 22  1  0  0  0  0
 21 46  1  0  0  0  0
 22 33  1  0  0  0  0
 22 23  1  0  0  0  0
 23 47  1  0  0  0  0
 24 29  1  0  0  0  0
 24 25  1  0  0  0  0
 24 48  1  0  0  0  0
 25 26  1  0  0  0  0
 25 49  1  0  0  0  0
 25 50  1  0  0  0  0
 26 27  1  0  0  0  0
 26 51  1  0  0  0  0
 26 52  1  0  0  0  0
 27 28  1  0  0  0  0
 27 53  1  0  0  0  0
 27 54  1  0  0  0  0
 28 29  1  0  0  0  0
 28 55  1  0  0  0  0
 28 56  1  0  0  0  0
 29 57  1  0  0  0  0
 29 58  1  0  0  0  0
M  END
> <s_m_source_file>
AV-unprocessed.smi

> <i_m_source_file_index>
109

> <i_lp_mmshare_version>
43012

> <i_f3d_flags>
0

> <s_epik_input>
W0NIMl0xW0NIMl1bQ0gyXVtDSDJdW0NIMl1bQ0hdMVtDQEhdKFtDSDJdW0NIMl1bT0hdKVtOSF1jKG5bY0hdbjIpYyhjMjMpbltjSF1uM1tDQEBIXTRPW0NASF0oW0NIMl1bT0hdKVtDQEBIXShbT0hdKVtDQEhdNFtPSF0=

> <s_epik_cmdline>
J2VwaWtfcHl0aG9uJywgJy1waCcsICc3LjAnLCAnLXRuJywgJzgnLCAnLW1hJywgJzIwMCcsICctbWV0YWxfYmluZGluZycsICctaW1hZScsICc8aW5maWxlLm1hZT4nLCAnLW9tYWUnLCAnPG91dGZpbGUubWFlPic=

> <r_lp_tautomer_probability>
1

> <r_epik_Ionization_Penalty>
0.000793976

> <r_epik_Ionization_Penalty_Charging>
0

> <r_epik_Ionization_Penalty_Neutral>
0.000793976

> <r_epik_State_Penalty>
-0

> <r_epik_Charging_Adjusted_Penalty>
0

> <i_epik_Tot_Q>
0

> <i_epik_Tot_abs_Q>
0

> <r_epik_Metal_State_Penalty>
-0

> <b_epik_Metal_Only>
0

> <s_epik_Chemistry_Notes>
This compound contains an acetal/aminal-like group ( X-CH(R)-Y where X, Y are N, S, or O) that may be acid/base labile, releasing an aldehyde.

> <s_lp_Force_Field>
OPLS_2005

> <r_lp_Energy>
63.9822

> <b_lp_Chiralities_Consistent>
1

> <s_lp_Variant>
AV-unprocessed.smi:109-4

> <Gold.Version>
5.8.1

> <Gold.Id.Protein>
6NUR|6NUR_protein|mol2

> <Gold.PLP.Fitness>
55.1327

> <Gold.PLP.PLP>
-41.6324

> <Gold.PLP.part.hbond>
-7.3004

> <Gold.PLP.part.metal>
0.0000

> <Gold.PLP.part.buried>
3.7765

> <Gold.PLP.part.nonpolar>
-35.6604

> <Gold.PLP.part.repulsive>
0.6013

> <Gold.PLP.ligand.clash>
0.0000

> <Gold.PLP.ligand.torsion>
0.7325

> <Gold.PLP.Chemscore.Hbond>
4.1085

> <Gold.PLP.Chemscore.CHOScore>
0.8158

> <Gold.PLP.Chemscore.Metal>
0.0000

> <Gold.Chemscore.Hbonds>
donor molecule, donor type, donor heavy atom, donor atom, acceptor molecule, acceptor atom, score
      L1  H     1    34       P1  7957  0.45
      L1  H    19    45       P1  7921  1.00
      L1  H    21    46       P1 10747  0.77
      L1  H    23    47       P1  7948  0.15
      P1  H  8011  8017       L1     1  0.75
      P1  H 10192 10197       L1    19  0.95
      L1  C    13    42       P1 10171  0.82

> <Gold.PLP.Chemscore.Internal.Correction>
0.1926

> <Gold.Rescore>
     Score         DG    S(hbond)    S(metal)    S(lipo)     H(rot)  DE(clash)    DE(int)     intcor
      8.66     -13.13       3.15        0.00      95.15       5.47       0.50       3.98       ----

> <Gold.Chemscore.Fitness>
8.6566

> <Gold.Chemscore.DG>
-13.1287

> <Gold.Chemscore.ZeroCoef>
-5.4800

> <Gold.Chemscore.Hbond>
3.1467

> <Gold.Chemscore.Metal>
0.0000

> <Gold.Chemscore.Lipo>
95.1461

> <Gold.Chemscore.Internal_Hbond>
0.0000

> <Gold.Chemscore.DEClash>
0.4969

> <Gold.Chemscore.DEInternal>
3.9751

> <Gold.Chemscore.Rot>
5.4662

> <Gold.Chemscore.Internal.Correction>
   9.000000E+99

> <Gold.Chemscore.Hbonds>
donor molecule, donor type, donor heavy atom, donor atom, acceptor molecule, acceptor atom, score
      L1  H     1    34       P1  7957  0.44
      L1  H    19    45       P1  7921  0.97
      L1  H    21    46       P1 10747  0.76
      L1  H    23    47       P1  7948  0.07
      P1  H  8011  8017       L1     1  0.32
      P1  H 10192 10197       L1    19  0.21

> <Gold.Chemscore.Hbond.Weighted>
-10.5101

> <Gold.Chemscore.Metal.Weighted>
-0.0000

> <Gold.Chemscore.Lipo.Weighted>
-11.1321

> <Gold.Chemscore.Internal_Hbond.Weighted>
0.0000

> <Gold.Chemscore.DEClash.Weighted>
0.4969

> <Gold.Chemscore.DEInternal.Weighted>
3.9751

> <Gold.Chemscore.Rot.Weighted>
13.9935

> <Gold.Chemscore.Internal.Correction.Weighted>
   9.000000E+99

> <Gold.Protein.RotatedTorsions>
[ 6907 6896 6895 6894 ] final   80.66 input  -60.11 | X-H torsion
[ 7974 7965 7964 7962 ] final  -89.32 input  175.53 | X-H torsion
[ 8008 7997 7996 7995 ] final   81.22 input   59.86 | X-H torsion
[ 10167 10162 10161 10158 ] final -138.44 input  -65.29 | X-H torsion
[ 10718 10713 10712 10709 ] final   24.87 input   66.30 | X-H torsion
[ 10763 10752 10751 10750 ] final   39.16 input  -60.55 | X-H torsion
[ 11005 11000 10999 10996 ] final -145.37 input  -57.11 | X-H torsion

> <Gold.Protein.ActiveResidues>
 VAL166  LYS551  ARG553  GLY616  TRP617  ASP618  TYR619  PRO620  LYS621  CYS622 
 ASP623  PHE694  ASN695  SER759  ASP760  ASP761  ALA762  ILE779  LEU786  VAL792 
 PHE793  MET794  SER795  GLU796  ALA797  LYS798  CYS799  TRP800  GLU811  SER814 

> <Gold.Protein.RotatedAtoms>
  152.5242  134.3323  159.9187 H   0  0  0  0  0  0  0  0  0  0  0  0  # atno 6907 bound_to 6896
  151.3273  133.4009  159.2667 H   0  0  0  0  0  0  0  0  0  0  0  0  # atno 6908 bound_to 6896
  150.9910  134.9262  159.7957 H   0  0  0  0  0  0  0  0  0  0  0  0  # atno 6909 bound_to 6896
  145.4414  140.9559  143.2073 H   0  0  0  0  0  0  0  0  0  0  0  0  # atno 7974 bound_to 7965
  155.8942  140.3437  155.5978 H   0  0  0  0  0  0  0  0  0  0  0  0  # atno 8008 bound_to 7997
  155.7576  140.0828  157.2190 H   0  0  0  0  0  0  0  0  0  0  0  0  # atno 8009 bound_to 7997
  154.4036  140.1542  156.2783 H   0  0  0  0  0  0  0  0  0  0  0  0  # atno 8010 bound_to 7997
  139.8477  143.7239  152.2660 H   0  0  0  0  0  0  0  0  0  0  0  0  # atno 10167 bound_to 10162
  157.1857  130.6823  149.6130 H   0  0  0  0  0  0  0  0  0  0  0  0  # atno 10718 bound_to 10713
  152.9976  135.6229  154.2420 H   0  0  0  0  0  0  0  0  0  0  0  0  # atno 10763 bound_to 10752
  154.2160  135.2798  155.2943 H   0  0  0  0  0  0  0  0  0  0  0  0  # atno 10764 bound_to 10752
  154.5567  135.5717  153.7029 H   0  0  0  0  0  0  0  0  0  0  0  0  # atno 10765 bound_to 10752
  140.7929  134.2947  157.5007 H   0  0  0  0  0  0  0  0  0  0  0  0  # atno 11005 bound_to 11000
  144.8119  139.5947  143.7026 LP  0  0  0  0  0  0  0  0  0  0  0  0  # atno 17320 bound_to 7965
  146.2554  139.6291  142.9398 LP  0  0  0  0  0  0  0  0  0  0  0  0  # atno 17321 bound_to 7965
  139.7496  144.7538  151.0527 LP  0  0  0  0  0  0  0  0  0  0  0  0  # atno 17342 bound_to 10162
  140.7791  143.4876  150.9935 LP  0  0  0  0  0  0  0  0  0  0  0  0  # atno 17343 bound_to 10162
  155.9718  130.4632  150.6172 LP  0  0  0  0  0  0  0  0  0  0  0  0  # atno 17370 bound_to 10713
  157.3910  131.0795  151.1394 LP  0  0  0  0  0  0  0  0  0  0  0  0  # atno 17371 bound_to 10713
  139.8729  134.9385  156.3717 LP  0  0  0  0  0  0  0  0  0  0  0  0  # atno 17394 bound_to 11000
  140.9371  133.7539  156.0099 LP  0  0  0  0  0  0  0  0  0  0  0  0  # atno 17395 bound_to 11000

$$$$
