AV-unprocessed.smi:3252|AV-procd|sdf|12442|dock6
  -GOLD-   2272018333D 1   1.00000     0.00000
 Structure written by MMmdl.
 37 38  0  0  0  0  0  0  0  0  2 V2000
  147.7424  127.9109  151.0641 C   0  0  0  0  0  0  0  0  0  0  0  0
  146.8838  128.9826  151.7509 C   0  0  0  0  0  0  0  0  0  0  0  0
  147.6999  130.0409  152.3964 N   0  3  2  0  0  0  0  0  0  0  0  0
  148.5659  129.5038  153.4725 C   0  0  0  0  0  0  0  0  0  0  0  0
  149.4233  130.6230  154.0844 C   0  0  0  0  0  0  0  0  0  0  0  0
  148.5766  131.6594  154.5630 O   0  0  0  0  0  0  0  0  0  0  0  0
  147.8143  132.2590  153.5201 C   0  0  2  0  0  0  0  0  0  0  0  0
  147.0052  133.4154  154.1235 C   0  0  0  0  0  0  0  0  0  0  0  0
  146.9283  134.5498  153.2134 N   0  0  0  0  0  0  0  0  0  0  0  0
  145.7904  135.3670  153.1837 C   0  0  0  0  0  0  0  0  0  0  0  0
  144.6023  134.8931  153.7791 C   0  0  0  0  0  0  0  0  0  0  0  0
  143.4567  135.7127  153.7563 C   0  0  0  0  0  0  0  0  0  0  0  0
  143.5398  136.9768  153.1399 C   0  0  0  0  0  0  0  0  0  0  0  0
  142.3873  137.8602  153.0932 C   0  0  0  0  0  0  0  0  0  0  0  0
  141.4697  138.5639  153.0560 N   0  0  0  0  0  0  0  0  0  0  0  0
  144.7703  137.3633  152.5708 C   0  0  0  0  0  0  0  0  0  0  0  0
  145.8720  136.5818  152.5901 N   0  0  0  0  0  0  0  0  0  0  0  0
  146.8991  131.1844  152.9004 C   0  0  0  0  0  0  0  0  0  0  0  0
  147.1148  127.1041  150.6851 H   0  0  0  0  0  0  0  0  0  0  0  0
  148.4574  127.4718  151.7604 H   0  0  0  0  0  0  0  0  0  0  0  0
  148.2979  128.3115  150.2165 H   0  0  0  0  0  0  0  0  0  0  0  0
  146.1845  129.4284  151.0421 H   0  0  0  0  0  0  0  0  0  0  0  0
  146.2793  128.4877  152.5124 H   0  0  0  0  0  0  0  0  0  0  0  0
  147.9471  129.0435  154.2443 H   0  0  0  0  0  0  0  0  0  0  0  0
  149.2151  128.7234  153.0733 H   0  0  0  0  0  0  0  0  0  0  0  0
  150.0105  130.2346  154.9167 H   0  0  0  0  0  0  0  0  0  0  0  0
  150.1299  131.0194  153.3538 H   0  0  0  0  0  0  0  0  0  0  0  0
  148.4834  132.6521  152.7518 H   0  0  0  0  0  0  0  0  0  0  0  0
  145.9906  133.0771  154.3382 H   0  0  0  0  0  0  0  0  0  0  0  0
  147.4469  133.7309  155.0698 H   0  0  0  0  0  0  0  0  0  0  0  0
  147.7514  134.8183  152.6936 H   0  0  0  0  0  0  0  0  0  0  0  0
  144.5646  133.9197  154.2465 H   0  0  0  0  0  0  0  0  0  0  0  0
  142.5348  135.3722  154.2056 H   0  0  0  0  0  0  0  0  0  0  0  0
  144.8799  138.3232  152.0872 H   0  0  0  0  0  0  0  0  0  0  0  0
  146.3258  131.6286  152.0873 H   0  0  0  0  0  0  0  0  0  0  0  0
  146.1804  130.8285  153.6408 H   0  0  0  0  0  0  0  0  0  0  0  0
  148.3200  130.4031  151.6860 H   0  0  0  0  0  0  0  0  0  0  0  0
  1  2  1  0  0  0  0
  1 19  1  0  0  0  0
  1 20  1  0  0  0  0
  1 21  1  0  0  0  0
  2  3  1  0  0  0  0
  2 22  1  0  0  0  0
  2 23  1  0  0  0  0
  3 18  1  0  0  0  0
  3  4  1  0  0  0  0
  3 37  1  0  0  0  0
  4  5  1  0  0  0  0
  4 24  1  0  0  0  0
  4 25  1  0  0  0  0
  5  6  1  0  0  0  0
  5 26  1  0  0  0  0
  5 27  1  0  0  0  0
  6  7  1  0  0  0  0
  7  8  1  0  0  0  0
  7 18  1  0  0  0  0
  7 28  1  0  0  0  0
  8  9  1  0  0  0  0
  8 29  1  0  0  0  0
  8 30  1  0  0  0  0
  9 10  1  0  0  0  0
  9 31  1  0  0  0  0
 10 17  1  0  0  0  0
 10 11  2  0  0  0  0
 11 12  1  0  0  0  0
 11 32  1  0  0  0  0
 12 13  2  0  0  0  0
 12 33  1  0  0  0  0
 13 14  1  0  0  0  0
 13 16  1  0  0  0  0
 14 15  3  0  0  0  0
 16 17  2  0  0  0  0
 16 34  1  0  0  0  0
 18 35  1  0  0  0  0
 18 36  1  0  0  0  0
M  CHG  1   3   1
M  END
> <s_m_source_file>
AV-unprocessed.smi

> <i_m_source_file_index>
3252

> <i_lp_mmshare_version>
43012

> <i_f3d_flags>
0

> <s_epik_input>
W0NIM11bQ0gyXU4xW0NIMl1bQ0gyXU9bQ0BIXShbQ0gyXTEpW0NIMl1bTkhdYzJbY0hdW2NIXWMoQyNOKVtjSF1uMg==

> <s_epik_cmdline>
J2VwaWtfcHl0aG9uJywgJy1waCcsICc3LjAnLCAnLXRuJywgJzgnLCAnLW1hJywgJzIwMCcsICctbWV0YWxfYmluZGluZycsICctaW1hZScsICc8aW5maWxlLm1hZT4nLCAnLW9tYWUnLCAnPG91dGZpbGUubWFlPic=

> <r_epik_Ionization_Penalty>
0.178512

> <r_epik_Ionization_Penalty_Charging>
0.178504

> <r_epik_Ionization_Penalty_Neutral>
8.15545e-06

> <r_epik_State_Penalty>
0.167974

> <r_epik_Charging_Adjusted_Penalty>
0.346478

> <i_epik_Tot_Q>
1

> <i_epik_Tot_abs_Q>
1

> <r_epik_Metal_State_Penalty>
0.167974

> <b_epik_Metal_Only>
0

> <s_lp_Force_Field>
OPLS_2005

> <r_lp_Energy>
17.709

> <b_lp_Chiralities_Consistent>
1

> <s_lp_Variant>
AV-unprocessed.smi:3252-4

> <Gold.Version>
5.8.1

> <Gold.Id.Protein>
6NUR|6NUR_protein|mol2

> <Gold.PLP.Fitness>
37.0076

> <Gold.PLP.PLP>
-26.5748

> <Gold.PLP.part.hbond>
-2.0000

> <Gold.PLP.part.metal>
0.0000

> <Gold.PLP.part.buried>
-3.6867

> <Gold.PLP.part.nonpolar>
-21.1669

> <Gold.PLP.part.repulsive>
0.4926

> <Gold.PLP.ligand.clash>
0.0000

> <Gold.PLP.ligand.torsion>
0.7872

> <Gold.PLP.Chemscore.Hbond>
2.0000

> <Gold.PLP.Chemscore.CHOScore>
1.9987

> <Gold.PLP.Chemscore.Metal>
0.0000

> <Gold.Chemscore.Hbonds>
donor molecule, donor type, donor heavy atom, donor atom, acceptor molecule, acceptor atom, score
      L1  H     3    37       P1 10747  1.00
      L1  H     9    31       P1  7948  1.00
      L1  C    16    34       P1 10171  0.76
      L1  C    16    34       P1 10175  1.00

> <Gold.PLP.Chemscore.Internal.Correction>
0.0112

> <Gold.Rescore>
     Score         DG    S(hbond)    S(metal)    S(lipo)     H(rot)  DE(clash)    DE(int)     intcor
     14.11     -15.00       1.94        0.00      58.07       1.47       0.10       0.80       ----

> <Gold.Chemscore.Fitness>
14.1074

> <Gold.Chemscore.DG>
-14.9979

> <Gold.Chemscore.ZeroCoef>
-5.4800

> <Gold.Chemscore.Hbond>
1.9407

> <Gold.Chemscore.Metal>
0.0000

> <Gold.Chemscore.Lipo>
58.0727

> <Gold.Chemscore.Internal_Hbond>
0.0000

> <Gold.Chemscore.DEClash>
0.0954

> <Gold.Chemscore.DEInternal>
0.7951

> <Gold.Chemscore.Rot>
1.4681

> <Gold.Chemscore.Internal.Correction>
   9.000000E+99

> <Gold.Chemscore.Hbonds>
donor molecule, donor type, donor heavy atom, donor atom, acceptor molecule, acceptor atom, score
      L1  H     3    37       P1 10747  0.94
      L1  H     9    31       P1  7948  0.86

> <Gold.Chemscore.Hbond.Weighted>
-6.4818

> <Gold.Chemscore.Metal.Weighted>
-0.0000

> <Gold.Chemscore.Lipo.Weighted>
-6.7945

> <Gold.Chemscore.Internal_Hbond.Weighted>
0.0000

> <Gold.Chemscore.DEClash.Weighted>
0.0954

> <Gold.Chemscore.DEInternal.Weighted>
0.7951

> <Gold.Chemscore.Rot.Weighted>
3.7584

> <Gold.Chemscore.Internal.Correction.Weighted>
   9.000000E+99

> <Gold.Protein.RotatedTorsions>
[ 6907 6896 6895 6894 ] final    3.62 input  -60.11 | X-H torsion
[ 7974 7965 7964 7962 ] final   57.01 input  175.53 | X-H torsion
[ 8008 7997 7996 7995 ] final -172.94 input   59.86 | X-H torsion
[ 10167 10162 10161 10158 ] final  -47.82 input  -65.29 | X-H torsion
[ 10718 10713 10712 10709 ] final   68.17 input   66.30 | X-H torsion
[ 10763 10752 10751 10750 ] final   62.20 input  -60.55 | X-H torsion
[ 11005 11000 10999 10996 ] final   88.86 input  -57.11 | X-H torsion

> <Gold.Protein.ActiveResidues>
 VAL166  LYS551  ARG553  GLY616  TRP617  ASP618  TYR619  PRO620  LYS621  CYS622 
 ASP623  PHE694  ASN695  SER759  ASP760  ASP761  ALA762  ILE779  LEU786  VAL792 
 PHE793  MET794  SER795  GLU796  ALA797  LYS798  CYS799  TRP800  GLU811  SER814 

> <Gold.Protein.RotatedAtoms>
  151.6281  135.1025  160.0115 H   0  0  0  0  0  0  0  0  0  0  0  0  # atno 6907 bound_to 6896
  152.4121  133.6976  159.6416 H   0  0  0  0  0  0  0  0  0  0  0  0  # atno 6908 bound_to 6896
  150.8011  133.8522  159.3249 H   0  0  0  0  0  0  0  0  0  0  0  0  # atno 6909 bound_to 6896
  145.9336  139.3828  143.0406 H   0  0  0  0  0  0  0  0  0  0  0  0  # atno 7974 bound_to 7965
  155.9510  140.1126  157.0977 H   0  0  0  0  0  0  0  0  0  0  0  0  # atno 8008 bound_to 7997
  154.4109  140.1200  156.5119 H   0  0  0  0  0  0  0  0  0  0  0  0  # atno 8009 bound_to 7997
  155.6842  140.3473  155.4870 H   0  0  0  0  0  0  0  0  0  0  0  0  # atno 8010 bound_to 7997
  140.6758  143.2767  151.3982 H   0  0  0  0  0  0  0  0  0  0  0  0  # atno 10167 bound_to 10162
  157.6273  130.9359  150.0341 H   0  0  0  0  0  0  0  0  0  0  0  0  # atno 10718 bound_to 10713
  152.9975  135.5473  154.6156 H   0  0  0  0  0  0  0  0  0  0  0  0  # atno 10763 bound_to 10752
  154.5467  135.2823  155.1048 H   0  0  0  0  0  0  0  0  0  0  0  0  # atno 10764 bound_to 10752
  154.2304  135.6434  153.5226 H   0  0  0  0  0  0  0  0  0  0  0  0  # atno 10765 bound_to 10752
  139.8887  134.8515  156.3060 H   0  0  0  0  0  0  0  0  0  0  0  0  # atno 11005 bound_to 11000
  145.8393  140.9589  143.0808 LP  0  0  0  0  0  0  0  0  0  0  0  0  # atno 17320 bound_to 7965
  144.6768  140.0264  143.7483 LP  0  0  0  0  0  0  0  0  0  0  0  0  # atno 17321 bound_to 7965
  139.6050  144.1216  152.2239 LP  0  0  0  0  0  0  0  0  0  0  0  0  # atno 17342 bound_to 10162
  140.0612  144.5855  150.7261 LP  0  0  0  0  0  0  0  0  0  0  0  0  # atno 17343 bound_to 10162
  156.1454  130.3642  149.9519 LP  0  0  0  0  0  0  0  0  0  0  0  0  # atno 17370 bound_to 10713
  156.7550  130.9130  151.3639 LP  0  0  0  0  0  0  0  0  0  0  0  0  # atno 17371 bound_to 10713
  140.9881  133.7225  156.0773 LP  0  0  0  0  0  0  0  0  0  0  0  0  # atno 17394 bound_to 11000
  140.7661  134.3885  157.5517 LP  0  0  0  0  0  0  0  0  0  0  0  0  # atno 17395 bound_to 11000

$$$$
