AV-unprocessed.smi:1207|AV-procd|sdf|5055|dock3
  -GOLD-   22720 4 83D 1   1.00000     0.00000
 Structure written by MMmdl.
 52 54  0  0  0  0  0  0  0  0  2 V2000
  152.2298  144.0815  161.5728 C   0  0  0  0  0  0  0  0  0  0  0  0
  152.0907  143.2193  160.3298 C   0  0  0  0  0  0  0  0  0  0  0  0
  151.2766  143.6857  159.2727 C   0  0  0  0  0  0  0  0  0  0  0  0
  151.1742  142.8773  158.1467 C   0  0  0  0  0  0  0  0  0  0  0  0
  150.4672  143.0513  156.9546 N   0  3  0  0  0  0  0  0  0  0  0  0
  150.6816  141.9817  156.1389 C   0  0  0  0  0  0  0  0  0  0  0  0
  151.5141  141.1279  156.7938 N   0  0  0  0  0  0  0  0  0  0  0  0
  152.0685  139.8361  156.3687 C   0  0  0  0  0  0  0  0  0  0  0  0
  151.0454  138.9669  155.6117 C   0  0  2  0  0  0  0  0  0  0  0  0
  150.8314  139.5180  154.3273 O   0  0  0  0  0  0  0  0  0  0  0  0
  149.6915  138.9107  156.3483 C   0  0  0  0  0  0  0  0  0  0  0  0
  148.7052  137.9919  155.7753 N   0  0  0  0  0  0  0  0  0  0  0  0
  147.7322  138.7373  154.9810 C   0  0  0  0  0  0  0  0  0  0  0  0
  148.0318  137.1925  156.8048 C   0  0  0  0  0  0  0  0  0  0  0  0
  148.7758  135.9282  157.1504 C   0  0  0  0  0  0  0  0  0  0  0  0
  149.8998  135.3637  156.4824 C   0  0  0  0  0  0  0  0  0  0  0  0
  150.6245  135.8856  155.2751 C   0  0  0  0  0  0  0  0  0  0  0  0
  150.3015  134.2404  157.0532 N   0  0  0  0  0  0  0  0  0  0  0  0
  149.4367  134.0288  158.1315 O   0  0  0  0  0  0  0  0  0  0  0  0
  148.5384  135.0459  158.1683 C   0  0  0  0  0  0  0  0  0  0  0  0
  147.5191  134.9967  159.2559 C   0  0  0  0  0  0  0  0  0  0  0  0
  151.8453  141.6432  158.0508 C   0  0  0  0  0  0  0  0  0  0  0  0
  152.6475  141.1661  159.0841 C   0  0  0  0  0  0  0  0  0  0  0  0
  152.7670  141.9750  160.2366 C   0  0  0  0  0  0  0  0  0  0  0  0
  153.6404  141.4836  161.3784 C   0  0  0  0  0  0  0  0  0  0  0  0
  151.6448  144.9981  161.4901 H   0  0  0  0  0  0  0  0  0  0  0  0
  153.2714  144.3643  161.7273 H   0  0  0  0  0  0  0  0  0  0  0  0
  151.8819  143.5427  162.4546 H   0  0  0  0  0  0  0  0  0  0  0  0
  150.7591  144.6317  159.3365 H   0  0  0  0  0  0  0  0  0  0  0  0
  150.2711  141.8390  155.1495 H   0  0  0  0  0  0  0  0  0  0  0  0
  152.9496  140.0275  155.7546 H   0  0  0  0  0  0  0  0  0  0  0  0
  152.4193  139.3186  157.2629 H   0  0  0  0  0  0  0  0  0  0  0  0
  151.4651  137.9717  155.4806 H   0  0  0  0  0  0  0  0  0  0  0  0
  150.4092  138.8640  153.7907 H   0  0  0  0  0  0  0  0  0  0  0  0
  149.8576  138.6392  157.3921 H   0  0  0  0  0  0  0  0  0  0  0  0
  149.2833  139.9226  156.3739 H   0  0  0  0  0  0  0  0  0  0  0  0
  147.0282  138.0685  154.4854 H   0  0  0  0  0  0  0  0  0  0  0  0
  148.2294  139.3134  154.2000 H   0  0  0  0  0  0  0  0  0  0  0  0
  147.1634  139.4298  155.6027 H   0  0  0  0  0  0  0  0  0  0  0  0
  147.9112  137.7772  157.7143 H   0  0  0  0  0  0  0  0  0  0  0  0
  147.0153  136.9671  156.4790 H   0  0  0  0  0  0  0  0  0  0  0  0
  149.9924  135.8294  154.3889 H   0  0  0  0  0  0  0  0  0  0  0  0
  151.5330  135.3180  155.0702 H   0  0  0  0  0  0  0  0  0  0  0  0
  150.9111  136.9281  155.4136 H   0  0  0  0  0  0  0  0  0  0  0  0
  147.1083  135.9870  159.4532 H   0  0  0  0  0  0  0  0  0  0  0  0
  147.9572  134.6244  160.1821 H   0  0  0  0  0  0  0  0  0  0  0  0
  146.6957  134.3375  158.9818 H   0  0  0  0  0  0  0  0  0  0  0  0
  153.1626  140.2196  159.0109 H   0  0  0  0  0  0  0  0  0  0  0  0
  154.0862  140.5148  161.1515 H   0  0  0  0  0  0  0  0  0  0  0  0
  153.0532  141.3743  162.2905 H   0  0  0  0  0  0  0  0  0  0  0  0
  154.4517  142.1864  161.5699 H   0  0  0  0  0  0  0  0  0  0  0  0
  149.8838  143.8415  156.7111 H   0  0  0  0  0  0  0  0  0  0  0  0
  1  2  1  0  0  0  0
  1 26  1  0  0  0  0
  1 27  1  0  0  0  0
  1 28  1  0  0  0  0
  2 24  1  0  0  0  0
  2  3  2  0  0  0  0
  3  4  1  0  0  0  0
  3 29  1  0  0  0  0
  4 22  2  0  0  0  0
  4  5  1  0  0  0  0
  5  6  2  0  0  0  0
  5 52  1  0  0  0  0
  6  7  1  0  0  0  0
  6 30  1  0  0  0  0
  7  8  1  0  0  0  0
  7 22  1  0  0  0  0
  8  9  1  0  0  0  0
  8 31  1  0  0  0  0
  8 32  1  0  0  0  0
  9 10  1  0  0  0  0
  9 11  1  0  0  0  0
  9 33  1  0  0  0  0
 10 34  1  0  0  0  0
 11 12  1  0  0  0  0
 11 35  1  0  0  0  0
 11 36  1  0  0  0  0
 12 13  1  0  0  0  0
 12 14  1  0  0  0  0
 13 37  1  0  0  0  0
 13 38  1  0  0  0  0
 13 39  1  0  0  0  0
 14 15  1  0  0  0  0
 14 40  1  0  0  0  0
 14 41  1  0  0  0  0
 15 20  2  0  0  0  0
 15 16  1  0  0  0  0
 16 17  1  0  0  0  0
 16 18  2  0  0  0  0
 17 42  1  0  0  0  0
 17 43  1  0  0  0  0
 17 44  1  0  0  0  0
 18 19  1  0  0  0  0
 19 20  1  0  0  0  0
 20 21  1  0  0  0  0
 21 45  1  0  0  0  0
 21 46  1  0  0  0  0
 21 47  1  0  0  0  0
 22 23  1  0  0  0  0
 23 24  2  0  0  0  0
 23 48  1  0  0  0  0
 24 25  1  0  0  0  0
 25 49  1  0  0  0  0
 25 50  1  0  0  0  0
 25 51  1  0  0  0  0
M  CHG  1   5   1
M  END
> <s_m_source_file>
AV-unprocessed.smi

> <i_m_source_file_index>
1207

> <i_lp_mmshare_version>
43012

> <i_f3d_flags>
0

> <s_epik_input>
W0NIM11jKFtjSF0xKWMoW0NIM10pW2NIXWMoYzEyKW4oW2NIXW4yKVtDSDJdW0NASF0oW09IXSlbQ0gyXU4oW0NIM10pW0NIMl1jM2MoW0NIM10pbm9jM1tDSDNd

> <s_epik_cmdline>
J2VwaWtfcHl0aG9uJywgJy1waCcsICc3LjAnLCAnLXRuJywgJzgnLCAnLW1hJywgJzIwMCcsICctbWV0YWxfYmluZGluZycsICctaW1hZScsICc8aW5maWxlLm1hZT4nLCAnLW9tYWUnLCAnPG91dGZpbGUubWFlPic=

> <r_epik_Ionization_Penalty>
1.48114

> <r_epik_Ionization_Penalty_Charging>
1.21121

> <r_epik_Ionization_Penalty_Neutral>
0.269933

> <r_epik_State_Penalty>
1.53013

> <r_epik_Charging_Adjusted_Penalty>
2.74134

> <i_epik_Tot_Q>
1

> <i_epik_Tot_abs_Q>
1

> <r_epik_Metal_State_Penalty>
1.60462

> <b_epik_Metal_Only>
0

> <s_lp_Force_Field>
OPLS_2005

> <r_lp_Energy>
21.4613

> <b_lp_Chiralities_Consistent>
1

> <s_lp_Variant>
AV-unprocessed.smi:1207-7

> <Gold.Version>
5.8.1

> <Gold.Id.Protein>
6NUR|6NUR_protein|mol2

> <Gold.PLP.Fitness>
51.4782

> <Gold.PLP.PLP>
-41.8745

> <Gold.PLP.part.hbond>
-3.7929

> <Gold.PLP.part.metal>
0.0000

> <Gold.PLP.part.buried>
-5.9554

> <Gold.PLP.part.nonpolar>
-32.0238

> <Gold.PLP.part.repulsive>
0.0523

> <Gold.PLP.ligand.clash>
0.0000

> <Gold.PLP.ligand.torsion>
1.4182

> <Gold.PLP.Chemscore.Hbond>
4.0000

> <Gold.PLP.Chemscore.CHOScore>
0.0000

> <Gold.PLP.Chemscore.Metal>
0.0000

> <Gold.Chemscore.Hbonds>
donor molecule, donor type, donor heavy atom, donor atom, acceptor molecule, acceptor atom, score
      L1  H     5    52       P1  8028  2.00
      P1  H  6896  6907       L1    19  0.80
      P1  H  7989  7998       L1    10  1.00

> <Gold.PLP.Chemscore.Internal.Correction>
0.4402

> <Gold.Rescore>
     Score         DG    S(hbond)    S(metal)    S(lipo)     H(rot)  DE(clash)    DE(int)     intcor
     18.61     -21.48       2.66        0.00     114.63       2.46       0.08       2.79       ----

> <Gold.Chemscore.Fitness>
18.6138

> <Gold.Chemscore.DG>
-21.4849

> <Gold.Chemscore.ZeroCoef>
-5.4800

> <Gold.Chemscore.Hbond>
2.6584

> <Gold.Chemscore.Metal>
0.0000

> <Gold.Chemscore.Lipo>
114.6311

> <Gold.Chemscore.Internal_Hbond>
0.0000

> <Gold.Chemscore.DEClash>
0.0775

> <Gold.Chemscore.DEInternal>
2.7936

> <Gold.Chemscore.Rot>
2.4555

> <Gold.Chemscore.Internal.Correction>
   9.000000E+99

> <Gold.Chemscore.Hbonds>
donor molecule, donor type, donor heavy atom, donor atom, acceptor molecule, acceptor atom, score
      L1  H     5    52       P1  8028  0.97
      P1  H  6896  6907       L1    19  0.10
      P1  H  7989  7998       L1    10  0.94

> <Gold.Chemscore.Hbond.Weighted>
-8.8791

> <Gold.Chemscore.Metal.Weighted>
-0.0000

> <Gold.Chemscore.Lipo.Weighted>
-13.4118

> <Gold.Chemscore.Internal_Hbond.Weighted>
0.0000

> <Gold.Chemscore.DEClash.Weighted>
0.0775

> <Gold.Chemscore.DEInternal.Weighted>
2.7936

> <Gold.Chemscore.Rot.Weighted>
6.2861

> <Gold.Chemscore.Internal.Correction.Weighted>
   9.000000E+99

> <Gold.Protein.RotatedTorsions>
[ 6907 6896 6895 6894 ] final  -95.31 input  -60.11 | X-H torsion
[ 7974 7965 7964 7962 ] final -163.50 input  175.53 | X-H torsion
[ 8008 7997 7996 7995 ] final  132.78 input   59.86 | X-H torsion
[ 10167 10162 10161 10158 ] final  147.33 input  -65.29 | X-H torsion
[ 10718 10713 10712 10709 ] final  172.45 input   66.30 | X-H torsion
[ 10763 10752 10751 10750 ] final -148.37 input  -60.55 | X-H torsion
[ 11005 11000 10999 10996 ] final  175.02 input  -57.11 | X-H torsion

> <Gold.Protein.ActiveResidues>
 VAL166  LYS551  ARG553  GLY616  TRP617  ASP618  TYR619  PRO620  LYS621  CYS622 
 ASP623  PHE694  ASN695  SER759  ASP760  ASP761  ALA762  ILE779  LEU786  VAL792 
 PHE793  MET794  SER795  GLU796  ALA797  LYS798  CYS799  TRP800  GLU811  SER814 

> <Gold.Protein.RotatedAtoms>
  150.6961  134.1678  159.4200 H   0  0  0  0  0  0  0  0  0  0  0  0  # atno 6907 bound_to 6896
  151.9656  135.0099  160.0559 H   0  0  0  0  0  0  0  0  0  0  0  0  # atno 6908 bound_to 6896
  152.1887  133.4723  159.5033 H   0  0  0  0  0  0  0  0  0  0  0  0  # atno 6909 bound_to 6896
  144.7324  140.3098  143.6190 H   0  0  0  0  0  0  0  0  0  0  0  0  # atno 7974 bound_to 7965
  156.2986  140.2538  156.3145 H   0  0  0  0  0  0  0  0  0  0  0  0  # atno 8008 bound_to 7997
  154.9295  140.0398  157.2059 H   0  0  0  0  0  0  0  0  0  0  0  0  # atno 8009 bound_to 7997
  154.8232  140.2863  155.5776 H   0  0  0  0  0  0  0  0  0  0  0  0  # atno 8010 bound_to 7997
  139.4892  144.5763  151.6958 H   0  0  0  0  0  0  0  0  0  0  0  0  # atno 10167 bound_to 10162
  156.9788  131.0112  151.2887 H   0  0  0  0  0  0  0  0  0  0  0  0  # atno 10718 bound_to 10713
  154.8236  135.3336  154.6963 H   0  0  0  0  0  0  0  0  0  0  0  0  # atno 10763 bound_to 10752
  153.7592  135.6934  153.4933 H   0  0  0  0  0  0  0  0  0  0  0  0  # atno 10764 bound_to 10752
  153.2122  135.4478  155.0342 H   0  0  0  0  0  0  0  0  0  0  0  0  # atno 10765 bound_to 10752
  140.3576  134.7141  157.4310 H   0  0  0  0  0  0  0  0  0  0  0  0  # atno 11005 bound_to 11000
  145.7676  139.1846  143.2231 LP  0  0  0  0  0  0  0  0  0  0  0  0  # atno 17320 bound_to 7965
  146.0936  140.7627  142.9583 LP  0  0  0  0  0  0  0  0  0  0  0  0  # atno 17321 bound_to 7965
  140.5360  144.0655  150.6070 LP  0  0  0  0  0  0  0  0  0  0  0  0  # atno 17342 bound_to 10162
  140.3661  143.2881  152.0330 LP  0  0  0  0  0  0  0  0  0  0  0  0  # atno 17343 bound_to 10162
  157.5541  130.8201  149.8181 LP  0  0  0  0  0  0  0  0  0  0  0  0  # atno 17370 bound_to 10713
  156.0253  130.3782  150.1842 LP  0  0  0  0  0  0  0  0  0  0  0  0  # atno 17371 bound_to 10713
  140.0652  134.5939  155.8703 LP  0  0  0  0  0  0  0  0  0  0  0  0  # atno 17394 bound_to 11000
  141.1994  133.6606  156.5840 LP  0  0  0  0  0  0  0  0  0  0  0  0  # atno 17395 bound_to 11000

$$$$
