#       Name:                AV-unprocessed.smi:845
#       Creating user name   scv26
#       Creation time:       Fri Mar 27 01:38:57 2020


#       File generated by GOLD software.
#

@<TRIPOS>MOLECULE
AV-unprocessed.smi:845
    48    49     1
SMALL
NO_CHARGES


@<TRIPOS>ATOM
      1 ****        -2.2482   0.5573  -2.8156 C.3            1 S1                 0.0000
      2 ****        -1.6481   1.0948  -1.5017 C.3            1 S1                 0.0000
      3 ****        -2.1797   2.5194  -1.2553 C.3            1 S1                 0.0000
      4 ****        -0.0916   1.0404  -1.5064 C.3            1 S1                 0.0000
      5 ****         0.5899   1.6330  -0.2403 C.3            1 S1                 0.0000
      6 ****        -0.0439   1.2243   1.0131 N.am           1 S1                 0.0000
      7 ****         0.5905   0.7180   2.0801 C.2            1 S1                 0.0000
      8 ****         1.8044   0.5160   2.1156 O.2            1 S1                 0.0000
      9 ****        -0.2698   0.4604   3.0806 N.am           1 S1                 0.0000
     10 ****         0.0096  -0.1026   4.3538 C.2            1 S1                 0.0000
     11 ****         1.2231  -0.5019   4.7522 N.2            1 S1                 0.0000
     12 ****         1.2050  -1.0195   6.0499 C.2            1 S1                 0.0000
     13 ****        -0.0401  -1.0087   6.6280 C.2            1 S1                 0.0000
     14 ****        -1.2466  -0.3438   5.5591 S.3            1 S1                 0.0000
     15 ****         0.4125  -0.3195  -1.8718 N.4            1 S1                 1.0000
     16 ****         1.7647  -0.3328  -2.4815 C.3            1 S1                 0.0000
     17 ****         2.0803  -1.7371  -3.0244 C.3            1 S1                 0.0000
     18 ****         1.9669  -2.6945  -1.9777 O.3            1 S1                 0.0000
     19 ****         0.6541  -2.7407  -1.4302 C.3            1 S1                 0.0000
     20 ****         0.3007  -1.3704  -0.8303 C.3            1 S1                 0.0000
     21 ****        -1.8950   1.1272  -3.6756 H              1 S1                 0.0000
     22 ****        -3.3368   0.6204  -2.8035 H              1 S1                 0.0000
     23 ****        -1.9955  -0.4900  -2.9817 H              1 S1                 0.0000
     24 ****        -2.0252   0.4657  -0.6953 H              1 S1                 0.0000
     25 ****        -1.8155   3.2149  -2.0123 H              1 S1                 0.0000
     26 ****        -1.8836   2.9044  -0.2799 H              1 S1                 0.0000
     27 ****        -3.2694   2.5418  -1.2846 H              1 S1                 0.0000
     28 ****         0.2130   1.6866  -2.3313 H              1 S1                 0.0000
     29 ****         1.6599   1.4254  -0.2418 H              1 S1                 0.0000
     30 ****         0.5166   2.7201  -0.2781 H              1 S1                 0.0000
     31 ****        -1.0426   1.3577   1.0781 H              1 S1                 0.0000
     32 ****        -1.2381   0.6910   2.9134 H              1 S1                 0.0000
     33 ****         2.1269  -1.3748   6.4862 H              1 S1                 0.0000
     34 ****        -0.3193  -1.3504   7.6137 H              1 S1                 0.0000
     35 ****         1.8200   0.3913  -3.2950 H              1 S1                 0.0000
     36 ****         2.5148  -0.0469  -1.7436 H              1 S1                 0.0000
     37 ****         1.4082  -1.9979  -3.8436 H              1 S1                 0.0000
     38 ****         3.0944  -1.7667  -3.4235 H              1 S1                 0.0000
     39 ****        -0.0658  -3.0288  -2.1977 H              1 S1                 0.0000
     40 ****         0.6208  -3.5088  -0.6575 H              1 S1                 0.0000
     41 ****         0.9863  -1.1596  -0.0107 H              1 S1                 0.0000
     42 ****        -0.7069  -1.3983  -0.4167 H              1 S1                 0.0000
     43 ****        -0.2027  -0.6181  -2.6150 H              1 S1                 0.0000
     44 ****         2.3707   0.7321   1.3202 LP             1 S1                 0.0000
     45 ****         2.2242   0.1359   2.9398 LP             1 S1                 0.0000
     46 ****         2.0460  -0.4374   4.1876 LP             1 S1                 0.0000
     47 ****         2.6106  -2.4546  -1.2509 LP             1 S1                 0.0000
     48 ****         2.1961  -3.5974  -2.3412 LP             1 S1                 0.0000
@<TRIPOS>BOND
    1    1    2 1     
    2    1   21 1     
    3    1   22 1     
    4    1   23 1     
    5    2    3 1     
    6    2    4 1     
    7    2   24 1     
    8    3   25 1     
    9    3   26 1     
   10    3   27 1     
   11    4    5 1     
   12    4   15 1     
   13    4   28 1     
   14    5    6 1     
   15    5   29 1     
   16    5   30 1     
   17    6    7 am    
   18    6   31 1     
   19    7    8 2     
   20    7    9 am    
   21    9   10 1     
   22    9   32 1     
   23   10   14 1     
   24   10   11 2     
   25   11   12 1     
   26   12   13 2     
   27   12   33 1     
   28   13   14 1     
   29   13   34 1     
   30   15   20 1     
   31   15   16 1     
   32   15   43 1     
   33   16   17 1     
   34   16   35 1     
   35   16   36 1     
   36   17   18 1     
   37   17   37 1     
   38   17   38 1     
   39   18   19 1     
   40   19   20 1     
   41   19   39 1     
   42   19   40 1     
   43   20   41 1     
   44   20   42 1     
   45    8   44 1     
   46    8   45 1     
   47   11   46 1     
   48   18   47 1     
   49   18   48 1     
@<TRIPOS>SUBSTRUCTURE
      1 S1             1
@<TRIPOS>SET
LONE_PAIRS      STATIC     ATOMS    <user>   **** ""
5 44 45 46 47 48
DONOR_HYDROGENS      STATIC     ATOMS    <user>   **** ""
3 31 32 43
ATOM$BLUE        STATIC     ATOMS    COLORGROUP SYSTEM
5 44 45 46 47 48
ATOM$RED        STATIC     ATOMS    COLORGROUP SYSTEM
3 31 32 43
