AV-unprocessed.smi:203|AV-procd|sdf|1590|dock9
  -GOLD-   2262019493D 1   1.00000     0.00000
 Structure written by MMmdl.
 57 61  0  0  0  0  0  0  0  0  1 V2000
  151.2523  145.6759  159.5319 O   0  0  0  0  0  0  0  0  0  0  0  0
  151.0859  144.4902  159.2560 C   0  0  0  0  0  0  0  0  0  0  0  0
  152.1644  143.6127  158.6448 C   0  0  0  0  0  0  0  0  0  0  0  0
  151.5549  142.1971  158.6969 C   0  0  1  0  0  0  0  0  0  0  0  0
  152.2678  141.2183  159.6849 C   0  0  2  0  0  0  0  0  0  0  0  0
  153.1957  141.9464  160.6926 C   0  0  0  0  0  0  0  0  0  0  0  0
  153.8654  140.9600  161.6591 C   0  0  0  0  0  0  0  0  0  0  0  0
  154.6229  139.8862  160.8699 C   0  0  0  0  0  0  0  0  0  0  0  0
  153.6817  139.1848  159.8811 C   0  0  0  0  0  0  0  0  0  0  0  0
  153.0210  140.1494  159.0032 N   0  0  0  0  0  0  0  0  0  0  0  0
  152.3741  139.5175  157.9996 C   0  0  0  0  0  0  0  0  0  0  0  0
  152.6347  139.9331  156.7361 N   0  0  0  0  0  0  0  0  0  0  0  0
  151.9765  139.3901  155.7077 C   0  0  0  0  0  0  0  0  0  0  0  0
  151.0333  138.4454  155.7250 N   0  0  0  0  0  0  0  0  0  0  0  0
  150.7825  138.0176  156.9959 C   0  0  0  0  0  0  0  0  0  0  0  0
  151.4115  138.4856  158.1820 C   0  0  0  0  0  0  0  0  0  0  0  0
  150.8989  137.8180  159.2883 N   0  0  0  0  0  0  0  0  0  0  0  0
  149.9952  137.0213  158.7870 C   0  0  0  0  0  0  0  0  0  0  0  0
  149.8446  137.0942  157.4213 N   0  0  0  0  0  0  0  0  0  0  0  0
  148.8715  136.3805  156.6165 C   0  0  0  0  0  0  0  0  0  0  0  0
  149.5219  135.6160  155.4419 C   0  0  2  0  0  0  0  0  0  0  0  0
  148.5690  135.5547  154.3998 O   0  0  0  0  0  0  0  0  0  0  0  0
  149.9919  134.1839  155.7908 C   0  0  1  0  0  0  0  0  0  0  0  0
  150.4581  133.3482  154.5961 C   0  0  0  0  0  0  0  0  0  0  0  0
  151.4034  132.3269  155.2126 C   0  0  0  0  0  0  0  0  0  0  0  0
  151.6980  132.8871  156.6056 C   0  0  0  0  0  0  0  0  0  0  0  0
  151.1756  134.2055  156.5771 O   0  0  0  0  0  0  0  0  0  0  0  0
  150.0611  142.4152  159.0197 C   0  0  0  0  0  0  0  0  0  0  0  0
  149.9628  143.7995  159.4391 N   0  0  0  0  0  0  0  0  0  0  0  0
  152.3423  143.9249  157.6152 H   0  0  0  0  0  0  0  0  0  0  0  0
  153.1043  143.6998  159.1899 H   0  0  0  0  0  0  0  0  0  0  0  0
  151.5869  141.7741  157.6924 H   0  0  0  0  0  0  0  0  0  0  0  0
  151.4884  140.7295  160.2706 H   0  0  0  0  0  0  0  0  0  0  0  0
  153.9723  142.4979  160.1621 H   0  0  0  0  0  0  0  0  0  0  0  0
  152.6410  142.6840  161.2712 H   0  0  0  0  0  0  0  0  0  0  0  0
  154.5475  141.4889  162.3253 H   0  0  0  0  0  0  0  0  0  0  0  0
  153.1098  140.4914  162.2908 H   0  0  0  0  0  0  0  0  0  0  0  0
  155.4511  140.3434  160.3269 H   0  0  0  0  0  0  0  0  0  0  0  0
  155.0608  139.1565  161.5513 H   0  0  0  0  0  0  0  0  0  0  0  0
  154.2483  138.4666  159.2861 H   0  0  0  0  0  0  0  0  0  0  0  0
  152.9278  138.6183  160.4298 H   0  0  0  0  0  0  0  0  0  0  0  0
  152.2337  139.7763  154.7323 H   0  0  0  0  0  0  0  0  0  0  0  0
  149.3906  136.3743  159.4059 H   0  0  0  0  0  0  0  0  0  0  0  0
  148.3307  135.6895  157.2649 H   0  0  0  0  0  0  0  0  0  0  0  0
  148.1384  137.0981  156.2461 H   0  0  0  0  0  0  0  0  0  0  0  0
  150.3746  136.1861  155.0709 H   0  0  0  0  0  0  0  0  0  0  0  0
  149.0277  135.5201  153.5744 H   0  0  0  0  0  0  0  0  0  0  0  0
  149.2092  133.6485  156.3320 H   0  0  0  0  0  0  0  0  0  0  0  0
  149.6297  132.8858  154.0588 H   0  0  0  0  0  0  0  0  0  0  0  0
  151.0077  133.9736  153.8913 H   0  0  0  0  0  0  0  0  0  0  0  0
  150.9410  131.3421  155.2841 H   0  0  0  0  0  0  0  0  0  0  0  0
  152.3115  132.2301  154.6166 H   0  0  0  0  0  0  0  0  0  0  0  0
  151.1782  132.3124  157.3736 H   0  0  0  0  0  0  0  0  0  0  0  0
  152.7617  132.8902  156.8435 H   0  0  0  0  0  0  0  0  0  0  0  0
  149.4477  142.2764  158.1286 H   0  0  0  0  0  0  0  0  0  0  0  0
  149.6810  141.7399  159.7862 H   0  0  0  0  0  0  0  0  0  0  0  0
  149.1184  144.1895  159.8326 H   0  0  0  0  0  0  0  0  0  0  0  0
  1  2  2  0  0  0  0
  2 29  1  0  0  0  0
  2  3  1  0  0  0  0
  3  4  1  0  0  0  0
  3 30  1  0  0  0  0
  3 31  1  0  0  0  0
  4  5  1  0  0  0  0
  4 28  1  0  0  0  0
  4 32  1  0  0  0  0
  5 10  1  0  0  0  0
  5  6  1  0  0  0  0
  5 33  1  0  0  0  0
  6  7  1  0  0  0  0
  6 34  1  0  0  0  0
  6 35  1  0  0  0  0
  7  8  1  0  0  0  0
  7 36  1  0  0  0  0
  7 37  1  0  0  0  0
  8  9  1  0  0  0  0
  8 38  1  0  0  0  0
  8 39  1  0  0  0  0
  9 10  1  0  0  0  0
  9 40  1  0  0  0  0
  9 41  1  0  0  0  0
 10 11  1  0  0  0  0
 11 16  1  0  0  0  0
 11 12  2  0  0  0  0
 12 13  1  0  0  0  0
 13 14  2  0  0  0  0
 13 42  1  0  0  0  0
 14 15  1  0  0  0  0
 15 19  1  0  0  0  0
 15 16  2  0  0  0  0
 16 17  1  0  0  0  0
 17 18  2  0  0  0  0
 18 19  1  0  0  0  0
 18 43  1  0  0  0  0
 19 20  1  0  0  0  0
 20 21  1  0  0  0  0
 20 44  1  0  0  0  0
 20 45  1  0  0  0  0
 21 22  1  0  0  0  0
 21 23  1  0  0  0  0
 21 46  1  0  0  0  0
 22 47  1  0  0  0  0
 23 27  1  0  0  0  0
 23 24  1  0  0  0  0
 23 48  1  0  0  0  0
 24 25  1  0  0  0  0
 24 49  1  0  0  0  0
 24 50  1  0  0  0  0
 25 26  1  0  0  0  0
 25 51  1  0  0  0  0
 25 52  1  0  0  0  0
 26 27  1  0  0  0  0
 26 53  1  0  0  0  0
 26 54  1  0  0  0  0
 28 29  1  0  0  0  0
 28 55  1  0  0  0  0
 28 56  1  0  0  0  0
 29 57  1  0  0  0  0
M  END
> <s_m_source_file>
AV-unprocessed.smi

> <i_m_source_file_index>
203

> <i_lp_mmshare_version>
43012

> <i_f3d_flags>
0

> <s_epik_input>
Tz1DMVtDSDJdW0NASF0oW0NIMl1bTkhdMSlbQ0BASF0yW0NIMl1bQ0gyXVtDSDJdW0NIMl1OMmMobltjSF1uMyljKGMzNCluW2NIXW40W0NIMl1bQ0BIXShbT0hdKVtDQEBIXTVbQ0gyXVtDSDJdW0NIMl1PNQ==

> <s_epik_cmdline>
J2VwaWtfcHl0aG9uJywgJy1waCcsICc3LjAnLCAnLXRuJywgJzgnLCAnLW1hJywgJzIwMCcsICctbWV0YWxfYmluZGluZycsICctaW1hZScsICc8aW5maWxlLm1hZT4nLCAnLW9tYWUnLCAnPG91dGZpbGUubWFlPic=

> <r_lp_tautomer_probability>
1

> <r_epik_Ionization_Penalty>
0.00175146

> <r_epik_Ionization_Penalty_Charging>
0

> <r_epik_Ionization_Penalty_Neutral>
0.00175146

> <r_epik_State_Penalty>
0.00109045

> <r_epik_Charging_Adjusted_Penalty>
0.00109045

> <i_epik_Tot_Q>
0

> <i_epik_Tot_abs_Q>
0

> <r_epik_Metal_State_Penalty>
-0

> <b_epik_Metal_Only>
0

> <s_lp_Force_Field>
OPLS_2005

> <r_lp_Energy>
55.9411

> <b_lp_Chiralities_Consistent>
1

> <s_lp_Variant>
AV-unprocessed.smi:203-9

> <Gold.Version>
5.8.1

> <Gold.Id.Protein>
6NUR|6NUR_protein|mol2

> <Gold.PLP.Fitness>
47.1791

> <Gold.PLP.PLP>
-45.2785

> <Gold.PLP.part.hbond>
-3.6253

> <Gold.PLP.part.metal>
0.0000

> <Gold.PLP.part.buried>
-6.5470

> <Gold.PLP.part.nonpolar>
-35.3203

> <Gold.PLP.part.repulsive>
0.2545

> <Gold.PLP.ligand.clash>
0.0000

> <Gold.PLP.ligand.torsion>
2.2168

> <Gold.PLP.Chemscore.Hbond>
2.0000

> <Gold.PLP.Chemscore.CHOScore>
0.0000

> <Gold.PLP.Chemscore.Metal>
0.0000

> <Gold.Chemscore.Hbonds>
donor molecule, donor type, donor heavy atom, donor atom, acceptor molecule, acceptor atom, score
      L1  H    22    47       P1  7948  0.85
      P1  H  7997  8009       L1    12  1.00

> <Gold.PLP.Chemscore.Internal.Correction>
0.3343

> <Gold.Rescore>
     Score         DG    S(hbond)    S(metal)    S(lipo)     H(rot)  DE(clash)    DE(int)     intcor
     13.27     -15.58       1.82        0.00      93.75       2.72       1.40       0.91       ----

> <Gold.Chemscore.Fitness>
13.2654

> <Gold.Chemscore.DG>
-15.5849

> <Gold.Chemscore.ZeroCoef>
-5.4800

> <Gold.Chemscore.Hbond>
1.8241

> <Gold.Chemscore.Metal>
0.0000

> <Gold.Chemscore.Lipo>
93.7454

> <Gold.Chemscore.Internal_Hbond>
0.0000

> <Gold.Chemscore.DEClash>
1.4046

> <Gold.Chemscore.DEInternal>
0.9149

> <Gold.Chemscore.Rot>
2.7171

> <Gold.Chemscore.Internal.Correction>
   9.000000E+99

> <Gold.Chemscore.Hbonds>
donor molecule, donor type, donor heavy atom, donor atom, acceptor molecule, acceptor atom, score
      L1  H    22    47       P1  7948  0.62
      P1  H  7997  8009       L1    12  0.70

> <Gold.Chemscore.Hbond.Weighted>
-6.0924

> <Gold.Chemscore.Metal.Weighted>
-0.0000

> <Gold.Chemscore.Lipo.Weighted>
-10.9682

> <Gold.Chemscore.Internal_Hbond.Weighted>
0.0000

> <Gold.Chemscore.DEClash.Weighted>
1.4046

> <Gold.Chemscore.DEInternal.Weighted>
0.9149

> <Gold.Chemscore.Rot.Weighted>
6.9557

> <Gold.Chemscore.Internal.Correction.Weighted>
   9.000000E+99

> <Gold.Protein.RotatedTorsions>
[ 6907 6896 6895 6894 ] final  -82.83 input  -60.11 | X-H torsion
[ 7974 7965 7964 7962 ] final -164.22 input  175.53 | X-H torsion
[ 8008 7997 7996 7995 ] final -162.56 input   59.86 | X-H torsion
[ 10167 10162 10161 10158 ] final  -88.64 input  -65.29 | X-H torsion
[ 10718 10713 10712 10709 ] final   83.09 input   66.30 | X-H torsion
[ 10763 10752 10751 10750 ] final  -36.73 input  -60.55 | X-H torsion
[ 11005 11000 10999 10996 ] final -173.66 input  -57.11 | X-H torsion

> <Gold.Protein.ActiveResidues>
 VAL166  LYS551  ARG553  GLY616  TRP617  ASP618  TYR619  PRO620  LYS621  CYS622 
 ASP623  PHE694  ASN695  SER759  ASP760  ASP761  ALA762  ILE779  LEU786  VAL792 
 PHE793  MET794  SER795  GLU796  ALA797  LYS798  CYS799  TRP800  GLU811  SER814 

> <Gold.Protein.RotatedAtoms>
  150.6892  134.3605  159.4948 H   0  0  0  0  0  0  0  0  0  0  0  0  # atno 6907 bound_to 6896
  152.1435  134.9041  160.0561 H   0  0  0  0  0  0  0  0  0  0  0  0  # atno 6908 bound_to 6896
  152.0166  133.3847  159.4278 H   0  0  0  0  0  0  0  0  0  0  0  0  # atno 6909 bound_to 6896
  144.7303  140.2993  143.6207 H   0  0  0  0  0  0  0  0  0  0  0  0  # atno 7974 bound_to 7965
  155.8086  140.0902  157.1916 H   0  0  0  0  0  0  0  0  0  0  0  0  # atno 8008 bound_to 7997
  154.3980  140.1459  156.3419 H   0  0  0  0  0  0  0  0  0  0  0  0  # atno 8009 bound_to 7997
  155.8388  140.3439  155.5621 H   0  0  0  0  0  0  0  0  0  0  0  0  # atno 8010 bound_to 7997
  140.3727  143.2787  151.9481 H   0  0  0  0  0  0  0  0  0  0  0  0  # atno 10167 bound_to 10162
  157.6871  131.0076  150.2472 H   0  0  0  0  0  0  0  0  0  0  0  0  # atno 10718 bound_to 10713
  153.8846  135.6818  153.4764 H   0  0  0  0  0  0  0  0  0  0  0  0  # atno 10763 bound_to 10752
  153.1214  135.4738  154.9200 H   0  0  0  0  0  0  0  0  0  0  0  0  # atno 10764 bound_to 10752
  154.7652  135.3222  154.8253 H   0  0  0  0  0  0  0  0  0  0  0  0  # atno 10765 bound_to 10752
  140.4832  134.6055  157.4927 H   0  0  0  0  0  0  0  0  0  0  0  0  # atno 11005 bound_to 11000
  145.7776  139.1880  143.2176 LP  0  0  0  0  0  0  0  0  0  0  0  0  # atno 17320 bound_to 7965
  146.0860  140.7710  142.9618 LP  0  0  0  0  0  0  0  0  0  0  0  0  # atno 17321 bound_to 7965
  139.4802  144.5892  151.7801 LP  0  0  0  0  0  0  0  0  0  0  0  0  # atno 17342 bound_to 10162
  140.5017  144.1158  150.5973 LP  0  0  0  0  0  0  0  0  0  0  0  0  # atno 17343 bound_to 10162
  156.3075  130.3767  149.7692 LP  0  0  0  0  0  0  0  0  0  0  0  0  # atno 17370 bound_to 10713
  156.5303  130.8254  151.3234 LP  0  0  0  0  0  0  0  0  0  0  0  0  # atno 17371 bound_to 10713
  139.9814  134.7132  155.9853 LP  0  0  0  0  0  0  0  0  0  0  0  0  # atno 17394 bound_to 11000
  141.1521  133.6547  156.4045 LP  0  0  0  0  0  0  0  0  0  0  0  0  # atno 17395 bound_to 11000

$$$$
