AV-unprocessed.smi:1633|AV-procd|sdf|6534|dock8
  -GOLD-   22720 7213D 1   1.00000     0.00000
 Structure written by MMmdl.
 52 54  0  0  0  0  0  0  0  0  3 V2000
  145.5768  133.1499  156.1854 C   0  0  0  0  0  0  0  0  0  0  0  0
  146.8580  132.7896  155.4300 C   0  0  0  0  0  0  0  0  0  0  0  0
  147.3006  131.6480  155.5540 O   0  0  0  0  0  0  0  0  0  0  0  0
  147.4594  133.7266  154.6582 N   0  0  0  0  0  0  0  0  0  0  0  0
  148.7132  133.4792  153.9405 C   0  0  0  0  0  0  0  0  0  0  0  0
  149.8216  134.3644  154.5385 C   0  0  0  0  0  0  0  0  0  0  0  0
  149.4378  135.8012  154.5243 N   0  3  0  0  0  0  0  0  0  0  0  0
  150.5101  136.6746  155.0680 C   0  0  0  0  0  0  0  0  0  0  0  0
  150.2034  138.1771  154.9021 C   0  0  2  0  0  0  0  0  0  0  0  0
  150.0911  138.4660  153.5222 O   0  0  0  0  0  0  0  0  0  0  0  0
  151.3066  139.0555  155.5250 C   0  0  0  0  0  0  0  0  0  0  0  0
  150.8454  140.4150  155.8441 N   0  0  0  0  0  0  0  0  0  0  0  0
  149.9385  141.1972  155.1971 C   0  0  0  0  0  0  0  0  0  0  0  0
  149.8457  142.3713  155.8806 N   0  3  0  0  0  0  0  0  0  0  0  0
  150.7039  142.3391  156.9815 C   0  0  0  0  0  0  0  0  0  0  0  0
  150.9592  143.2891  157.9631 C   0  0  0  0  0  0  0  0  0  0  0  0
  151.9027  142.9502  158.9587 C   0  0  0  0  0  0  0  0  0  0  0  0
  152.2101  143.9690  160.0431 C   0  0  0  0  0  0  0  0  0  0  0  0
  152.5519  141.6886  158.9500 C   0  0  0  0  0  0  0  0  0  0  0  0
  153.5636  141.3342  160.0267 C   0  0  0  0  0  0  0  0  0  0  0  0
  152.2769  140.7351  157.9435 C   0  0  0  0  0  0  0  0  0  0  0  0
  151.3471  141.0859  156.9670 C   0  0  0  0  0  0  0  0  0  0  0  0
  148.1015  136.0419  155.1363 C   0  0  0  0  0  0  0  0  0  0  0  0
  147.0303  135.1222  154.5224 C   0  0  0  0  0  0  0  0  0  0  0  0
  145.7554  133.9679  156.8839 H   0  0  0  0  0  0  0  0  0  0  0  0
  145.2165  132.2955  156.7596 H   0  0  0  0  0  0  0  0  0  0  0  0
  144.7871  133.4399  155.4918 H   0  0  0  0  0  0  0  0  0  0  0  0
  149.0231  132.4337  153.9713 H   0  0  0  0  0  0  0  0  0  0  0  0
  148.5726  133.7160  152.8848 H   0  0  0  0  0  0  0  0  0  0  0  0
  150.0285  134.0559  155.5649 H   0  0  0  0  0  0  0  0  0  0  0  0
  150.7429  134.2239  153.9719 H   0  0  0  0  0  0  0  0  0  0  0  0
  150.6748  136.4304  156.1185 H   0  0  0  0  0  0  0  0  0  0  0  0
  151.4488  136.4577  154.5555 H   0  0  0  0  0  0  0  0  0  0  0  0
  149.2569  138.4277  155.3800 H   0  0  0  0  0  0  0  0  0  0  0  0
  149.7643  137.6972  153.0796 H   0  0  0  0  0  0  0  0  0  0  0  0
  151.6494  138.6097  156.4596 H   0  0  0  0  0  0  0  0  0  0  0  0
  152.1827  139.1140  154.8785 H   0  0  0  0  0  0  0  0  0  0  0  0
  149.3891  140.9345  154.3044 H   0  0  0  0  0  0  0  0  0  0  0  0
  150.4601  144.2473  157.9649 H   0  0  0  0  0  0  0  0  0  0  0  0
  151.9327  143.5798  161.0230 H   0  0  0  0  0  0  0  0  0  0  0  0
  151.6613  144.8979  159.8854 H   0  0  0  0  0  0  0  0  0  0  0  0
  153.2733  144.2097  160.0540 H   0  0  0  0  0  0  0  0  0  0  0  0
  153.9281  140.3130  159.9120 H   0  0  0  0  0  0  0  0  0  0  0  0
  153.1156  141.4165  161.0173 H   0  0  0  0  0  0  0  0  0  0  0  0
  154.4232  142.0032  159.9774 H   0  0  0  0  0  0  0  0  0  0  0  0
  152.7763  139.7778  157.9372 H   0  0  0  0  0  0  0  0  0  0  0  0
  148.1596  135.8712  156.2127 H   0  0  0  0  0  0  0  0  0  0  0  0
  147.7993  137.0789  154.9959 H   0  0  0  0  0  0  0  0  0  0  0  0
  146.9069  135.3519  153.4629 H   0  0  0  0  0  0  0  0  0  0  0  0
  146.0642  135.3316  154.9791 H   0  0  0  0  0  0  0  0  0  0  0  0
  149.3510  136.0457  153.5476 H   0  0  0  0  0  0  0  0  0  0  0  0
  149.2382  143.1360  155.6147 H   0  0  0  0  0  0  0  0  0  0  0  0
  1  2  1  0  0  0  0
  1 25  1  0  0  0  0
  1 26  1  0  0  0  0
  1 27  1  0  0  0  0
  2  3  2  0  0  0  0
  2  4  1  0  0  0  0
  4 24  1  0  0  0  0
  4  5  1  0  0  0  0
  5  6  1  0  0  0  0
  5 28  1  0  0  0  0
  5 29  1  0  0  0  0
  6  7  1  0  0  0  0
  6 30  1  0  0  0  0
  6 31  1  0  0  0  0
  7  8  1  0  0  0  0
  7 23  1  0  0  0  0
  7 51  1  0  0  0  0
  8  9  1  0  0  0  0
  8 32  1  0  0  0  0
  8 33  1  0  0  0  0
  9 10  1  0  0  0  0
  9 11  1  0  0  0  0
  9 34  1  0  0  0  0
 10 35  1  0  0  0  0
 11 12  1  0  0  0  0
 11 36  1  0  0  0  0
 11 37  1  0  0  0  0
 12 22  1  0  0  0  0
 12 13  1  0  0  0  0
 13 14  2  0  0  0  0
 13 38  1  0  0  0  0
 14 15  1  0  0  0  0
 14 52  1  0  0  0  0
 15 22  2  0  0  0  0
 15 16  1  0  0  0  0
 16 17  2  0  0  0  0
 16 39  1  0  0  0  0
 17 18  1  0  0  0  0
 17 19  1  0  0  0  0
 18 40  1  0  0  0  0
 18 41  1  0  0  0  0
 18 42  1  0  0  0  0
 19 20  1  0  0  0  0
 19 21  2  0  0  0  0
 20 43  1  0  0  0  0
 20 44  1  0  0  0  0
 20 45  1  0  0  0  0
 21 22  1  0  0  0  0
 21 46  1  0  0  0  0
 23 24  1  0  0  0  0
 23 47  1  0  0  0  0
 23 48  1  0  0  0  0
 24 49  1  0  0  0  0
 24 50  1  0  0  0  0
M  CHG  1   7   1
M  CHG  1  14   1
M  END
> <s_m_source_file>
AV-unprocessed.smi

> <i_m_source_file_index>
1633

> <i_lp_mmshare_version>
43012

> <i_f3d_flags>
0

> <s_epik_input>
W0NIM11DKD1PKU4xW0NIMl1bQ0gyXU4oW0NIMl1bQ0gyXTEpW0NIMl1bQ0BIXShbT0hdKVtDSDJdbihbY0hdbjIpYyhjMjMpW2NIXWMoW0NIM10pYyhbY0hdMylbQ0gzXQ==

> <s_epik_cmdline>
J2VwaWtfcHl0aG9uJywgJy1waCcsICc3LjAnLCAnLXRuJywgJzgnLCAnLW1hJywgJzIwMCcsICctbWV0YWxfYmluZGluZycsICctaW1hZScsICc8aW5maWxlLm1hZT4nLCAnLW9tYWUnLCAnPG91dGZpbGUubWFlPic=

> <r_epik_Ionization_Penalty>
1.18448

> <r_epik_Ionization_Penalty_Charging>
1.18447

> <r_epik_Ionization_Penalty_Neutral>
4.53746e-06

> <r_epik_State_Penalty>
1.28566

> <r_epik_Charging_Adjusted_Penalty>
2.47013

> <i_epik_Tot_Q>
2

> <i_epik_Tot_abs_Q>
2

> <r_epik_Metal_State_Penalty>
5.30076

> <b_epik_Metal_Only>
0

> <s_lp_Force_Field>
OPLS_2005

> <r_lp_Energy>
52.9318

> <b_lp_Chiralities_Consistent>
1

> <s_lp_Variant>
AV-unprocessed.smi:1633-3

> <Gold.Version>
5.8.1

> <Gold.Id.Protein>
6NUR|6NUR_protein|mol2

> <Gold.PLP.Fitness>
57.2075

> <Gold.PLP.PLP>
-43.3509

> <Gold.PLP.part.hbond>
-4.0000

> <Gold.PLP.part.metal>
0.0000

> <Gold.PLP.part.buried>
-5.0415

> <Gold.PLP.part.nonpolar>
-35.7711

> <Gold.PLP.part.repulsive>
0.1993

> <Gold.PLP.ligand.clash>
0.0000

> <Gold.PLP.ligand.torsion>
0.5876

> <Gold.PLP.Chemscore.Hbond>
5.0000

> <Gold.PLP.Chemscore.CHOScore>
0.0000

> <Gold.PLP.Chemscore.Metal>
0.0000

> <Gold.Chemscore.Hbonds>
donor molecule, donor type, donor heavy atom, donor atom, acceptor molecule, acceptor atom, score
      L1  H     7    51       P1  7948  2.00
      L1  H    10    35       P1  7948  1.00
      L1  H    14    52       P1  8028  1.98

> <Gold.PLP.Chemscore.Internal.Correction>
0.0318

> <Gold.Rescore>
     Score         DG    S(hbond)    S(metal)    S(lipo)     H(rot)  DE(clash)    DE(int)     intcor
     21.30     -22.04       2.86        0.00     108.41       2.22       0.18       0.57       ----

> <Gold.Chemscore.Fitness>
21.2998

> <Gold.Chemscore.DG>
-22.0437

> <Gold.Chemscore.ZeroCoef>
-5.4800

> <Gold.Chemscore.Hbond>
2.8616

> <Gold.Chemscore.Metal>
0.0000

> <Gold.Chemscore.Lipo>
108.4061

> <Gold.Chemscore.Internal_Hbond>
0.0000

> <Gold.Chemscore.DEClash>
0.1767

> <Gold.Chemscore.DEInternal>
0.5672

> <Gold.Chemscore.Rot>
2.2178

> <Gold.Chemscore.Internal.Correction>
   9.000000E+99

> <Gold.Chemscore.Hbonds>
donor molecule, donor type, donor heavy atom, donor atom, acceptor molecule, acceptor atom, score
      L1  H     7    51       P1  7948  0.65
      L1  H    10    35       P1  7948  0.56
      L1  H    14    52       P1  8028  0.94

> <Gold.Chemscore.Hbond.Weighted>
-9.5577

> <Gold.Chemscore.Metal.Weighted>
-0.0000

> <Gold.Chemscore.Lipo.Weighted>
-12.6835

> <Gold.Chemscore.Internal_Hbond.Weighted>
0.0000

> <Gold.Chemscore.DEClash.Weighted>
0.1767

> <Gold.Chemscore.DEInternal.Weighted>
0.5672

> <Gold.Chemscore.Rot.Weighted>
5.6775

> <Gold.Chemscore.Internal.Correction.Weighted>
   9.000000E+99

> <Gold.Protein.RotatedTorsions>
[ 6907 6896 6895 6894 ] final   54.35 input  -60.11 | X-H torsion
[ 7974 7965 7964 7962 ] final   -2.62 input  175.53 | X-H torsion
[ 8008 7997 7996 7995 ] final  -19.80 input   59.86 | X-H torsion
[ 10167 10162 10161 10158 ] final -168.70 input  -65.29 | X-H torsion
[ 10718 10713 10712 10709 ] final  -78.29 input   66.30 | X-H torsion
[ 10763 10752 10751 10750 ] final   41.96 input  -60.55 | X-H torsion
[ 11005 11000 10999 10996 ] final -179.41 input  -57.11 | X-H torsion

> <Gold.Protein.ActiveResidues>
 VAL166  LYS551  ARG553  GLY616  TRP617  ASP618  TYR619  PRO620  LYS621  CYS622 
 ASP623  PHE694  ASN695  SER759  ASP760  ASP761  ALA762  ILE779  LEU786  VAL792 
 PHE793  MET794  SER795  GLU796  ALA797  LYS798  CYS799  TRP800  GLU811  SER814 

> <Gold.Protein.RotatedAtoms>
  152.3430  134.7109  160.0258 H   0  0  0  0  0  0  0  0  0  0  0  0  # atno 6907 bound_to 6896
  151.7487  133.3320  159.3394 H   0  0  0  0  0  0  0  0  0  0  0  0  # atno 6908 bound_to 6896
  150.7491  134.6144  159.6148 H   0  0  0  0  0  0  0  0  0  0  0  0  # atno 6909 bound_to 6896
  146.2402  140.1598  142.8333 H   0  0  0  0  0  0  0  0  0  0  0  0  # atno 7974 bound_to 7965
  154.4812  140.2079  155.9760 H   0  0  0  0  0  0  0  0  0  0  0  0  # atno 8008 bound_to 7997
  156.1168  140.3220  155.8119 H   0  0  0  0  0  0  0  0  0  0  0  0  # atno 8009 bound_to 7997
  155.4539  140.0519  157.2989 H   0  0  0  0  0  0  0  0  0  0  0  0  # atno 8010 bound_to 7997
  139.5968  144.1094  152.1699 H   0  0  0  0  0  0  0  0  0  0  0  0  # atno 10167 bound_to 10162
  156.0121  130.4514  150.3475 H   0  0  0  0  0  0  0  0  0  0  0  0  # atno 10718 bound_to 10713
  152.9895  135.6146  154.2871 H   0  0  0  0  0  0  0  0  0  0  0  0  # atno 10763 bound_to 10752
  154.2598  135.2782  155.2784 H   0  0  0  0  0  0  0  0  0  0  0  0  # atno 10764 bound_to 10752
  154.5215  135.5813  153.6742 H   0  0  0  0  0  0  0  0  0  0  0  0  # atno 10765 bound_to 10752
  140.4189  134.6623  157.4654 H   0  0  0  0  0  0  0  0  0  0  0  0  # atno 11005 bound_to 11000
  145.0098  140.8704  143.5231 LP  0  0  0  0  0  0  0  0  0  0  0  0  # atno 17320 bound_to 7965
  145.1630  139.2447  143.5381 LP  0  0  0  0  0  0  0  0  0  0  0  0  # atno 17321 bound_to 7965
  140.0681  144.5801  150.7212 LP  0  0  0  0  0  0  0  0  0  0  0  0  # atno 17342 bound_to 10162
  140.7218  143.2597  151.4252 LP  0  0  0  0  0  0  0  0  0  0  0  0  # atno 17343 bound_to 10162
  157.1568  131.0335  151.2859 LP  0  0  0  0  0  0  0  0  0  0  0  0  # atno 17370 bound_to 10713
  157.4345  130.7509  149.7017 LP  0  0  0  0  0  0  0  0  0  0  0  0  # atno 17371 bound_to 10713
  140.0214  134.6541  155.9234 LP  0  0  0  0  0  0  0  0  0  0  0  0  # atno 17394 bound_to 11000
  141.1792  133.6544  156.4950 LP  0  0  0  0  0  0  0  0  0  0  0  0  # atno 17395 bound_to 11000

$$$$
