AV-unprocessed.smi:922|AV-procd|sdf|4175|dock4
  -GOLD-   22720 2 83D 1   1.00000     0.00000
 Structure written by MMmdl.
 33 34  0  0  0  0  0  0  0  0  1 V2000
  153.2137  138.1264  155.8272 C   0  0  0  0  0  0  0  0  0  0  0  0
  151.9804  138.9840  156.1274 C   0  0  2  0  0  0  0  0  0  0  0  0
  151.3921  139.6090  154.8487 C   0  0  0  0  0  0  0  0  0  0  0  0
  150.2950  140.5086  155.1809 N   0  0  0  0  0  0  0  0  0  0  0  0
  149.0125  140.4509  154.6332 C   0  0  0  0  0  0  0  0  0  0  0  0
  148.2899  141.6872  154.3517 C   0  0  0  0  0  0  0  0  0  0  0  0
  147.1051  141.7146  153.8459 N   0  0  0  0  0  0  0  0  0  0  0  0
  146.4939  140.5216  153.5561 N   0  0  0  0  0  0  0  0  0  0  0  0
  147.0062  139.2850  153.7529 C   0  0  0  0  0  0  0  0  0  0  0  0
  146.3676  138.2758  153.4602 O   0  0  0  0  0  0  0  0  0  0  0  0
  148.3569  139.2879  154.3347 C   0  0  0  0  0  0  0  0  0  0  0  0
  149.0452  137.7344  154.6714 Cl  0  0  0  0  0  0  0  0  0  0  0  0
  150.7428  141.5587  156.0891 C   0  0  0  0  0  0  0  0  0  0  0  0
  151.3460  140.9580  157.3797 C   0  0  0  0  0  0  0  0  0  0  0  0
  152.0547  142.0596  158.1828 C   0  0  0  0  0  0  0  0  0  0  0  0
  150.2711  140.2946  158.2673 C   0  0  0  0  0  0  0  0  0  0  0  0
  152.3722  140.0230  157.0257 O   0  0  0  0  0  0  0  0  0  0  0  0
  145.5698  140.6155  153.1596 H   0  0  0  0  0  0  0  0  0  0  0  0
  152.9659  137.3060  155.1533 H   0  0  0  0  0  0  0  0  0  0  0  0
  153.6189  137.6937  156.7422 H   0  0  0  0  0  0  0  0  0  0  0  0
  154.0020  138.7176  155.3603 H   0  0  0  0  0  0  0  0  0  0  0  0
  151.2403  138.3468  156.6096 H   0  0  0  0  0  0  0  0  0  0  0  0
  152.1603  140.1799  154.3257 H   0  0  0  0  0  0  0  0  0  0  0  0
  151.0632  138.8358  154.1545 H   0  0  0  0  0  0  0  0  0  0  0  0
  148.8204  142.6085  154.5931 H   0  0  0  0  0  0  0  0  0  0  0  0
  151.4856  142.1666  155.5709 H   0  0  0  0  0  0  0  0  0  0  0  0
  149.9185  142.2247  156.3461 H   0  0  0  0  0  0  0  0  0  0  0  0
  151.3567  142.8394  158.4894 H   0  0  0  0  0  0  0  0  0  0  0  0
  152.8420  142.5328  157.5949 H   0  0  0  0  0  0  0  0  0  0  0  0
  152.5174  141.6556  159.0839 H   0  0  0  0  0  0  0  0  0  0  0  0
  149.5534  141.0329  158.6260 H   0  0  0  0  0  0  0  0  0  0  0  0
  150.7207  139.8207  159.1402 H   0  0  0  0  0  0  0  0  0  0  0  0
  149.7007  139.5337  157.7360 H   0  0  0  0  0  0  0  0  0  0  0  0
  1  2  1  0  0  0  0
  1 19  1  0  0  0  0
  1 20  1  0  0  0  0
  1 21  1  0  0  0  0
  2 17  1  0  0  0  0
  2  3  1  0  0  0  0
  2 22  1  0  0  0  0
  3  4  1  0  0  0  0
  3 23  1  0  0  0  0
  3 24  1  0  0  0  0
  4  5  1  0  0  0  0
  4 13  1  0  0  0  0
  5 11  2  0  0  0  0
  5  6  1  0  0  0  0
  6  7  2  0  0  0  0
  6 25  1  0  0  0  0
  7  8  1  0  0  0  0
  8 18  1  0  0  0  0
  8  9  1  0  0  0  0
  9 10  2  0  0  0  0
  9 11  1  0  0  0  0
 11 12  1  0  0  0  0
 13 14  1  0  0  0  0
 13 26  1  0  0  0  0
 13 27  1  0  0  0  0
 14 15  1  0  0  0  0
 14 16  1  0  0  0  0
 14 17  1  0  0  0  0
 15 28  1  0  0  0  0
 15 29  1  0  0  0  0
 15 30  1  0  0  0  0
 16 31  1  0  0  0  0
 16 32  1  0  0  0  0
 16 33  1  0  0  0  0
M  END
> <s_m_source_file>
AV-unprocessed.smi

> <i_m_source_file_index>
922

> <i_lp_mmshare_version>
43012

> <i_f3d_flags>
0

> <s_epik_input>
W0NIM11bQ0BASF0oTzEpW0NIMl1OKFtDSDJdQzEoW0NIM10pW0NIM10pYzJbY0hdbltuSF1jKD1PKWMyQ2w=

> <s_epik_cmdline>
J2VwaWtfcHl0aG9uJywgJy1waCcsICc3LjAnLCAnLXRuJywgJzgnLCAnLW1hJywgJzIwMCcsICctbWV0YWxfYmluZGluZycsICctaW1hZScsICc8aW5maWxlLm1hZT4nLCAnLW9tYWUnLCAnPG91dGZpbGUubWFlPic=

> <r_lp_tautomer_probability>
0.986175

> <r_epik_Ionization_Penalty>
0.00909695

> <r_epik_Ionization_Penalty_Charging>
0.00909694

> <r_epik_Ionization_Penalty_Neutral>
4.87729e-09

> <r_epik_State_Penalty>
1.54226

> <r_epik_Charging_Adjusted_Penalty>
1.55136

> <i_epik_Tot_Q>
0

> <i_epik_Tot_abs_Q>
0

> <r_epik_Metal_State_Penalty>
3.93934

> <b_epik_Metal_Only>
0

> <s_lp_Force_Field>
OPLS_2005

> <r_lp_Energy>
35.5656

> <b_lp_Chiralities_Consistent>
1

> <s_lp_Variant>
AV-unprocessed.smi:922-3

> <Gold.Version>
5.8.1

> <Gold.Id.Protein>
6NUR|6NUR_protein|mol2

> <Gold.PLP.Fitness>
34.7075

> <Gold.PLP.PLP>
-25.8165

> <Gold.PLP.part.hbond>
-1.9949

> <Gold.PLP.part.metal>
0.0000

> <Gold.PLP.part.buried>
0.3151

> <Gold.PLP.part.nonpolar>
-24.6080

> <Gold.PLP.part.repulsive>
0.3873

> <Gold.PLP.ligand.clash>
0.0000

> <Gold.PLP.ligand.torsion>
0.4826

> <Gold.PLP.Chemscore.Hbond>
1.9750

> <Gold.PLP.Chemscore.CHOScore>
1.0000

> <Gold.PLP.Chemscore.Metal>
0.0000

> <Gold.Chemscore.Hbonds>
donor molecule, donor type, donor heavy atom, donor atom, acceptor molecule, acceptor atom, score
      L1  H     8    18       P1 10175  1.00
      P1  H  7997  8009       L1    17  0.96
      L1  C     6    25       P1  8028  1.00

> <Gold.PLP.Chemscore.Internal.Correction>
0.9312

> <Gold.Rescore>
     Score         DG    S(hbond)    S(metal)    S(lipo)     H(rot)  DE(clash)    DE(int)     intcor
     16.92     -18.33       1.57        0.00      65.01       0.00       0.12       1.29       ----

> <Gold.Chemscore.Fitness>
16.9182

> <Gold.Chemscore.DG>
-18.3267

> <Gold.Chemscore.ZeroCoef>
-5.4800

> <Gold.Chemscore.Hbond>
1.5691

> <Gold.Chemscore.Metal>
0.0000

> <Gold.Chemscore.Lipo>
65.0085

> <Gold.Chemscore.Internal_Hbond>
0.0000

> <Gold.Chemscore.DEClash>
0.1184

> <Gold.Chemscore.DEInternal>
1.2902

> <Gold.Chemscore.Rot>
0.0000

> <Gold.Chemscore.Internal.Correction>
   9.000000E+99

> <Gold.Chemscore.Hbonds>
donor molecule, donor type, donor heavy atom, donor atom, acceptor molecule, acceptor atom, score
      L1  H     8    18       P1 10175  0.78
      P1  H  7997  8009       L1    17  0.27

> <Gold.Chemscore.Hbond.Weighted>
-5.2407

> <Gold.Chemscore.Metal.Weighted>
-0.0000

> <Gold.Chemscore.Lipo.Weighted>
-7.6060

> <Gold.Chemscore.Internal_Hbond.Weighted>
0.0000

> <Gold.Chemscore.DEClash.Weighted>
0.1184

> <Gold.Chemscore.DEInternal.Weighted>
1.2902

> <Gold.Chemscore.Rot.Weighted>
0.0000

> <Gold.Chemscore.Internal.Correction.Weighted>
   9.000000E+99

> <Gold.Protein.RotatedTorsions>
[ 6907 6896 6895 6894 ] final   46.21 input  -60.11 | X-H torsion
[ 7974 7965 7964 7962 ] final   83.18 input  175.53 | X-H torsion
[ 8008 7997 7996 7995 ] final  176.32 input   59.86 | X-H torsion
[ 10167 10162 10161 10158 ] final  -37.19 input  -65.29 | X-H torsion
[ 10718 10713 10712 10709 ] final  -34.17 input   66.30 | X-H torsion
[ 10763 10752 10751 10750 ] final  105.79 input  -60.55 | X-H torsion
[ 11005 11000 10999 10996 ] final  -88.51 input  -57.11 | X-H torsion

> <Gold.Protein.ActiveResidues>
 VAL166  LYS551  ARG553  GLY616  TRP617  ASP618  TYR619  PRO620  LYS621  CYS622 
 ASP623  PHE694  ASN695  SER759  ASP760  ASP761  ALA762  ILE779  LEU786  VAL792 
 PHE793  MET794  SER795  GLU796  ALA797  LYS798  CYS799  TRP800  GLU811  SER814 

> <Gold.Protein.RotatedAtoms>
  152.2538  134.8106  160.0441 H   0  0  0  0  0  0  0  0  0  0  0  0  # atno 6907 bound_to 6896
  151.8776  133.3483  159.3764 H   0  0  0  0  0  0  0  0  0  0  0  0  # atno 6908 bound_to 6896
  150.7093  134.4977  159.5590 H   0  0  0  0  0  0  0  0  0  0  0  0  # atno 6909 bound_to 6896
  145.6153  139.2376  143.2169 H   0  0  0  0  0  0  0  0  0  0  0  0  # atno 7974 bound_to 7965
  156.0777  140.1386  156.9751 H   0  0  0  0  0  0  0  0  0  0  0  0  # atno 8008 bound_to 7997
  154.4567  140.0958  156.6827 H   0  0  0  0  0  0  0  0  0  0  0  0  # atno 8009 bound_to 7997
  155.5126  140.3454  155.4393 H   0  0  0  0  0  0  0  0  0  0  0  0  # atno 8010 bound_to 7997
  140.7124  143.3358  151.2466 H   0  0  0  0  0  0  0  0  0  0  0  0  # atno 10167 bound_to 10162
  156.3538  130.4312  149.7682 H   0  0  0  0  0  0  0  0  0  0  0  0  # atno 10718 bound_to 10713
  153.3842  135.3898  155.1878 H   0  0  0  0  0  0  0  0  0  0  0  0  # atno 10763 bound_to 10752
  154.8711  135.3732  154.4819 H   0  0  0  0  0  0  0  0  0  0  0  0  # atno 10764 bound_to 10752
  153.5299  135.7086  153.5750 H   0  0  0  0  0  0  0  0  0  0  0  0  # atno 10765 bound_to 10752
  141.1600  133.7574  156.9461 H   0  0  0  0  0  0  0  0  0  0  0  0  # atno 11005 bound_to 11000
  146.1473  140.6975  142.9339 LP  0  0  0  0  0  0  0  0  0  0  0  0  # atno 17320 bound_to 7965
  144.7253  140.4504  143.6978 LP  0  0  0  0  0  0  0  0  0  0  0  0  # atno 17321 bound_to 7965
  139.6853  143.9785  152.2830 LP  0  0  0  0  0  0  0  0  0  0  0  0  # atno 17342 bound_to 10162
  139.9428  144.6670  150.8249 LP  0  0  0  0  0  0  0  0  0  0  0  0  # atno 17343 bound_to 10162
  156.4872  130.8068  151.3080 LP  0  0  0  0  0  0  0  0  0  0  0  0  # atno 17370 bound_to 10713
  157.7465  130.9987  150.2862 LP  0  0  0  0  0  0  0  0  0  0  0  0  # atno 17371 bound_to 10713
  140.1288  134.9369  157.2308 LP  0  0  0  0  0  0  0  0  0  0  0  0  # atno 17394 bound_to 11000
  140.2979  134.3166  155.7297 LP  0  0  0  0  0  0  0  0  0  0  0  0  # atno 17395 bound_to 11000

$$$$
