AV-unprocessed.smi:1505|AV-procd|sdf|6075|dock7
  -GOLD-   22720 6193D 1   1.00000     0.00000
 Structure written by MMmdl.
 44 45  0  0  0  0  0  0  0  0  1 V2000
  144.8014  143.0762  154.9732 C   0  0  0  0  0  0  0  0  0  0  0  0
  145.6879  142.1972  155.8582 C   0  0  0  0  0  0  0  0  0  0  0  0
  145.3224  141.9863  157.0148 O   0  0  0  0  0  0  0  0  0  0  0  0
  146.8356  141.6889  155.3487 N   0  0  0  0  0  0  0  0  0  0  0  0
  147.7489  140.7820  156.0539 C   0  0  0  0  0  0  0  0  0  0  0  0
  147.6287  139.3797  155.4337 C   0  0  0  0  0  0  0  0  0  0  0  0
  147.9020  139.4112  153.9095 C   0  0  0  0  0  0  0  0  0  0  0  0
  147.5824  138.1210  153.3070 N   0  0  0  0  0  0  0  0  0  0  0  0
  146.3626  137.5670  153.2900 C   0  0  0  0  0  0  0  0  0  0  0  0
  145.3834  138.0407  153.8675 O   0  0  0  0  0  0  0  0  0  0  0  0
  146.3238  136.4731  152.5150 N   0  0  0  0  0  0  0  0  0  0  0  0
  145.1050  135.7770  152.1062 C   0  0  0  0  0  0  0  0  0  0  0  0
  145.1757  135.3017  150.6400 C   0  0  0  0  0  0  0  0  0  0  0  0
  145.0080  133.8108  150.4962 C   0  0  0  0  0  0  0  0  0  0  0  0
  144.0727  133.1135  149.6787 C   0  0  0  0  0  0  0  0  0  0  0  0
  144.1449  131.8001  149.8179 N   0  0  0  0  0  0  0  0  0  0  0  0
  145.1293  131.6130  150.7205 N   0  0  0  0  0  0  0  0  0  0  0  0
  145.4745  130.2688  151.1292 C   0  0  0  0  0  0  0  0  0  0  0  0
  145.6755  132.8071  151.1399 C   0  0  0  0  0  0  0  0  0  0  0  0
  147.0877  140.5234  153.2137 C   0  0  0  0  0  0  0  0  0  0  0  0
  147.2315  141.8695  153.9472 C   0  0  0  0  0  0  0  0  0  0  0  0
  145.3527  143.9462  154.6148 H   0  0  0  0  0  0  0  0  0  0  0  0
  143.9383  143.4379  155.5331 H   0  0  0  0  0  0  0  0  0  0  0  0
  144.4305  142.5125  154.1170 H   0  0  0  0  0  0  0  0  0  0  0  0
  148.7710  141.1482  155.9474 H   0  0  0  0  0  0  0  0  0  0  0  0
  147.5718  140.7292  157.1270 H   0  0  0  0  0  0  0  0  0  0  0  0
  148.3203  138.6981  155.9307 H   0  0  0  0  0  0  0  0  0  0  0  0
  146.6270  138.9902  155.6230 H   0  0  0  0  0  0  0  0  0  0  0  0
  148.9609  139.6247  153.7515 H   0  0  0  0  0  0  0  0  0  0  0  0
  148.3237  137.6579  152.8021 H   0  0  0  0  0  0  0  0  0  0  0  0
  147.1861  136.1615  152.0925 H   0  0  0  0  0  0  0  0  0  0  0  0
  144.9569  134.9207  152.7644 H   0  0  0  0  0  0  0  0  0  0  0  0
  144.2334  136.4189  152.2457 H   0  0  0  0  0  0  0  0  0  0  0  0
  144.4069  135.8218  150.0675 H   0  0  0  0  0  0  0  0  0  0  0  0
  146.1243  135.6233  150.2092 H   0  0  0  0  0  0  0  0  0  0  0  0
  143.3337  133.5232  149.0061 H   0  0  0  0  0  0  0  0  0  0  0  0
  146.2896  130.2955  151.8528 H   0  0  0  0  0  0  0  0  0  0  0  0
  145.7890  129.6879  150.2617 H   0  0  0  0  0  0  0  0  0  0  0  0
  144.6089  129.7902  151.5883 H   0  0  0  0  0  0  0  0  0  0  0  0
  146.4702  132.8457  151.8703 H   0  0  0  0  0  0  0  0  0  0  0  0
  147.4074  140.6287  152.1764 H   0  0  0  0  0  0  0  0  0  0  0  0
  146.0324  140.2466  153.1851 H   0  0  0  0  0  0  0  0  0  0  0  0
  146.6442  142.6346  153.4377 H   0  0  0  0  0  0  0  0  0  0  0  0
  148.2661  142.2126  153.9037 H   0  0  0  0  0  0  0  0  0  0  0  0
  1  2  1  0  0  0  0
  1 22  1  0  0  0  0
  1 23  1  0  0  0  0
  1 24  1  0  0  0  0
  2  3  2  0  0  0  0
  2  4  1  0  0  0  0
  4 21  1  0  0  0  0
  4  5  1  0  0  0  0
  5  6  1  0  0  0  0
  5 25  1  0  0  0  0
  5 26  1  0  0  0  0
  6  7  1  0  0  0  0
  6 27  1  0  0  0  0
  6 28  1  0  0  0  0
  7  8  1  0  0  0  0
  7 20  1  0  0  0  0
  7 29  1  0  0  0  0
  8  9  1  0  0  0  0
  8 30  1  0  0  0  0
  9 10  2  0  0  0  0
  9 11  1  0  0  0  0
 11 12  1  0  0  0  0
 11 31  1  0  0  0  0
 12 13  1  0  0  0  0
 12 32  1  0  0  0  0
 12 33  1  0  0  0  0
 13 14  1  0  0  0  0
 13 34  1  0  0  0  0
 13 35  1  0  0  0  0
 14 19  2  0  0  0  0
 14 15  1  0  0  0  0
 15 16  2  0  0  0  0
 15 36  1  0  0  0  0
 16 17  1  0  0  0  0
 17 18  1  0  0  0  0
 17 19  1  0  0  0  0
 18 37  1  0  0  0  0
 18 38  1  0  0  0  0
 18 39  1  0  0  0  0
 19 40  1  0  0  0  0
 20 21  1  0  0  0  0
 20 41  1  0  0  0  0
 20 42  1  0  0  0  0
 21 43  1  0  0  0  0
 21 44  1  0  0  0  0
M  END
> <s_m_source_file>
AV-unprocessed.smi

> <i_m_source_file_index>
1505

> <i_lp_mmshare_version>
43012

> <i_f3d_flags>
0

> <s_epik_input>
W0NIM11DKD1PKU4xW0NIMl1bQ0gyXVtDSF0oW0NIMl1bQ0gyXTEpW05IXUMoPU8pW05IXVtDSDJdW0NIMl1jMltjSF1ubihbQ0gzXSlbY0hdMg==

> <s_epik_cmdline>
J2VwaWtfcHl0aG9uJywgJy1waCcsICc3LjAnLCAnLXRuJywgJzgnLCAnLW1hJywgJzIwMCcsICctbWV0YWxfYmluZGluZycsICctaW1hZScsICc8aW5maWxlLm1hZT4nLCAnLW9tYWUnLCAnPG91dGZpbGUubWFlPic=

> <r_lp_tautomer_probability>
1

> <r_epik_Ionization_Penalty>
0.000559595

> <r_epik_Ionization_Penalty_Charging>
0

> <r_epik_Ionization_Penalty_Neutral>
0.000559595

> <r_epik_State_Penalty>
-0

> <r_epik_Charging_Adjusted_Penalty>
0

> <i_epik_Tot_Q>
0

> <i_epik_Tot_abs_Q>
0

> <r_epik_Metal_State_Penalty>
-0

> <b_epik_Metal_Only>
0

> <s_lp_Force_Field>
OPLS_2005

> <r_lp_Energy>
17.177

> <b_lp_Chiralities_Consistent>
1

> <s_lp_Variant>
AV-unprocessed.smi:1505-1

> <Gold.Version>
5.8.1

> <Gold.Id.Protein>
6NUR|6NUR_protein|mol2

> <Gold.PLP.Fitness>
44.6717

> <Gold.PLP.PLP>
-35.5289

> <Gold.PLP.part.hbond>
-3.0000

> <Gold.PLP.part.metal>
0.0000

> <Gold.PLP.part.buried>
-6.6036

> <Gold.PLP.part.nonpolar>
-26.9582

> <Gold.PLP.part.repulsive>
0.4138

> <Gold.PLP.ligand.clash>
0.0000

> <Gold.PLP.ligand.torsion>
0.5761

> <Gold.PLP.Chemscore.Hbond>
2.4212

> <Gold.PLP.Chemscore.CHOScore>
1.0000

> <Gold.PLP.Chemscore.Metal>
0.0000

> <Gold.Chemscore.Hbonds>
donor molecule, donor type, donor heavy atom, donor atom, acceptor molecule, acceptor atom, score
      L1  H     8    30       P1  7948  1.00
      L1  H    11    31       P1  7948  1.00
      P1  H 10785 10796       L1    16  0.42
      L1  C    15    36       P1 10186  0.95

> <Gold.PLP.Chemscore.Internal.Correction>
0.0314

> <Gold.Rescore>
     Score         DG    S(hbond)    S(metal)    S(lipo)     H(rot)  DE(clash)    DE(int)     intcor
     16.74     -19.14       2.59        0.00      79.70       1.69       0.67       1.73       ----

> <Gold.Chemscore.Fitness>
16.7372

> <Gold.Chemscore.DG>
-19.1363

> <Gold.Chemscore.ZeroCoef>
-5.4800

> <Gold.Chemscore.Hbond>
2.5918

> <Gold.Chemscore.Metal>
0.0000

> <Gold.Chemscore.Lipo>
79.7042

> <Gold.Chemscore.Internal_Hbond>
0.0000

> <Gold.Chemscore.DEClash>
0.6669

> <Gold.Chemscore.DEInternal>
1.7322

> <Gold.Chemscore.Rot>
1.6896

> <Gold.Chemscore.Internal.Correction>
   9.000000E+99

> <Gold.Chemscore.Hbonds>
donor molecule, donor type, donor heavy atom, donor atom, acceptor molecule, acceptor atom, score
      L1  H     8    30       P1  7948  0.96
      L1  H    11    31       P1  7948  0.98
      P1  H 10785 10796       L1    16  0.41

> <Gold.Chemscore.Hbond.Weighted>
-8.6565

> <Gold.Chemscore.Metal.Weighted>
-0.0000

> <Gold.Chemscore.Lipo.Weighted>
-9.3254

> <Gold.Chemscore.Internal_Hbond.Weighted>
0.0000

> <Gold.Chemscore.DEClash.Weighted>
0.6669

> <Gold.Chemscore.DEInternal.Weighted>
1.7322

> <Gold.Chemscore.Rot.Weighted>
4.3255

> <Gold.Chemscore.Internal.Correction.Weighted>
   9.000000E+99

> <Gold.Protein.RotatedTorsions>
[ 6907 6896 6895 6894 ] final  102.05 input  -60.11 | X-H torsion
[ 7974 7965 7964 7962 ] final -137.66 input  175.53 | X-H torsion
[ 8008 7997 7996 7995 ] final -160.04 input   59.86 | X-H torsion
[ 10167 10162 10161 10158 ] final  -64.05 input  -65.29 | X-H torsion
[ 10718 10713 10712 10709 ] final  -83.18 input   66.30 | X-H torsion
[ 10763 10752 10751 10750 ] final  -68.75 input  -60.55 | X-H torsion
[ 11005 11000 10999 10996 ] final  -44.65 input  -57.11 | X-H torsion

> <Gold.Protein.ActiveResidues>
 VAL166  LYS551  ARG553  GLY616  TRP617  ASP618  TYR619  PRO620  LYS621  CYS622 
 ASP623  PHE694  ASN695  SER759  ASP760  ASP761  ALA762  ILE779  LEU786  VAL792 
 PHE793  MET794  SER795  GLU796  ALA797  LYS798  CYS799  TRP800  GLU811  SER814 

> <Gold.Protein.RotatedAtoms>
  152.5334  134.0033  159.7904 H   0  0  0  0  0  0  0  0  0  0  0  0  # atno 6907 bound_to 6896
  151.0248  133.5835  159.2674 H   0  0  0  0  0  0  0  0  0  0  0  0  # atno 6908 bound_to 6896
  151.2862  135.0735  159.9241 H   0  0  0  0  0  0  0  0  0  0  0  0  # atno 6909 bound_to 6896
  144.8823  140.6525  143.5198 H   0  0  0  0  0  0  0  0  0  0  0  0  # atno 7974 bound_to 7965
  155.7715  140.0852  157.2105 H   0  0  0  0  0  0  0  0  0  0  0  0  # atno 8008 bound_to 7997
  154.3996  140.1524  156.3005 H   0  0  0  0  0  0  0  0  0  0  0  0  # atno 8009 bound_to 7997
  155.8742  140.3424  155.5845 H   0  0  0  0  0  0  0  0  0  0  0  0  # atno 8010 bound_to 7997
  140.5828  143.2329  151.6307 H   0  0  0  0  0  0  0  0  0  0  0  0  # atno 10167 bound_to 10162
  156.0022  130.4657  150.4219 H   0  0  0  0  0  0  0  0  0  0  0  0  # atno 10718 bound_to 10713
  154.3936  135.6047  153.5857 H   0  0  0  0  0  0  0  0  0  0  0  0  # atno 10763 bound_to 10752
  152.9787  135.5889  154.4268 H   0  0  0  0  0  0  0  0  0  0  0  0  # atno 10764 bound_to 10752
  154.4056  135.2843  155.2047 H   0  0  0  0  0  0  0  0  0  0  0  0  # atno 10765 bound_to 10752
  141.0464  133.6759  156.2902 H   0  0  0  0  0  0  0  0  0  0  0  0  # atno 11005 bound_to 11000
  145.3932  139.1612  143.4218 LP  0  0  0  0  0  0  0  0  0  0  0  0  # atno 17320 bound_to 7965
  146.3002  140.4022  142.8707 LP  0  0  0  0  0  0  0  0  0  0  0  0  # atno 17321 bound_to 7965
  139.5179  144.3299  152.0835 LP  0  0  0  0  0  0  0  0  0  0  0  0  # atno 17342 bound_to 10162
  140.2452  144.4228  150.6244 LP  0  0  0  0  0  0  0  0  0  0  0  0  # atno 17343 bound_to 10162
  157.2274  131.0496  151.2512 LP  0  0  0  0  0  0  0  0  0  0  0  0  # atno 17370 bound_to 10713
  157.3743  130.7197  149.6586 LP  0  0  0  0  0  0  0  0  0  0  0  0  # atno 17371 bound_to 10713
  140.6138  134.5431  157.5537 LP  0  0  0  0  0  0  0  0  0  0  0  0  # atno 17394 bound_to 11000
  139.9315  134.7955  156.0918 LP  0  0  0  0  0  0  0  0  0  0  0  0  # atno 17395 bound_to 11000

$$$$
