AV-unprocessed.smi:1793|AV-procd|sdf|7224|dock5
  -GOLD-   22720 8463D 1   1.00000     0.00000
 Structure written by MMmdl.
 46 48  0  0  0  0  0  0  0  0  1 V2000
  152.1842  138.0455  153.9755 C   0  0  0  0  0  0  0  0  0  0  0  0
  151.0335  137.7033  154.9397 C   0  0  2  0  0  0  0  0  0  0  0  0
  150.2027  136.6493  154.3635 N   0  0  0  0  0  0  0  0  0  0  0  0
  150.2161  135.3603  154.7301 C   0  0  0  0  0  0  0  0  0  0  0  0
  150.9562  134.9073  155.6034 O   0  0  0  0  0  0  0  0  0  0  0  0
  149.3380  134.6441  154.0091 N   0  0  0  0  0  0  0  0  0  0  0  0
  149.1305  133.2360  154.0253 C   0  0  0  0  0  0  0  0  0  0  0  0
  149.9484  132.3764  154.7985 C   0  0  0  0  0  0  0  0  0  0  0  0
  149.6630  131.0005  154.8344 C   0  0  0  0  0  0  0  0  0  0  0  0
  148.5559  130.5328  154.1076 C   0  0  0  0  0  0  0  0  0  0  0  0
  147.7589  131.3394  153.3791 N   0  0  0  0  0  0  0  0  0  0  0  0
  148.0299  132.6669  153.3219 C   0  0  0  0  0  0  0  0  0  0  0  0
  147.1686  133.4598  152.5289 N   0  0  0  0  0  0  0  0  0  0  0  0
  146.4355  134.5747  153.1189 C   0  0  0  0  0  0  0  0  0  0  0  0
  145.3633  134.9288  152.0924 C   0  0  0  0  0  0  0  0  0  0  0  0
  144.9938  133.5613  151.5255 C   0  0  0  0  0  0  0  0  0  0  0  0
  146.3168  132.7882  151.5514 C   0  0  0  0  0  0  0  0  0  0  0  0
  150.1498  138.9274  155.2487 C   0  0  2  0  0  0  0  0  0  0  0  0
  149.5059  139.5772  154.0234 C   0  0  0  0  0  0  0  0  0  0  0  0
  149.2214  140.9718  154.5320 C   0  0  0  0  0  0  0  0  0  0  0  0
  150.4409  141.2472  155.4076 C   0  0  0  0  0  0  0  0  0  0  0  0
  150.9276  139.9740  155.8261 O   0  0  0  0  0  0  0  0  0  0  0  0
  152.8462  138.8007  154.3987 H   0  0  0  0  0  0  0  0  0  0  0  0
  151.8059  138.4281  153.0270 H   0  0  0  0  0  0  0  0  0  0  0  0
  152.7956  137.1688  153.7597 H   0  0  0  0  0  0  0  0  0  0  0  0
  151.4583  137.3425  155.8785 H   0  0  0  0  0  0  0  0  0  0  0  0
  149.5583  136.9294  153.6387 H   0  0  0  0  0  0  0  0  0  0  0  0
  148.8582  135.1420  153.2735 H   0  0  0  0  0  0  0  0  0  0  0  0
  150.7749  132.7521  155.3821 H   0  0  0  0  0  0  0  0  0  0  0  0
  150.2705  130.3230  155.4159 H   0  0  0  0  0  0  0  0  0  0  0  0
  148.2989  129.4838  154.1157 H   0  0  0  0  0  0  0  0  0  0  0  0
  145.9578  134.2727  154.0518 H   0  0  0  0  0  0  0  0  0  0  0  0
  147.0939  135.4187  153.3265 H   0  0  0  0  0  0  0  0  0  0  0  0
  144.5147  135.4566  152.5283 H   0  0  0  0  0  0  0  0  0  0  0  0
  145.7888  135.5558  151.3075 H   0  0  0  0  0  0  0  0  0  0  0  0
  144.2723  133.0760  152.1845 H   0  0  0  0  0  0  0  0  0  0  0  0
  144.5549  133.6161  150.5290 H   0  0  0  0  0  0  0  0  0  0  0  0
  146.7948  132.8411  150.5731 H   0  0  0  0  0  0  0  0  0  0  0  0
  146.1595  131.7364  151.7953 H   0  0  0  0  0  0  0  0  0  0  0  0
  149.3688  138.6598  155.9629 H   0  0  0  0  0  0  0  0  0  0  0  0
  150.2122  139.6188  153.1926 H   0  0  0  0  0  0  0  0  0  0  0  0
  148.6082  139.0582  153.6860 H   0  0  0  0  0  0  0  0  0  0  0  0
  149.0949  141.7037  153.7337 H   0  0  0  0  0  0  0  0  0  0  0  0
  148.3157  140.9685  155.1401 H   0  0  0  0  0  0  0  0  0  0  0  0
  151.2229  141.7440  154.8322 H   0  0  0  0  0  0  0  0  0  0  0  0
  150.1975  141.8786  156.2624 H   0  0  0  0  0  0  0  0  0  0  0  0
  1  2  1  0  0  0  0
  1 23  1  0  0  0  0
  1 24  1  0  0  0  0
  1 25  1  0  0  0  0
  2  3  1  0  0  0  0
  2 18  1  0  0  0  0
  2 26  1  0  0  0  0
  3  4  1  0  0  0  0
  3 27  1  0  0  0  0
  4  5  2  0  0  0  0
  4  6  1  0  0  0  0
  6  7  1  0  0  0  0
  6 28  1  0  0  0  0
  7 12  1  0  0  0  0
  7  8  2  0  0  0  0
  8  9  1  0  0  0  0
  8 29  1  0  0  0  0
  9 10  2  0  0  0  0
  9 30  1  0  0  0  0
 10 11  1  0  0  0  0
 10 31  1  0  0  0  0
 11 12  2  0  0  0  0
 12 13  1  0  0  0  0
 13 17  1  0  0  0  0
 13 14  1  0  0  0  0
 14 15  1  0  0  0  0
 14 32  1  0  0  0  0
 14 33  1  0  0  0  0
 15 16  1  0  0  0  0
 15 34  1  0  0  0  0
 15 35  1  0  0  0  0
 16 17  1  0  0  0  0
 16 36  1  0  0  0  0
 16 37  1  0  0  0  0
 17 38  1  0  0  0  0
 17 39  1  0  0  0  0
 18 22  1  0  0  0  0
 18 19  1  0  0  0  0
 18 40  1  0  0  0  0
 19 20  1  0  0  0  0
 19 41  1  0  0  0  0
 19 42  1  0  0  0  0
 20 21  1  0  0  0  0
 20 43  1  0  0  0  0
 20 44  1  0  0  0  0
 21 22  1  0  0  0  0
 21 45  1  0  0  0  0
 21 46  1  0  0  0  0
M  END
> <s_m_source_file>
AV-unprocessed.smi

> <i_m_source_file_index>
1793

> <i_lp_mmshare_version>
43012

> <i_f3d_flags>
0

> <s_epik_input>
TzFbQ0gyXVtDSDJdW0NIMl1bQ0BIXTFbQ0BIXShbQ0gzXSlbTkhdQyg9TylbTkhdYzJbY0hdW2NIXVtjSF1uYzJOM1tDSDJdW0NIMl1bQ0gyXVtDSDJdMw==

> <s_epik_cmdline>
J2VwaWtfcHl0aG9uJywgJy1waCcsICc3LjAnLCAnLXRuJywgJzgnLCAnLW1hJywgJzIwMCcsICctbWV0YWxfYmluZGluZycsICctaW1hZScsICc8aW5maWxlLm1hZT4nLCAnLW9tYWUnLCAnPG91dGZpbGUubWFlPic=

> <r_lp_tautomer_probability>
1

> <r_epik_Ionization_Penalty>
0.0992086

> <r_epik_Ionization_Penalty_Charging>
0

> <r_epik_Ionization_Penalty_Neutral>
0.0992086

> <r_epik_State_Penalty>
0.0887141

> <r_epik_Charging_Adjusted_Penalty>
0.0887141

> <i_epik_Tot_Q>
0

> <i_epik_Tot_abs_Q>
0

> <r_epik_Metal_State_Penalty>
0.075945

> <b_epik_Metal_Only>
0

> <s_lp_Force_Field>
OPLS_2005

> <r_lp_Energy>
46.4352

> <b_lp_Chiralities_Consistent>
1

> <s_lp_Variant>
AV-unprocessed.smi:1793-1

> <Gold.Version>
5.8.1

> <Gold.Id.Protein>
6NUR|6NUR_protein|mol2

> <Gold.PLP.Fitness>
44.2490

> <Gold.PLP.PLP>
-37.9487

> <Gold.PLP.part.hbond>
-3.7445

> <Gold.PLP.part.metal>
0.0000

> <Gold.PLP.part.buried>
-1.3535

> <Gold.PLP.part.nonpolar>
-31.4466

> <Gold.PLP.part.repulsive>
0.4913

> <Gold.PLP.ligand.clash>
0.0000

> <Gold.PLP.ligand.torsion>
0.4267

> <Gold.PLP.Chemscore.Hbond>
2.2668

> <Gold.PLP.Chemscore.CHOScore>
0.0000

> <Gold.PLP.Chemscore.Metal>
0.0000

> <Gold.Chemscore.Hbonds>
donor molecule, donor type, donor heavy atom, donor atom, acceptor molecule, acceptor atom, score
      L1  H     3    27       P1  7948  0.72
      L1  H     6    28       P1  7948  0.94
      P1  H 10752 10764       L1     5  0.39

> <Gold.PLP.Chemscore.Internal.Correction>
0.3533

> <Gold.Rescore>
     Score         DG    S(hbond)    S(metal)    S(lipo)     H(rot)  DE(clash)    DE(int)     intcor
     12.27     -15.70       1.25        0.00      81.36       1.36       0.62       2.81       ----

> <Gold.Chemscore.Fitness>
12.2684

> <Gold.Chemscore.DG>
-15.6962

> <Gold.Chemscore.ZeroCoef>
-5.4800

> <Gold.Chemscore.Hbond>
1.2497

> <Gold.Chemscore.Metal>
0.0000

> <Gold.Chemscore.Lipo>
81.3625

> <Gold.Chemscore.Internal_Hbond>
0.0000

> <Gold.Chemscore.DEClash>
0.6190

> <Gold.Chemscore.DEInternal>
2.8088

> <Gold.Chemscore.Rot>
1.3582

> <Gold.Chemscore.Internal.Correction>
   9.000000E+99

> <Gold.Chemscore.Hbonds>
donor molecule, donor type, donor heavy atom, donor atom, acceptor molecule, acceptor atom, score
      L1  H     3    27       P1  7948  0.58
      L1  H     6    28       P1  7948  0.45
      P1  H 10752 10764       L1     5  0.13

> <Gold.Chemscore.Hbond.Weighted>
-4.1738

> <Gold.Chemscore.Metal.Weighted>
-0.0000

> <Gold.Chemscore.Lipo.Weighted>
-9.5194

> <Gold.Chemscore.Internal_Hbond.Weighted>
0.0000

> <Gold.Chemscore.DEClash.Weighted>
0.6190

> <Gold.Chemscore.DEInternal.Weighted>
2.8088

> <Gold.Chemscore.Rot.Weighted>
3.4771

> <Gold.Chemscore.Internal.Correction.Weighted>
   9.000000E+99

> <Gold.Protein.RotatedTorsions>
[ 6907 6896 6895 6894 ] final   10.43 input  -60.11 | X-H torsion
[ 7974 7965 7964 7962 ] final   28.58 input  175.53 | X-H torsion
[ 8008 7997 7996 7995 ] final   49.63 input   59.86 | X-H torsion
[ 10167 10162 10161 10158 ] final  -56.39 input  -65.29 | X-H torsion
[ 10718 10713 10712 10709 ] final  139.66 input   66.30 | X-H torsion
[ 10763 10752 10751 10750 ] final  -44.20 input  -60.55 | X-H torsion
[ 11005 11000 10999 10996 ] final  -32.35 input  -57.11 | X-H torsion

> <Gold.Protein.ActiveResidues>
 VAL166  LYS551  ARG553  GLY616  TRP617  ASP618  TYR619  PRO620  LYS621  CYS622 
 ASP623  PHE694  ASN695  SER759  ASP760  ASP761  ALA762  ILE779  LEU786  VAL792 
 PHE793  MET794  SER795  GLU796  ALA797  LYS798  CYS799  TRP800  GLU811  SER814 

> <Gold.Protein.RotatedAtoms>
  151.7382  135.0860  160.0311 H   0  0  0  0  0  0  0  0  0  0  0  0  # atno 6907 bound_to 6896
  152.3497  133.6160  159.5944 H   0  0  0  0  0  0  0  0  0  0  0  0  # atno 6908 bound_to 6896
  150.7531  133.9510  159.3527 H   0  0  0  0  0  0  0  0  0  0  0  0  # atno 6909 bound_to 6896
  146.1721  139.7037  142.8960 H   0  0  0  0  0  0  0  0  0  0  0  0  # atno 7974 bound_to 7965
  155.4054  140.3440  155.4260 H   0  0  0  0  0  0  0  0  0  0  0  0  # atno 8008 bound_to 7997
  156.1479  140.1562  156.8849 H   0  0  0  0  0  0  0  0  0  0  0  0  # atno 8009 bound_to 7997
  154.5027  140.0810  156.7811 H   0  0  0  0  0  0  0  0  0  0  0  0  # atno 8010 bound_to 7997
  140.6320  143.2464  151.5216 H   0  0  0  0  0  0  0  0  0  0  0  0  # atno 10167 bound_to 10162
  157.4119  131.1029  151.0445 H   0  0  0  0  0  0  0  0  0  0  0  0  # atno 10718 bound_to 10713
  154.0082  135.6685  153.4763 H   0  0  0  0  0  0  0  0  0  0  0  0  # atno 10763 bound_to 10752
  153.0632  135.5016  154.8137 H   0  0  0  0  0  0  0  0  0  0  0  0  # atno 10764 bound_to 10752
  154.7011  135.3079  154.9302 H   0  0  0  0  0  0  0  0  0  0  0  0  # atno 10765 bound_to 10752
  140.9545  133.7201  156.1271 H   0  0  0  0  0  0  0  0  0  0  0  0  # atno 11005 bound_to 11000
  145.4312  141.0415  143.2909 LP  0  0  0  0  0  0  0  0  0  0  0  0  # atno 17320 bound_to 7965
  144.8179  139.5844  143.7000 LP  0  0  0  0  0  0  0  0  0  0  0  0  # atno 17321 bound_to 7965
  139.5533  144.2339  152.1569 LP  0  0  0  0  0  0  0  0  0  0  0  0  # atno 17342 bound_to 10162
  140.1585  144.5048  150.6646 LP  0  0  0  0  0  0  0  0  0  0  0  0  # atno 17343 bound_to 10162
  157.1406  130.6141  149.5554 LP  0  0  0  0  0  0  0  0  0  0  0  0  # atno 17370 bound_to 10713
  155.9853  130.4883  150.7026 LP  0  0  0  0  0  0  0  0  0  0  0  0  # atno 17371 bound_to 10713
  140.7556  134.3996  157.5534 LP  0  0  0  0  0  0  0  0  0  0  0  0  # atno 17394 bound_to 11000
  139.8858  134.8928  156.2624 LP  0  0  0  0  0  0  0  0  0  0  0  0  # atno 17395 bound_to 11000

$$$$
