#       Name:                AV-unprocessed.smi:2740
#       Creating user name   scv26
#       Creation time:       Fri Mar 27 15:00:47 2020


#       File generated by GOLD software.
#

@<TRIPOS>MOLECULE
AV-unprocessed.smi:2740
    36    37     1
SMALL
NO_CHARGES


@<TRIPOS>ATOM
      1 ****        -6.0258   2.2503  -1.0060 C.3            1 S1                 0.0000
      2 ****        -4.6925   1.5850  -0.9459 C.2            1 S1                 0.0000
      3 ****        -4.4210   0.2777  -0.6211 C.2            1 S1                 0.0000
      4 ****        -3.0621  -0.0442  -0.6580 N.2            1 S1                 0.0000
      5 ****        -2.3079   1.0040  -1.0059 C.2            1 S1                 0.0000
      6 ****        -0.8940   0.9685  -1.1308 N.am           1 S1                 0.0000
      7 ****        -0.0693  -0.0766  -0.9432 C.2            1 S1                 0.0000
      8 ****        -0.4202  -1.2077  -0.6064 O.2            1 S1                 0.0000
      9 ****         1.2074   0.2670  -1.1672 N.am           1 S1                 0.0000
     10 ****         2.3565  -0.6258  -1.0518 C.3            1 S1                 0.0000
     11 ****         3.0463  -0.4990   0.3173 C.3            1 S1                 0.0000
     12 ****         2.2089  -0.9588   1.5116 C.3            1 S1                 0.0000
     13 ****         3.2801  -1.3041   2.5198 C.3            1 S1                 0.0000
     14 ****         4.3508  -1.9310   1.6319 C.3            1 S1                 0.0000
     15 ****         4.2166  -1.3117   0.3546 O.3            1 S1                 0.0000
     16 ****        -3.2308   2.4679  -1.3082 S.3            1 S1                 0.0000
     17 ****        -6.8311   1.5154  -1.0089 H              1 S1                 0.0000
     18 ****        -6.1189   2.8524  -1.9101 H              1 S1                 0.0000
     19 ****        -6.1696   2.9051  -0.1465 H              1 S1                 0.0000
     20 ****        -5.1316  -0.4904  -0.3535 H              1 S1                 0.0000
     21 ****        -0.4611   1.8387  -1.4025 H              1 S1                 0.0000
     22 ****         1.4019   1.2191  -1.4402 H              1 S1                 0.0000
     23 ****         2.0706  -1.6618  -1.2416 H              1 S1                 0.0000
     24 ****         3.0624  -0.3578  -1.8383 H              1 S1                 0.0000
     25 ****         3.3639   0.5323   0.4794 H              1 S1                 0.0000
     26 ****         1.5164  -0.1949   1.8665 H              1 S1                 0.0000
     27 ****         1.6349  -1.8516   1.2595 H              1 S1                 0.0000
     28 ****         3.6620  -0.3952   2.9867 H              1 S1                 0.0000
     29 ****         2.9309  -1.9740   3.3060 H              1 S1                 0.0000
     30 ****         5.3545  -1.7974   2.0360 H              1 S1                 0.0000
     31 ****         4.1716  -3.0007   1.5175 H              1 S1                 0.0000
     32 ****        -2.6965  -0.9512  -0.4490 LP             1 S1                 0.0000
     33 ****        -1.3880  -1.4052  -0.4501 LP             1 S1                 0.0000
     34 ****         0.2626  -1.9289  -0.4892 LP             1 S1                 0.0000
     35 ****         5.0193  -0.7419   0.1787 LP             1 S1                 0.0000
     36 ****         4.1492  -2.0190  -0.3491 LP             1 S1                 0.0000
@<TRIPOS>BOND
    1    1    2 1     
    2    1   17 1     
    3    1   18 1     
    4    1   19 1     
    5    2   16 1     
    6    2    3 2     
    7    3    4 1     
    8    3   20 1     
    9    4    5 2     
   10    5    6 1     
   11    5   16 1     
   12    6    7 am    
   13    6   21 1     
   14    7    8 2     
   15    7    9 am    
   16    9   10 1     
   17    9   22 1     
   18   10   11 1     
   19   10   23 1     
   20   10   24 1     
   21   11   15 1     
   22   11   12 1     
   23   11   25 1     
   24   12   13 1     
   25   12   26 1     
   26   12   27 1     
   27   13   14 1     
   28   13   28 1     
   29   13   29 1     
   30   14   15 1     
   31   14   30 1     
   32   14   31 1     
   33    4   32 1     
   34    8   33 1     
   35    8   34 1     
   36   15   35 1     
   37   15   36 1     
@<TRIPOS>SUBSTRUCTURE
      1 S1             1
@<TRIPOS>SET
LONE_PAIRS      STATIC     ATOMS    <user>   **** ""
5 32 33 34 35 36
DONOR_HYDROGENS      STATIC     ATOMS    <user>   **** ""
2 21 22
ATOM$BLUE        STATIC     ATOMS    COLORGROUP SYSTEM
5 32 33 34 35 36
ATOM$RED        STATIC     ATOMS    COLORGROUP SYSTEM
2 21 22
