AV-unprocessed.smi:1752|AV-procd|sdf|7060|dock7
  -GOLD-   22720 8273D 1   1.00000     0.00000
 Structure written by MMmdl.
 43 44  0  0  0  0  0  0  0  0  2 V2000
  151.1825  140.5063  155.9789 C   0  0  0  0  0  0  0  0  0  0  0  0
  150.4375  141.8272  156.2127 C   0  0  2  0  0  0  0  0  0  0  0  0
  150.3462  142.1613  157.7170 C   0  0  0  0  0  0  0  0  0  0  0  0
  151.4245  143.0216  158.1709 N   0  0  0  0  0  0  0  0  0  0  0  0
  151.7518  144.2890  157.7368 C   0  0  0  0  0  0  0  0  0  0  0  0
  152.8415  144.6946  158.4525 C   0  0  0  0  0  0  0  0  0  0  0  0
  153.1078  143.5945  159.3151 C   0  0  0  0  0  0  0  0  0  0  0  0
  152.2557  142.5963  159.1466 N   0  0  0  0  0  0  0  0  0  0  0  0
  149.1052  141.7264  155.6191 N   0  0  0  0  0  0  0  0  0  0  0  0
  148.8237  141.3111  154.3714 C   0  0  0  0  0  0  0  0  0  0  0  0
  149.6985  140.9855  153.5680 O   0  0  0  0  0  0  0  0  0  0  0  0
  147.5013  141.2859  154.0673 N   0  0  0  0  0  0  0  0  0  0  0  0
  146.4044  141.6753  154.9692 C   0  0  0  0  0  0  0  0  0  0  0  0
  145.9297  140.4666  155.7942 C   0  0  0  0  0  0  0  0  0  0  0  0
  145.4756  139.2635  154.9410 C   0  0  0  0  0  0  0  0  0  0  0  0
  146.6231  138.5974  154.2677 N   0  3  1  0  0  0  0  0  0  0  0  0
  146.4962  137.1230  154.2540 C   0  0  0  0  0  0  0  0  0  0  0  0
  146.9458  139.1298  152.9138 C   0  0  0  0  0  0  0  0  0  0  0  0
  147.0290  140.6713  152.8203 C   0  0  0  0  0  0  0  0  0  0  0  0
  152.1979  140.5551  156.3733 H   0  0  0  0  0  0  0  0  0  0  0  0
  151.2549  140.2787  154.9149 H   0  0  0  0  0  0  0  0  0  0  0  0
  150.6761  139.6721  156.4660 H   0  0  0  0  0  0  0  0  0  0  0  0
  151.0099  142.6093  155.7103 H   0  0  0  0  0  0  0  0  0  0  0  0
  149.3937  142.6414  157.9462 H   0  0  0  0  0  0  0  0  0  0  0  0
  150.3803  141.2443  158.3072 H   0  0  0  0  0  0  0  0  0  0  0  0
  151.1911  144.7889  156.9609 H   0  0  0  0  0  0  0  0  0  0  0  0
  153.3678  145.6340  158.3735 H   0  0  0  0  0  0  0  0  0  0  0  0
  153.8883  143.4928  160.0546 H   0  0  0  0  0  0  0  0  0  0  0  0
  148.3300  141.9894  156.2100 H   0  0  0  0  0  0  0  0  0  0  0  0
  146.6885  142.4922  155.6334 H   0  0  0  0  0  0  0  0  0  0  0  0
  145.5665  142.0768  154.3984 H   0  0  0  0  0  0  0  0  0  0  0  0
  146.7177  140.1525  156.4801 H   0  0  0  0  0  0  0  0  0  0  0  0
  145.0978  140.7854  156.4228 H   0  0  0  0  0  0  0  0  0  0  0  0
  144.9930  138.5548  155.6155 H   0  0  0  0  0  0  0  0  0  0  0  0
  144.7132  139.5510  154.2155 H   0  0  0  0  0  0  0  0  0  0  0  0
  145.6191  136.8113  153.6851 H   0  0  0  0  0  0  0  0  0  0  0  0
  146.4050  136.7323  155.2681 H   0  0  0  0  0  0  0  0  0  0  0  0
  147.3772  136.6638  153.8042 H   0  0  0  0  0  0  0  0  0  0  0  0
  147.9085  138.7098  152.6188 H   0  0  0  0  0  0  0  0  0  0  0  0
  146.2177  138.7642  152.1882 H   0  0  0  0  0  0  0  0  0  0  0  0
  146.0438  141.0590  152.5594 H   0  0  0  0  0  0  0  0  0  0  0  0
  147.6643  140.9611  151.9815 H   0  0  0  0  0  0  0  0  0  0  0  0
  147.4275  138.7933  154.8466 H   0  0  0  0  0  0  0  0  0  0  0  0
  1  2  1  0  0  0  0
  1 20  1  0  0  0  0
  1 21  1  0  0  0  0
  1 22  1  0  0  0  0
  2  3  1  0  0  0  0
  2  9  1  0  0  0  0
  2 23  1  0  0  0  0
  3  4  1  0  0  0  0
  3 24  1  0  0  0  0
  3 25  1  0  0  0  0
  4  8  1  0  0  0  0
  4  5  1  0  0  0  0
  5  6  2  0  0  0  0
  5 26  1  0  0  0  0
  6  7  1  0  0  0  0
  6 27  1  0  0  0  0
  7  8  2  0  0  0  0
  7 28  1  0  0  0  0
  9 10  1  0  0  0  0
  9 29  1  0  0  0  0
 10 11  2  0  0  0  0
 10 12  1  0  0  0  0
 12 19  1  0  0  0  0
 12 13  1  0  0  0  0
 13 14  1  0  0  0  0
 13 30  1  0  0  0  0
 13 31  1  0  0  0  0
 14 15  1  0  0  0  0
 14 32  1  0  0  0  0
 14 33  1  0  0  0  0
 15 16  1  0  0  0  0
 15 34  1  0  0  0  0
 15 35  1  0  0  0  0
 16 17  1  0  0  0  0
 16 18  1  0  0  0  0
 16 43  1  0  0  0  0
 17 36  1  0  0  0  0
 17 37  1  0  0  0  0
 17 38  1  0  0  0  0
 18 19  1  0  0  0  0
 18 39  1  0  0  0  0
 18 40  1  0  0  0  0
 19 41  1  0  0  0  0
 19 42  1  0  0  0  0
M  CHG  1  16   1
M  END
> <s_m_source_file>
AV-unprocessed.smi

> <i_m_source_file_index>
1752

> <i_lp_mmshare_version>
43012

> <i_f3d_flags>
0

> <s_epik_input>
bjFbY0hdW2NIXVtjSF1uMVtDSDJdW0NAQEhdKFtDSDNdKVtOSF1DKD1PKU4yW0NIMl1bQ0gyXVtDSDJdTihbQ0gzXSlbQ0gyXVtDSDJdMg==

> <s_epik_cmdline>
J2VwaWtfcHl0aG9uJywgJy1waCcsICc3LjAnLCAnLXRuJywgJzgnLCAnLW1hJywgJzIwMCcsICctbWV0YWxfYmluZGluZycsICctaW1hZScsICc8aW5maWxlLm1hZT4nLCAnLW9tYWUnLCAnPG91dGZpbGUubWFlPic=

> <r_lp_tautomer_probability>
1

> <r_epik_Ionization_Penalty>
0.00208423

> <r_epik_Ionization_Penalty_Charging>
0.00203643

> <r_epik_Ionization_Penalty_Neutral>
4.77939e-05

> <r_epik_State_Penalty>
0.00139278

> <r_epik_Charging_Adjusted_Penalty>
0.00342922

> <i_epik_Tot_Q>
1

> <i_epik_Tot_abs_Q>
1

> <r_epik_Metal_State_Penalty>
-0

> <b_epik_Metal_Only>
0

> <s_lp_Force_Field>
OPLS_2005

> <r_lp_Energy>
39.6128

> <b_lp_Chiralities_Consistent>
1

> <s_lp_Variant>
AV-unprocessed.smi:1752-3

> <Gold.Version>
5.8.1

> <Gold.Id.Protein>
6NUR|6NUR_protein|mol2

> <Gold.PLP.Fitness>
42.0136

> <Gold.PLP.PLP>
-36.1874

> <Gold.PLP.part.hbond>
-2.9073

> <Gold.PLP.part.metal>
0.0000

> <Gold.PLP.part.buried>
-3.9490

> <Gold.PLP.part.nonpolar>
-33.3080

> <Gold.PLP.part.repulsive>
3.7774

> <Gold.PLP.ligand.clash>
0.0000

> <Gold.PLP.ligand.torsion>
0.5555

> <Gold.PLP.Chemscore.Hbond>
1.3040

> <Gold.PLP.Chemscore.CHOScore>
1.0000

> <Gold.PLP.Chemscore.Metal>
0.0000

> <Gold.Chemscore.Hbonds>
donor molecule, donor type, donor heavy atom, donor atom, acceptor molecule, acceptor atom, score
      P1  H  7989  7998       L1    11  0.29
      P1  H  8011  8017       L1    11  1.00
      L1  C     5    26       P1  8028  0.81

> <Gold.PLP.Chemscore.Internal.Correction>
0.0253

> <Gold.Rescore>
     Score         DG    S(hbond)    S(metal)    S(lipo)     H(rot)  DE(clash)    DE(int)     intcor
     12.15     -15.38       1.08        0.00      84.75       1.41       1.57       1.66       ----

> <Gold.Chemscore.Fitness>
12.1525

> <Gold.Chemscore.DG>
-15.3765

> <Gold.Chemscore.ZeroCoef>
-5.4800

> <Gold.Chemscore.Hbond>
1.0769

> <Gold.Chemscore.Metal>
0.0000

> <Gold.Chemscore.Lipo>
84.7493

> <Gold.Chemscore.Internal_Hbond>
0.0000

> <Gold.Chemscore.DEClash>
1.5671

> <Gold.Chemscore.DEInternal>
1.6569

> <Gold.Chemscore.Rot>
1.4125

> <Gold.Chemscore.Internal.Correction>
   9.000000E+99

> <Gold.Chemscore.Hbonds>
donor molecule, donor type, donor heavy atom, donor atom, acceptor molecule, acceptor atom, score
      P1  H  7989  7998       L1    11  0.30
      P1  H  8011  8017       L1    11  0.53

> <Gold.Chemscore.Hbond.Weighted>
-3.5967

> <Gold.Chemscore.Metal.Weighted>
-0.0000

> <Gold.Chemscore.Lipo.Weighted>
-9.9157

> <Gold.Chemscore.Internal_Hbond.Weighted>
0.0000

> <Gold.Chemscore.DEClash.Weighted>
1.5671

> <Gold.Chemscore.DEInternal.Weighted>
1.6569

> <Gold.Chemscore.Rot.Weighted>
3.6160

> <Gold.Chemscore.Internal.Correction.Weighted>
   9.000000E+99

> <Gold.Protein.RotatedTorsions>
[ 6907 6896 6895 6894 ] final   60.16 input  -60.11 | X-H torsion
[ 7974 7965 7964 7962 ] final  150.97 input  175.53 | X-H torsion
[ 8008 7997 7996 7995 ] final  -45.81 input   59.86 | X-H torsion
[ 10167 10162 10161 10158 ] final  145.16 input  -65.29 | X-H torsion
[ 10718 10713 10712 10709 ] final   79.95 input   66.30 | X-H torsion
[ 10763 10752 10751 10750 ] final   38.80 input  -60.55 | X-H torsion
[ 11005 11000 10999 10996 ] final   11.47 input  -57.11 | X-H torsion

> <Gold.Protein.ActiveResidues>
 VAL166  LYS551  ARG553  GLY616  TRP617  ASP618  TYR619  PRO620  LYS621  CYS622 
 ASP623  PHE694  ASN695  SER759  ASP760  ASP761  ALA762  ILE779  LEU786  VAL792 
 PHE793  MET794  SER795  GLU796  ALA797  LYS798  CYS799  TRP800  GLU811  SER814 

> <Gold.Protein.RotatedAtoms>
  152.3978  134.6336  160.0081 H   0  0  0  0  0  0  0  0  0  0  0  0  # atno 6907 bound_to 6896
  151.6550  133.3313  159.3168 H   0  0  0  0  0  0  0  0  0  0  0  0  # atno 6908 bound_to 6896
  150.7883  134.6929  159.6552 H   0  0  0  0  0  0  0  0  0  0  0  0  # atno 6909 bound_to 6896
  144.8325  139.6478  143.6052 H   0  0  0  0  0  0  0  0  0  0  0  0  # atno 7974 bound_to 7965
  154.4003  140.1387  156.3909 H   0  0  0  0  0  0  0  0  0  0  0  0  # atno 8008 bound_to 7997
  155.7915  140.3478  155.5331 H   0  0  0  0  0  0  0  0  0  0  0  0  # atno 8009 bound_to 7997
  155.8574  140.0951  157.1626 H   0  0  0  0  0  0  0  0  0  0  0  0  # atno 8010 bound_to 7997
  139.4932  144.5921  151.6659 H   0  0  0  0  0  0  0  0  0  0  0  0  # atno 10167 bound_to 10162
  157.6792  130.9937  150.2008 H   0  0  0  0  0  0  0  0  0  0  0  0  # atno 10718 bound_to 10713
  152.9989  135.6239  154.2362 H   0  0  0  0  0  0  0  0  0  0  0  0  # atno 10763 bound_to 10752
  154.2103  135.2800  155.2962 H   0  0  0  0  0  0  0  0  0  0  0  0  # atno 10764 bound_to 10752
  154.5612  135.5704  153.7067 H   0  0  0  0  0  0  0  0  0  0  0  0  # atno 10765 bound_to 10752
  140.5028  134.0729  155.7798 H   0  0  0  0  0  0  0  0  0  0  0  0  # atno 11005 bound_to 11000
  146.2627  139.6448  142.9351 LP  0  0  0  0  0  0  0  0  0  0  0  0  # atno 17320 bound_to 7965
  145.4864  141.0438  143.2617 LP  0  0  0  0  0  0  0  0  0  0  0  0  # atno 17321 bound_to 7965
  140.5550  144.0362  150.6144 LP  0  0  0  0  0  0  0  0  0  0  0  0  # atno 17342 bound_to 10162
  140.3429  143.3009  152.0569 LP  0  0  0  0  0  0  0  0  0  0  0  0  # atno 17343 bound_to 10162
  156.2699  130.3720  149.8042 LP  0  0  0  0  0  0  0  0  0  0  0  0  # atno 17370 bound_to 10713
  156.5762  130.8446  151.3370 LP  0  0  0  0  0  0  0  0  0  0  0  0  # atno 17371 bound_to 10713
  141.1426  133.9111  157.2290 LP  0  0  0  0  0  0  0  0  0  0  0  0  # atno 17394 bound_to 11000
  139.9703  135.0130  156.9495 LP  0  0  0  0  0  0  0  0  0  0  0  0  # atno 17395 bound_to 11000

$$$$
