AV-unprocessed.smi:1880|AV-procd|sdf|7637|dock4
  -GOLD-   22720 9363D 1   1.00000     0.00000
 Structure written by MMmdl.
 37 39  0  0  0  0  0  0  0  0  2 V2000
  151.3822  143.7514  155.9207 O   0  0  0  0  0  0  0  0  0  0  0  0
  151.4267  143.3621  157.2791 C   0  0  2  0  0  0  0  0  0  0  0  0
  150.2724  142.3875  157.5638 C   0  0  0  0  0  0  0  0  0  0  0  0
  150.7869  141.1004  157.8655 O   0  0  0  0  0  0  0  0  0  0  0  0
  151.7376  140.6525  156.9158 C   0  0  0  0  0  0  0  0  0  0  0  0
  150.9652  139.9875  155.8280 C   0  0  0  0  0  0  0  0  0  0  0  0
  150.0728  138.9516  155.8041 C   0  0  0  0  0  0  0  0  0  0  0  0
  149.6768  138.7956  154.4467 C   0  0  0  0  0  0  0  0  0  0  0  0
  150.3570  139.7490  153.7440 C   0  0  0  0  0  0  0  0  0  0  0  0
  151.1466  140.4854  154.5723 O   0  0  0  0  0  0  0  0  0  0  0  0
  151.4523  144.5797  158.2246 C   0  0  0  0  0  0  0  0  0  0  0  0
  151.3284  144.2031  159.6398 N   0  0  0  0  0  0  0  0  0  0  0  0
  150.5075  144.7038  160.6025 C   0  0  0  0  0  0  0  0  0  0  0  0
  150.7716  144.0332  161.7578 N   0  3  0  0  0  0  0  0  0  0  0  0
  151.7763  143.0898  161.5308 C   0  0  0  0  0  0  0  0  0  0  0  0
  152.3808  142.1777  162.3897 C   0  0  0  0  0  0  0  0  0  0  0  0
  153.3801  141.3502  161.8366 C   0  0  0  0  0  0  0  0  0  0  0  0
  154.0026  140.4466  162.6298 F   0  0  0  0  0  0  0  0  0  0  0  0
  153.7420  141.4456  160.4761 C   0  0  0  0  0  0  0  0  0  0  0  0
  154.7051  140.6301  159.9854 F   0  0  0  0  0  0  0  0  0  0  0  0
  153.1210  142.3737  159.6145 C   0  0  0  0  0  0  0  0  0  0  0  0
  152.1374  143.1913  160.1707 C   0  0  0  0  0  0  0  0  0  0  0  0
  151.2279  142.9832  155.3931 H   0  0  0  0  0  0  0  0  0  0  0  0
  152.3607  142.8124  157.4017 H   0  0  0  0  0  0  0  0  0  0  0  0
  149.6478  142.7572  158.3789 H   0  0  0  0  0  0  0  0  0  0  0  0
  149.6372  142.3157  156.6795 H   0  0  0  0  0  0  0  0  0  0  0  0
  152.3133  141.4896  156.5178 H   0  0  0  0  0  0  0  0  0  0  0  0
  152.4351  139.9492  157.3729 H   0  0  0  0  0  0  0  0  0  0  0  0
  149.7445  138.3783  156.6585 H   0  0  0  0  0  0  0  0  0  0  0  0
  148.9821  138.0776  154.0366 H   0  0  0  0  0  0  0  0  0  0  0  0
  150.3949  140.0292  152.7016 H   0  0  0  0  0  0  0  0  0  0  0  0
  152.3568  145.1733  158.0916 H   0  0  0  0  0  0  0  0  0  0  0  0
  150.6181  145.2432  157.9931 H   0  0  0  0  0  0  0  0  0  0  0  0
  149.7795  145.4921  160.4735 H   0  0  0  0  0  0  0  0  0  0  0  0
  152.1059  142.0995  163.4313 H   0  0  0  0  0  0  0  0  0  0  0  0
  153.4037  142.4333  158.5738 H   0  0  0  0  0  0  0  0  0  0  0  0
  150.2999  144.2101  162.6358 H   0  0  0  0  0  0  0  0  0  0  0  0
  1  2  1  0  0  0  0
  1 23  1  0  0  0  0
  2  3  1  0  0  0  0
  2 11  1  0  0  0  0
  2 24  1  0  0  0  0
  3  4  1  0  0  0  0
  3 25  1  0  0  0  0
  3 26  1  0  0  0  0
  4  5  1  0  0  0  0
  5  6  1  0  0  0  0
  5 27  1  0  0  0  0
  5 28  1  0  0  0  0
  6 10  1  0  0  0  0
  6  7  2  0  0  0  0
  7  8  1  0  0  0  0
  7 29  1  0  0  0  0
  8  9  2  0  0  0  0
  8 30  1  0  0  0  0
  9 10  1  0  0  0  0
  9 31  1  0  0  0  0
 11 12  1  0  0  0  0
 11 32  1  0  0  0  0
 11 33  1  0  0  0  0
 12 22  1  0  0  0  0
 12 13  1  0  0  0  0
 13 14  2  0  0  0  0
 13 34  1  0  0  0  0
 14 15  1  0  0  0  0
 14 37  1  0  0  0  0
 15 22  2  0  0  0  0
 15 16  1  0  0  0  0
 16 17  2  0  0  0  0
 16 35  1  0  0  0  0
 17 18  1  0  0  0  0
 17 19  1  0  0  0  0
 19 20  1  0  0  0  0
 19 21  2  0  0  0  0
 21 22  1  0  0  0  0
 21 36  1  0  0  0  0
M  CHG  1  14   1
M  END
> <s_m_source_file>
AV-unprocessed.smi

> <i_m_source_file_index>
1880

> <i_lp_mmshare_version>
43012

> <i_f3d_flags>
0

> <s_epik_input>
W2NIXTFjKEYpYyhGKVtjSF1jKGMxMiluKFtjSF1uMilbQ0gyXVtDQEhdKFtPSF0pW0NIMl1PW0NIMl1jM1tjSF1bY0hdW2NIXW8z

> <s_epik_cmdline>
J2VwaWtfcHl0aG9uJywgJy1waCcsICc3LjAnLCAnLXRuJywgJzgnLCAnLW1hJywgJzIwMCcsICctbWV0YWxfYmluZGluZycsICctaW1hZScsICc8aW5maWxlLm1hZT4nLCAnLW9tYWUnLCAnPG91dGZpbGUubWFlPic=

> <r_epik_Ionization_Penalty>
2.17656

> <r_epik_Ionization_Penalty_Charging>
2.17656

> <r_epik_Ionization_Penalty_Neutral>
9.34185e-07

> <r_epik_State_Penalty>
2.31826

> <r_epik_Charging_Adjusted_Penalty>
4.49482

> <i_epik_Tot_Q>
1

> <i_epik_Tot_abs_Q>
1

> <r_epik_Metal_State_Penalty>
6.39906

> <b_epik_Metal_Only>
0

> <s_lp_Force_Field>
OPLS_2005

> <r_lp_Energy>
13.1736

> <b_lp_Chiralities_Consistent>
1

> <s_lp_Variant>
AV-unprocessed.smi:1880-3

> <Gold.Version>
5.8.1

> <Gold.Id.Protein>
6NUR|6NUR_protein|mol2

> <Gold.PLP.Fitness>
55.4549

> <Gold.PLP.PLP>
-51.8555

> <Gold.PLP.part.hbond>
-3.6763

> <Gold.PLP.part.metal>
0.0000

> <Gold.PLP.part.buried>
-1.5551

> <Gold.PLP.part.nonpolar>
-46.8384

> <Gold.PLP.part.repulsive>
0.1621

> <Gold.PLP.ligand.clash>
0.0000

> <Gold.PLP.ligand.torsion>
1.0895

> <Gold.PLP.Chemscore.Hbond>
0.9000

> <Gold.PLP.Chemscore.CHOScore>
1.0000

> <Gold.PLP.Chemscore.Metal>
0.0000

> <Gold.Chemscore.Hbonds>
donor molecule, donor type, donor heavy atom, donor atom, acceptor molecule, acceptor atom, score
      P1  H  7989  7998       L1    10  0.04
      L1  C     9    31       P1  7957  0.21

> <Gold.PLP.Chemscore.Internal.Correction>
0.0784

> <Gold.Rescore>
     Score         DG    S(hbond)    S(metal)    S(lipo)     H(rot)  DE(clash)    DE(int)     intcor
     10.39     -14.47       0.76        0.00     119.41       2.94       0.50       3.57       ----

> <Gold.Chemscore.Fitness>
10.3948

> <Gold.Chemscore.DG>
-14.4655

> <Gold.Chemscore.ZeroCoef>
-5.4800

> <Gold.Chemscore.Hbond>
0.7585

> <Gold.Chemscore.Metal>
0.0000

> <Gold.Chemscore.Lipo>
119.4062

> <Gold.Chemscore.Internal_Hbond>
0.0000

> <Gold.Chemscore.DEClash>
0.5040

> <Gold.Chemscore.DEInternal>
3.5667

> <Gold.Chemscore.Rot>
2.9369

> <Gold.Chemscore.Internal.Correction>
   9.000000E+99

> <Gold.Chemscore.Hbond.Weighted>
-2.5335

> <Gold.Chemscore.Metal.Weighted>
-0.0000

> <Gold.Chemscore.Lipo.Weighted>
-13.9705

> <Gold.Chemscore.Internal_Hbond.Weighted>
0.0000

> <Gold.Chemscore.DEClash.Weighted>
0.5040

> <Gold.Chemscore.DEInternal.Weighted>
3.5667

> <Gold.Chemscore.Rot.Weighted>
7.5185

> <Gold.Chemscore.Internal.Correction.Weighted>
   9.000000E+99

> <Gold.Protein.RotatedTorsions>
[ 6907 6896 6895 6894 ] final   85.89 input  -60.11 | X-H torsion
[ 7974 7965 7964 7962 ] final   36.97 input  175.53 | X-H torsion
[ 8008 7997 7996 7995 ] final   70.13 input   59.86 | X-H torsion
[ 10167 10162 10161 10158 ] final  -18.69 input  -65.29 | X-H torsion
[ 10718 10713 10712 10709 ] final -116.30 input   66.30 | X-H torsion
[ 10763 10752 10751 10750 ] final -179.07 input  -60.55 | X-H torsion
[ 11005 11000 10999 10996 ] final  133.23 input  -57.11 | X-H torsion

> <Gold.Protein.ActiveResidues>
 VAL166  LYS551  ARG553  GLY616  TRP617  ASP618  TYR619  PRO620  LYS621  CYS622 
 ASP623  PHE694  ASN695  SER759  ASP760  ASP761  ALA762  ILE779  LEU786  VAL792 
 PHE793  MET794  SER795  GLU796  ALA797  LYS798  CYS799  TRP800  GLU811  SER814 

> <Gold.Protein.RotatedAtoms>
  152.5384  134.2515  159.8900 H   0  0  0  0  0  0  0  0  0  0  0  0  # atno 6907 bound_to 6896
  151.2478  133.4359  159.2617 H   0  0  0  0  0  0  0  0  0  0  0  0  # atno 6908 bound_to 6896
  151.0567  134.9723  159.8295 H   0  0  0  0  0  0  0  0  0  0  0  0  # atno 6909 bound_to 6896
  146.1172  139.5952  142.9313 H   0  0  0  0  0  0  0  0  0  0  0  0  # atno 7974 bound_to 7965
  155.7341  140.3491  155.5073 H   0  0  0  0  0  0  0  0  0  0  0  0  # atno 8008 bound_to 7997
  155.9155  140.1058  157.1268 H   0  0  0  0  0  0  0  0  0  0  0  0  # atno 8009 bound_to 7997
  154.4062  140.1259  156.4599 H   0  0  0  0  0  0  0  0  0  0  0  0  # atno 8010 bound_to 7997
  140.7261  143.4891  151.0015 H   0  0  0  0  0  0  0  0  0  0  0  0  # atno 10167 bound_to 10162
  156.0954  130.6128  150.9018 H   0  0  0  0  0  0  0  0  0  0  0  0  # atno 10718 bound_to 10713
  154.5398  135.2805  155.1106 H   0  0  0  0  0  0  0  0  0  0  0  0  # atno 10763 bound_to 10752
  154.2593  135.6324  153.5272 H   0  0  0  0  0  0  0  0  0  0  0  0  # atno 10764 bound_to 10752
  152.9976  135.5602  154.5934 H   0  0  0  0  0  0  0  0  0  0  0  0  # atno 10765 bound_to 10752
  139.9839  134.9539  156.9695 H   0  0  0  0  0  0  0  0  0  0  0  0  # atno 11005 bound_to 11000
  145.5541  141.0410  143.2262 LP  0  0  0  0  0  0  0  0  0  0  0  0  # atno 17320 bound_to 7965
  144.7564  139.7064  143.7252 LP  0  0  0  0  0  0  0  0  0  0  0  0  # atno 17321 bound_to 7965
  139.8595  143.7334  152.3174 LP  0  0  0  0  0  0  0  0  0  0  0  0  # atno 17342 bound_to 10162
  139.7544  144.7525  151.0458 LP  0  0  0  0  0  0  0  0  0  0  0  0  # atno 17343 bound_to 10162
  157.6114  131.0936  150.8788 LP  0  0  0  0  0  0  0  0  0  0  0  0  # atno 17370 bound_to 10713
  156.8927  130.5218  149.5285 LP  0  0  0  0  0  0  0  0  0  0  0  0  # atno 17371 bound_to 10713
  140.5042  134.1067  155.7256 LP  0  0  0  0  0  0  0  0  0  0  0  0  # atno 17394 bound_to 11000
  141.1507  133.8974  157.2105 LP  0  0  0  0  0  0  0  0  0  0  0  0  # atno 17395 bound_to 11000

$$$$
