#       Name:                AV-unprocessed.smi:3150
#       Creating user name   scv26
#       Creation time:       Fri Mar 27 17:41:44 2020


#       File generated by GOLD software.
#

@<TRIPOS>MOLECULE
AV-unprocessed.smi:3150
    40    41     1
SMALL
NO_CHARGES


@<TRIPOS>ATOM
      1 ****        -0.3099  -2.1970  -2.8043 C.3            1 S1                 0.0000
      2 ****        -0.0744  -1.6177  -1.4013 C.3            1 S1                 0.0000
      3 ****         1.3242  -1.6851  -1.1360 O.3            1 S1                 0.0000
      4 ****         1.6970  -1.4759   0.2206 C.3            1 S1                 0.0000
      5 ****         3.1939  -1.6583   0.3480 C.3            1 S1                 0.0000
      6 ****         3.9319  -1.0917   1.5398 C.3            1 S1                 0.0000
      7 ****         4.1314  -0.4848   0.1745 C.3            1 S1                 0.0000
      8 ****        -0.5677  -0.1649  -1.3028 C.2            1 S1                 0.0000
      9 ****        -0.2207   0.6568  -2.1518 O.2            1 S1                 0.0000
     10 ****        -1.3572   0.1109  -0.2481 N.am           1 S1                 0.0000
     11 ****        -1.9517   1.3505   0.1158 C.ar           1 S1                 0.0000
     12 ****        -1.8072   2.4843  -0.6154 N.ar           1 S1                 0.0000
     13 ****        -2.4058   3.6204  -0.2017 C.ar           1 S1                 0.0000
     14 ****        -3.1855   3.6978   0.9660 C.ar           1 S1                 0.0000
     15 ****        -3.3439   2.5315   1.7345 C.ar           1 S1                 0.0000
     16 ****        -2.7209   1.3415   1.3075 C.ar           1 S1                 0.0000
     17 ****        -2.8703   0.2038   2.0515 O.3            1 S1                 0.0000
     18 ****        -1.3647  -2.1553  -3.0780 H              1 S1                 0.0000
     19 ****        -0.0005  -3.2415  -2.8473 H              1 S1                 0.0000
     20 ****         0.2561  -1.6558  -3.5634 H              1 S1                 0.0000
     21 ****        -0.6094  -2.2413  -0.6821 H              1 S1                 0.0000
     22 ****         1.4228  -0.4780   0.5655 H              1 S1                 0.0000
     23 ****         1.1984  -2.2012   0.8646 H              1 S1                 0.0000
     24 ****         3.5527  -2.6195  -0.0155 H              1 S1                 0.0000
     25 ****         3.3607  -0.5151   2.2649 H              1 S1                 0.0000
     26 ****         4.7484  -1.6811   1.9520 H              1 S1                 0.0000
     27 ****         5.0798  -0.6709  -0.3252 H              1 S1                 0.0000
     28 ****         3.6910   0.4930  -0.0111 H              1 S1                 0.0000
     29 ****        -1.5551  -0.6584   0.3752 H              1 S1                 0.0000
     30 ****        -2.2590   4.4930  -0.8208 H              1 S1                 0.0000
     31 ****        -3.6490   4.6266   1.2632 H              1 S1                 0.0000
     32 ****        -3.9353   2.5510   2.6381 H              1 S1                 0.0000
     33 ****        -3.3986   0.3334   2.8244 H              1 S1                 0.0000
     34 ****         1.7778  -0.9886  -1.6919 LP             1 S1                 0.0000
     35 ****         1.6469  -2.5915  -1.4087 LP             1 S1                 0.0000
     36 ****         0.3795   0.3780  -2.9015 LP             1 S1                 0.0000
     37 ****        -0.5392   1.6028  -2.0916 LP             1 S1                 0.0000
     38 ****        -1.2619   2.4779  -1.4536 LP             1 S1                 0.0000
     39 ****        -1.9649  -0.1130   2.3341 LP             1 S1                 0.0000
     40 ****        -3.3049  -0.4941   1.4822 LP             1 S1                 0.0000
@<TRIPOS>BOND
    1    1    2 1     
    2    1   18 1     
    3    1   19 1     
    4    1   20 1     
    5    2    3 1     
    6    2    8 1     
    7    2   21 1     
    8    3    4 1     
    9    4    5 1     
   10    4   22 1     
   11    4   23 1     
   12    5    7 1     
   13    5    6 1     
   14    5   24 1     
   15    6    7 1     
   16    6   25 1     
   17    6   26 1     
   18    7   27 1     
   19    7   28 1     
   20    8    9 2     
   21    8   10 am    
   22   10   11 1     
   23   10   29 1     
   24   11   16 ar    
   25   11   12 ar    
   26   12   13 ar    
   27   13   14 ar    
   28   13   30 1     
   29   14   15 ar    
   30   14   31 1     
   31   15   16 ar    
   32   15   32 1     
   33   16   17 1     
   34   17   33 1     
   35    3   34 1     
   36    3   35 1     
   37    9   36 1     
   38    9   37 1     
   39   12   38 1     
   40   17   39 1     
   41   17   40 1     
@<TRIPOS>SUBSTRUCTURE
      1 S1             1
@<TRIPOS>SET
LONE_PAIRS      STATIC     ATOMS    <user>   **** ""
7 34 35 36 37 38 39 40
DONOR_HYDROGENS      STATIC     ATOMS    <user>   **** ""
2 29 33
ATOM$BLUE        STATIC     ATOMS    COLORGROUP SYSTEM
7 34 35 36 37 38 39 40
ATOM$RED        STATIC     ATOMS    COLORGROUP SYSTEM
2 29 33
