AV-unprocessed.smi:3053|AV-procd|sdf|11637|dock5
  -GOLD-   2272017 33D 1   1.00000     0.00000
 Structure written by MMmdl.
 31 32  0  0  0  0  0  0  0  0  1 V2000
  153.1294  142.7767  161.1668 C   0  0  0  0  0  0  0  0  0  0  0  0
  152.3792  143.1228  159.9270 C   0  0  0  0  0  0  0  0  0  0  0  0
  151.4937  142.3074  159.3492 N   0  0  0  0  0  0  0  0  0  0  0  0
  150.9442  142.8497  158.1835 C   0  0  0  0  0  0  0  0  0  0  0  0
  149.9699  142.0474  157.3702 C   0  0  0  0  0  0  0  0  0  0  0  0
  150.6346  141.2198  156.2514 C   0  0  0  0  0  0  0  0  0  0  0  0
  149.7961  141.1256  155.0577 N   0  0  0  0  0  0  0  0  0  0  0  0
  149.4038  139.9837  154.4699 C   0  0  0  0  0  0  0  0  0  0  0  0
  149.6706  138.8665  154.9153 O   0  0  0  0  0  0  0  0  0  0  0  0
  148.5855  140.1302  153.1800 C   0  0  2  0  0  0  0  0  0  0  0  0
  147.3203  140.9859  153.3538 C   0  0  0  0  0  0  0  0  0  0  0  0
  146.2531  140.0345  153.1097 N   0  0  0  0  0  0  0  0  0  0  0  0
  146.6941  138.8211  152.7721 C   0  0  0  0  0  0  0  0  0  0  0  0
  145.9945  137.8489  152.5004 O   0  0  0  0  0  0  0  0  0  0  0  0
  148.0289  138.8483  152.7811 N   0  0  0  0  0  0  0  0  0  0  0  0
  151.4121  144.1089  157.8994 C   0  0  0  0  0  0  0  0  0  0  0  0
  152.5851  144.6451  159.0694 S   0  0  0  0  0  0  0  0  0  0  0  0
  152.5878  142.0272  161.7447 H   0  0  0  0  0  0  0  0  0  0  0  0
  153.2633  143.6644  161.7852 H   0  0  0  0  0  0  0  0  0  0  0  0
  154.1104  142.3786  160.9071 H   0  0  0  0  0  0  0  0  0  0  0  0
  149.4063  141.3781  158.0209 H   0  0  0  0  0  0  0  0  0  0  0  0
  149.2299  142.7129  156.9243 H   0  0  0  0  0  0  0  0  0  0  0  0
  151.6083  141.6454  156.0028 H   0  0  0  0  0  0  0  0  0  0  0  0
  150.8311  140.2101  156.6120 H   0  0  0  0  0  0  0  0  0  0  0  0
  149.5217  141.9964  154.6262 H   0  0  0  0  0  0  0  0  0  0  0  0
  149.2077  140.5154  152.3703 H   0  0  0  0  0  0  0  0  0  0  0  0
  147.2209  141.4189  154.3506 H   0  0  0  0  0  0  0  0  0  0  0  0
  147.2773  141.7928  152.6215 H   0  0  0  0  0  0  0  0  0  0  0  0
  145.2765  140.2812  153.1813 H   0  0  0  0  0  0  0  0  0  0  0  0
  148.6089  138.0476  152.5759 H   0  0  0  0  0  0  0  0  0  0  0  0
  151.1537  144.7427  157.0643 H   0  0  0  0  0  0  0  0  0  0  0  0
  1  2  1  0  0  0  0
  1 18  1  0  0  0  0
  1 19  1  0  0  0  0
  1 20  1  0  0  0  0
  2 17  1  0  0  0  0
  2  3  2  0  0  0  0
  3  4  1  0  0  0  0
  4  5  1  0  0  0  0
  4 16  2  0  0  0  0
  5  6  1  0  0  0  0
  5 21  1  0  0  0  0
  5 22  1  0  0  0  0
  6  7  1  0  0  0  0
  6 23  1  0  0  0  0
  6 24  1  0  0  0  0
  7  8  1  0  0  0  0
  7 25  1  0  0  0  0
  8  9  2  0  0  0  0
  8 10  1  0  0  0  0
 10 15  1  0  0  0  0
 10 11  1  0  0  0  0
 10 26  1  0  0  0  0
 11 12  1  0  0  0  0
 11 27  1  0  0  0  0
 11 28  1  0  0  0  0
 12 13  1  0  0  0  0
 12 29  1  0  0  0  0
 13 14  2  0  0  0  0
 13 15  1  0  0  0  0
 15 30  1  0  0  0  0
 16 17  1  0  0  0  0
 16 31  1  0  0  0  0
M  END
> <s_m_source_file>
AV-unprocessed.smi

> <i_m_source_file_index>
3053

> <i_lp_mmshare_version>
43012

> <i_f3d_flags>
0

> <s_epik_input>
W0NIM11jMW5jKFtjSF1zMSlbQ0gyXVtDSDJdW05IXUMoPU8pW0NAQEhdMltDSDJdW05IXUMoPU8pW05IXTI=

> <s_epik_cmdline>
J2VwaWtfcHl0aG9uJywgJy1waCcsICc3LjAnLCAnLXRuJywgJzgnLCAnLW1hJywgJzIwMCcsICctbWV0YWxfYmluZGluZycsICctaW1hZScsICc8aW5maWxlLm1hZT4nLCAnLW9tYWUnLCAnPG91dGZpbGUubWFlPic=

> <r_epik_Ionization_Penalty>
0.00110852

> <r_epik_Ionization_Penalty_Charging>
0

> <r_epik_Ionization_Penalty_Neutral>
0.00110852

> <r_epik_State_Penalty>
0.000695988

> <r_epik_Charging_Adjusted_Penalty>
0.000695988

> <i_epik_Tot_Q>
0

> <i_epik_Tot_abs_Q>
0

> <r_epik_Metal_State_Penalty>
-0

> <b_epik_Metal_Only>
0

> <s_lp_Force_Field>
OPLS_2005

> <r_lp_Energy>
23.9072

> <b_lp_Chiralities_Consistent>
1

> <s_lp_Variant>
AV-unprocessed.smi:3053-1

> <Gold.Version>
5.8.1

> <Gold.Id.Protein>
6NUR|6NUR_protein|mol2

> <Gold.PLP.Fitness>
41.7542

> <Gold.PLP.PLP>
-34.1545

> <Gold.PLP.part.hbond>
-2.8436

> <Gold.PLP.part.metal>
0.0000

> <Gold.PLP.part.buried>
-0.6436

> <Gold.PLP.part.nonpolar>
-31.6794

> <Gold.PLP.part.repulsive>
0.6303

> <Gold.PLP.ligand.clash>
0.0000

> <Gold.PLP.ligand.torsion>
0.7187

> <Gold.PLP.Chemscore.Hbond>
2.0000

> <Gold.PLP.Chemscore.CHOScore>
0.9932

> <Gold.PLP.Chemscore.Metal>
0.0000

> <Gold.Chemscore.Hbonds>
donor molecule, donor type, donor heavy atom, donor atom, acceptor molecule, acceptor atom, score
      L1  H    12    29       P1 10175  1.00
      L1  H    15    30       P1  7948  1.00
      L1  C    16    31       P1  8028  0.73

> <Gold.PLP.Chemscore.Internal.Correction>
0.0576

> <Gold.Rescore>
     Score         DG    S(hbond)    S(metal)    S(lipo)     H(rot)  DE(clash)    DE(int)     intcor
     14.78     -17.38       1.94        0.00      90.59       2.02       1.89       0.72       ----

> <Gold.Chemscore.Fitness>
14.7783

> <Gold.Chemscore.DG>
-17.3831

> <Gold.Chemscore.ZeroCoef>
-5.4800

> <Gold.Chemscore.Hbond>
1.9427

> <Gold.Chemscore.Metal>
0.0000

> <Gold.Chemscore.Lipo>
90.5853

> <Gold.Chemscore.Internal_Hbond>
0.0000

> <Gold.Chemscore.DEClash>
1.8860

> <Gold.Chemscore.DEInternal>
0.7187

> <Gold.Chemscore.Rot>
2.0250

> <Gold.Chemscore.Internal.Correction>
   9.000000E+99

> <Gold.Chemscore.Hbonds>
donor molecule, donor type, donor heavy atom, donor atom, acceptor molecule, acceptor atom, score
      L1  H    12    29       P1 10175  0.95
      L1  H    15    30       P1  7948  0.97

> <Gold.Chemscore.Hbond.Weighted>
-6.4886

> <Gold.Chemscore.Metal.Weighted>
-0.0000

> <Gold.Chemscore.Lipo.Weighted>
-10.5985

> <Gold.Chemscore.Internal_Hbond.Weighted>
0.0000

> <Gold.Chemscore.DEClash.Weighted>
1.8860

> <Gold.Chemscore.DEInternal.Weighted>
0.7187

> <Gold.Chemscore.Rot.Weighted>
5.1840

> <Gold.Chemscore.Internal.Correction.Weighted>
   9.000000E+99

> <Gold.Protein.RotatedTorsions>
[ 6907 6896 6895 6894 ] final  -78.41 input  -60.11 | X-H torsion
[ 7974 7965 7964 7962 ] final  -51.06 input  175.53 | X-H torsion
[ 8008 7997 7996 7995 ] final -146.66 input   59.86 | X-H torsion
[ 10167 10162 10161 10158 ] final   76.66 input  -65.29 | X-H torsion
[ 10718 10713 10712 10709 ] final  110.77 input   66.30 | X-H torsion
[ 10763 10752 10751 10750 ] final   44.53 input  -60.55 | X-H torsion
[ 11005 11000 10999 10996 ] final -174.69 input  -57.11 | X-H torsion

> <Gold.Protein.ActiveResidues>
 VAL166  LYS551  ARG553  GLY616  TRP617  ASP618  TYR619  PRO620  LYS621  CYS622 
 ASP623  PHE694  ASN695  SER759  ASP760  ASP761  ALA762  ILE779  LEU786  VAL792 
 PHE793  MET794  SER795  GLU796  ALA797  LYS798  CYS799  TRP800  GLU811  SER814 

> <Gold.Protein.RotatedAtoms>
  150.6974  134.4276  159.5233 H   0  0  0  0  0  0  0  0  0  0  0  0  # atno 6907 bound_to 6896
  152.2009  134.8586  160.0517 H   0  0  0  0  0  0  0  0  0  0  0  0  # atno 6908 bound_to 6896
  151.9507  133.3630  159.4036 H   0  0  0  0  0  0  0  0  0  0  0  0  # atno 6909 bound_to 6896
  145.9231  140.7816  142.9637 H   0  0  0  0  0  0  0  0  0  0  0  0  # atno 7974 bound_to 7965
  155.5629  140.0627  157.2824 H   0  0  0  0  0  0  0  0  0  0  0  0  # atno 8008 bound_to 7997
  154.4384  140.1882  156.0846 H   0  0  0  0  0  0  0  0  0  0  0  0  # atno 8009 bound_to 7997
  156.0433  140.3293  155.7272 H   0  0  0  0  0  0  0  0  0  0  0  0  # atno 8010 bound_to 7997
  139.9898  144.5765  150.7828 H   0  0  0  0  0  0  0  0  0  0  0  0  # atno 10167 bound_to 10162
  157.6478  131.0939  150.6651 H   0  0  0  0  0  0  0  0  0  0  0  0  # atno 10718 bound_to 10713
  152.9839  135.6067  154.3289 H   0  0  0  0  0  0  0  0  0  0  0  0  # atno 10763 bound_to 10752
  154.2994  135.2773  155.2620 H   0  0  0  0  0  0  0  0  0  0  0  0  # atno 10764 bound_to 10752
  154.4879  135.5900  153.6493 H   0  0  0  0  0  0  0  0  0  0  0  0  # atno 10765 bound_to 10752
  140.4717  134.6159  157.4884 H   0  0  0  0  0  0  0  0  0  0  0  0  # atno 11005 bound_to 11000
  144.6755  140.2007  143.7387 LP  0  0  0  0  0  0  0  0  0  0  0  0  # atno 17320 bound_to 7965
  145.8524  139.2182  143.1764 LP  0  0  0  0  0  0  0  0  0  0  0  0  # atno 17321 bound_to 7965
  140.7459  143.2882  151.3404 LP  0  0  0  0  0  0  0  0  0  0  0  0  # atno 17342 bound_to 10162
  139.6348  144.0651  152.2507 LP  0  0  0  0  0  0  0  0  0  0  0  0  # atno 17343 bound_to 10162
  156.6966  130.4611  149.5584 LP  0  0  0  0  0  0  0  0  0  0  0  0  # atno 17370 bound_to 10713
  156.1824  130.6507  151.0967 LP  0  0  0  0  0  0  0  0  0  0  0  0  # atno 17371 bound_to 10713
  139.9881  134.7029  155.9738 LP  0  0  0  0  0  0  0  0  0  0  0  0  # atno 17394 bound_to 11000
  141.1574  133.6541  156.4205 LP  0  0  0  0  0  0  0  0  0  0  0  0  # atno 17395 bound_to 11000

$$$$
