AV-unprocessed.smi:2945|AV-procd|sdf|11276|dock3
  -GOLD-   2272016173D 1   1.00000     0.00000
 Structure written by MMmdl.
 36 37  0  0  0  0  0  0  0  0  1 V2000
  149.0699  123.8501  151.2124 C   0  0  0  0  0  0  0  0  0  0  0  0
  148.6434  125.2108  151.6453 C   0  0  0  0  0  0  0  0  0  0  0  0
  148.4902  126.3936  150.9782 C   0  0  0  0  0  0  0  0  0  0  0  0
  148.0574  127.2821  151.9981 C   0  0  0  0  0  0  0  0  0  0  0  0
  147.7826  128.6428  151.7081 N   0  0  0  0  0  0  0  0  0  0  0  0
  146.7011  129.3554  152.0666 C   0  0  0  0  0  0  0  0  0  0  0  0
  145.7504  128.9203  152.7171 O   0  0  0  0  0  0  0  0  0  0  0  0
  146.7852  130.6184  151.6222 N   0  0  0  0  0  0  0  0  0  0  0  0
  145.7797  131.6645  151.8079 C   0  0  2  0  0  0  0  0  0  0  0  0
  144.5363  131.3059  150.9702 C   0  0  0  0  0  0  0  0  0  0  0  0
  143.4568  132.3941  151.0569 C   0  0  0  0  0  0  0  0  0  0  0  0
  144.0198  133.7578  150.6361 C   0  0  0  0  0  0  0  0  0  0  0  0
  145.2458  134.1309  151.4823 C   0  0  0  0  0  0  0  0  0  0  0  0
  146.3466  133.0525  151.4115 C   0  0  1  0  0  0  0  0  0  0  0  0
  147.5579  133.4660  152.2664 C   0  0  0  0  0  0  0  0  0  0  0  0
  147.9568  126.6954  153.1811 N   0  0  0  0  0  0  0  0  0  0  0  0
  148.3321  125.3648  152.9609 O   0  0  0  0  0  0  0  0  0  0  0  0
  149.1848  123.8040  150.1294 H   0  0  0  0  0  0  0  0  0  0  0  0
  148.3333  123.1021  151.5062 H   0  0  0  0  0  0  0  0  0  0  0  0
  150.0243  123.5822  151.6657 H   0  0  0  0  0  0  0  0  0  0  0  0
  148.6602  126.5883  149.9298 H   0  0  0  0  0  0  0  0  0  0  0  0
  148.4854  129.1254  151.1681 H   0  0  0  0  0  0  0  0  0  0  0  0
  147.6099  130.8788  151.1019 H   0  0  0  0  0  0  0  0  0  0  0  0
  145.4712  131.7079  152.8542 H   0  0  0  0  0  0  0  0  0  0  0  0
  144.8215  131.1663  149.9263 H   0  0  0  0  0  0  0  0  0  0  0  0
  144.1219  130.3545  151.3060 H   0  0  0  0  0  0  0  0  0  0  0  0
  142.6099  132.1299  150.4230 H   0  0  0  0  0  0  0  0  0  0  0  0
  143.0752  132.4524  152.0771 H   0  0  0  0  0  0  0  0  0  0  0  0
  144.2954  133.7318  149.5811 H   0  0  0  0  0  0  0  0  0  0  0  0
  143.2508  134.5244  150.7367 H   0  0  0  0  0  0  0  0  0  0  0  0
  145.6408  135.0895  151.1436 H   0  0  0  0  0  0  0  0  0  0  0  0
  144.9389  134.2751  152.5192 H   0  0  0  0  0  0  0  0  0  0  0  0
  146.6832  132.9959  150.3750 H   0  0  0  0  0  0  0  0  0  0  0  0
  147.2986  133.5049  153.3248 H   0  0  0  0  0  0  0  0  0  0  0  0
  147.9232  134.4517  151.9774 H   0  0  0  0  0  0  0  0  0  0  0  0
  148.3889  132.7700  152.1532 H   0  0  0  0  0  0  0  0  0  0  0  0
  1  2  1  0  0  0  0
  1 18  1  0  0  0  0
  1 19  1  0  0  0  0
  1 20  1  0  0  0  0
  2 17  1  0  0  0  0
  2  3  2  0  0  0  0
  3  4  1  0  0  0  0
  3 21  1  0  0  0  0
  4  5  1  0  0  0  0
  4 16  2  0  0  0  0
  5  6  1  0  0  0  0
  5 22  1  0  0  0  0
  6  7  2  0  0  0  0
  6  8  1  0  0  0  0
  8  9  1  0  0  0  0
  8 23  1  0  0  0  0
  9 14  1  0  0  0  0
  9 10  1  0  0  0  0
  9 24  1  0  0  0  0
 10 11  1  0  0  0  0
 10 25  1  0  0  0  0
 10 26  1  0  0  0  0
 11 12  1  0  0  0  0
 11 27  1  0  0  0  0
 11 28  1  0  0  0  0
 12 13  1  0  0  0  0
 12 29  1  0  0  0  0
 12 30  1  0  0  0  0
 13 14  1  0  0  0  0
 13 31  1  0  0  0  0
 13 32  1  0  0  0  0
 14 15  1  0  0  0  0
 14 33  1  0  0  0  0
 15 34  1  0  0  0  0
 15 35  1  0  0  0  0
 15 36  1  0  0  0  0
 16 17  1  0  0  0  0
M  END
> <s_m_source_file>
AV-unprocessed.smi

> <i_m_source_file_index>
2945

> <i_lp_mmshare_version>
43012

> <i_f3d_flags>
0

> <s_epik_input>
W0NIM11jMVtjSF1jKG5vMSlbTkhdQyg9TylbTkhdW0NAQEhdMltDSDJdW0NIMl1bQ0gyXVtDSDJdW0NASF0yW0NIM10=

> <s_epik_cmdline>
J2VwaWtfcHl0aG9uJywgJy1waCcsICc3LjAnLCAnLXRuJywgJzgnLCAnLW1hJywgJzIwMCcsICctbWV0YWxfYmluZGluZycsICctaW1hZScsICc8aW5maWxlLm1hZT4nLCAnLW9tYWUnLCAnPG91dGZpbGUubWFlPic=

> <r_lp_tautomer_probability>
1

> <r_epik_Ionization_Penalty>
2.357e-05

> <r_epik_Ionization_Penalty_Charging>
0

> <r_epik_Ionization_Penalty_Neutral>
2.357e-05

> <r_epik_State_Penalty>
-0

> <r_epik_Charging_Adjusted_Penalty>
0

> <i_epik_Tot_Q>
0

> <i_epik_Tot_abs_Q>
0

> <r_epik_Metal_State_Penalty>
-0

> <b_epik_Metal_Only>
0

> <s_lp_Force_Field>
OPLS_2005

> <r_lp_Energy>
8.52615

> <b_lp_Chiralities_Consistent>
1

> <s_lp_Variant>
AV-unprocessed.smi:2945-1

> <Gold.Version>
5.8.1

> <Gold.Id.Protein>
6NUR|6NUR_protein|mol2

> <Gold.PLP.Fitness>
42.2249

> <Gold.PLP.PLP>
-38.5721

> <Gold.PLP.part.hbond>
-3.4974

> <Gold.PLP.part.metal>
0.0000

> <Gold.PLP.part.buried>
-6.5535

> <Gold.PLP.part.nonpolar>
-28.4131

> <Gold.PLP.part.repulsive>
0.3017

> <Gold.PLP.ligand.clash>
0.0000

> <Gold.PLP.ligand.torsion>
0.5108

> <Gold.PLP.Chemscore.Hbond>
1.5568

> <Gold.PLP.Chemscore.CHOScore>
0.0000

> <Gold.PLP.Chemscore.Metal>
0.0000

> <Gold.Chemscore.Hbonds>
donor molecule, donor type, donor heavy atom, donor atom, acceptor molecule, acceptor atom, score
      L1  H     5    22       P1 10747  0.57
      L1  H     8    23       P1 10747  1.00

> <Gold.PLP.Chemscore.Internal.Correction>
0.0040

> <Gold.Rescore>
     Score         DG    S(hbond)    S(metal)    S(lipo)     H(rot)  DE(clash)    DE(int)     intcor
     14.37     -14.94       1.04        0.00      72.95       1.00       0.11       0.47       ----

> <Gold.Chemscore.Fitness>
14.3691

> <Gold.Chemscore.DG>
-14.9422

> <Gold.Chemscore.ZeroCoef>
-5.4800

> <Gold.Chemscore.Hbond>
1.0439

> <Gold.Chemscore.Metal>
0.0000

> <Gold.Chemscore.Lipo>
72.9521

> <Gold.Chemscore.Internal_Hbond>
0.0000

> <Gold.Chemscore.DEClash>
0.1057

> <Gold.Chemscore.DEInternal>
0.4673

> <Gold.Chemscore.Rot>
1.0000

> <Gold.Chemscore.Internal.Correction>
   9.000000E+99

> <Gold.Chemscore.Hbonds>
donor molecule, donor type, donor heavy atom, donor atom, acceptor molecule, acceptor atom, score
      L1  H     5    22       P1 10747  0.04
      L1  H     8    23       P1 10747  0.98

> <Gold.Chemscore.Hbond.Weighted>
-3.4868

> <Gold.Chemscore.Metal.Weighted>
-0.0000

> <Gold.Chemscore.Lipo.Weighted>
-8.5354

> <Gold.Chemscore.Internal_Hbond.Weighted>
0.0000

> <Gold.Chemscore.DEClash.Weighted>
0.1057

> <Gold.Chemscore.DEInternal.Weighted>
0.4673

> <Gold.Chemscore.Rot.Weighted>
2.5600

> <Gold.Chemscore.Internal.Correction.Weighted>
   9.000000E+99

> <Gold.Protein.RotatedTorsions>
[ 6907 6896 6895 6894 ] final -131.38 input  -60.11 | X-H torsion
[ 7974 7965 7964 7962 ] final   10.60 input  175.53 | X-H torsion
[ 8008 7997 7996 7995 ] final   -6.46 input   59.86 | X-H torsion
[ 10167 10162 10161 10158 ] final   18.30 input  -65.29 | X-H torsion
[ 10718 10713 10712 10709 ] final  -16.86 input   66.30 | X-H torsion
[ 10763 10752 10751 10750 ] final -101.99 input  -60.55 | X-H torsion
[ 11005 11000 10999 10996 ] final  -25.45 input  -57.11 | X-H torsion

> <Gold.Protein.ActiveResidues>
 VAL166  LYS551  ARG553  GLY616  TRP617  ASP618  TYR619  PRO620  LYS621  CYS622 
 ASP623  PHE694  ASN695  SER759  ASP760  ASP761  ALA762  ILE779  LEU786  VAL792 
 PHE793  MET794  SER795  GLU796  ALA797  LYS798  CYS799  TRP800  GLU811  SER814 

> <Gold.Protein.RotatedAtoms>
  150.9503  133.6556  159.2772 H   0  0  0  0  0  0  0  0  0  0  0  0  # atno 6907 bound_to 6896
  151.3914  135.0955  159.9537 H   0  0  0  0  0  0  0  0  0  0  0  0  # atno 6908 bound_to 6896
  152.5107  133.9017  159.7499 H   0  0  0  0  0  0  0  0  0  0  0  0  # atno 6909 bound_to 6896
  146.2385  139.9609  142.8458 H   0  0  0  0  0  0  0  0  0  0  0  0  # atno 7974 bound_to 7965
  154.5935  140.2432  155.7888 H   0  0  0  0  0  0  0  0  0  0  0  0  # atno 8008 bound_to 7997
  156.2263  140.2981  156.0029 H   0  0  0  0  0  0  0  0  0  0  0  0  # atno 8009 bound_to 7997
  155.2333  140.0404  157.2955 H   0  0  0  0  0  0  0  0  0  0  0  0  # atno 8010 bound_to 7997
  140.5663  143.9244  150.6679 H   0  0  0  0  0  0  0  0  0  0  0  0  # atno 10167 bound_to 10162
  156.5816  130.4775  149.6318 H   0  0  0  0  0  0  0  0  0  0  0  0  # atno 10718 bound_to 10713
  154.7700  135.4877  153.9630 H   0  0  0  0  0  0  0  0  0  0  0  0  # atno 10763 bound_to 10752
  153.1356  135.6762  153.9116 H   0  0  0  0  0  0  0  0  0  0  0  0  # atno 10764 bound_to 10752
  153.8806  135.3132  155.3423 H   0  0  0  0  0  0  0  0  0  0  0  0  # atno 10765 bound_to 10752
  140.8938  133.7570  156.0456 H   0  0  0  0  0  0  0  0  0  0  0  0  # atno 11005 bound_to 11000
  145.1771  140.9749  143.4287 LP  0  0  0  0  0  0  0  0  0  0  0  0  # atno 17320 bound_to 7965
  144.9975  139.3630  143.6184 LP  0  0  0  0  0  0  0  0  0  0  0  0  # atno 17321 bound_to 7965
  140.2708  143.3457  152.1240 LP  0  0  0  0  0  0  0  0  0  0  0  0  # atno 17342 bound_to 10162
  139.5095  144.6868  151.5867 LP  0  0  0  0  0  0  0  0  0  0  0  0  # atno 17343 bound_to 10162
  156.2627  130.6971  151.1745 LP  0  0  0  0  0  0  0  0  0  0  0  0  # atno 17370 bound_to 10713
  157.7325  131.0599  150.5624 LP  0  0  0  0  0  0  0  0  0  0  0  0  # atno 17371 bound_to 10713
  140.8314  134.3174  157.5347 LP  0  0  0  0  0  0  0  0  0  0  0  0  # atno 17394 bound_to 11000
  139.8733  134.9365  156.3662 LP  0  0  0  0  0  0  0  0  0  0  0  0  # atno 17395 bound_to 11000

$$$$
