AV-unprocessed.smi:2076|AV-procd|sdf|8459|dock7
  -GOLD-   2272011153D 1   1.00000     0.00000
 Structure written by MMmdl.
 45 46  0  0  0  0  0  0  0  0  2 V2000
  154.5497  140.0859  161.2664 C   0  0  0  0  0  0  0  0  0  0  0  0
  153.7757  141.3329  160.9562 C   0  0  0  0  0  0  0  0  0  0  0  0
  153.3048  142.3257  161.8603 C   0  0  0  0  0  0  0  0  0  0  0  0
  152.6748  143.2380  161.0618 C   0  0  0  0  0  0  0  0  0  0  0  0
  151.9826  144.5128  161.4172 C   0  0  0  0  0  0  0  0  0  0  0  0
  152.7833  142.7766  159.7619 N   0  0  0  0  0  0  0  0  0  0  0  0
  152.3021  143.3826  158.5294 C   0  0  0  0  0  0  0  0  0  0  0  0
  150.9260  142.8326  158.1511 C   0  0  0  0  0  0  0  0  0  0  0  0
  149.9886  142.9074  158.9447 O   0  0  0  0  0  0  0  0  0  0  0  0
  150.8178  142.2942  156.9284 N   0  0  0  0  0  0  0  0  0  0  0  0
  149.5781  141.8015  156.3437 C   0  0  0  0  0  0  0  0  0  0  0  0
  149.8353  140.9636  155.0634 C   0  0  2  0  0  0  0  0  0  0  0  0
  148.5108  140.7250  154.3003 C   0  0  0  0  0  0  0  0  0  0  0  0
  150.5202  139.6557  155.3291 N   0  3  0  0  0  0  0  0  0  0  0  0
  150.4124  138.7105  154.1843 C   0  0  0  0  0  0  0  0  0  0  0  0
  151.0365  137.3489  154.5294 C   0  0  0  0  0  0  0  0  0  0  0  0
  152.3974  137.5312  154.8901 O   0  0  0  0  0  0  0  0  0  0  0  0
  152.5246  138.3487  156.0438 C   0  0  0  0  0  0  0  0  0  0  0  0
  151.9415  139.7452  155.7656 C   0  0  0  0  0  0  0  0  0  0  0  0
  153.4606  141.6085  159.7012 N   0  0  0  0  0  0  0  0  0  0  0  0
  154.6614  139.9495  162.3423 H   0  0  0  0  0  0  0  0  0  0  0  0
  155.5488  140.1268  160.8319 H   0  0  0  0  0  0  0  0  0  0  0  0
  154.0483  139.2022  160.8710 H   0  0  0  0  0  0  0  0  0  0  0  0
  153.4160  142.3642  162.9339 H   0  0  0  0  0  0  0  0  0  0  0  0
  152.0156  144.6866  162.4928 H   0  0  0  0  0  0  0  0  0  0  0  0
  150.9356  144.4850  161.1149 H   0  0  0  0  0  0  0  0  0  0  0  0
  152.4565  145.3628  160.9260 H   0  0  0  0  0  0  0  0  0  0  0  0
  152.2483  144.4655  158.6526 H   0  0  0  0  0  0  0  0  0  0  0  0
  153.0192  143.1899  157.7310 H   0  0  0  0  0  0  0  0  0  0  0  0
  151.6431  142.2740  156.3461 H   0  0  0  0  0  0  0  0  0  0  0  0
  149.0866  141.2039  157.1123 H   0  0  0  0  0  0  0  0  0  0  0  0
  148.9253  142.6455  156.1136 H   0  0  0  0  0  0  0  0  0  0  0  0
  150.4938  141.5568  154.4264 H   0  0  0  0  0  0  0  0  0  0  0  0
  148.0101  141.6597  154.0469 H   0  0  0  0  0  0  0  0  0  0  0  0
  147.8158  140.1344  154.8978 H   0  0  0  0  0  0  0  0  0  0  0  0
  148.6579  140.2044  153.3559 H   0  0  0  0  0  0  0  0  0  0  0  0
  149.3740  138.5507  153.9007 H   0  0  0  0  0  0  0  0  0  0  0  0
  150.9153  139.1345  153.3136 H   0  0  0  0  0  0  0  0  0  0  0  0
  150.4904  136.8609  155.3386 H   0  0  0  0  0  0  0  0  0  0  0  0
  150.9872  136.6846  153.6663 H   0  0  0  0  0  0  0  0  0  0  0  0
  152.0238  137.8804  156.8928 H   0  0  0  0  0  0  0  0  0  0  0  0
  153.5803  138.4289  156.3034 H   0  0  0  0  0  0  0  0  0  0  0  0
  152.5308  140.2524  154.9997 H   0  0  0  0  0  0  0  0  0  0  0  0
  152.0315  140.3219  156.6857 H   0  0  0  0  0  0  0  0  0  0  0  0
  150.0255  139.2353  156.1031 H   0  0  0  0  0  0  0  0  0  0  0  0
  1  2  1  0  0  0  0
  1 21  1  0  0  0  0
  1 22  1  0  0  0  0
  1 23  1  0  0  0  0
  2 20  2  0  0  0  0
  2  3  1  0  0  0  0
  3  4  2  0  0  0  0
  3 24  1  0  0  0  0
  4  5  1  0  0  0  0
  4  6  1  0  0  0  0
  5 25  1  0  0  0  0
  5 26  1  0  0  0  0
  5 27  1  0  0  0  0
  6  7  1  0  0  0  0
  6 20  1  0  0  0  0
  7  8  1  0  0  0  0
  7 28  1  0  0  0  0
  7 29  1  0  0  0  0
  8  9  2  0  0  0  0
  8 10  1  0  0  0  0
 10 11  1  0  0  0  0
 10 30  1  0  0  0  0
 11 12  1  0  0  0  0
 11 31  1  0  0  0  0
 11 32  1  0  0  0  0
 12 13  1  0  0  0  0
 12 14  1  0  0  0  0
 12 33  1  0  0  0  0
 13 34  1  0  0  0  0
 13 35  1  0  0  0  0
 13 36  1  0  0  0  0
 14 19  1  0  0  0  0
 14 15  1  0  0  0  0
 14 45  1  0  0  0  0
 15 16  1  0  0  0  0
 15 37  1  0  0  0  0
 15 38  1  0  0  0  0
 16 17  1  0  0  0  0
 16 39  1  0  0  0  0
 16 40  1  0  0  0  0
 17 18  1  0  0  0  0
 18 19  1  0  0  0  0
 18 41  1  0  0  0  0
 18 42  1  0  0  0  0
 19 43  1  0  0  0  0
 19 44  1  0  0  0  0
M  CHG  1  14   1
M  END
> <s_m_source_file>
AV-unprocessed.smi

> <i_m_source_file_index>
2076

> <i_lp_mmshare_version>
43012

> <i_f3d_flags>
0

> <s_epik_input>
W0NIM11jMVtjSF1jKFtDSDNdKW4objEpW0NIMl1DKD1PKVtOSF1bQ0gyXVtDQEhdKFtDSDNdKU4yW0NIMl1bQ0gyXU9bQ0gyXVtDSDJdMg==

> <s_epik_cmdline>
J2VwaWtfcHl0aG9uJywgJy1waCcsICc3LjAnLCAnLXRuJywgJzgnLCAnLW1hJywgJzIwMCcsICctbWV0YWxfYmluZGluZycsICctaW1hZScsICc8aW5maWxlLm1hZT4nLCAnLW9tYWUnLCAnPG91dGZpbGUubWFlPic=

> <r_lp_tautomer_probability>
1

> <r_epik_Ionization_Penalty>
0.748594

> <r_epik_Ionization_Penalty_Charging>
0.748396

> <r_epik_Ionization_Penalty_Neutral>
0.000197403

> <r_epik_State_Penalty>
0.775162

> <r_epik_Charging_Adjusted_Penalty>
1.52356

> <i_epik_Tot_Q>
1

> <i_epik_Tot_abs_Q>
1

> <r_epik_Metal_State_Penalty>
0.77529

> <b_epik_Metal_Only>
0

> <s_lp_Force_Field>
OPLS_2005

> <r_lp_Energy>
18.1598

> <b_lp_Chiralities_Consistent>
1

> <s_lp_Variant>
AV-unprocessed.smi:2076-3

> <Gold.Version>
5.8.1

> <Gold.Id.Protein>
6NUR|6NUR_protein|mol2

> <Gold.PLP.Fitness>
47.1835

> <Gold.PLP.PLP>
-46.7954

> <Gold.PLP.part.hbond>
-1.4985

> <Gold.PLP.part.metal>
0.0000

> <Gold.PLP.part.buried>
-3.6400

> <Gold.PLP.part.nonpolar>
-41.7134

> <Gold.PLP.part.repulsive>
0.3119

> <Gold.PLP.ligand.clash>
0.0000

> <Gold.PLP.ligand.torsion>
0.7407

> <Gold.PLP.Chemscore.Hbond>
0.6080

> <Gold.PLP.Chemscore.CHOScore>
0.0000

> <Gold.PLP.Chemscore.Metal>
0.0000

> <Gold.Chemscore.Hbonds>
donor molecule, donor type, donor heavy atom, donor atom, acceptor molecule, acceptor atom, score
      P1  H 10752 10764       L1    17  0.50

> <Gold.PLP.Chemscore.Internal.Correction>
0.0454

> <Gold.Rescore>
     Score         DG    S(hbond)    S(metal)    S(lipo)     H(rot)  DE(clash)    DE(int)     intcor
     16.02     -17.03       0.94        0.00     110.62       1.78       0.01       1.00       ----

> <Gold.Chemscore.Fitness>
16.0168

> <Gold.Chemscore.DG>
-17.0274

> <Gold.Chemscore.ZeroCoef>
-5.4800

> <Gold.Chemscore.Hbond>
0.9435

> <Gold.Chemscore.Metal>
0.0000

> <Gold.Chemscore.Lipo>
110.6199

> <Gold.Chemscore.Internal_Hbond>
0.0000

> <Gold.Chemscore.DEClash>
0.0149

> <Gold.Chemscore.DEInternal>
0.9957

> <Gold.Chemscore.Rot>
1.7760

> <Gold.Chemscore.Internal.Correction>
   9.000000E+99

> <Gold.Chemscore.Hbonds>
donor molecule, donor type, donor heavy atom, donor atom, acceptor molecule, acceptor atom, score
      P1  H 10752 10764       L1    17  0.07

> <Gold.Chemscore.Hbond.Weighted>
-3.1513

> <Gold.Chemscore.Metal.Weighted>
-0.0000

> <Gold.Chemscore.Lipo.Weighted>
-12.9425

> <Gold.Chemscore.Internal_Hbond.Weighted>
0.0000

> <Gold.Chemscore.DEClash.Weighted>
0.0149

> <Gold.Chemscore.DEInternal.Weighted>
0.9957

> <Gold.Chemscore.Rot.Weighted>
4.5464

> <Gold.Chemscore.Internal.Correction.Weighted>
   9.000000E+99

> <Gold.Protein.RotatedTorsions>
[ 6907 6896 6895 6894 ] final   93.91 input  -60.11 | X-H torsion
[ 7974 7965 7964 7962 ] final   88.04 input  175.53 | X-H torsion
[ 8008 7997 7996 7995 ] final  -80.52 input   59.86 | X-H torsion
[ 10167 10162 10161 10158 ] final  -82.75 input  -65.29 | X-H torsion
[ 10718 10713 10712 10709 ] final  171.73 input   66.30 | X-H torsion
[ 10763 10752 10751 10750 ] final  -61.81 input  -60.55 | X-H torsion
[ 11005 11000 10999 10996 ] final  171.19 input  -57.11 | X-H torsion

> <Gold.Protein.ActiveResidues>
 VAL166  LYS551  ARG553  GLY616  TRP617  ASP618  TYR619  PRO620  LYS621  CYS622 
 ASP623  PHE694  ASN695  SER759  ASP760  ASP761  ALA762  ILE779  LEU786  VAL792 
 PHE793  MET794  SER795  GLU796  ALA797  LYS798  CYS799  TRP800  GLU811  SER814 

> <Gold.Protein.RotatedAtoms>
  152.5451  134.1275  159.8424 H   0  0  0  0  0  0  0  0  0  0  0  0  # atno 6907 bound_to 6896
  151.1325  133.5020  159.2606 H   0  0  0  0  0  0  0  0  0  0  0  0  # atno 6908 bound_to 6896
  151.1660  135.0306  159.8786 H   0  0  0  0  0  0  0  0  0  0  0  0  # atno 6909 bound_to 6896
  145.5510  139.2295  143.2512 H   0  0  0  0  0  0  0  0  0  0  0  0  # atno 7974 bound_to 7965
  154.5891  140.0662  156.9213 H   0  0  0  0  0  0  0  0  0  0  0  0  # atno 8008 bound_to 7997
  155.2327  140.3338  155.4283 H   0  0  0  0  0  0  0  0  0  0  0  0  # atno 8009 bound_to 7997
  156.2243  140.1812  156.7385 H   0  0  0  0  0  0  0  0  0  0  0  0  # atno 8010 bound_to 7997
  140.4290  143.2555  151.8785 H   0  0  0  0  0  0  0  0  0  0  0  0  # atno 10167 bound_to 10162
  156.9893  131.0143  151.2861 H   0  0  0  0  0  0  0  0  0  0  0  0  # atno 10718 bound_to 10713
  154.2903  135.6254  153.5382 H   0  0  0  0  0  0  0  0  0  0  0  0  # atno 10763 bound_to 10752
  152.9853  135.5654  154.5397 H   0  0  0  0  0  0  0  0  0  0  0  0  # atno 10764 bound_to 10752
  154.5006  135.2872  155.1399 H   0  0  0  0  0  0  0  0  0  0  0  0  # atno 10765 bound_to 10752
  140.3164  134.7474  157.4030 H   0  0  0  0  0  0  0  0  0  0  0  0  # atno 11005 bound_to 11000
  146.1916  140.6333  142.9143 LP  0  0  0  0  0  0  0  0  0  0  0  0  # atno 17320 bound_to 7965
  144.7529  140.5236  143.6789 LP  0  0  0  0  0  0  0  0  0  0  0  0  # atno 17321 bound_to 7965
  139.4784  144.5355  151.8605 LP  0  0  0  0  0  0  0  0  0  0  0  0  # atno 17342 bound_to 10162
  140.4448  144.1937  150.5893 LP  0  0  0  0  0  0  0  0  0  0  0  0  # atno 17343 bound_to 10162
  157.5470  130.8157  149.8098 LP  0  0  0  0  0  0  0  0  0  0  0  0  # atno 17370 bound_to 10713
  156.0213  130.3794  150.1953 LP  0  0  0  0  0  0  0  0  0  0  0  0  # atno 17371 bound_to 10713
  140.0980  134.5511  155.8380 LP  0  0  0  0  0  0  0  0  0  0  0  0  # atno 17394 bound_to 11000
  141.2097  133.6686  156.6455 LP  0  0  0  0  0  0  0  0  0  0  0  0  # atno 17395 bound_to 11000

$$$$
