AV-unprocessed.smi:337|AV-procd|sdf|2372|dock10
  -GOLD-   2262022293D 1   1.00000     0.00000
 Structure written by MMmdl.
 43 44  0  0  0  0  0  0  0  0  1 V2000
  146.2667  132.7120  151.2129 C   0  0  0  0  0  0  0  0  0  0  0  0
  146.1446  133.7567  152.3349 C   0  0  2  0  0  0  0  0  0  0  0  0
  146.4789  135.0655  151.7754 N   0  0  0  0  0  0  0  0  0  0  0  0
  145.6010  135.9089  151.2127 C   0  0  0  0  0  0  0  0  0  0  0  0
  146.1737  137.0437  150.8105 N   0  0  0  0  0  0  0  0  0  0  0  0
  144.4009  135.6784  151.0773 O   0  0  0  0  0  0  0  0  0  0  0  0
  147.1315  133.3739  153.4491 C   0  0  0  0  0  0  0  0  0  0  0  0
  146.9725  132.3413  154.1025 O   0  0  0  0  0  0  0  0  0  0  0  0
  148.1370  134.2344  153.6696 N   0  0  0  0  0  0  0  0  0  0  0  0
  149.1657  134.0714  154.6916 C   0  0  0  0  0  0  0  0  0  0  0  0
  148.6637  134.2396  156.1189 C   0  0  0  0  0  0  0  0  0  0  0  0
  147.3258  134.5808  156.4079 C   0  0  0  0  0  0  0  0  0  0  0  0
  146.9312  134.7219  157.7518 C   0  0  0  0  0  0  0  0  0  0  0  0
  147.8867  134.5252  158.7773 C   0  0  0  0  0  0  0  0  0  0  0  0
  147.5135  134.6606  160.1324 N   0  0  0  0  0  0  0  0  0  0  0  0
  148.0088  135.8557  160.8109 C   0  0  0  0  0  0  0  0  0  0  0  0
  147.2906  136.0437  162.1585 C   0  0  0  0  0  0  0  0  0  0  0  0
  147.4236  134.8650  162.9457 O   0  0  0  0  0  0  0  0  0  0  0  0
  146.8318  133.7361  162.3120 C   0  0  0  0  0  0  0  0  0  0  0  0
  147.5378  133.4649  160.9731 C   0  0  0  0  0  0  0  0  0  0  0  0
  149.1722  134.1990  158.4941 N   0  0  0  0  0  0  0  0  0  0  0  0
  149.5451  134.0647  157.2042 C   0  0  0  0  0  0  0  0  0  0  0  0
  146.0247  131.7116  151.5745 H   0  0  0  0  0  0  0  0  0  0  0  0
  147.2742  132.6794  150.7951 H   0  0  0  0  0  0  0  0  0  0  0  0
  145.5792  132.9357  150.3967 H   0  0  0  0  0  0  0  0  0  0  0  0
  145.1226  133.7649  152.7197 H   0  0  0  0  0  0  0  0  0  0  0  0
  147.4430  135.3555  151.8444 H   0  0  0  0  0  0  0  0  0  0  0  0
  145.6222  137.7630  150.3665 H   0  0  0  0  0  0  0  0  0  0  0  0
  147.1648  137.1768  150.9503 H   0  0  0  0  0  0  0  0  0  0  0  0
  148.1946  135.0581  153.0885 H   0  0  0  0  0  0  0  0  0  0  0  0
  149.6406  133.0952  154.5784 H   0  0  0  0  0  0  0  0  0  0  0  0
  149.9429  134.8147  154.5135 H   0  0  0  0  0  0  0  0  0  0  0  0
  146.6050  134.7299  155.6175 H   0  0  0  0  0  0  0  0  0  0  0  0
  145.9035  134.9630  157.9779 H   0  0  0  0  0  0  0  0  0  0  0  0
  149.0822  135.7484  160.9728 H   0  0  0  0  0  0  0  0  0  0  0  0
  147.8676  136.7514  160.2081 H   0  0  0  0  0  0  0  0  0  0  0  0
  147.7263  136.8827  162.7010 H   0  0  0  0  0  0  0  0  0  0  0  0
  146.2352  136.2760  162.0074 H   0  0  0  0  0  0  0  0  0  0  0  0
  146.9263  132.8709  162.9678 H   0  0  0  0  0  0  0  0  0  0  0  0
  145.7645  133.9067  162.1619 H   0  0  0  0  0  0  0  0  0  0  0  0
  147.0430  132.6355  160.4665 H   0  0  0  0  0  0  0  0  0  0  0  0
  148.5728  133.1694  161.1504 H   0  0  0  0  0  0  0  0  0  0  0  0
  150.5804  133.8069  157.0356 H   0  0  0  0  0  0  0  0  0  0  0  0
  1  2  1  0  0  0  0
  1 23  1  0  0  0  0
  1 24  1  0  0  0  0
  1 25  1  0  0  0  0
  2  3  1  0  0  0  0
  2  7  1  0  0  0  0
  2 26  1  0  0  0  0
  3  4  1  0  0  0  0
  3 27  1  0  0  0  0
  4  5  1  0  0  0  0
  4  6  2  0  0  0  0
  5 28  1  0  0  0  0
  5 29  1  0  0  0  0
  7  8  2  0  0  0  0
  7  9  1  0  0  0  0
  9 10  1  0  0  0  0
  9 30  1  0  0  0  0
 10 11  1  0  0  0  0
 10 31  1  0  0  0  0
 10 32  1  0  0  0  0
 11 22  1  0  0  0  0
 11 12  2  0  0  0  0
 12 13  1  0  0  0  0
 12 33  1  0  0  0  0
 13 14  2  0  0  0  0
 13 34  1  0  0  0  0
 14 15  1  0  0  0  0
 14 21  1  0  0  0  0
 15 20  1  0  0  0  0
 15 16  1  0  0  0  0
 16 17  1  0  0  0  0
 16 35  1  0  0  0  0
 16 36  1  0  0  0  0
 17 18  1  0  0  0  0
 17 37  1  0  0  0  0
 17 38  1  0  0  0  0
 18 19  1  0  0  0  0
 19 20  1  0  0  0  0
 19 39  1  0  0  0  0
 19 40  1  0  0  0  0
 20 41  1  0  0  0  0
 20 42  1  0  0  0  0
 21 22  2  0  0  0  0
 22 43  1  0  0  0  0
M  END
> <s_m_source_file>
AV-unprocessed.smi

> <i_m_source_file_index>
337

> <i_lp_mmshare_version>
43012

> <i_f3d_flags>
0

> <s_epik_input>
W05IMl1DKD1PKVtOSF1bQ0BASF0oW0NIM10pQyg9TylbTkhdW0NIMl1jMVtjSF1bY0hdYyhuW2NIXTEpTjJbQ0gyXVtDSDJdT1tDSDJdW0NIMl0y

> <s_epik_cmdline>
J2VwaWtfcHl0aG9uJywgJy1waCcsICc3LjAnLCAnLXRuJywgJzgnLCAnLW1hJywgJzIwMCcsICctbWV0YWxfYmluZGluZycsICctaW1hZScsICc8aW5maWxlLm1hZT4nLCAnLW9tYWUnLCAnPG91dGZpbGUubWFlPic=

> <r_lp_tautomer_probability>
1

> <r_epik_Ionization_Penalty>
0.0048357

> <r_epik_Ionization_Penalty_Charging>
0

> <r_epik_Ionization_Penalty_Neutral>
0.0048357

> <r_epik_State_Penalty>
0.0034696

> <r_epik_Charging_Adjusted_Penalty>
0.0034696

> <i_epik_Tot_Q>
0

> <i_epik_Tot_abs_Q>
0

> <r_epik_Metal_State_Penalty>
-0

> <b_epik_Metal_Only>
0

> <s_lp_Force_Field>
OPLS_2005

> <r_lp_Energy>
8.56102

> <b_lp_Chiralities_Consistent>
1

> <s_lp_Variant>
AV-unprocessed.smi:337-1

> <Gold.Version>
5.8.1

> <Gold.Id.Protein>
6NUR|6NUR_protein|mol2

> <Gold.PLP.Fitness>
44.9890

> <Gold.PLP.PLP>
-32.0211

> <Gold.PLP.part.hbond>
-5.0000

> <Gold.PLP.part.metal>
0.0000

> <Gold.PLP.part.buried>
-7.1604

> <Gold.PLP.part.nonpolar>
-21.4548

> <Gold.PLP.part.repulsive>
0.4830

> <Gold.PLP.ligand.clash>
0.0000

> <Gold.PLP.ligand.torsion>
0.6509

> <Gold.PLP.Chemscore.Hbond>
4.6348

> <Gold.PLP.Chemscore.CHOScore>
0.0000

> <Gold.PLP.Chemscore.Metal>
0.0000

> <Gold.Chemscore.Hbonds>
donor molecule, donor type, donor heavy atom, donor atom, acceptor molecule, acceptor atom, score
      L1  H     3    27       P1  7948  1.00
      L1  H     5    28       P1 10171  1.00
      L1  H     5    29       P1  7948  0.56
      L1  H     9    30       P1  7948  1.00
      P1  H  6896  6908       L1    21  1.00

> <Gold.PLP.Chemscore.Internal.Correction>
0.3653

> <Gold.Rescore>
     Score         DG    S(hbond)    S(metal)    S(lipo)     H(rot)  DE(clash)    DE(int)     intcor
     18.55     -19.18       4.17        0.00      56.16       2.66       0.00       0.63       ----

> <Gold.Chemscore.Fitness>
18.5501

> <Gold.Chemscore.DG>
-19.1786

> <Gold.Chemscore.ZeroCoef>
-5.4800

> <Gold.Chemscore.Hbond>
4.1708

> <Gold.Chemscore.Metal>
0.0000

> <Gold.Chemscore.Lipo>
56.1617

> <Gold.Chemscore.Internal_Hbond>
0.0000

> <Gold.Chemscore.DEClash>
0.0030

> <Gold.Chemscore.DEInternal>
0.6255

> <Gold.Chemscore.Rot>
2.6573

> <Gold.Chemscore.Internal.Correction>
   9.000000E+99

> <Gold.Chemscore.Hbonds>
donor molecule, donor type, donor heavy atom, donor atom, acceptor molecule, acceptor atom, score
      L1  H     3    27       P1  7948  0.98
      L1  H     5    28       P1 10171  0.94
      L1  H     5    29       P1  7948  0.55
      L1  H     9    30       P1  7948  0.93
      P1  H  6896  6908       L1    21  0.35

> <Gold.Chemscore.Hbond.Weighted>
-13.9305

> <Gold.Chemscore.Metal.Weighted>
-0.0000

> <Gold.Chemscore.Lipo.Weighted>
-6.5709

> <Gold.Chemscore.Internal_Hbond.Weighted>
0.0000

> <Gold.Chemscore.DEClash.Weighted>
0.0030

> <Gold.Chemscore.DEInternal.Weighted>
0.6255

> <Gold.Chemscore.Rot.Weighted>
6.8027

> <Gold.Chemscore.Internal.Correction.Weighted>
   9.000000E+99

> <Gold.Protein.RotatedTorsions>
[ 6907 6896 6895 6894 ] final  134.18 input  -60.11 | X-H torsion
[ 7974 7965 7964 7962 ] final  -20.88 input  175.53 | X-H torsion
[ 8008 7997 7996 7995 ] final -163.63 input   59.86 | X-H torsion
[ 10167 10162 10161 10158 ] final  -31.55 input  -65.29 | X-H torsion
[ 10718 10713 10712 10709 ] final -171.50 input   66.30 | X-H torsion
[ 10763 10752 10751 10750 ] final  -53.84 input  -60.55 | X-H torsion
[ 11005 11000 10999 10996 ] final  103.30 input  -57.11 | X-H torsion

> <Gold.Protein.ActiveResidues>
 VAL166  LYS551  ARG553  GLY616  TRP617  ASP618  TYR619  PRO620  LYS621  CYS622 
 ASP623  PHE694  ASN695  SER759  ASP760  ASP761  ALA762  ILE779  LEU786  VAL792 
 PHE793  MET794  SER795  GLU796  ALA797  LYS798  CYS799  TRP800  GLU811  SER814 

> <Gold.Protein.RotatedAtoms>
  152.3140  133.5783  159.5699 H   0  0  0  0  0  0  0  0  0  0  0  0  # atno 6907 bound_to 6896
  150.7337  134.0110  159.3678 H   0  0  0  0  0  0  0  0  0  0  0  0  # atno 6908 bound_to 6896
  151.8000  135.0712  160.0450 H   0  0  0  0  0  0  0  0  0  0  0  0  # atno 6909 bound_to 6896
  146.1764  140.4264  142.8512 H   0  0  0  0  0  0  0  0  0  0  0  0  # atno 7974 bound_to 7965
  155.8241  140.0924  157.1832 H   0  0  0  0  0  0  0  0  0  0  0  0  # atno 8008 bound_to 7997
  154.3979  140.1431  156.3595 H   0  0  0  0  0  0  0  0  0  0  0  0  # atno 8009 bound_to 7997
  155.8235  140.3445  155.5531 H   0  0  0  0  0  0  0  0  0  0  0  0  # atno 8010 bound_to 7997
  140.7234  143.3762  151.1685 H   0  0  0  0  0  0  0  0  0  0  0  0  # atno 10167 bound_to 10162
  156.7418  130.9345  151.3110 H   0  0  0  0  0  0  0  0  0  0  0  0  # atno 10718 bound_to 10713
  154.1653  135.6468  153.4996 H   0  0  0  0  0  0  0  0  0  0  0  0  # atno 10763 bound_to 10752
  153.0099  135.5370  154.6669 H   0  0  0  0  0  0  0  0  0  0  0  0  # atno 10764 bound_to 10752
  154.5993  135.2942  155.0524 H   0  0  0  0  0  0  0  0  0  0  0  0  # atno 10765 bound_to 10752
  139.8783  134.9258  156.5189 H   0  0  0  0  0  0  0  0  0  0  0  0  # atno 11005 bound_to 11000
  144.8243  140.6602  143.6333 LP  0  0  0  0  0  0  0  0  0  0  0  0  # atno 17320 bound_to 7965
  145.4200  139.1565  143.4079 LP  0  0  0  0  0  0  0  0  0  0  0  0  # atno 17321 bound_to 7965
  139.7343  143.9024  152.3030 LP  0  0  0  0  0  0  0  0  0  0  0  0  # atno 17342 bound_to 10162
  139.8823  144.7011  150.8863 LP  0  0  0  0  0  0  0  0  0  0  0  0  # atno 17343 bound_to 10162
  157.6815  130.9145  150.0280 LP  0  0  0  0  0  0  0  0  0  0  0  0  # atno 17370 bound_to 10713
  156.1460  130.3642  149.9510 LP  0  0  0  0  0  0  0  0  0  0  0  0  # atno 17371 bound_to 10713
  140.8465  133.8165  155.9126 LP  0  0  0  0  0  0  0  0  0  0  0  0  # atno 17394 bound_to 11000
  140.9186  134.2170  157.4941 LP  0  0  0  0  0  0  0  0  0  0  0  0  # atno 17395 bound_to 11000

$$$$
