#       Name:                AV-unprocessed.smi:3245
#       Creating user name   scv26
#       Creation time:       Fri Mar 27 18:28:25 2020


#       File generated by GOLD software.
#

@<TRIPOS>MOLECULE
AV-unprocessed.smi:3245
    41    42     1
SMALL
NO_CHARGES


@<TRIPOS>ATOM
      1 ****        -1.5293   0.1384  -0.8560 C.3            1 S1                 0.0000
      2 ****        -1.0190   0.3616   0.5823 C.3            1 S1                 0.0000
      3 ****        -1.4960  -0.7333   1.5594 C.3            1 S1                 0.0000
      4 ****        -2.9421  -0.8498   1.6200 N.pl3          1 S1                 0.0000
      5 ****        -3.7368  -1.8921   1.1910 C.2            1 S1                 0.0000
      6 ****        -5.0317  -1.5544   1.4627 C.2            1 S1                 0.0000
      7 ****        -4.9258  -0.2727   2.0716 C.2            1 S1                 0.0000
      8 ****        -3.6738   0.1446   2.1685 N.2            1 S1                 0.0000
      9 ****         0.4386   0.3638   0.6079 N.3            1 S1                 0.0000
     10 ****         0.9968   1.6315   0.1570 C.3            1 S1                 0.0000
     11 ****         2.5347   1.5748   0.1876 C.3            1 S1                 0.0000
     12 ****         3.0761   0.7160  -0.8723 N.am           1 S1                 0.0000
     13 ****         3.4861  -0.5464  -0.6891 C.2            1 S1                 0.0000
     14 ****         3.4974  -1.1873   0.3615 O.2            1 S1                 0.0000
     15 ****         3.9491  -1.0982  -2.0198 C.3            1 S1                 0.0000
     16 ****         3.7055   0.0601  -2.8518 N.am           1 S1                 0.0000
     17 ****         3.1994   1.0889  -2.1596 C.2            1 S1                 0.0000
     18 ****         2.9000   2.1831  -2.6354 O.2            1 S1                 0.0000
     19 ****        -2.6186   0.1308  -0.8927 H              1 S1                 0.0000
     20 ****        -1.1790  -0.8137  -1.2560 H              1 S1                 0.0000
     21 ****        -1.2011   0.9246  -1.5347 H              1 S1                 0.0000
     22 ****        -1.3811   1.3234   0.9490 H              1 S1                 0.0000
     23 ****        -1.0877  -1.7029   1.2698 H              1 S1                 0.0000
     24 ****        -1.1301  -0.5299   2.5670 H              1 S1                 0.0000
     25 ****        -3.3200  -2.7758   0.7305 H              1 S1                 0.0000
     26 ****        -5.9190  -2.1350   1.2586 H              1 S1                 0.0000
     27 ****        -5.7160   0.3620   2.4447 H              1 S1                 0.0000
     28 ****         0.7562   0.1891   1.5508 H              1 S1                 0.0000
     29 ****         0.6502   1.8824  -0.8450 H              1 S1                 0.0000
     30 ****         0.6510   2.4229   0.8229 H              1 S1                 0.0000
     31 ****         2.9315   2.5827   0.0571 H              1 S1                 0.0000
     32 ****         2.8838   1.2522   1.1703 H              1 S1                 0.0000
     33 ****         5.0061  -1.3654  -2.0007 H              1 S1                 0.0000
     34 ****         3.3479  -1.9526  -2.3325 H              1 S1                 0.0000
     35 ****         3.8955   0.0754  -3.8435 H              1 S1                 0.0000
     36 ****        -3.3433   1.0035   2.5599 LP             1 S1                 0.0000
     37 ****         0.7499  -0.3527  -0.0165 LP             1 S1                 0.0000
     38 ****         3.1737  -0.7651   1.2082 LP             1 S1                 0.0000
     39 ****         3.8304  -2.1302   0.3684 LP             1 S1                 0.0000
     40 ****         2.5240   2.8985  -2.0465 LP             1 S1                 0.0000
     41 ****         3.0326   2.3573  -3.6112 LP             1 S1                 0.0000
@<TRIPOS>BOND
    1    1    2 1     
    2    1   19 1     
    3    1   20 1     
    4    1   21 1     
    5    2    3 1     
    6    2    9 1     
    7    2   22 1     
    8    3    4 1     
    9    3   23 1     
   10    3   24 1     
   11    4    8 1     
   12    4    5 1     
   13    5    6 2     
   14    5   25 1     
   15    6    7 1     
   16    6   26 1     
   17    7    8 2     
   18    7   27 1     
   19    9   10 1     
   20    9   28 1     
   21   10   11 1     
   22   10   29 1     
   23   10   30 1     
   24   11   12 1     
   25   11   31 1     
   26   11   32 1     
   27   12   17 am    
   28   12   13 am    
   29   13   14 2     
   30   13   15 1     
   31   15   16 1     
   32   15   33 1     
   33   15   34 1     
   34   16   17 am    
   35   16   35 1     
   36   17   18 2     
   37    8   36 1     
   38    9   37 1     
   39   14   38 1     
   40   14   39 1     
   41   18   40 1     
   42   18   41 1     
@<TRIPOS>SUBSTRUCTURE
      1 S1             1
@<TRIPOS>SET
LONE_PAIRS      STATIC     ATOMS    <user>   **** ""
6 36 37 38 39 40 41
DONOR_HYDROGENS      STATIC     ATOMS    <user>   **** ""
2 28 35
ATOM$BLUE        STATIC     ATOMS    COLORGROUP SYSTEM
6 36 37 38 39 40 41
ATOM$RED        STATIC     ATOMS    COLORGROUP SYSTEM
2 28 35
