AV-unprocessed.smi:601|AV-procd|sdf|3031|dock9
  -GOLD-   2262023543D 1   1.00000     0.00000
 Structure written by MMmdl.
 50 51  0  0  0  0  0  0  0  0  1 V2000
  145.6599  132.9902  150.4509 C   0  0  0  0  0  0  0  0  0  0  0  0
  144.5599  133.7679  151.1853 C   0  0  0  0  0  0  0  0  0  0  0  0
  144.2896  135.1621  150.5975 C   0  0  0  0  0  0  0  0  0  0  0  0
  145.5054  136.1080  150.6710 C   0  0  0  0  0  0  0  0  0  0  0  0
  145.5099  136.9376  151.8862 N   0  0  0  0  0  0  0  0  0  0  0  0
  146.1145  138.1555  151.9011 C   0  0  0  0  0  0  0  0  0  0  0  0
  146.6909  138.6048  150.9086 O   0  0  0  0  0  0  0  0  0  0  0  0
  146.0878  139.0017  153.2009 C   0  0  2  0  0  0  0  0  0  0  0  0
  146.9553  140.2665  153.1695 C   0  0  0  0  0  0  0  0  0  0  0  0
  148.3478  139.7769  153.5446 C   0  0  0  0  0  0  0  0  0  0  0  0
  148.1030  138.4092  154.1899 C   0  0  0  0  0  0  0  0  0  0  0  0
  146.6868  138.2811  154.2725 O   0  0  0  0  0  0  0  0  0  0  0  0
  144.7624  136.4622  152.9786 C   0  0  0  0  0  0  0  0  0  0  0  0
  143.5224  136.9527  153.2765 C   0  0  0  0  0  0  0  0  0  0  0  0
  142.9415  137.9248  152.4764 N   0  0  0  0  0  0  0  0  0  0  0  0
  142.7886  136.4770  154.3671 N   0  0  0  0  0  0  0  0  0  0  0  0
  141.4597  136.9464  154.7048 C   0  0  0  0  0  0  0  0  0  0  0  0
  140.4366  136.6689  153.5905 C   0  0  0  0  0  0  0  0  0  0  0  0
  138.9931  136.8771  154.0587 C   0  0  0  0  0  0  0  0  0  0  0  0
  143.3123  135.4419  155.1786 C   0  0  0  0  0  0  0  0  0  0  0  0
  142.7024  134.9449  156.1260 O   0  0  0  0  0  0  0  0  0  0  0  0
  144.5851  134.9755  154.8688 N   0  0  0  0  0  0  0  0  0  0  0  0
  145.3765  135.4220  153.8138 C   0  0  0  0  0  0  0  0  0  0  0  0
  146.4934  134.9341  153.6454 O   0  0  0  0  0  0  0  0  0  0  0  0
  144.9647  134.2463  155.4548 H   0  0  0  0  0  0  0  0  0  0  0  0
  145.7572  131.9839  150.8588 H   0  0  0  0  0  0  0  0  0  0  0  0
  146.6299  133.4777  150.5481 H   0  0  0  0  0  0  0  0  0  0  0  0
  145.4341  132.8972  149.3884 H   0  0  0  0  0  0  0  0  0  0  0  0
  143.6380  133.1872  151.1409 H   0  0  0  0  0  0  0  0  0  0  0  0
  144.8111  133.8534  152.2430 H   0  0  0  0  0  0  0  0  0  0  0  0
  143.9584  135.0548  149.5653 H   0  0  0  0  0  0  0  0  0  0  0  0
  143.4519  135.6029  151.1384 H   0  0  0  0  0  0  0  0  0  0  0  0
  146.4316  135.5332  150.6166 H   0  0  0  0  0  0  0  0  0  0  0  0
  145.5159  136.7555  149.7934 H   0  0  0  0  0  0  0  0  0  0  0  0
  145.0576  139.2611  153.4443 H   0  0  0  0  0  0  0  0  0  0  0  0
  146.9348  140.7952  152.2157 H   0  0  0  0  0  0  0  0  0  0  0  0
  146.5978  140.9631  153.9287 H   0  0  0  0  0  0  0  0  0  0  0  0
  148.9793  139.6724  152.6614 H   0  0  0  0  0  0  0  0  0  0  0  0
  148.8395  140.4699  154.2280 H   0  0  0  0  0  0  0  0  0  0  0  0
  148.5071  137.6101  153.5669 H   0  0  0  0  0  0  0  0  0  0  0  0
  148.5550  138.3278  155.1787 H   0  0  0  0  0  0  0  0  0  0  0  0
  143.4151  138.2903  151.6626 H   0  0  0  0  0  0  0  0  0  0  0  0
  141.9743  138.1931  152.5874 H   0  0  0  0  0  0  0  0  0  0  0  0
  141.1684  136.4938  155.6542 H   0  0  0  0  0  0  0  0  0  0  0  0
  141.5424  138.0123  154.9161 H   0  0  0  0  0  0  0  0  0  0  0  0
  140.6356  137.3207  152.7389 H   0  0  0  0  0  0  0  0  0  0  0  0
  140.5509  135.6465  153.2283 H   0  0  0  0  0  0  0  0  0  0  0  0
  138.2904  136.6822  153.2484 H   0  0  0  0  0  0  0  0  0  0  0  0
  138.8333  137.9005  154.3992 H   0  0  0  0  0  0  0  0  0  0  0  0
  138.7466  136.2067  154.8825 H   0  0  0  0  0  0  0  0  0  0  0  0
  1  2  1  0  0  0  0
  1 26  1  0  0  0  0
  1 27  1  0  0  0  0
  1 28  1  0  0  0  0
  2  3  1  0  0  0  0
  2 29  1  0  0  0  0
  2 30  1  0  0  0  0
  3  4  1  0  0  0  0
  3 31  1  0  0  0  0
  3 32  1  0  0  0  0
  4  5  1  0  0  0  0
  4 33  1  0  0  0  0
  4 34  1  0  0  0  0
  5  6  1  0  0  0  0
  5 13  1  0  0  0  0
  6  7  2  0  0  0  0
  6  8  1  0  0  0  0
  8 12  1  0  0  0  0
  8  9  1  0  0  0  0
  8 35  1  0  0  0  0
  9 10  1  0  0  0  0
  9 36  1  0  0  0  0
  9 37  1  0  0  0  0
 10 11  1  0  0  0  0
 10 38  1  0  0  0  0
 10 39  1  0  0  0  0
 11 12  1  0  0  0  0
 11 40  1  0  0  0  0
 11 41  1  0  0  0  0
 13 23  1  0  0  0  0
 13 14  2  0  0  0  0
 14 15  1  0  0  0  0
 14 16  1  0  0  0  0
 15 42  1  0  0  0  0
 15 43  1  0  0  0  0
 16 17  1  0  0  0  0
 16 20  1  0  0  0  0
 17 18  1  0  0  0  0
 17 44  1  0  0  0  0
 17 45  1  0  0  0  0
 18 19  1  0  0  0  0
 18 46  1  0  0  0  0
 18 47  1  0  0  0  0
 19 48  1  0  0  0  0
 19 49  1  0  0  0  0
 19 50  1  0  0  0  0
 20 21  2  0  0  0  0
 20 22  1  0  0  0  0
 22 25  1  0  0  0  0
 22 23  1  0  0  0  0
 23 24  2  0  0  0  0
M  END
> <s_m_source_file>
AV-unprocessed.smi

> <i_m_source_file_index>
601

> <i_lp_mmshare_version>
43012

> <i_f3d_flags>
0

> <s_epik_input>
TzFbQ0gyXVtDSDJdW0NIMl1bQ0BIXTFDKD1PKU4oW0NIMl1bQ0gyXVtDSDJdW0NIM10pYzJjKFtOSDJdKW4oW0NIMl1bQ0gyXVtDSDNdKWMoPU8pW25IXWMyPU8=

> <s_epik_cmdline>
J2VwaWtfcHl0aG9uJywgJy1waCcsICc3LjAnLCAnLXRuJywgJzgnLCAnLW1hJywgJzIwMCcsICctbWV0YWxfYmluZGluZycsICctaW1hZScsICc8aW5maWxlLm1hZT4nLCAnLW9tYWUnLCAnPG91dGZpbGUubWFlPic=

> <r_lp_tautomer_probability>
1

> <r_epik_Ionization_Penalty>
6.19718e-05

> <r_epik_Ionization_Penalty_Charging>
2.78773e-05

> <r_epik_Ionization_Penalty_Neutral>
3.40944e-05

> <r_epik_State_Penalty>
-0

> <r_epik_Charging_Adjusted_Penalty>
2.78773e-05

> <i_epik_Tot_Q>
0

> <i_epik_Tot_abs_Q>
0

> <r_epik_Metal_State_Penalty>
0.0271358

> <b_epik_Metal_Only>
0

> <s_lp_Force_Field>
OPLS_2005

> <r_lp_Energy>
42.1273

> <b_lp_Chiralities_Consistent>
1

> <s_lp_Variant>
AV-unprocessed.smi:601-1

> <Gold.Version>
5.8.1

> <Gold.Id.Protein>
6NUR|6NUR_protein|mol2

> <Gold.PLP.Fitness>
39.8116

> <Gold.PLP.PLP>
-34.8265

> <Gold.PLP.part.hbond>
-3.7855

> <Gold.PLP.part.metal>
0.0000

> <Gold.PLP.part.buried>
-3.3899

> <Gold.PLP.part.nonpolar>
-30.0762

> <Gold.PLP.part.repulsive>
1.0042

> <Gold.PLP.ligand.clash>
0.0000

> <Gold.PLP.ligand.torsion>
2.0934

> <Gold.PLP.Chemscore.Hbond>
2.3040

> <Gold.PLP.Chemscore.CHOScore>
0.0000

> <Gold.PLP.Chemscore.Metal>
0.0000

> <Gold.Chemscore.Hbonds>
donor molecule, donor type, donor heavy atom, donor atom, acceptor molecule, acceptor atom, score
      L1  H    15    42       P1 10171  1.00
      P1  H  7954  7966       L1     7  0.94
      P1  H 11000 11005       L1    21  0.26

> <Gold.PLP.Chemscore.Internal.Correction>
2.2599

> <Gold.Rescore>
     Score         DG    S(hbond)    S(metal)    S(lipo)     H(rot)  DE(clash)    DE(int)     intcor
     12.53     -16.22       2.13        0.00      73.92       1.96       1.56       2.13       ----

> <Gold.Chemscore.Fitness>
12.5305

> <Gold.Chemscore.DG>
-16.2190

> <Gold.Chemscore.ZeroCoef>
-5.4800

> <Gold.Chemscore.Hbond>
2.1283

> <Gold.Chemscore.Metal>
0.0000

> <Gold.Chemscore.Lipo>
73.9224

> <Gold.Chemscore.Internal_Hbond>
0.0000

> <Gold.Chemscore.DEClash>
1.5615

> <Gold.Chemscore.DEInternal>
2.1269

> <Gold.Chemscore.Rot>
1.9603

> <Gold.Chemscore.Internal.Correction>
   9.000000E+99

> <Gold.Chemscore.Hbonds>
donor molecule, donor type, donor heavy atom, donor atom, acceptor molecule, acceptor atom, score
      L1  H    15    42       P1 10171  0.65
      P1  H  7954  7966       L1     7  0.92
      P1  H 11000 11005       L1    21  0.25

> <Gold.Chemscore.Hbond.Weighted>
-7.1085

> <Gold.Chemscore.Metal.Weighted>
-0.0000

> <Gold.Chemscore.Lipo.Weighted>
-8.6489

> <Gold.Chemscore.Internal_Hbond.Weighted>
0.0000

> <Gold.Chemscore.DEClash.Weighted>
1.5615

> <Gold.Chemscore.DEInternal.Weighted>
2.1269

> <Gold.Chemscore.Rot.Weighted>
5.0185

> <Gold.Chemscore.Internal.Correction.Weighted>
   9.000000E+99

> <Gold.Protein.RotatedTorsions>
[ 6907 6896 6895 6894 ] final -139.17 input  -60.11 | X-H torsion
[ 7974 7965 7964 7962 ] final  165.75 input  175.53 | X-H torsion
[ 8008 7997 7996 7995 ] final  138.76 input   59.86 | X-H torsion
[ 10167 10162 10161 10158 ] final   96.49 input  -65.29 | X-H torsion
[ 10718 10713 10712 10709 ] final   74.24 input   66.30 | X-H torsion
[ 10763 10752 10751 10750 ] final   22.62 input  -60.55 | X-H torsion
[ 11005 11000 10999 10996 ] final  -77.46 input  -57.11 | X-H torsion

> <Gold.Protein.ActiveResidues>
 VAL166  LYS551  ARG553  GLY616  TRP617  ASP618  TYR619  PRO620  LYS621  CYS622 
 ASP623  PHE694  ASN695  SER759  ASP760  ASP761  ALA762  ILE779  LEU786  VAL792 
 PHE793  MET794  SER795  GLU796  ALA797  LYS798  CYS799  TRP800  GLU811  SER814 

> <Gold.Protein.RotatedAtoms>
  151.0443  133.5679  159.2647 H   0  0  0  0  0  0  0  0  0  0  0  0  # atno 6907 bound_to 6896
  151.2713  135.0685  159.9145 H   0  0  0  0  0  0  0  0  0  0  0  0  # atno 6908 bound_to 6896
  152.5370  134.0173  159.8019 H   0  0  0  0  0  0  0  0  0  0  0  0  # atno 6909 bound_to 6896
  144.7490  139.8515  143.6372 H   0  0  0  0  0  0  0  0  0  0  0  0  # atno 7974 bound_to 7965
  156.2995  140.2385  156.4126 H   0  0  0  0  0  0  0  0  0  0  0  0  # atno 8008 bound_to 7997
  154.8428  140.0427  157.1572 H   0  0  0  0  0  0  0  0  0  0  0  0  # atno 8009 bound_to 7997
  154.9084  140.2987  155.5283 H   0  0  0  0  0  0  0  0  0  0  0  0  # atno 8010 bound_to 7997
  139.7889  144.6860  150.9919 H   0  0  0  0  0  0  0  0  0  0  0  0  # atno 10167 bound_to 10162
  157.6583  130.9668  150.1183 H   0  0  0  0  0  0  0  0  0  0  0  0  # atno 10718 bound_to 10713
  153.0902  135.6644  153.9870 H   0  0  0  0  0  0  0  0  0  0  0  0  # atno 10763 bound_to 10752
  153.9469  135.2988  155.3442 H   0  0  0  0  0  0  0  0  0  0  0  0  # atno 10764 bound_to 10752
  154.7315  135.5121  153.9045 H   0  0  0  0  0  0  0  0  0  0  0  0  # atno 10765 bound_to 10752
  141.1660  133.7023  156.7823 H   0  0  0  0  0  0  0  0  0  0  0  0  # atno 11005 bound_to 11000
  146.1412  139.4470  143.0107 LP  0  0  0  0  0  0  0  0  0  0  0  0  # atno 17320 bound_to 7965
  145.7015  141.0134  143.1502 LP  0  0  0  0  0  0  0  0  0  0  0  0  # atno 17321 bound_to 7965
  140.7820  143.4402  151.0563 LP  0  0  0  0  0  0  0  0  0  0  0  0  # atno 17342 bound_to 10162
  139.8079  143.7992  152.3169 LP  0  0  0  0  0  0  0  0  0  0  0  0  # atno 17343 bound_to 10162
  156.2061  130.3663  149.8727 LP  0  0  0  0  0  0  0  0  0  0  0  0  # atno 17370 bound_to 10713
  156.6618  130.8785  151.3548 LP  0  0  0  0  0  0  0  0  0  0  0  0  # atno 17371 bound_to 10713
  140.2385  134.8631  157.3549 LP  0  0  0  0  0  0  0  0  0  0  0  0  # atno 17394 bound_to 11000
  140.1819  134.4479  155.7767 LP  0  0  0  0  0  0  0  0  0  0  0  0  # atno 17395 bound_to 11000

$$$$
