AV-unprocessed.smi:1815|AV-procd|sdf|7358|dock3
  -GOLD-   22720 9 13D 1   1.00000     0.00000
 Structure written by MMmdl.
 38 39  0  0  0  0  0  0  0  0  2 V2000
  151.7551  145.6729  159.6489 C   0  0  0  0  0  0  0  0  0  0  0  0
  151.7166  144.1989  160.0649 C   0  0  1  0  0  0  0  0  0  0  0  0
  152.2207  143.2655  158.9484 C   0  0  0  0  0  0  0  0  0  0  0  0
  152.2526  141.8710  159.3739 N   0  0  0  0  0  0  0  0  0  0  0  0
  152.7245  141.0064  158.2932 C   0  0  0  0  0  0  0  0  0  0  0  0
  152.4268  139.5101  158.4794 C   0  0  0  0  0  0  0  0  0  0  0  0
  151.4176  139.0749  157.5237 N   0  0  0  0  0  0  0  0  0  0  0  0
  151.5527  139.1027  156.1911 C   0  0  0  0  0  0  0  0  0  0  0  0
  152.5986  139.5212  155.6891 O   0  0  0  0  0  0  0  0  0  0  0  0
  150.4687  138.6453  155.5236 N   0  5  0  0  0  0  0  0  0  0  0  0
  149.5214  139.5032  155.1108 C   0  0  0  0  0  0  0  0  0  0  0  0
  149.6996  140.8290  155.0878 N   0  0  0  0  0  0  0  0  0  0  0  0
  148.5889  141.5309  154.6164 C   0  0  0  0  0  0  0  0  0  0  0  0
  147.5432  140.7200  154.2634 C   0  0  0  0  0  0  0  0  0  0  0  0
  147.9250  139.0403  154.5136 S   0  0  0  0  0  0  0  0  0  0  0  0
  153.0724  141.7635  160.5783 C   0  0  0  0  0  0  0  0  0  0  0  0
  152.5757  142.6969  161.6993 C   0  0  1  0  0  0  0  0  0  0  0  0
  153.4826  142.6547  162.9339 C   0  0  0  0  0  0  0  0  0  0  0  0
  152.5429  144.0364  161.2142 O   0  0  0  0  0  0  0  0  0  0  0  0
  151.1299  145.8493  158.7734 H   0  0  0  0  0  0  0  0  0  0  0  0
  152.7702  145.9879  159.4054 H   0  0  0  0  0  0  0  0  0  0  0  0
  151.3911  146.3137  160.4522 H   0  0  0  0  0  0  0  0  0  0  0  0
  150.6903  143.9349  160.3263 H   0  0  0  0  0  0  0  0  0  0  0  0
  151.5762  143.3683  158.0747 H   0  0  0  0  0  0  0  0  0  0  0  0
  153.2188  143.5784  158.6368 H   0  0  0  0  0  0  0  0  0  0  0  0
  152.2507  141.3215  157.3623 H   0  0  0  0  0  0  0  0  0  0  0  0
  153.7962  141.1511  158.1470 H   0  0  0  0  0  0  0  0  0  0  0  0
  153.3239  138.9089  158.3304 H   0  0  0  0  0  0  0  0  0  0  0  0
  152.0726  139.3241  159.4946 H   0  0  0  0  0  0  0  0  0  0  0  0
  150.5486  138.7243  157.8986 H   0  0  0  0  0  0  0  0  0  0  0  0
  148.6304  142.6087  154.5652 H   0  0  0  0  0  0  0  0  0  0  0  0
  146.5783  141.0054  153.8732 H   0  0  0  0  0  0  0  0  0  0  0  0
  153.0636  140.7396  160.9500 H   0  0  0  0  0  0  0  0  0  0  0  0
  154.1102  142.0011  160.3393 H   0  0  0  0  0  0  0  0  0  0  0  0
  151.5669  142.4047  161.9958 H   0  0  0  0  0  0  0  0  0  0  0  0
  153.5307  141.6488  163.3514 H   0  0  0  0  0  0  0  0  0  0  0  0
  153.1110  143.3205  163.7131 H   0  0  0  0  0  0  0  0  0  0  0  0
  154.4985  142.9647  162.6880 H   0  0  0  0  0  0  0  0  0  0  0  0
  1  2  1  0  0  0  0
  1 20  1  0  0  0  0
  1 21  1  0  0  0  0
  1 22  1  0  0  0  0
  2 19  1  0  0  0  0
  2  3  1  0  0  0  0
  2 23  1  0  0  0  0
  3  4  1  0  0  0  0
  3 24  1  0  0  0  0
  3 25  1  0  0  0  0
  4  5  1  0  0  0  0
  4 16  1  0  0  0  0
  5  6  1  0  0  0  0
  5 26  1  0  0  0  0
  5 27  1  0  0  0  0
  6  7  1  0  0  0  0
  6 28  1  0  0  0  0
  6 29  1  0  0  0  0
  7  8  1  0  0  0  0
  7 30  1  0  0  0  0
  8  9  2  0  0  0  0
  8 10  1  0  0  0  0
 10 11  1  0  0  0  0
 11 15  1  0  0  0  0
 11 12  2  0  0  0  0
 12 13  1  0  0  0  0
 13 14  2  0  0  0  0
 13 31  1  0  0  0  0
 14 15  1  0  0  0  0
 14 32  1  0  0  0  0
 16 17  1  0  0  0  0
 16 33  1  0  0  0  0
 16 34  1  0  0  0  0
 17 18  1  0  0  0  0
 17 19  1  0  0  0  0
 17 35  1  0  0  0  0
 18 36  1  0  0  0  0
 18 37  1  0  0  0  0
 18 38  1  0  0  0  0
M  CHG  1  10  -1
M  END
> <s_m_source_file>
AV-unprocessed.smi

> <i_m_source_file_index>
1815

> <i_lp_mmshare_version>
43012

> <i_f3d_flags>
0

> <s_epik_input>
W0NIM11bQ0BASF0xW0NIMl1OKFtDSDJdW0NASF0oTzEpW0NIM10pW0NIMl1bQ0gyXVtOSF1DKD1PKVtOSF1jMm5bY0hdW2NIXXMy

> <s_epik_cmdline>
J2VwaWtfcHl0aG9uJywgJy1waCcsICc3LjAnLCAnLXRuJywgJzgnLCAnLW1hJywgJzIwMCcsICctbWV0YWxfYmluZGluZycsICctaW1hZScsICc8aW5maWxlLm1hZT4nLCAnLW9tYWUnLCAnPG91dGZpbGUubWFlPic=

> <r_lp_tautomer_probability>
0.999

> <r_epik_Ionization_Penalty>
7.22374

> <r_epik_Ionization_Penalty_Charging>
5.82415

> <r_epik_Ionization_Penalty_Neutral>
1.39959

> <r_epik_State_Penalty>
6.03347

> <r_epik_Charging_Adjusted_Penalty>
11.8576

> <i_epik_Tot_Q>
-1

> <i_epik_Tot_abs_Q>
1

> <r_epik_Metal_State_Penalty>
2.01024

> <b_epik_Metal_Only>
1

> <s_lp_Force_Field>
OPLS_2005

> <r_lp_Energy>
15.5459

> <b_lp_Chiralities_Consistent>
1

> <s_lp_Variant>
AV-unprocessed.smi:1815-9

> <Gold.Version>
5.8.1

> <Gold.Id.Protein>
6NUR|6NUR_protein|mol2

> <Gold.PLP.Fitness>
45.0575

> <Gold.PLP.PLP>
-39.2145

> <Gold.PLP.part.hbond>
-2.0000

> <Gold.PLP.part.metal>
0.0000

> <Gold.PLP.part.buried>
-0.8972

> <Gold.PLP.part.nonpolar>
-34.7490

> <Gold.PLP.part.repulsive>
0.3151

> <Gold.PLP.ligand.clash>
0.0000

> <Gold.PLP.ligand.torsion>
1.2536

> <Gold.PLP.Chemscore.Hbond>
1.7771

> <Gold.PLP.Chemscore.CHOScore>
0.9981

> <Gold.PLP.Chemscore.Metal>
0.0000

> <Gold.Chemscore.Hbonds>
donor molecule, donor type, donor heavy atom, donor atom, acceptor molecule, acceptor atom, score
      P1  H  7997  8009       L1     9  1.00
      L1  C    13    31       P1  8028  1.00

> <Gold.PLP.Chemscore.Internal.Correction>
0.0244

> <Gold.Rescore>
     Score         DG    S(hbond)    S(metal)    S(lipo)     H(rot)  DE(clash)    DE(int)     intcor
     14.96     -17.34       1.23        0.00     100.61       1.57       0.06       2.32       ----

> <Gold.Chemscore.Fitness>
14.9639

> <Gold.Chemscore.DG>
-17.3382

> <Gold.Chemscore.ZeroCoef>
-5.4800

> <Gold.Chemscore.Hbond>
1.2275

> <Gold.Chemscore.Metal>
0.0000

> <Gold.Chemscore.Lipo>
100.6106

> <Gold.Chemscore.Internal_Hbond>
0.0000

> <Gold.Chemscore.DEClash>
0.0586

> <Gold.Chemscore.DEInternal>
2.3157

> <Gold.Chemscore.Rot>
1.5676

> <Gold.Chemscore.Internal.Correction>
   9.000000E+99

> <Gold.Chemscore.Hbonds>
donor molecule, donor type, donor heavy atom, donor atom, acceptor molecule, acceptor atom, score
      P1  H  7997  8009       L1     9  1.00

> <Gold.Chemscore.Hbond.Weighted>
-4.0998

> <Gold.Chemscore.Metal.Weighted>
-0.0000

> <Gold.Chemscore.Lipo.Weighted>
-11.7714

> <Gold.Chemscore.Internal_Hbond.Weighted>
0.0000

> <Gold.Chemscore.DEClash.Weighted>
0.0586

> <Gold.Chemscore.DEInternal.Weighted>
2.3157

> <Gold.Chemscore.Rot.Weighted>
4.0130

> <Gold.Chemscore.Internal.Correction.Weighted>
   9.000000E+99

> <Gold.Protein.RotatedTorsions>
[ 6907 6896 6895 6894 ] final   80.27 input  -60.11 | X-H torsion
[ 7974 7965 7964 7962 ] final   14.58 input  175.53 | X-H torsion
[ 8008 7997 7996 7995 ] final -149.11 input   59.86 | X-H torsion
[ 10167 10162 10161 10158 ] final  149.05 input  -65.29 | X-H torsion
[ 10718 10713 10712 10709 ] final -149.40 input   66.30 | X-H torsion
[ 10763 10752 10751 10750 ] final  -48.36 input  -60.55 | X-H torsion
[ 11005 11000 10999 10996 ] final -176.76 input  -57.11 | X-H torsion

> <Gold.Protein.ActiveResidues>
 VAL166  LYS551  ARG553  GLY616  TRP617  ASP618  TYR619  PRO620  LYS621  CYS622 
 ASP623  PHE694  ASN695  SER759  ASP760  ASP761  ALA762  ILE779  LEU786  VAL792 
 PHE793  MET794  SER795  GLU796  ALA797  LYS798  CYS799  TRP800  GLU811  SER814 

> <Gold.Protein.RotatedAtoms>
  152.5229  134.3383  159.9207 H   0  0  0  0  0  0  0  0  0  0  0  0  # atno 6907 bound_to 6896
  151.3333  133.3985  159.2672 H   0  0  0  0  0  0  0  0  0  0  0  0  # atno 6908 bound_to 6896
  150.9863  134.9225  159.7931 H   0  0  0  0  0  0  0  0  0  0  0  0  # atno 6909 bound_to 6896
  146.2301  139.9021  142.8537 H   0  0  0  0  0  0  0  0  0  0  0  0  # atno 7974 bound_to 7965
  155.6024  140.0663  157.2729 H   0  0  0  0  0  0  0  0  0  0  0  0  # atno 8008 bound_to 7997
  154.4275  140.1816  156.1234 H   0  0  0  0  0  0  0  0  0  0  0  0  # atno 8009 bound_to 7997
  156.0149  140.3323  155.6982 H   0  0  0  0  0  0  0  0  0  0  0  0  # atno 8010 bound_to 7997
  139.4866  144.5632  151.7193 H   0  0  0  0  0  0  0  0  0  0  0  0  # atno 10167 bound_to 10162
  156.4327  130.8083  151.2310 H   0  0  0  0  0  0  0  0  0  0  0  0  # atno 10718 bound_to 10713
  154.0765  135.6597  153.4831 H   0  0  0  0  0  0  0  0  0  0  0  0  # atno 10763 bound_to 10752
  153.0371  135.5169  154.7516 H   0  0  0  0  0  0  0  0  0  0  0  0  # atno 10764 bound_to 10752
  154.6598  135.3013  154.9849 H   0  0  0  0  0  0  0  0  0  0  0  0  # atno 10765 bound_to 10752
  140.4485  134.6365  157.4790 H   0  0  0  0  0  0  0  0  0  0  0  0  # atno 11005 bound_to 11000
  145.2313  140.9974  143.3989 LP  0  0  0  0  0  0  0  0  0  0  0  0  # atno 17320 bound_to 7965
  144.9528  139.4064  143.6394 LP  0  0  0  0  0  0  0  0  0  0  0  0  # atno 17321 bound_to 7965
  140.5205  144.0886  150.6021 LP  0  0  0  0  0  0  0  0  0  0  0  0  # atno 17342 bound_to 10162
  140.3842  143.2786  152.0135 LP  0  0  0  0  0  0  0  0  0  0  0  0  # atno 17343 bound_to 10162
  157.7508  131.0193  150.3662 LP  0  0  0  0  0  0  0  0  0  0  0  0  # atno 17370 bound_to 10713
  156.4003  130.3914  149.6964 LP  0  0  0  0  0  0  0  0  0  0  0  0  # atno 17371 bound_to 10713
  140.0022  134.6818  155.9512 LP  0  0  0  0  0  0  0  0  0  0  0  0  # atno 17394 bound_to 11000
  141.1674  133.6537  156.4530 LP  0  0  0  0  0  0  0  0  0  0  0  0  # atno 17395 bound_to 11000

$$$$
