AV-unprocessed.smi:1936|AV-procd|sdf|7829|dock4
  -GOLD-   22720 9573D 1   1.00000     0.00000
 Structure written by MMmdl.
 38 39  0  0  0  0  0  0  0  0  1 V2000
  146.3597  140.9338  154.4506 C   0  0  0  0  0  0  0  0  0  0  0  0
  146.5700  139.4162  154.3705 C   0  0  2  0  0  0  0  0  0  0  0  0
  147.9558  139.0588  153.7916 C   0  0  0  0  0  0  0  0  0  0  0  0
  149.0978  139.3939  154.6456 N   0  0  0  0  0  0  0  0  0  0  0  0
  149.3563  140.8302  154.7135 C   0  0  0  0  0  0  0  0  0  0  0  0
  150.5581  141.1510  155.6188 C   0  0  0  0  0  0  0  0  0  0  0  0
  151.7064  140.4432  155.1618 O   0  0  0  0  0  0  0  0  0  0  0  0
  151.5050  139.0342  155.1215 C   0  0  0  0  0  0  0  0  0  0  0  0
  150.3093  138.7110  154.2093 C   0  0  0  0  0  0  0  0  0  0  0  0
  145.5270  138.8160  153.5421 N   0  0  0  0  0  0  0  0  0  0  0  0
  145.4355  137.5178  153.2146 C   0  0  0  0  0  0  0  0  0  0  0  0
  146.1372  136.6354  153.7080 O   0  0  0  0  0  0  0  0  0  0  0  0
  144.4203  137.1702  152.1266 C   0  0  0  0  0  0  0  0  0  0  0  0
  144.4000  135.7363  151.8904 N   0  0  0  0  0  0  0  0  0  0  0  0
  144.7279  135.0508  150.7382 C   0  0  0  0  0  0  0  0  0  0  0  0
  144.5732  133.7194  150.9977 C   0  0  0  0  0  0  0  0  0  0  0  0
  144.1429  133.6879  152.3537 C   0  0  0  0  0  0  0  0  0  0  0  0
  144.0397  134.8954  152.8848 N   0  0  0  0  0  0  0  0  0  0  0  0
  147.1242  141.4019  155.0713 H   0  0  0  0  0  0  0  0  0  0  0  0
  145.3895  141.1729  154.8871 H   0  0  0  0  0  0  0  0  0  0  0  0
  146.4040  141.3951  153.4633 H   0  0  0  0  0  0  0  0  0  0  0  0
  146.5136  139.0286  155.3886 H   0  0  0  0  0  0  0  0  0  0  0  0
  147.9690  137.9841  153.6043 H   0  0  0  0  0  0  0  0  0  0  0  0
  148.0748  139.5310  152.8152 H   0  0  0  0  0  0  0  0  0  0  0  0
  149.5416  141.2212  153.7120 H   0  0  0  0  0  0  0  0  0  0  0  0
  148.4830  141.3557  155.0989 H   0  0  0  0  0  0  0  0  0  0  0  0
  150.7687  142.2204  155.6044 H   0  0  0  0  0  0  0  0  0  0  0  0
  150.3433  140.8814  156.6538 H   0  0  0  0  0  0  0  0  0  0  0  0
  152.4095  138.5547  154.7470 H   0  0  0  0  0  0  0  0  0  0  0  0
  151.3347  138.6551  156.1304 H   0  0  0  0  0  0  0  0  0  0  0  0
  150.1450  137.6328  154.2013 H   0  0  0  0  0  0  0  0  0  0  0  0
  150.5479  138.9983  153.1839 H   0  0  0  0  0  0  0  0  0  0  0  0
  144.8946  139.4573  153.0861 H   0  0  0  0  0  0  0  0  0  0  0  0
  143.4246  137.5080  152.4191 H   0  0  0  0  0  0  0  0  0  0  0  0
  144.6739  137.6789  151.1955 H   0  0  0  0  0  0  0  0  0  0  0  0
  145.0472  135.5617  149.8414 H   0  0  0  0  0  0  0  0  0  0  0  0
  144.7459  132.8938  150.3237 H   0  0  0  0  0  0  0  0  0  0  0  0
  143.9060  132.8290  152.9644 H   0  0  0  0  0  0  0  0  0  0  0  0
  1  2  1  0  0  0  0
  1 19  1  0  0  0  0
  1 20  1  0  0  0  0
  1 21  1  0  0  0  0
  2  3  1  0  0  0  0
  2 10  1  0  0  0  0
  2 22  1  0  0  0  0
  3  4  1  0  0  0  0
  3 23  1  0  0  0  0
  3 24  1  0  0  0  0
  4  9  1  0  0  0  0
  4  5  1  0  0  0  0
  5  6  1  0  0  0  0
  5 25  1  0  0  0  0
  5 26  1  0  0  0  0
  6  7  1  0  0  0  0
  6 27  1  0  0  0  0
  6 28  1  0  0  0  0
  7  8  1  0  0  0  0
  8  9  1  0  0  0  0
  8 29  1  0  0  0  0
  8 30  1  0  0  0  0
  9 31  1  0  0  0  0
  9 32  1  0  0  0  0
 10 11  1  0  0  0  0
 10 33  1  0  0  0  0
 11 12  2  0  0  0  0
 11 13  1  0  0  0  0
 13 14  1  0  0  0  0
 13 34  1  0  0  0  0
 13 35  1  0  0  0  0
 14 18  1  0  0  0  0
 14 15  1  0  0  0  0
 15 16  2  0  0  0  0
 15 36  1  0  0  0  0
 16 17  1  0  0  0  0
 16 37  1  0  0  0  0
 17 18  2  0  0  0  0
 17 38  1  0  0  0  0
M  END
> <s_m_source_file>
AV-unprocessed.smi

> <i_m_source_file_index>
1936

> <i_lp_mmshare_version>
43012

> <i_f3d_flags>
0

> <s_epik_input>
W0NIMl0xW0NIMl1PW0NIMl1bQ0gyXU4xW0NIMl1bQ0BASF0oW0NIM10pW05IXUMoPU8pW0NIMl1uMltjSF1bY0hdW2NIXW4y

> <s_epik_cmdline>
J2VwaWtfcHl0aG9uJywgJy1waCcsICc3LjAnLCAnLXRuJywgJzgnLCAnLW1hJywgJzIwMCcsICctbWV0YWxfYmluZGluZycsICctaW1hZScsICc8aW5maWxlLm1hZT4nLCAnLW9tYWUnLCAnPG91dGZpbGUubWFlPic=

> <r_lp_tautomer_probability>
1

> <r_epik_Ionization_Penalty>
0.196927

> <r_epik_Ionization_Penalty_Charging>
0

> <r_epik_Ionization_Penalty_Neutral>
0.196927

> <r_epik_State_Penalty>
0.186684

> <r_epik_Charging_Adjusted_Penalty>
0.186684

> <i_epik_Tot_Q>
0

> <i_epik_Tot_abs_Q>
0

> <r_epik_Metal_State_Penalty>
0.186682

> <b_epik_Metal_Only>
0

> <s_lp_Force_Field>
OPLS_2005

> <r_lp_Energy>
24.3888

> <b_lp_Chiralities_Consistent>
1

> <s_lp_Variant>
AV-unprocessed.smi:1936-1

> <Gold.Version>
5.8.1

> <Gold.Id.Protein>
6NUR|6NUR_protein|mol2

> <Gold.PLP.Fitness>
37.9980

> <Gold.PLP.PLP>
-26.8181

> <Gold.PLP.part.hbond>
-2.0000

> <Gold.PLP.part.metal>
0.0000

> <Gold.PLP.part.buried>
-0.8003

> <Gold.PLP.part.nonpolar>
-25.0062

> <Gold.PLP.part.repulsive>
0.3402

> <Gold.PLP.ligand.clash>
0.0000

> <Gold.PLP.ligand.torsion>
0.1765

> <Gold.PLP.Chemscore.Hbond>
1.8320

> <Gold.PLP.Chemscore.CHOScore>
2.0000

> <Gold.PLP.Chemscore.Metal>
0.0000

> <Gold.Chemscore.Hbonds>
donor molecule, donor type, donor heavy atom, donor atom, acceptor molecule, acceptor atom, score
      L1  H    10    33       P1 10175  1.00
      P1  H  7989  7998       L1     7  0.78
      L1  C    15    36       P1  7921  0.91
      L1  C    17    38       P1 10957  1.00

> <Gold.PLP.Chemscore.Internal.Correction>
0.0368

> <Gold.Rescore>
     Score         DG    S(hbond)    S(metal)    S(lipo)     H(rot)  DE(clash)    DE(int)     intcor
      9.37     -11.63       1.06        0.00      63.02       1.85       0.95       1.32       ----

> <Gold.Chemscore.Fitness>
9.3705

> <Gold.Chemscore.DG>
-11.6345

> <Gold.Chemscore.ZeroCoef>
-5.4800

> <Gold.Chemscore.Hbond>
1.0566

> <Gold.Chemscore.Metal>
0.0000

> <Gold.Chemscore.Lipo>
63.0242

> <Gold.Chemscore.Internal_Hbond>
0.0000

> <Gold.Chemscore.DEClash>
0.9452

> <Gold.Chemscore.DEInternal>
1.3187

> <Gold.Chemscore.Rot>
1.8549

> <Gold.Chemscore.Internal.Correction>
   9.000000E+99

> <Gold.Chemscore.Hbonds>
donor molecule, donor type, donor heavy atom, donor atom, acceptor molecule, acceptor atom, score
      L1  H    10    33       P1 10175  1.00
      P1  H  7989  7998       L1     7  0.07

> <Gold.Chemscore.Hbond.Weighted>
-3.5292

> <Gold.Chemscore.Metal.Weighted>
-0.0000

> <Gold.Chemscore.Lipo.Weighted>
-7.3738

> <Gold.Chemscore.Internal_Hbond.Weighted>
0.0000

> <Gold.Chemscore.DEClash.Weighted>
0.9452

> <Gold.Chemscore.DEInternal.Weighted>
1.3187

> <Gold.Chemscore.Rot.Weighted>
4.7485

> <Gold.Chemscore.Internal.Correction.Weighted>
   9.000000E+99

> <Gold.Protein.RotatedTorsions>
[ 6907 6896 6895 6894 ] final -173.04 input  -60.11 | X-H torsion
[ 7974 7965 7964 7962 ] final  129.20 input  175.53 | X-H torsion
[ 8008 7997 7996 7995 ] final  158.15 input   59.86 | X-H torsion
[ 10167 10162 10161 10158 ] final -144.03 input  -65.29 | X-H torsion
[ 10718 10713 10712 10709 ] final  102.74 input   66.30 | X-H torsion
[ 10763 10752 10751 10750 ] final -164.99 input  -60.55 | X-H torsion
[ 11005 11000 10999 10996 ] final  -42.38 input  -57.11 | X-H torsion

> <Gold.Protein.ActiveResidues>
 VAL166  LYS551  ARG553  GLY616  TRP617  ASP618  TYR619  PRO620  LYS621  CYS622 
 ASP623  PHE694  ASN695  SER759  ASP760  ASP761  ALA762  ILE779  LEU786  VAL792 
 PHE793  MET794  SER795  GLU796  ALA797  LYS798  CYS799  TRP800  GLU811  SER814 

> <Gold.Protein.RotatedAtoms>
  151.5498  133.3419  159.2950 H   0  0  0  0  0  0  0  0  0  0  0  0  # atno 6907 bound_to 6896
  150.8486  134.7805  159.7001 H   0  0  0  0  0  0  0  0  0  0  0  0  # atno 6908 bound_to 6896
  152.4537  134.5345  159.9872 H   0  0  0  0  0  0  0  0  0  0  0  0  # atno 6909 bound_to 6896
  145.0313  139.4044  143.5148 H   0  0  0  0  0  0  0  0  0  0  0  0  # atno 7974 bound_to 7965
  156.2321  140.1866  156.7216 H   0  0  0  0  0  0  0  0  0  0  0  0  # atno 8008 bound_to 7997
  154.6040  140.0632  156.9434 H   0  0  0  0  0  0  0  0  0  0  0  0  # atno 8009 bound_to 7997
  155.2126  140.3301  155.4329 H   0  0  0  0  0  0  0  0  0  0  0  0  # atno 8010 bound_to 7997
  139.7938  143.7929  152.2652 H   0  0  0  0  0  0  0  0  0  0  0  0  # atno 10167 bound_to 10162
  157.6793  131.0761  150.5449 H   0  0  0  0  0  0  0  0  0  0  0  0  # atno 10718 bound_to 10713
  154.6975  135.2982  154.9389 H   0  0  0  0  0  0  0  0  0  0  0  0  # atno 10763 bound_to 10752
  154.0332  135.6667  153.4787 H   0  0  0  0  0  0  0  0  0  0  0  0  # atno 10764 bound_to 10752
  153.0657  135.5090  154.8101 H   0  0  0  0  0  0  0  0  0  0  0  0  # atno 10765 bound_to 10752
  141.0311  133.6819  156.2586 H   0  0  0  0  0  0  0  0  0  0  0  0  # atno 11005 bound_to 11000
  146.3499  139.9864  142.8690 LP  0  0  0  0  0  0  0  0  0  0  0  0  # atno 17320 bound_to 7965
  145.1767  140.9747  143.4290 LP  0  0  0  0  0  0  0  0  0  0  0  0  # atno 17321 bound_to 7965
  139.8028  144.7367  150.9801 LP  0  0  0  0  0  0  0  0  0  0  0  0  # atno 17342 bound_to 10162
  140.7820  143.4327  151.0669 LP  0  0  0  0  0  0  0  0  0  0  0  0  # atno 17343 bound_to 10162
  156.5755  130.4291  149.6000 LP  0  0  0  0  0  0  0  0  0  0  0  0  # atno 17370 bound_to 10713
  156.2704  130.7014  151.1809 LP  0  0  0  0  0  0  0  0  0  0  0  0  # atno 17371 bound_to 10713
  140.6405  134.5171  157.5569 LP  0  0  0  0  0  0  0  0  0  0  0  0  # atno 17394 bound_to 11000
  139.9209  134.8152  156.1216 LP  0  0  0  0  0  0  0  0  0  0  0  0  # atno 17395 bound_to 11000

$$$$
