AV-unprocessed.smi:1695|AV-procd|sdf|6790|dock9
  -GOLD-   22720 7553D 1   1.00000     0.00000
 Structure written by MMmdl.
 51 53  0  0  0  0  0  0  0  0  2 V2000
  152.8406  143.1484  160.5397 C   0  0  0  0  0  0  0  0  0  0  0  0
  152.2179  142.5360  159.2976 C   0  0  0  0  0  0  0  0  0  0  0  0
  152.8536  141.4339  158.6825 C   0  0  0  0  0  0  0  0  0  0  0  0
  152.3072  140.8357  157.5261 C   0  0  0  0  0  0  0  0  0  0  0  0
  152.7538  139.7652  156.7706 N   0  0  0  0  0  0  0  0  0  0  0  0
  151.8184  139.6923  155.8285 C   0  0  0  0  0  0  0  0  0  0  0  0
  150.8203  140.5957  155.8799 N   0  0  0  0  0  0  0  0  0  0  0  0
  149.6988  140.7186  154.9664 C   0  0  0  0  0  0  0  0  0  0  0  0
  149.0605  139.3562  154.6350 C   0  0  1  0  0  0  0  0  0  0  0  0
  148.7941  138.6602  155.8379 O   0  0  0  0  0  0  0  0  0  0  0  0
  147.7410  139.5189  153.8555 C   0  0  0  0  0  0  0  0  0  0  0  0
  147.2914  138.2526  153.2216 N   0  3  1  0  0  0  0  0  0  0  0  0
  146.6571  137.3302  154.1977 C   0  0  0  0  0  0  0  0  0  0  0  0
  146.3392  135.9665  153.5545 C   0  0  0  0  0  0  0  0  0  0  0  0
  145.4847  136.0794  152.2741 C   0  0  1  0  0  0  0  0  0  0  0  0
  143.9987  136.3552  152.5709 C   0  0  0  0  0  0  0  0  0  0  0  0
  143.4589  137.4362  152.0026 N   0  0  0  0  0  0  0  0  0  0  0  0
  143.3432  135.6122  153.2982 O   0  0  0  0  0  0  0  0  0  0  0  0
  146.1105  137.1275  151.3289 C   0  0  0  0  0  0  0  0  0  0  0  0
  146.4323  138.4632  152.0265 C   0  0  0  0  0  0  0  0  0  0  0  0
  151.0989  141.3760  156.9966 C   0  0  0  0  0  0  0  0  0  0  0  0
  150.4564  142.4716  157.5997 C   0  0  0  0  0  0  0  0  0  0  0  0
  151.0152  143.0562  158.7556 C   0  0  0  0  0  0  0  0  0  0  0  0
  150.3143  144.2385  159.4012 C   0  0  0  0  0  0  0  0  0  0  0  0
  153.7541  142.6267  160.8260 H   0  0  0  0  0  0  0  0  0  0  0  0
  152.1488  143.0954  161.3804 H   0  0  0  0  0  0  0  0  0  0  0  0
  153.0936  144.1942  160.3639 H   0  0  0  0  0  0  0  0  0  0  0  0
  153.7694  141.0369  159.0952 H   0  0  0  0  0  0  0  0  0  0  0  0
  151.8646  138.9425  155.0521 H   0  0  0  0  0  0  0  0  0  0  0  0
  148.9610  141.3913  155.4065 H   0  0  0  0  0  0  0  0  0  0  0  0
  150.0555  141.2000  154.0550 H   0  0  0  0  0  0  0  0  0  0  0  0
  149.7751  138.7716  154.0564 H   0  0  0  0  0  0  0  0  0  0  0  0
  149.4775  138.0205  155.9718 H   0  0  0  0  0  0  0  0  0  0  0  0
  146.9769  139.8761  154.5479 H   0  0  0  0  0  0  0  0  0  0  0  0
  147.8388  140.2899  153.0895 H   0  0  0  0  0  0  0  0  0  0  0  0
  147.3336  137.1693  155.0381 H   0  0  0  0  0  0  0  0  0  0  0  0
  145.7582  137.7902  154.6094 H   0  0  0  0  0  0  0  0  0  0  0  0
  147.2767  135.4660  153.3082 H   0  0  0  0  0  0  0  0  0  0  0  0
  145.8442  135.3240  154.2841 H   0  0  0  0  0  0  0  0  0  0  0  0
  145.5305  135.1139  151.7668 H   0  0  0  0  0  0  0  0  0  0  0  0
  142.4883  137.6633  152.1650 H   0  0  0  0  0  0  0  0  0  0  0  0
  144.0252  138.0264  151.4101 H   0  0  0  0  0  0  0  0  0  0  0  0
  147.0309  136.7180  150.9103 H   0  0  0  0  0  0  0  0  0  0  0  0
  145.4532  137.3080  150.4770 H   0  0  0  0  0  0  0  0  0  0  0  0
  145.5176  138.9806  152.3172 H   0  0  0  0  0  0  0  0  0  0  0  0
  146.9346  139.1123  151.3104 H   0  0  0  0  0  0  0  0  0  0  0  0
  149.5407  142.8577  157.1770 H   0  0  0  0  0  0  0  0  0  0  0  0
  149.3949  144.4935  158.8734 H   0  0  0  0  0  0  0  0  0  0  0  0
  150.9610  145.1162  159.3923 H   0  0  0  0  0  0  0  0  0  0  0  0
  150.0534  144.0106  160.4348 H   0  0  0  0  0  0  0  0  0  0  0  0
  148.1308  137.7882  152.9039 H   0  0  0  0  0  0  0  0  0  0  0  0
  1  2  1  0  0  0  0
  1 25  1  0  0  0  0
  1 26  1  0  0  0  0
  1 27  1  0  0  0  0
  2 23  1  0  0  0  0
  2  3  2  0  0  0  0
  3  4  1  0  0  0  0
  3 28  1  0  0  0  0
  4 21  2  0  0  0  0
  4  5  1  0  0  0  0
  5  6  2  0  0  0  0
  6  7  1  0  0  0  0
  6 29  1  0  0  0  0
  7  8  1  0  0  0  0
  7 21  1  0  0  0  0
  8  9  1  0  0  0  0
  8 30  1  0  0  0  0
  8 31  1  0  0  0  0
  9 10  1  0  0  0  0
  9 11  1  0  0  0  0
  9 32  1  0  0  0  0
 10 33  1  0  0  0  0
 11 12  1  0  0  0  0
 11 34  1  0  0  0  0
 11 35  1  0  0  0  0
 12 20  1  0  0  0  0
 12 13  1  0  0  0  0
 12 51  1  0  0  0  0
 13 14  1  0  0  0  0
 13 36  1  0  0  0  0
 13 37  1  0  0  0  0
 14 15  1  0  0  0  0
 14 38  1  0  0  0  0
 14 39  1  0  0  0  0
 15 16  1  0  0  0  0
 15 19  1  0  0  0  0
 15 40  1  0  0  0  0
 16 17  1  0  0  0  0
 16 18  2  0  0  0  0
 17 41  1  0  0  0  0
 17 42  1  0  0  0  0
 19 20  1  0  0  0  0
 19 43  1  0  0  0  0
 19 44  1  0  0  0  0
 20 45  1  0  0  0  0
 20 46  1  0  0  0  0
 21 22  1  0  0  0  0
 22 23  2  0  0  0  0
 22 47  1  0  0  0  0
 23 24  1  0  0  0  0
 24 48  1  0  0  0  0
 24 49  1  0  0  0  0
 24 50  1  0  0  0  0
M  CHG  1  12   1
M  END
> <s_m_source_file>
AV-unprocessed.smi

> <i_m_source_file_index>
1695

> <i_lp_mmshare_version>
43012

> <i_f3d_flags>
0

> <s_epik_input>
W0NIM11jKFtjSF0xKWMoW0NIM10pW2NIXWMoYzEyKW4oW2NIXW4yKVtDSDJdW0NASF0oW09IXSlbQ0gyXU4zW0NIMl1bQ0gyXVtDSF0oQyg9TylbTkgyXSlbQ0gyXVtDSDJdMw==

> <s_epik_cmdline>
J2VwaWtfcHl0aG9uJywgJy1waCcsICc3LjAnLCAnLXRuJywgJzgnLCAnLW1hJywgJzIwMCcsICctbWV0YWxfYmluZGluZycsICctaW1hZScsICc8aW5maWxlLm1hZT4nLCAnLW9tYWUnLCAnPG91dGZpbGUubWFlPic=

> <r_epik_Ionization_Penalty>
0.113899

> <r_epik_Ionization_Penalty_Charging>
0.0258844

> <r_epik_Ionization_Penalty_Neutral>
0.0880147

> <r_epik_State_Penalty>
0.0974403

> <r_epik_Charging_Adjusted_Penalty>
0.123325

> <i_epik_Tot_Q>
1

> <i_epik_Tot_abs_Q>
1

> <r_epik_Metal_State_Penalty>
0.0851148

> <b_epik_Metal_Only>
0

> <s_lp_Force_Field>
OPLS_2005

> <r_lp_Energy>
15.764

> <b_lp_Chiralities_Consistent>
1

> <s_lp_Variant>
AV-unprocessed.smi:1695-2

> <Gold.Version>
5.8.1

> <Gold.Id.Protein>
6NUR|6NUR_protein|mol2

> <Gold.PLP.Fitness>
49.7851

> <Gold.PLP.PLP>
-39.9884

> <Gold.PLP.part.hbond>
-3.6712

> <Gold.PLP.part.metal>
0.0000

> <Gold.PLP.part.buried>
-1.2846

> <Gold.PLP.part.nonpolar>
-36.3021

> <Gold.PLP.part.repulsive>
0.1906

> <Gold.PLP.ligand.clash>
0.0000

> <Gold.PLP.ligand.torsion>
0.5824

> <Gold.PLP.Chemscore.Hbond>
3.6240

> <Gold.PLP.Chemscore.CHOScore>
0.0000

> <Gold.PLP.Chemscore.Metal>
0.0000

> <Gold.Chemscore.Hbonds>
donor molecule, donor type, donor heavy atom, donor atom, acceptor molecule, acceptor atom, score
      L1  H    12    51       P1  7948  1.90
      L1  H    17    42       P1 10171  0.67
      P1  H  7997  8010       L1     5  1.00

> <Gold.PLP.Chemscore.Internal.Correction>
0.0895

> <Gold.Rescore>
     Score         DG    S(hbond)    S(metal)    S(lipo)     H(rot)  DE(clash)    DE(int)     intcor
     16.43     -18.40       2.61        0.00      98.08       2.85       0.64       1.33       ----

> <Gold.Chemscore.Fitness>
16.4266

> <Gold.Chemscore.DG>
-18.3953

> <Gold.Chemscore.ZeroCoef>
-5.4800

> <Gold.Chemscore.Hbond>
2.6127

> <Gold.Chemscore.Metal>
0.0000

> <Gold.Chemscore.Lipo>
98.0823

> <Gold.Chemscore.Internal_Hbond>
0.0000

> <Gold.Chemscore.DEClash>
0.6418

> <Gold.Chemscore.DEInternal>
1.3269

> <Gold.Chemscore.Rot>
2.8464

> <Gold.Chemscore.Internal.Correction>
   9.000000E+99

> <Gold.Chemscore.Hbonds>
donor molecule, donor type, donor heavy atom, donor atom, acceptor molecule, acceptor atom, score
      L1  H    12    51       P1  7948  0.85
      L1  H    17    42       P1 10171  0.66
      P1  H  7997  8010       L1     5  0.45

> <Gold.Chemscore.Hbond.Weighted>
-8.7264

> <Gold.Chemscore.Metal.Weighted>
-0.0000

> <Gold.Chemscore.Lipo.Weighted>
-11.4756

> <Gold.Chemscore.Internal_Hbond.Weighted>
0.0000

> <Gold.Chemscore.DEClash.Weighted>
0.6418

> <Gold.Chemscore.DEInternal.Weighted>
1.3269

> <Gold.Chemscore.Rot.Weighted>
7.2867

> <Gold.Chemscore.Internal.Correction.Weighted>
   9.000000E+99

> <Gold.Protein.RotatedTorsions>
[ 6907 6896 6895 6894 ] final   60.45 input  -60.11 | X-H torsion
[ 7974 7965 7964 7962 ] final  122.57 input  175.53 | X-H torsion
[ 8008 7997 7996 7995 ] final   67.12 input   59.86 | X-H torsion
[ 10167 10162 10161 10158 ] final   50.95 input  -65.29 | X-H torsion
[ 10718 10713 10712 10709 ] final  163.06 input   66.30 | X-H torsion
[ 10763 10752 10751 10750 ] final  -31.36 input  -60.55 | X-H torsion
[ 11005 11000 10999 10996 ] final  139.87 input  -57.11 | X-H torsion

> <Gold.Protein.ActiveResidues>
 VAL166  LYS551  ARG553  GLY616  TRP617  ASP618  TYR619  PRO620  LYS621  CYS622 
 ASP623  PHE694  ASN695  SER759  ASP760  ASP761  ALA762  ILE779  LEU786  VAL792 
 PHE793  MET794  SER795  GLU796  ALA797  LYS798  CYS799  TRP800  GLU811  SER814 

> <Gold.Protein.RotatedAtoms>
  152.4004  134.6296  160.0071 H   0  0  0  0  0  0  0  0  0  0  0  0  # atno 6907 bound_to 6896
  151.6503  133.3316  159.3158 H   0  0  0  0  0  0  0  0  0  0  0  0  # atno 6908 bound_to 6896
  150.7905  134.6968  159.6572 H   0  0  0  0  0  0  0  0  0  0  0  0  # atno 6909 bound_to 6896
  145.1060  139.3486  143.4788 H   0  0  0  0  0  0  0  0  0  0  0  0  # atno 7974 bound_to 7965
  155.6880  140.3496  155.4882 H   0  0  0  0  0  0  0  0  0  0  0  0  # atno 8008 bound_to 7997
  155.9549  140.1126  157.0968 H   0  0  0  0  0  0  0  0  0  0  0  0  # atno 8009 bound_to 7997
  154.4130  140.1187  156.5088 H   0  0  0  0  0  0  0  0  0  0  0  0  # atno 8010 bound_to 7997
  140.2670  144.3308  150.6301 H   0  0  0  0  0  0  0  0  0  0  0  0  # atno 10167 bound_to 10162
  157.1138  131.0475  151.2445 H   0  0  0  0  0  0  0  0  0  0  0  0  # atno 10718 bound_to 10713
  153.7961  135.6894  153.4863 H   0  0  0  0  0  0  0  0  0  0  0  0  # atno 10763 bound_to 10752
  153.1718  135.4539  154.9911 H   0  0  0  0  0  0  0  0  0  0  0  0  # atno 10764 bound_to 10752
  154.8025  135.3343  154.7453 H   0  0  0  0  0  0  0  0  0  0  0  0  # atno 10765 bound_to 10752
  140.0286  134.9363  157.0617 H   0  0  0  0  0  0  0  0  0  0  0  0  # atno 11005 bound_to 11000
  146.3528  140.0958  142.8610 LP  0  0  0  0  0  0  0  0  0  0  0  0  # atno 17320 bound_to 7965
  145.0901  140.9279  143.4774 LP  0  0  0  0  0  0  0  0  0  0  0  0  # atno 17321 bound_to 7965
  140.5920  143.2168  151.7235 LP  0  0  0  0  0  0  0  0  0  0  0  0  # atno 17342 bound_to 10162
  139.5000  144.3925  152.0265 LP  0  0  0  0  0  0  0  0  0  0  0  0  # atno 17343 bound_to 10162
  157.4536  130.7612  149.7173 LP  0  0  0  0  0  0  0  0  0  0  0  0  # atno 17370 bound_to 10713
  155.9844  130.3992  150.3313 LP  0  0  0  0  0  0  0  0  0  0  0  0  # atno 17371 bound_to 10713
  140.4264  134.1826  155.7166 LP  0  0  0  0  0  0  0  0  0  0  0  0  # atno 17394 bound_to 11000
  141.1817  133.8399  157.1232 LP  0  0  0  0  0  0  0  0  0  0  0  0  # atno 17395 bound_to 11000

$$$$
