AV-unprocessed.smi:1976|AV-procd|sdf|7984|dock2
  -GOLD-   2272010163D 1   1.00000     0.00000
 Structure written by MMmdl.
 45 47  0  0  0  0  0  0  0  0  2 V2000
  154.1262  138.5132  161.0666 O   0  0  0  0  0  0  0  0  0  0  0  0
  154.6325  139.6185  161.2626 C   0  0  0  0  0  0  0  0  0  0  0  0
  154.8109  140.6147  160.1086 C   0  0  0  0  0  0  0  0  0  0  0  0
  153.5359  141.1866  159.6449 N   0  0  0  0  0  0  0  0  0  0  0  0
  153.0325  142.2954  160.3534 C   0  0  0  0  0  0  0  0  0  0  0  0
  151.8766  142.9075  160.0313 C   0  0  0  0  0  0  0  0  0  0  0  0
  151.3918  144.1443  160.7719 C   0  0  0  0  0  0  0  0  0  0  0  0
  151.7320  145.2570  160.1208 F   0  0  0  0  0  0  0  0  0  0  0  0
  150.0642  144.1163  160.8795 F   0  0  0  0  0  0  0  0  0  0  0  0
  151.9065  144.2041  162.0008 F   0  0  0  0  0  0  0  0  0  0  0  0
  151.1684  142.3833  158.8799 C   0  0  0  0  0  0  0  0  0  0  0  0
  151.6432  141.3324  158.1830 C   0  0  0  0  0  0  0  0  0  0  0  0
  152.8950  140.6690  158.5543 C   0  0  0  0  0  0  0  0  0  0  0  0
  153.3417  139.7099  157.9241 O   0  0  0  0  0  0  0  0  0  0  0  0
  155.0774  140.0163  162.4639 N   0  0  0  0  0  0  0  0  0  0  0  0
  154.9999  139.2194  163.6858 C   0  0  1  0  0  0  0  0  0  0  0  0
  156.2741  138.4001  163.9812 C   0  0  0  0  0  0  0  0  0  0  0  0
  156.4990  138.5577  165.4886 C   0  0  0  0  0  0  0  0  0  0  0  0
  155.9899  139.9076  165.7585 N   0  3  2  0  0  0  0  0  0  0  0  0
  155.8060  140.3248  167.1635 C   0  0  0  0  0  0  0  0  0  0  0  0
  155.4301  141.8225  167.1841 C   0  0  0  0  0  0  0  0  0  0  0  0
  154.2307  142.1397  166.2616 C   0  0  0  0  0  0  0  0  0  0  0  0
  154.4333  141.5681  164.8415 C   0  0  0  0  0  0  0  0  0  0  0  0
  154.7675  140.0704  164.9529 C   0  0  1  0  0  0  0  0  0  0  0  0
  155.4931  141.4120  160.4107 H   0  0  0  0  0  0  0  0  0  0  0  0
  155.3188  140.1002  159.2919 H   0  0  0  0  0  0  0  0  0  0  0  0
  153.6566  142.6266  161.1708 H   0  0  0  0  0  0  0  0  0  0  0  0
  150.2389  142.8391  158.5719 H   0  0  0  0  0  0  0  0  0  0  0  0
  151.0878  140.9681  157.3312 H   0  0  0  0  0  0  0  0  0  0  0  0
  155.4815  140.9387  162.5394 H   0  0  0  0  0  0  0  0  0  0  0  0
  154.1540  138.5360  163.5867 H   0  0  0  0  0  0  0  0  0  0  0  0
  156.1797  137.3561  163.6807 H   0  0  0  0  0  0  0  0  0  0  0  0
  157.1269  138.8197  163.4451 H   0  0  0  0  0  0  0  0  0  0  0  0
  155.9120  137.8238  166.0433 H   0  0  0  0  0  0  0  0  0  0  0  0
  157.5464  138.4515  165.7721 H   0  0  0  0  0  0  0  0  0  0  0  0
  155.0292  139.7218  167.6362 H   0  0  0  0  0  0  0  0  0  0  0  0
  156.7288  140.1601  167.7210 H   0  0  0  0  0  0  0  0  0  0  0  0
  155.2109  142.1385  168.2044 H   0  0  0  0  0  0  0  0  0  0  0  0
  156.2904  142.4101  166.8607 H   0  0  0  0  0  0  0  0  0  0  0  0
  153.3241  141.7145  166.6945 H   0  0  0  0  0  0  0  0  0  0  0  0
  154.0701  143.2171  166.2128 H   0  0  0  0  0  0  0  0  0  0  0  0
  153.5307  141.7152  164.2473 H   0  0  0  0  0  0  0  0  0  0  0  0
  155.2390  142.1032  164.3369 H   0  0  0  0  0  0  0  0  0  0  0  0
  153.9532  139.5876  165.4979 H   0  0  0  0  0  0  0  0  0  0  0  0
  156.6731  140.5359  165.3601 H   0  0  0  0  0  0  0  0  0  0  0  0
  1  2  2  0  0  0  0
  2  3  1  0  0  0  0
  2 15  1  0  0  0  0
  3  4  1  0  0  0  0
  3 25  1  0  0  0  0
  3 26  1  0  0  0  0
  4 13  1  0  0  0  0
  4  5  1  0  0  0  0
  5  6  2  0  0  0  0
  5 27  1  0  0  0  0
  6  7  1  0  0  0  0
  6 11  1  0  0  0  0
  7  8  1  0  0  0  0
  7  9  1  0  0  0  0
  7 10  1  0  0  0  0
 11 12  2  0  0  0  0
 11 28  1  0  0  0  0
 12 13  1  0  0  0  0
 12 29  1  0  0  0  0
 13 14  2  0  0  0  0
 15 16  1  0  0  0  0
 15 30  1  0  0  0  0
 16 24  1  0  0  0  0
 16 17  1  0  0  0  0
 16 31  1  0  0  0  0
 17 18  1  0  0  0  0
 17 32  1  0  0  0  0
 17 33  1  0  0  0  0
 18 19  1  0  0  0  0
 18 34  1  0  0  0  0
 18 35  1  0  0  0  0
 19 24  1  0  0  0  0
 19 20  1  0  0  0  0
 19 45  1  0  0  0  0
 20 21  1  0  0  0  0
 20 36  1  0  0  0  0
 20 37  1  0  0  0  0
 21 22  1  0  0  0  0
 21 38  1  0  0  0  0
 21 39  1  0  0  0  0
 22 23  1  0  0  0  0
 22 40  1  0  0  0  0
 22 41  1  0  0  0  0
 23 24  1  0  0  0  0
 23 42  1  0  0  0  0
 23 43  1  0  0  0  0
 24 44  1  0  0  0  0
M  CHG  1  19   1
M  END
> <s_m_source_file>
AV-unprocessed.smi

> <i_m_source_file_index>
1976

> <i_lp_mmshare_version>
43012

> <i_f3d_flags>
0

> <s_epik_input>
W0NIMl0xW0NIMl1bQ0gyXVtDSDJdW0NASF0oTjEyKVtDQEBIXShbQ0gyXVtDSDJdMilbTkhdQyg9TylbQ0gyXW4zW2NIXWMoQyhGKShGKUYpW2NIXVtjSF1jMz1P

> <s_epik_cmdline>
J2VwaWtfcHl0aG9uJywgJy1waCcsICc3LjAnLCAnLXRuJywgJzgnLCAnLW1hJywgJzIwMCcsICctbWV0YWxfYmluZGluZycsICctaW1hZScsICc8aW5maWxlLm1hZT4nLCAnLW9tYWUnLCAnPG91dGZpbGUubWFlPic=

> <r_lp_tautomer_probability>
1

> <r_epik_Ionization_Penalty>
0.00171506

> <r_epik_Ionization_Penalty_Charging>
0.00171498

> <r_epik_Ionization_Penalty_Neutral>
7.81737e-08

> <r_epik_State_Penalty>
0.00115937

> <r_epik_Charging_Adjusted_Penalty>
0.00287436

> <i_epik_Tot_Q>
1

> <i_epik_Tot_abs_Q>
1

> <r_epik_Metal_State_Penalty>
-0

> <b_epik_Metal_Only>
0

> <s_lp_Force_Field>
OPLS_2005

> <r_lp_Energy>
52.9518

> <b_lp_Chiralities_Consistent>
1

> <s_lp_Variant>
AV-unprocessed.smi:1976-2

> <Gold.Version>
5.8.1

> <Gold.Id.Protein>
6NUR|6NUR_protein|mol2

> <Gold.PLP.Fitness>
47.7971

> <Gold.PLP.PLP>
-48.1300

> <Gold.PLP.part.hbond>
-1.8488

> <Gold.PLP.part.metal>
0.0000

> <Gold.PLP.part.buried>
-1.8915

> <Gold.PLP.part.nonpolar>
-43.8053

> <Gold.PLP.part.repulsive>
0.0125

> <Gold.PLP.ligand.clash>
0.0000

> <Gold.PLP.ligand.torsion>
1.7069

> <Gold.PLP.Chemscore.Hbond>
1.0000

> <Gold.PLP.Chemscore.CHOScore>
0.0000

> <Gold.PLP.Chemscore.Metal>
0.0000

> <Gold.Chemscore.Hbonds>
donor molecule, donor type, donor heavy atom, donor atom, acceptor molecule, acceptor atom, score
      P1  H  7997  8010       L1    14  0.90

> <Gold.PLP.Chemscore.Internal.Correction>
0.0810

> <Gold.Rescore>
     Score         DG    S(hbond)    S(metal)    S(lipo)     H(rot)  DE(clash)    DE(int)     intcor
     14.76     -17.84       0.91        0.00     114.13       1.58       2.47       0.61       ----

> <Gold.Chemscore.Fitness>
14.7608

> <Gold.Chemscore.DG>
-17.8354

> <Gold.Chemscore.ZeroCoef>
-5.4800

> <Gold.Chemscore.Hbond>
0.9146

> <Gold.Chemscore.Metal>
0.0000

> <Gold.Chemscore.Lipo>
114.1284

> <Gold.Chemscore.Internal_Hbond>
0.0000

> <Gold.Chemscore.DEClash>
2.4656

> <Gold.Chemscore.DEInternal>
0.6090

> <Gold.Chemscore.Rot>
1.5830

> <Gold.Chemscore.Internal.Correction>
   9.000000E+99

> <Gold.Chemscore.Hbonds>
donor molecule, donor type, donor heavy atom, donor atom, acceptor molecule, acceptor atom, score
      P1  H  7997  8010       L1    14  0.75

> <Gold.Chemscore.Hbond.Weighted>
-3.0547

> <Gold.Chemscore.Metal.Weighted>
-0.0000

> <Gold.Chemscore.Lipo.Weighted>
-13.3530

> <Gold.Chemscore.Internal_Hbond.Weighted>
0.0000

> <Gold.Chemscore.DEClash.Weighted>
2.4656

> <Gold.Chemscore.DEInternal.Weighted>
0.6090

> <Gold.Chemscore.Rot.Weighted>
4.0524

> <Gold.Chemscore.Internal.Correction.Weighted>
   9.000000E+99

> <Gold.Protein.RotatedTorsions>
[ 6907 6896 6895 6894 ] final   57.32 input  -60.11 | X-H torsion
[ 7974 7965 7964 7962 ] final  122.15 input  175.53 | X-H torsion
[ 8008 7997 7996 7995 ] final   16.68 input   59.86 | X-H torsion
[ 10167 10162 10161 10158 ] final   57.15 input  -65.29 | X-H torsion
[ 10718 10713 10712 10709 ] final   19.45 input   66.30 | X-H torsion
[ 10763 10752 10751 10750 ] final  -71.30 input  -60.55 | X-H torsion
[ 11005 11000 10999 10996 ] final -126.84 input  -57.11 | X-H torsion

> <Gold.Protein.ActiveResidues>
 VAL166  LYS551  ARG553  GLY616  TRP617  ASP618  TYR619  PRO620  LYS621  CYS622 
 ASP623  PHE694  ASN695  SER759  ASP760  ASP761  ALA762  ILE779  LEU786  VAL792 
 PHE793  MET794  SER795  GLU796  ALA797  LYS798  CYS799  TRP800  GLU811  SER814 

> <Gold.Protein.RotatedAtoms>
  152.3720  134.6719  160.0172 H   0  0  0  0  0  0  0  0  0  0  0  0  # atno 6907 bound_to 6896
  151.7009  133.3305  159.3274 H   0  0  0  0  0  0  0  0  0  0  0  0  # atno 6908 bound_to 6896
  150.7681  134.6552  159.6354 H   0  0  0  0  0  0  0  0  0  0  0  0  # atno 6909 bound_to 6896
  145.1109  139.3453  143.4763 H   0  0  0  0  0  0  0  0  0  0  0  0  # atno 7974 bound_to 7965
  154.8805  140.2972  155.5428 H   0  0  0  0  0  0  0  0  0  0  0  0  # atno 8008 bound_to 7997
  156.3022  140.2443  156.3740 H   0  0  0  0  0  0  0  0  0  0  0  0  # atno 8009 bound_to 7997
  154.8722  140.0401  157.1721 H   0  0  0  0  0  0  0  0  0  0  0  0  # atno 8010 bound_to 7997
  140.2011  144.3987  150.6528 H   0  0  0  0  0  0  0  0  0  0  0  0  # atno 10167 bound_to 10162
  157.1106  130.6507  149.5896 H   0  0  0  0  0  0  0  0  0  0  0  0  # atno 10718 bound_to 10713
  154.4298  135.5966  153.6061 H   0  0  0  0  0  0  0  0  0  0  0  0  # atno 10763 bound_to 10752
  152.9798  135.5972  154.3853 H   0  0  0  0  0  0  0  0  0  0  0  0  # atno 10764 bound_to 10752
  154.3690  135.2841  155.2256 H   0  0  0  0  0  0  0  0  0  0  0  0  # atno 10765 bound_to 10752
  140.9648  134.0887  157.3931 H   0  0  0  0  0  0  0  0  0  0  0  0  # atno 11005 bound_to 11000
  146.3526  140.1027  142.8607 LP  0  0  0  0  0  0  0  0  0  0  0  0  # atno 17320 bound_to 7965
  145.0848  140.9245  143.4804 LP  0  0  0  0  0  0  0  0  0  0  0  0  # atno 17321 bound_to 7965
  140.6389  143.2200  151.6333 LP  0  0  0  0  0  0  0  0  0  0  0  0  # atno 17342 bound_to 10162
  139.5217  144.3186  152.0930 LP  0  0  0  0  0  0  0  0  0  0  0  0  # atno 17343 bound_to 10162
  155.9851  130.4880  150.7017 LP  0  0  0  0  0  0  0  0  0  0  0  0  # atno 17370 bound_to 10713
  157.4563  131.0878  151.0793 LP  0  0  0  0  0  0  0  0  0  0  0  0  # atno 17371 bound_to 10713
  139.8890  135.0102  156.6657 LP  0  0  0  0  0  0  0  0  0  0  0  0  # atno 17394 bound_to 11000
  140.7415  133.8974  155.8281 LP  0  0  0  0  0  0  0  0  0  0  0  0  # atno 17395 bound_to 11000

$$$$
