AV-unprocessed.smi:2499|AV-procd|sdf|9833|dock5
  -GOLD-   2272013463D 1   1.00000     0.00000
 Structure written by MMmdl.
 28 29  0  0  0  0  0  0  0  0  2 V2000
  152.8438  144.6864  157.7280 C   0  0  0  0  0  0  0  0  0  0  0  0
  151.9307  143.5430  158.1910 C   0  0  2  0  0  0  0  0  0  0  0  0
  151.0112  143.2105  157.1069 N   0  0  0  0  0  0  0  0  0  0  0  0
  150.8015  141.9781  156.6198 C   0  0  0  0  0  0  0  0  0  0  0  0
  151.3754  140.9708  157.0352 O   0  0  0  0  0  0  0  0  0  0  0  0
  149.8942  141.9840  155.6314 N   0  0  0  0  0  0  0  0  0  0  0  0
  149.4542  140.8492  154.9114 C   0  0  0  0  0  0  0  0  0  0  0  0
  148.1759  140.5803  154.6511 N   0  3  0  0  0  0  0  0  0  0  0  0
  148.1087  139.4095  153.9371 C   0  0  0  0  0  0  0  0  0  0  0  0
  149.4085  138.9912  153.7821 C   0  0  0  0  0  0  0  0  0  0  0  0
  150.2660  139.8860  154.3900 O   0  0  0  0  0  0  0  0  0  0  0  0
  151.2295  143.9029  159.4902 C   0  0  0  0  0  0  0  0  0  0  0  0
  151.1221  145.3406  159.9408 C   0  0  0  0  0  0  0  0  0  0  0  0
  152.0022  144.3743  160.6997 C   0  0  0  0  0  0  0  0  0  0  0  0
  153.5823  144.9323  158.4917 H   0  0  0  0  0  0  0  0  0  0  0  0
  152.2727  145.5911  157.5163 H   0  0  0  0  0  0  0  0  0  0  0  0
  153.3882  144.4149  156.8228 H   0  0  0  0  0  0  0  0  0  0  0  0
  152.5694  142.6780  158.3811 H   0  0  0  0  0  0  0  0  0  0  0  0
  150.4950  143.9791  156.7037 H   0  0  0  0  0  0  0  0  0  0  0  0
  147.3619  141.1209  154.9159 H   0  0  0  0  0  0  0  0  0  0  0  0
  147.1621  138.9983  153.6165 H   0  0  0  0  0  0  0  0  0  0  0  0
  149.8665  138.1393  153.3007 H   0  0  0  0  0  0  0  0  0  0  0  0
  150.3574  143.2850  159.6973 H   0  0  0  0  0  0  0  0  0  0  0  0
  151.6165  146.1005  159.3385 H   0  0  0  0  0  0  0  0  0  0  0  0
  150.1929  145.6517  160.4140 H   0  0  0  0  0  0  0  0  0  0  0  0
  151.6580  144.0399  161.6761 H   0  0  0  0  0  0  0  0  0  0  0  0
  153.0790  144.4982  160.6022 H   0  0  0  0  0  0  0  0  0  0  0  0
  149.4863  142.8700  155.3727 H   0  0  0  0  0  0  0  0  0  0  0  0
  1  2  1  0  0  0  0
  1 15  1  0  0  0  0
  1 16  1  0  0  0  0
  1 17  1  0  0  0  0
  2  3  1  0  0  0  0
  2 12  1  0  0  0  0
  2 18  1  0  0  0  0
  3 19  1  0  0  0  0
  3  4  1  0  0  0  0
  4  6  1  0  0  0  0
  4  5  2  0  0  0  0
  6  7  1  0  0  0  0
  6 28  1  0  0  0  0
  7 11  1  0  0  0  0
  7  8  2  0  0  0  0
  8 20  1  0  0  0  0
  8  9  1  0  0  0  0
  9 21  1  0  0  0  0
  9 10  2  0  0  0  0
 10 22  1  0  0  0  0
 10 11  1  0  0  0  0
 12 14  1  0  0  0  0
 12 13  1  0  0  0  0
 12 23  1  0  0  0  0
 13 14  1  0  0  0  0
 13 24  1  0  0  0  0
 13 25  1  0  0  0  0
 14 26  1  0  0  0  0
 14 27  1  0  0  0  0
M  CHG  1   8   1
M  END
> <s_m_source_file>
AV-unprocessed.smi

> <i_m_source_file_index>
2499

> <i_lp_mmshare_version>
43012

> <i_f3d_flags>
0

> <s_epik_input>
W0NIMl0xW0NIMl1bQ0hdMVtDQEhdKFtDSDNdKVtOSF1DKD1PKVtOSF1jMm5bY0hdW2NIXW8y

> <s_epik_cmdline>
J2VwaWtfcHl0aG9uJywgJy1waCcsICc3LjAnLCAnLXRuJywgJzgnLCAnLW1hJywgJzIwMCcsICctbWV0YWxfYmluZGluZycsICctaW1hZScsICc8aW5maWxlLm1hZT4nLCAnLW9tYWUnLCAnPG91dGZpbGUubWFlPic=

> <r_epik_Ionization_Penalty>
6.56099

> <r_epik_Ionization_Penalty_Charging>
6.51293

> <r_epik_Ionization_Penalty_Neutral>
0.0480564

> <r_epik_State_Penalty>
1.72359

> <r_epik_Charging_Adjusted_Penalty>
8.23652

> <i_epik_Tot_Q>
1

> <i_epik_Tot_abs_Q>
1

> <r_epik_Metal_State_Penalty>
1.73747

> <b_epik_Metal_Only>
0

> <s_lp_Force_Field>
OPLS_2005

> <r_lp_Energy>
20.6817

> <b_lp_Chiralities_Consistent>
1

> <s_lp_Variant>
AV-unprocessed.smi:2499-3

> <Gold.Version>
5.8.1

> <Gold.Id.Protein>
6NUR|6NUR_protein|mol2

> <Gold.PLP.Fitness>
41.1044

> <Gold.PLP.PLP>
-30.2766

> <Gold.PLP.part.hbond>
-3.0000

> <Gold.PLP.part.metal>
0.0000

> <Gold.PLP.part.buried>
-3.5657

> <Gold.PLP.part.nonpolar>
-24.9397

> <Gold.PLP.part.repulsive>
0.3693

> <Gold.PLP.ligand.clash>
0.0000

> <Gold.PLP.ligand.torsion>
1.1195

> <Gold.PLP.Chemscore.Hbond>
3.0000

> <Gold.PLP.Chemscore.CHOScore>
1.0000

> <Gold.PLP.Chemscore.Metal>
0.0000

> <Gold.Chemscore.Hbonds>
donor molecule, donor type, donor heavy atom, donor atom, acceptor molecule, acceptor atom, score
      L1  H     3    19       P1  8028  0.99
      L1  H     6    28       P1  8028  1.00
      P1  H  7989  7998       L1    11  1.00
      L1  C    10    22       P1  7948  1.00

> <Gold.PLP.Chemscore.Internal.Correction>
1.0668

> <Gold.Rescore>
     Score         DG    S(hbond)    S(metal)    S(lipo)     H(rot)  DE(clash)    DE(int)     intcor
     17.34     -20.05       2.74        0.00      74.71       1.30       1.47       1.24       ----

> <Gold.Chemscore.Fitness>
17.3375

> <Gold.Chemscore.DG>
-20.0487

> <Gold.Chemscore.ZeroCoef>
-5.4800

> <Gold.Chemscore.Hbond>
2.7441

> <Gold.Chemscore.Metal>
0.0000

> <Gold.Chemscore.Lipo>
74.7064

> <Gold.Chemscore.Internal_Hbond>
0.0000

> <Gold.Chemscore.DEClash>
1.4664

> <Gold.Chemscore.DEInternal>
1.2448

> <Gold.Chemscore.Rot>
1.3036

> <Gold.Chemscore.Internal.Correction>
   9.000000E+99

> <Gold.Chemscore.Hbonds>
donor molecule, donor type, donor heavy atom, donor atom, acceptor molecule, acceptor atom, score
      L1  H     3    19       P1  8028  0.90
      L1  H     6    28       P1  8028  0.98
      P1  H  7989  7998       L1    11  0.44

> <Gold.Chemscore.Hbond.Weighted>
-9.1652

> <Gold.Chemscore.Metal.Weighted>
-0.0000

> <Gold.Chemscore.Lipo.Weighted>
-8.7406

> <Gold.Chemscore.Internal_Hbond.Weighted>
0.0000

> <Gold.Chemscore.DEClash.Weighted>
1.4664

> <Gold.Chemscore.DEInternal.Weighted>
1.2448

> <Gold.Chemscore.Rot.Weighted>
3.3371

> <Gold.Chemscore.Internal.Correction.Weighted>
   9.000000E+99

> <Gold.Protein.RotatedTorsions>
[ 6907 6896 6895 6894 ] final -133.90 input  -60.11 | X-H torsion
[ 7974 7965 7964 7962 ] final  -85.73 input  175.53 | X-H torsion
[ 8008 7997 7996 7995 ] final  -44.97 input   59.86 | X-H torsion
[ 10167 10162 10161 10158 ] final  115.32 input  -65.29 | X-H torsion
[ 10718 10713 10712 10709 ] final   -1.63 input   66.30 | X-H torsion
[ 10763 10752 10751 10750 ] final -175.64 input  -60.55 | X-H torsion
[ 11005 11000 10999 10996 ] final  169.33 input  -57.11 | X-H torsion

> <Gold.Protein.ActiveResidues>
 VAL166  LYS551  ARG553  GLY616  TRP617  ASP618  TYR619  PRO620  LYS621  CYS622 
 ASP623  PHE694  ASN695  SER759  ASP760  ASP761  ALA762  ILE779  LEU786  VAL792 
 PHE793  MET794  SER795  GLU796  ALA797  LYS798  CYS799  TRP800  GLU811  SER814 

> <Gold.Protein.RotatedAtoms>
  150.9795  133.6260  159.2724 H   0  0  0  0  0  0  0  0  0  0  0  0  # atno 6907 bound_to 6896
  151.3520  135.0885  159.9416 H   0  0  0  0  0  0  0  0  0  0  0  0  # atno 6908 bound_to 6896
  152.5210  133.9385  159.7669 H   0  0  0  0  0  0  0  0  0  0  0  0  # atno 6909 bound_to 6896
  145.4893  140.9553  143.1821 H   0  0  0  0  0  0  0  0  0  0  0  0  # atno 7974 bound_to 7965
  154.3999  140.1408  156.3771 H   0  0  0  0  0  0  0  0  0  0  0  0  # atno 8008 bound_to 7997
  155.8038  140.3475  155.5397 H   0  0  0  0  0  0  0  0  0  0  0  0  # atno 8009 bound_to 7997
  155.8456  140.0933  157.1698 H   0  0  0  0  0  0  0  0  0  0  0  0  # atno 8010 bound_to 7997
  139.6325  144.7116  151.2402 H   0  0  0  0  0  0  0  0  0  0  0  0  # atno 10167 bound_to 10162
  156.8028  130.5398  149.5719 H   0  0  0  0  0  0  0  0  0  0  0  0  # atno 10718 bound_to 10713
  154.5820  135.2837  155.0723 H   0  0  0  0  0  0  0  0  0  0  0  0  # atno 10763 bound_to 10752
  154.2056  135.6417  153.5103 H   0  0  0  0  0  0  0  0  0  0  0  0  # atno 10764 bound_to 10752
  153.0091  135.5479  154.6477 H   0  0  0  0  0  0  0  0  0  0  0  0  # atno 10765 bound_to 10752
  140.2966  134.7629  157.3882 H   0  0  0  0  0  0  0  0  0  0  0  0  # atno 11005 bound_to 11000
  144.7843  139.6460  143.7141 LP  0  0  0  0  0  0  0  0  0  0  0  0  # atno 17320 bound_to 7965
  146.2293  139.5784  142.9566 LP  0  0  0  0  0  0  0  0  0  0  0  0  # atno 17321 bound_to 7965
  140.7447  143.6454  150.8297 LP  0  0  0  0  0  0  0  0  0  0  0  0  # atno 17342 bound_to 10162
  140.0081  143.5672  152.2850 LP  0  0  0  0  0  0  0  0  0  0  0  0  # atno 17343 bound_to 10162
  156.1091  130.6027  151.0018 LP  0  0  0  0  0  0  0  0  0  0  0  0  # atno 17370 bound_to 10713
  157.6545  131.0891  150.7977 LP  0  0  0  0  0  0  0  0  0  0  0  0  # atno 17371 bound_to 10713
  140.1147  134.5299  155.8235 LP  0  0  0  0  0  0  0  0  0  0  0  0  # atno 17394 bound_to 11000
  141.2136  133.6736  156.6754 LP  0  0  0  0  0  0  0  0  0  0  0  0  # atno 17395 bound_to 11000

$$$$
