#       Name:                AV-unprocessed.smi:43
#       Creating user name   scv26
#       Creation time:       Thu Mar 26 16:24:59 2020


#       File generated by GOLD software.
#

@<TRIPOS>MOLECULE
AV-unprocessed.smi:43
    34    35     1
SMALL
NO_CHARGES


@<TRIPOS>ATOM
      1 ****        -1.7950  -2.2282  -0.9871 C.3            1 S1                 0.0000
      2 ****        -2.2082  -1.1849  -0.0659 N.pl3          1 S1                 0.0000
      3 ****        -3.4678  -1.2066   0.4384 N.2            1 S1                 0.0000
      4 ****        -3.5815  -0.1768   1.2242 N.2            1 S1                 0.0000
      5 ****        -2.4116   0.5526   1.2647 N.2            1 S1                 0.0000
      6 ****        -1.5900  -0.1081   0.4563 C.2            1 S1                 0.0000
      7 ****        -0.2681   0.2639   0.1715 N.pl3          1 S1                 0.0000
      8 ****         0.6817  -0.3458  -0.7630 C.3            1 S1                 0.0000
      9 ****         2.0369   0.3416  -0.5935 C.3            1 S1                 0.0000
     10 ****         2.7862   0.3645  -1.7906 O.3            1 S1                 0.0000
     11 ****         1.6387   1.7266  -0.1246 C.3            1 S1                 0.0000
     12 ****         0.4114   1.4328   0.7448 C.3            1 S1                 0.0000
     13 ****         0.7809   1.2135   2.2230 C.2            1 S1                 0.0000
     14 ****         0.5310   2.1525   3.0094 O.co2          1 S1                 0.0000
     15 ****         1.3072   0.1239   2.5433 O.co2          1 S1                -1.0000
     16 ****         2.6169  -0.1601   0.1822 H              1 S1                 0.0000
     17 ****        -0.2645   2.2878   0.6959 H              1 S1                 0.0000
     18 ****        -1.0059  -2.8288  -0.5354 H              1 S1                 0.0000
     19 ****        -1.4384  -1.7864  -1.9168 H              1 S1                 0.0000
     20 ****        -2.6346  -2.8844  -1.2205 H              1 S1                 0.0000
     21 ****         0.7855  -1.4158  -0.5891 H              1 S1                 0.0000
     22 ****         0.3013  -0.1993  -1.7746 H              1 S1                 0.0000
     23 ****         3.0022  -0.5250  -2.0243 H              1 S1                 0.0000
     24 ****         2.4417   2.2426   0.4038 H              1 S1                 0.0000
     25 ****         1.3438   2.3475  -0.9718 H              1 S1                 0.0000
     26 ****        -4.1749  -1.8861   0.2427 LP             1 S1                 0.0000
     27 ****        -4.4100   0.0562   1.7333 LP             1 S1                 0.0000
     28 ****        -2.2247   1.3870   1.7833 LP             1 S1                 0.0000
     29 ****         3.6253   0.8910  -1.6538 LP             1 S1                 0.0000
     30 ****         2.2451   0.7834  -2.5198 LP             1 S1                 0.0000
     31 ****         0.7546   2.0647   3.9801 LP             1 S1                 0.0000
     32 ****         0.1075   2.9915   2.6678 LP             1 S1                 0.0000
     33 ****         1.5627  -0.0474   3.4948 LP             1 S1                 0.0000
     34 ****         1.4722  -0.5753   1.8477 LP             1 S1                 0.0000
@<TRIPOS>BOND
    1    1    2 1     
    2    1   18 1     
    3    1   19 1     
    4    1   20 1     
    5    2    6 1     
    6    2    3 1     
    7    3    4 2     
    8    4    5 1     
    9    5    6 2     
   10    6    7 1     
   11    7   12 1     
   12    7    8 1     
   13    8    9 1     
   14    8   21 1     
   15    8   22 1     
   16    9   16 1     
   17    9   10 1     
   18    9   11 1     
   19   10   23 1     
   20   11   12 1     
   21   11   24 1     
   22   11   25 1     
   23   12   17 1     
   24   12   13 1     
   25   13   14 ar    
   26   13   15 ar    
   27    3   26 1     
   28    4   27 1     
   29    5   28 1     
   30   10   29 1     
   31   10   30 1     
   32   14   31 1     
   33   14   32 1     
   34   15   33 1     
   35   15   34 1     
@<TRIPOS>SUBSTRUCTURE
      1 S1             1
@<TRIPOS>SET
LONE_PAIRS      STATIC     ATOMS    <user>   **** ""
9 26 27 28 29 30 31 32 33 34
DONOR_HYDROGENS      STATIC     ATOMS    <user>   **** ""
1 23
ATOM$BLUE        STATIC     ATOMS    COLORGROUP SYSTEM
9 26 27 28 29 30 31 32 33 34
ATOM$RED        STATIC     ATOMS    COLORGROUP SYSTEM
1 23
