AV-unprocessed.smi:2176|AV-procd|sdf|8846|dock3
  -GOLD-   2272012 33D 1   1.00000     0.00000
 Structure written by MMmdl.
 29 30  0  0  0  0  0  0  0  0  1 V2000
  149.1287  140.9992  157.3999 O   0  0  0  0  0  0  0  0  0  0  0  0
  149.9613  141.7058  156.8298 C   0  0  0  0  0  0  0  0  0  0  0  0
  150.0578  141.7236  155.2970 C   0  0  0  0  0  0  0  0  0  0  0  0
  149.1170  140.7988  154.6474 N   0  0  0  0  0  0  0  0  0  0  0  0
  147.7704  141.1208  154.5536 C   0  0  0  0  0  0  0  0  0  0  0  0
  146.8521  140.3213  153.9610 C   0  0  0  0  0  0  0  0  0  0  0  0
  147.2508  139.0453  153.3766 C   0  0  0  0  0  0  0  0  0  0  0  0
  146.4939  138.2514  152.8225 O   0  0  0  0  0  0  0  0  0  0  0  0
  148.6139  138.7588  153.4880 N   0  0  0  0  0  0  0  0  0  0  0  0
  149.5659  139.5791  154.0953 C   0  0  0  0  0  0  0  0  0  0  0  0
  150.7457  139.2323  154.1355 O   0  0  0  0  0  0  0  0  0  0  0  0
  150.8422  142.4814  157.4804 N   0  0  0  0  0  0  0  0  0  0  0  0
  150.9576  142.6156  158.9278 C   0  0  0  0  0  0  0  0  0  0  0  0
  152.0207  143.6001  159.3684 C   0  0  0  0  0  0  0  0  0  0  0  0
  151.7381  145.0841  159.3629 C   0  0  0  0  0  0  0  0  0  0  0  0
  152.7144  144.4988  158.3712 C   0  0  0  0  0  0  0  0  0  0  0  0
  148.9372  137.8868  153.0949 H   0  0  0  0  0  0  0  0  0  0  0  0
  149.9010  142.7397  154.9285 H   0  0  0  0  0  0  0  0  0  0  0  0
  151.0831  141.4736  155.0204 H   0  0  0  0  0  0  0  0  0  0  0  0
  147.4298  142.0587  154.9691 H   0  0  0  0  0  0  0  0  0  0  0  0
  145.8169  140.6279  153.9182 H   0  0  0  0  0  0  0  0  0  0  0  0
  151.4903  143.0215  156.9257 H   0  0  0  0  0  0  0  0  0  0  0  0
  149.9898  142.9308  159.3194 H   0  0  0  0  0  0  0  0  0  0  0  0
  151.1779  141.6558  159.3971 H   0  0  0  0  0  0  0  0  0  0  0  0
  152.6271  143.2451  160.1998 H   0  0  0  0  0  0  0  0  0  0  0  0
  150.7745  145.4161  158.9811 H   0  0  0  0  0  0  0  0  0  0  0  0
  152.1452  145.6768  160.1796 H   0  0  0  0  0  0  0  0  0  0  0  0
  153.7726  144.6991  158.5278 H   0  0  0  0  0  0  0  0  0  0  0  0
  152.3998  144.4421  157.3310 H   0  0  0  0  0  0  0  0  0  0  0  0
  1  2  2  0  0  0  0
  2  3  1  0  0  0  0
  2 12  1  0  0  0  0
  3  4  1  0  0  0  0
  3 18  1  0  0  0  0
  3 19  1  0  0  0  0
  4 10  1  0  0  0  0
  4  5  1  0  0  0  0
  5  6  2  0  0  0  0
  5 20  1  0  0  0  0
  6  7  1  0  0  0  0
  6 21  1  0  0  0  0
  7  8  2  0  0  0  0
  7  9  1  0  0  0  0
  9 17  1  0  0  0  0
  9 10  1  0  0  0  0
 10 11  2  0  0  0  0
 12 13  1  0  0  0  0
 12 22  1  0  0  0  0
 13 14  1  0  0  0  0
 13 23  1  0  0  0  0
 13 24  1  0  0  0  0
 14 16  1  0  0  0  0
 14 15  1  0  0  0  0
 14 25  1  0  0  0  0
 15 16  1  0  0  0  0
 15 26  1  0  0  0  0
 15 27  1  0  0  0  0
 16 28  1  0  0  0  0
 16 29  1  0  0  0  0
M  END
> <s_m_source_file>
AV-unprocessed.smi

> <i_m_source_file_index>
2176

> <i_lp_mmshare_version>
43012

> <i_f3d_flags>
0

> <s_epik_input>
W0NIMl0xW0NIMl1bQ0hdMVtDSDJdW05IXUMoPU8pW0NIMl1uMltjSF1bY0hdYyg9TylbbkhdYzI9Tw==

> <s_epik_cmdline>
J2VwaWtfcHl0aG9uJywgJy1waCcsICc3LjAnLCAnLXRuJywgJzgnLCAnLW1hJywgJzIwMCcsICctbWV0YWxfYmluZGluZycsICctaW1hZScsICc8aW5maWxlLm1hZT4nLCAnLW9tYWUnLCAnPG91dGZpbGUubWFlPic=

> <r_lp_tautomer_probability>
0.999537

> <r_epik_Ionization_Penalty>
0.00328917

> <r_epik_Ionization_Penalty_Charging>
0.00328916

> <r_epik_Ionization_Penalty_Neutral>
1.93017e-08

> <r_epik_State_Penalty>
0.00232387

> <r_epik_Charging_Adjusted_Penalty>
0.00561303

> <i_epik_Tot_Q>
0

> <i_epik_Tot_abs_Q>
0

> <r_epik_Metal_State_Penalty>
0.365274

> <b_epik_Metal_Only>
0

> <s_lp_Force_Field>
OPLS_2005

> <r_lp_Energy>
12.7002

> <b_lp_Chiralities_Consistent>
1

> <s_lp_Variant>
AV-unprocessed.smi:2176-1

> <Gold.Version>
5.8.1

> <Gold.Id.Protein>
6NUR|6NUR_protein|mol2

> <Gold.PLP.Fitness>
37.8443

> <Gold.PLP.PLP>
-32.6178

> <Gold.PLP.part.hbond>
-3.0000

> <Gold.PLP.part.metal>
0.0000

> <Gold.PLP.part.buried>
-1.9698

> <Gold.PLP.part.nonpolar>
-27.9726

> <Gold.PLP.part.repulsive>
0.5786

> <Gold.PLP.ligand.clash>
0.0000

> <Gold.PLP.ligand.torsion>
0.6606

> <Gold.PLP.Chemscore.Hbond>
2.0000

> <Gold.PLP.Chemscore.CHOScore>
0.0000

> <Gold.PLP.Chemscore.Metal>
0.0000

> <Gold.Chemscore.Hbonds>
donor molecule, donor type, donor heavy atom, donor atom, acceptor molecule, acceptor atom, score
      L1  H     9    17       P1  7948  0.98
      P1  H  7989  7998       L1    11  1.00

> <Gold.PLP.Chemscore.Internal.Correction>
0.5478

> <Gold.Rescore>
     Score         DG    S(hbond)    S(metal)    S(lipo)     H(rot)  DE(clash)    DE(int)     intcor
     11.35     -12.52       1.24        0.00      69.41       2.04       0.51       0.66       ----

> <Gold.Chemscore.Fitness>
11.3459

> <Gold.Chemscore.DG>
-12.5193

> <Gold.Chemscore.ZeroCoef>
-5.4800

> <Gold.Chemscore.Hbond>
1.2358

> <Gold.Chemscore.Metal>
0.0000

> <Gold.Chemscore.Lipo>
69.4149

> <Gold.Chemscore.Internal_Hbond>
0.0000

> <Gold.Chemscore.DEClash>
0.5089

> <Gold.Chemscore.DEInternal>
0.6645

> <Gold.Chemscore.Rot>
2.0351

> <Gold.Chemscore.Internal.Correction>
   9.000000E+99

> <Gold.Chemscore.Hbonds>
donor molecule, donor type, donor heavy atom, donor atom, acceptor molecule, acceptor atom, score
      L1  H     9    17       P1  7948  0.92
      P1  H  7989  7998       L1    11  0.29

> <Gold.Chemscore.Hbond.Weighted>
-4.1275

> <Gold.Chemscore.Metal.Weighted>
-0.0000

> <Gold.Chemscore.Lipo.Weighted>
-8.1215

> <Gold.Chemscore.Internal_Hbond.Weighted>
0.0000

> <Gold.Chemscore.DEClash.Weighted>
0.5089

> <Gold.Chemscore.DEInternal.Weighted>
0.6645

> <Gold.Chemscore.Rot.Weighted>
5.2098

> <Gold.Chemscore.Internal.Correction.Weighted>
   9.000000E+99

> <Gold.Protein.RotatedTorsions>
[ 6907 6896 6895 6894 ] final  -49.62 input  -60.11 | X-H torsion
[ 7974 7965 7964 7962 ] final  111.79 input  175.53 | X-H torsion
[ 8008 7997 7996 7995 ] final -125.15 input   59.86 | X-H torsion
[ 10167 10162 10161 10158 ] final  153.80 input  -65.29 | X-H torsion
[ 10718 10713 10712 10709 ] final -133.38 input   66.30 | X-H torsion
[ 10763 10752 10751 10750 ] final  -35.13 input  -60.55 | X-H torsion
[ 11005 11000 10999 10996 ] final   47.06 input  -57.11 | X-H torsion

> <Gold.Protein.ActiveResidues>
 VAL166  LYS551  ARG553  GLY616  TRP617  ASP618  TYR619  PRO620  LYS621  CYS622 
 ASP623  PHE694  ASN695  SER759  ASP760  ASP761  ALA762  ILE779  LEU786  VAL792 
 PHE793  MET794  SER795  GLU796  ALA797  LYS798  CYS799  TRP800  GLU811  SER814 

> <Gold.Protein.RotatedAtoms>
  150.8787  134.8174  159.7208 H   0  0  0  0  0  0  0  0  0  0  0  0  # atno 6907 bound_to 6896
  152.4763  134.4830  159.9681 H   0  0  0  0  0  0  0  0  0  0  0  0  # atno 6908 bound_to 6896
  151.4908  133.3486  159.2888 H   0  0  0  0  0  0  0  0  0  0  0  0  # atno 6909 bound_to 6896
  145.2377  139.2792  143.4134 H   0  0  0  0  0  0  0  0  0  0  0  0  # atno 7974 bound_to 7965
  155.2086  140.0418  157.2929 H   0  0  0  0  0  0  0  0  0  0  0  0  # atno 8008 bound_to 7997
  154.6027  140.2456  155.7743 H   0  0  0  0  0  0  0  0  0  0  0  0  # atno 8009 bound_to 7997
  156.2331  140.2931  156.0249 H   0  0  0  0  0  0  0  0  0  0  0  0  # atno 8010 bound_to 7997
  139.4825  144.5242  151.7828 H   0  0  0  0  0  0  0  0  0  0  0  0  # atno 10167 bound_to 10162
  156.2444  130.7115  151.0989 H   0  0  0  0  0  0  0  0  0  0  0  0  # atno 10718 bound_to 10713
  153.8581  135.6842  153.4785 H   0  0  0  0  0  0  0  0  0  0  0  0  # atno 10763 bound_to 10752
  153.1358  135.4678  154.9417 H   0  0  0  0  0  0  0  0  0  0  0  0  # atno 10764 bound_to 10752
  154.7771  135.3257  154.8018 H   0  0  0  0  0  0  0  0  0  0  0  0  # atno 10765 bound_to 10752
  140.1312  134.4703  155.8520 H   0  0  0  0  0  0  0  0  0  0  0  0  # atno 11005 bound_to 11000
  146.3337  140.2731  142.8607 LP  0  0  0  0  0  0  0  0  0  0  0  0  # atno 17320 bound_to 7965
  144.9618  140.8282  143.5509 LP  0  0  0  0  0  0  0  0  0  0  0  0  # atno 17321 bound_to 7965
  140.4760  144.1519  150.5925 LP  0  0  0  0  0  0  0  0  0  0  0  0  # atno 17342 bound_to 10162
  140.4330  143.2559  151.9571 LP  0  0  0  0  0  0  0  0  0  0  0  0  # atno 17343 bound_to 10162
  157.7189  131.0694  150.6218 LP  0  0  0  0  0  0  0  0  0  0  0  0  # atno 17370 bound_to 10713
  156.6293  130.4427  149.5792 LP  0  0  0  0  0  0  0  0  0  0  0  0  # atno 17371 bound_to 10713
  141.2170  133.6797  156.7073 LP  0  0  0  0  0  0  0  0  0  0  0  0  # atno 17394 bound_to 11000
  140.2839  134.8294  157.3958 LP  0  0  0  0  0  0  0  0  0  0  0  0  # atno 17395 bound_to 11000

$$$$
