AV-unprocessed.smi:1875|AV-procd|sdf|7619|dock3
  -GOLD-   22720 9343D 1   1.00000     0.00000
 Structure written by MMmdl.
 48 50  0  0  0  0  0  0  0  0  2 V2000
  142.8285  146.4460  155.1357 C   0  0  0  0  0  0  0  0  0  0  0  0
  143.8459  145.6132  154.3839 C   0  0  0  0  0  0  0  0  0  0  0  0
  144.1590  146.0155  153.1482 N   0  0  0  0  0  0  0  0  0  0  0  0
  145.0611  145.2696  152.4734 C   0  0  0  0  0  0  0  0  0  0  0  0
  145.6467  144.1197  153.0402 C   0  0  0  0  0  0  0  0  0  0  0  0
  145.2372  143.7952  154.3506 C   0  0  0  0  0  0  0  0  0  0  0  0
  145.7823  142.5763  155.0647 C   0  0  0  0  0  0  0  0  0  0  0  0
  145.9927  141.4596  154.1501 N   0  0  0  0  0  0  0  0  0  0  0  0
  147.3090  141.4751  153.5212 C   0  0  0  0  0  0  0  0  0  0  0  0
  148.3808  140.8720  154.4491 C   0  0  1  0  0  0  0  0  0  0  0  0
  149.6001  140.8041  153.7393 O   0  0  0  0  0  0  0  0  0  0  0  0
  148.6434  141.7059  155.7188 C   0  0  0  0  0  0  0  0  0  0  0  0
  149.3989  140.9706  156.7431 N   0  0  0  0  0  0  0  0  0  0  0  0
  149.2677  139.6788  157.1502 C   0  0  0  0  0  0  0  0  0  0  0  0
  150.1985  139.4557  158.1183 N   0  3  0  0  0  0  0  0  0  0  0  0
  150.9361  140.6217  158.3328 C   0  0  0  0  0  0  0  0  0  0  0  0
  151.9813  140.8874  159.2095 C   0  0  0  0  0  0  0  0  0  0  0  0
  152.5227  142.1923  159.1917 C   0  0  0  0  0  0  0  0  0  0  0  0
  153.6639  142.5171  160.1407 C   0  0  0  0  0  0  0  0  0  0  0  0
  152.0131  143.1817  158.3114 C   0  0  0  0  0  0  0  0  0  0  0  0
  152.5966  144.5844  158.3065 C   0  0  0  0  0  0  0  0  0  0  0  0
  150.9537  142.8897  157.4226 C   0  0  0  0  0  0  0  0  0  0  0  0
  150.4299  141.5988  157.4532 C   0  0  0  0  0  0  0  0  0  0  0  0
  144.3331  144.5437  155.0206 N   0  0  0  0  0  0  0  0  0  0  0  0
  142.8258  147.4776  154.7817 H   0  0  0  0  0  0  0  0  0  0  0  0
  143.0481  146.4575  156.2040 H   0  0  0  0  0  0  0  0  0  0  0  0
  141.8293  146.0328  154.9956 H   0  0  0  0  0  0  0  0  0  0  0  0
  145.3156  145.5910  151.4744 H   0  0  0  0  0  0  0  0  0  0  0  0
  146.3662  143.5224  152.4996 H   0  0  0  0  0  0  0  0  0  0  0  0
  146.7209  142.8488  155.5488 H   0  0  0  0  0  0  0  0  0  0  0  0
  145.0927  142.2883  155.8595 H   0  0  0  0  0  0  0  0  0  0  0  0
  145.2774  141.4806  153.4306 H   0  0  0  0  0  0  0  0  0  0  0  0
  147.2914  140.9434  152.5687 H   0  0  0  0  0  0  0  0  0  0  0  0
  147.5621  142.5091  153.2903 H   0  0  0  0  0  0  0  0  0  0  0  0
  148.0944  139.8618  154.7456 H   0  0  0  0  0  0  0  0  0  0  0  0
  149.4082  140.6600  152.8252 H   0  0  0  0  0  0  0  0  0  0  0  0
  149.2359  142.5866  155.4659 H   0  0  0  0  0  0  0  0  0  0  0  0
  147.7139  142.0807  156.1473 H   0  0  0  0  0  0  0  0  0  0  0  0
  148.5546  138.9604  156.7721 H   0  0  0  0  0  0  0  0  0  0  0  0
  152.3620  140.1296  159.8787 H   0  0  0  0  0  0  0  0  0  0  0  0
  154.5332  142.8757  159.5887 H   0  0  0  0  0  0  0  0  0  0  0  0
  153.9711  141.6393  160.7101 H   0  0  0  0  0  0  0  0  0  0  0  0
  153.3621  143.2869  160.8515 H   0  0  0  0  0  0  0  0  0  0  0  0
  152.0648  145.2354  157.6120 H   0  0  0  0  0  0  0  0  0  0  0  0
  153.6448  144.5618  158.0078 H   0  0  0  0  0  0  0  0  0  0  0  0
  152.5279  145.0318  159.2982 H   0  0  0  0  0  0  0  0  0  0  0  0
  150.5671  143.6460  156.7559 H   0  0  0  0  0  0  0  0  0  0  0  0
  150.3189  138.5718  158.5962 H   0  0  0  0  0  0  0  0  0  0  0  0
  1  2  1  0  0  0  0
  1 25  1  0  0  0  0
  1 26  1  0  0  0  0
  1 27  1  0  0  0  0
  2 24  1  0  0  0  0
  2  3  2  0  0  0  0
  3  4  1  0  0  0  0
  4  5  2  0  0  0  0
  4 28  1  0  0  0  0
  5  6  1  0  0  0  0
  5 29  1  0  0  0  0
  6  7  1  0  0  0  0
  6 24  2  0  0  0  0
  7  8  1  0  0  0  0
  7 30  1  0  0  0  0
  7 31  1  0  0  0  0
  8  9  1  0  0  0  0
  8 32  1  0  0  0  0
  9 10  1  0  0  0  0
  9 33  1  0  0  0  0
  9 34  1  0  0  0  0
 10 11  1  0  0  0  0
 10 12  1  0  0  0  0
 10 35  1  0  0  0  0
 11 36  1  0  0  0  0
 12 13  1  0  0  0  0
 12 37  1  0  0  0  0
 12 38  1  0  0  0  0
 13 23  1  0  0  0  0
 13 14  1  0  0  0  0
 14 15  2  0  0  0  0
 14 39  1  0  0  0  0
 15 16  1  0  0  0  0
 15 48  1  0  0  0  0
 16 23  2  0  0  0  0
 16 17  1  0  0  0  0
 17 18  2  0  0  0  0
 17 40  1  0  0  0  0
 18 19  1  0  0  0  0
 18 20  1  0  0  0  0
 19 41  1  0  0  0  0
 19 42  1  0  0  0  0
 19 43  1  0  0  0  0
 20 21  1  0  0  0  0
 20 22  2  0  0  0  0
 21 44  1  0  0  0  0
 21 45  1  0  0  0  0
 21 46  1  0  0  0  0
 22 23  1  0  0  0  0
 22 47  1  0  0  0  0
M  CHG  1  15   1
M  END
> <s_m_source_file>
AV-unprocessed.smi

> <i_m_source_file_index>
1875

> <i_lp_mmshare_version>
43012

> <i_f3d_flags>
0

> <s_epik_input>
W0NIM11jMW5bY0hdW2NIXWMobjEpW0NIMl1bTkhdW0NIMl1bQ0BIXShbT0hdKVtDSDJdbihbY0hdbjIpYyhjMjMpW2NIXWMoW0NIM10pYyhbY0hdMylbQ0gzXQ==

> <s_epik_cmdline>
J2VwaWtfcHl0aG9uJywgJy1waCcsICc3LjAnLCAnLXRuJywgJzgnLCAnLW1hJywgJzIwMCcsICctbWV0YWxfYmluZGluZycsICctaW1hZScsICc8aW5maWxlLm1hZT4nLCAnLW9tYWUnLCAnPG91dGZpbGUubWFlPic=

> <r_epik_Ionization_Penalty>
2.02862

> <r_epik_Ionization_Penalty_Charging>
1.0004

> <r_epik_Ionization_Penalty_Neutral>
1.02823

> <r_epik_State_Penalty>
2.23022

> <r_epik_Charging_Adjusted_Penalty>
3.23062

> <i_epik_Tot_Q>
1

> <i_epik_Tot_abs_Q>
1

> <r_epik_Metal_State_Penalty>
2.31249

> <b_epik_Metal_Only>
0

> <s_epik_Chemistry_Notes>
This compound contains an electron-poor aromatic ring that is susceptible to covalent hydrolysis at low pH, typically resulting in measured values for nitrogen ring protonation that are around two units higher than predicted values.

> <s_lp_Force_Field>
OPLS_2005

> <r_lp_Energy>
17.8623

> <b_lp_Chiralities_Consistent>
1

> <s_lp_Variant>
AV-unprocessed.smi:1875-8

> <Gold.Version>
5.8.1

> <Gold.Id.Protein>
6NUR|6NUR_protein|mol2

> <Gold.PLP.Fitness>
58.8113

> <Gold.PLP.PLP>
-54.4387

> <Gold.PLP.part.hbond>
-5.8842

> <Gold.PLP.part.metal>
0.0000

> <Gold.PLP.part.buried>
-5.6686

> <Gold.PLP.part.nonpolar>
-43.2095

> <Gold.PLP.part.repulsive>
0.3636

> <Gold.PLP.ligand.clash>
0.0000

> <Gold.PLP.ligand.torsion>
0.9785

> <Gold.PLP.Chemscore.Hbond>
2.0837

> <Gold.PLP.Chemscore.CHOScore>
0.0000

> <Gold.PLP.Chemscore.Metal>
0.0000

> <Gold.Chemscore.Hbonds>
donor molecule, donor type, donor heavy atom, donor atom, acceptor molecule, acceptor atom, score
      L1  H     8    32       P1 10175  0.62
      L1  H    11    36       P1  7957  1.00
      P1  H  7989  7998       L1    11  0.30

> <Gold.PLP.Chemscore.Internal.Correction>
0.0785

> <Gold.Rescore>
     Score         DG    S(hbond)    S(metal)    S(lipo)     H(rot)  DE(clash)    DE(int)     intcor
     18.32     -19.44       1.91        0.00     126.27       2.80       0.16       0.95       ----

> <Gold.Chemscore.Fitness>
18.3240

> <Gold.Chemscore.DG>
-19.4406

> <Gold.Chemscore.ZeroCoef>
-5.4800

> <Gold.Chemscore.Hbond>
1.9053

> <Gold.Chemscore.Metal>
0.0000

> <Gold.Chemscore.Lipo>
126.2650

> <Gold.Chemscore.Internal_Hbond>
0.0000

> <Gold.Chemscore.DEClash>
0.1618

> <Gold.Chemscore.DEInternal>
0.9548

> <Gold.Chemscore.Rot>
2.8032

> <Gold.Chemscore.Internal.Correction>
   9.000000E+99

> <Gold.Chemscore.Hbonds>
donor molecule, donor type, donor heavy atom, donor atom, acceptor molecule, acceptor atom, score
      L1  H     8    32       P1 10175  0.07
      L1  H    11    36       P1  7957  0.99
      P1  H  7989  7998       L1    11  0.03

> <Gold.Chemscore.Hbond.Weighted>
-6.3637

> <Gold.Chemscore.Metal.Weighted>
-0.0000

> <Gold.Chemscore.Lipo.Weighted>
-14.7730

> <Gold.Chemscore.Internal_Hbond.Weighted>
0.0000

> <Gold.Chemscore.DEClash.Weighted>
0.1618

> <Gold.Chemscore.DEInternal.Weighted>
0.9548

> <Gold.Chemscore.Rot.Weighted>
7.1761

> <Gold.Chemscore.Internal.Correction.Weighted>
   9.000000E+99

> <Gold.Protein.RotatedTorsions>
[ 6907 6896 6895 6894 ] final -114.13 input  -60.11 | X-H torsion
[ 7974 7965 7964 7962 ] final  127.11 input  175.53 | X-H torsion
[ 8008 7997 7996 7995 ] final   23.28 input   59.86 | X-H torsion
[ 10167 10162 10161 10158 ] final  -71.25 input  -65.29 | X-H torsion
[ 10718 10713 10712 10709 ] final  177.03 input   66.30 | X-H torsion
[ 10763 10752 10751 10750 ] final  -35.72 input  -60.55 | X-H torsion
[ 11005 11000 10999 10996 ] final   35.48 input  -57.11 | X-H torsion

> <Gold.Protein.ActiveResidues>
 VAL166  LYS551  ARG553  GLY616  TRP617  ASP618  TYR619  PRO620  LYS621  CYS622 
 ASP623  PHE694  ASN695  SER759  ASP760  ASP761  ALA762  ILE779  LEU786  VAL792 
 PHE793  MET794  SER795  GLU796  ALA797  LYS798  CYS799  TRP800  GLU811  SER814 

> <Gold.Protein.RotatedAtoms>
  150.7879  133.8846  159.3295 H   0  0  0  0  0  0  0  0  0  0  0  0  # atno 6907 bound_to 6896
  151.6691  135.0977  160.0204 H   0  0  0  0  0  0  0  0  0  0  0  0  # atno 6908 bound_to 6896
  152.3947  133.6691  159.6302 H   0  0  0  0  0  0  0  0  0  0  0  0  # atno 6909 bound_to 6896
  145.0542  139.3858  143.5038 H   0  0  0  0  0  0  0  0  0  0  0  0  # atno 7974 bound_to 7965
  154.9785  140.3099  155.4957 H   0  0  0  0  0  0  0  0  0  0  0  0  # atno 8008 bound_to 7997
  156.2956  140.2271  156.4822 H   0  0  0  0  0  0  0  0  0  0  0  0  # atno 8009 bound_to 7997
  154.7811  140.0446  157.1116 H   0  0  0  0  0  0  0  0  0  0  0  0  # atno 8010 bound_to 7997
  140.5288  143.2323  151.7299 H   0  0  0  0  0  0  0  0  0  0  0  0  # atno 10167 bound_to 10162
  156.9113  130.9911  151.3020 H   0  0  0  0  0  0  0  0  0  0  0  0  # atno 10718 bound_to 10713
  153.8678  135.6834  153.4777 H   0  0  0  0  0  0  0  0  0  0  0  0  # atno 10763 bound_to 10752
  153.1304  135.4700  154.9338 H   0  0  0  0  0  0  0  0  0  0  0  0  # atno 10764 bound_to 10752
  154.7728  135.3244  154.8104 H   0  0  0  0  0  0  0  0  0  0  0  0  # atno 10765 bound_to 10752
  140.2423  134.3401  155.7921 H   0  0  0  0  0  0  0  0  0  0  0  0  # atno 11005 bound_to 11000
  146.3520  140.0208  142.8659 LP  0  0  0  0  0  0  0  0  0  0  0  0  # atno 17320 bound_to 7965
  145.1489  140.9612  143.4444 LP  0  0  0  0  0  0  0  0  0  0  0  0  # atno 17321 bound_to 7965
  139.4947  144.4145  152.0044 LP  0  0  0  0  0  0  0  0  0  0  0  0  # atno 17342 bound_to 10162
  140.3246  144.3388  150.6001 LP  0  0  0  0  0  0  0  0  0  0  0  0  # atno 17343 bound_to 10162
  157.5965  130.8482  149.8738 LP  0  0  0  0  0  0  0  0  0  0  0  0  # atno 17370 bound_to 10713
  156.0534  130.3713  150.1147 LP  0  0  0  0  0  0  0  0  0  0  0  0  # atno 17371 bound_to 10713
  141.2209  133.7305  156.8904 LP  0  0  0  0  0  0  0  0  0  0  0  0  # atno 17394 bound_to 11000
  140.1641  134.9145  157.2752 LP  0  0  0  0  0  0  0  0  0  0  0  0  # atno 17395 bound_to 11000

$$$$
