AV-unprocessed.smi:3345|AV-procd|sdf|12902|dock4
  -GOLD-   2272019313D 1   1.00000     0.00000
 Structure written by MMmdl.
 40 41  0  0  0  0  0  0  0  0  1 V2000
  151.4639  140.6668  158.5107 C   0  0  0  0  0  0  0  0  0  0  0  0
  152.8228  140.9614  159.1589 C   0  0  1  0  0  0  0  0  0  0  0  0
  152.7086  142.0411  160.2569 C   0  0  0  0  0  0  0  0  0  0  0  0
  151.9560  143.2409  159.8828 N   0  0  0  0  0  0  0  0  0  0  0  0
  152.0192  144.2892  160.8981 C   0  0  0  0  0  0  0  0  0  0  0  0
  151.2204  145.5358  160.4805 C   0  0  0  0  0  0  0  0  0  0  0  0
  151.6977  146.0122  159.2265 O   0  0  0  0  0  0  0  0  0  0  0  0
  151.6148  145.0311  158.1979 C   0  0  0  0  0  0  0  0  0  0  0  0
  152.4145  143.7828  158.6093 C   0  0  0  0  0  0  0  0  0  0  0  0
  153.3633  139.7346  159.7395 N   0  0  0  0  0  0  0  0  0  0  0  0
  153.5398  138.5705  159.0939 C   0  0  0  0  0  0  0  0  0  0  0  0
  153.0962  138.3450  157.9674 O   0  0  0  0  0  0  0  0  0  0  0  0
  154.3924  137.5244  159.8270 C   0  0  1  0  0  0  0  0  0  0  0  0
  153.7928  137.1025  161.1843 C   0  0  0  0  0  0  0  0  0  0  0  0
  154.6267  136.3859  158.9453 N   0  0  0  0  0  0  0  0  0  0  0  0
  155.1528  136.3465  157.7187 C   0  0  0  0  0  0  0  0  0  0  0  0
  155.1525  135.1403  157.1695 N   0  0  0  0  0  0  0  0  0  0  0  0
  154.5589  134.4327  158.1757 C   0  0  0  0  0  0  0  0  0  0  0  0
  154.2139  135.1317  159.2567 N   0  0  0  0  0  0  0  0  0  0  0  0
  151.0422  141.5664  158.0616 H   0  0  0  0  0  0  0  0  0  0  0  0
  150.7460  140.2916  159.2410 H   0  0  0  0  0  0  0  0  0  0  0  0
  151.5594  139.9192  157.7225 H   0  0  0  0  0  0  0  0  0  0  0  0
  153.4787  141.3318  158.3700 H   0  0  0  0  0  0  0  0  0  0  0  0
  152.2747  141.6011  161.1560 H   0  0  0  0  0  0  0  0  0  0  0  0
  153.7211  142.3398  160.5328 H   0  0  0  0  0  0  0  0  0  0  0  0
  151.6238  143.9256  161.8455 H   0  0  0  0  0  0  0  0  0  0  0  0
  153.0584  144.5680  161.0785 H   0  0  0  0  0  0  0  0  0  0  0  0
  150.1564  145.3056  160.4096 H   0  0  0  0  0  0  0  0  0  0  0  0
  151.3284  146.3232  161.2266 H   0  0  0  0  0  0  0  0  0  0  0  0
  150.5704  144.7776  158.0117 H   0  0  0  0  0  0  0  0  0  0  0  0
  152.0125  145.4486  157.2729 H   0  0  0  0  0  0  0  0  0  0  0  0
  153.4734  144.0372  158.6750 H   0  0  0  0  0  0  0  0  0  0  0  0
  152.3229  143.0254  157.8300 H   0  0  0  0  0  0  0  0  0  0  0  0
  153.7526  139.8154  160.6673 H   0  0  0  0  0  0  0  0  0  0  0  0
  155.3638  137.9792  160.0288 H   0  0  0  0  0  0  0  0  0  0  0  0
  153.6835  137.9605  161.8484 H   0  0  0  0  0  0  0  0  0  0  0  0
  154.4385  136.3818  161.6866 H   0  0  0  0  0  0  0  0  0  0  0  0
  152.8094  136.6431  161.0744 H   0  0  0  0  0  0  0  0  0  0  0  0
  155.5345  137.2212  157.2129 H   0  0  0  0  0  0  0  0  0  0  0  0
  154.3662  133.3723  158.1054 H   0  0  0  0  0  0  0  0  0  0  0  0
  1  2  1  0  0  0  0
  1 20  1  0  0  0  0
  1 21  1  0  0  0  0
  1 22  1  0  0  0  0
  2  3  1  0  0  0  0
  2 10  1  0  0  0  0
  2 23  1  0  0  0  0
  3  4  1  0  0  0  0
  3 24  1  0  0  0  0
  3 25  1  0  0  0  0
  4  9  1  0  0  0  0
  4  5  1  0  0  0  0
  5  6  1  0  0  0  0
  5 26  1  0  0  0  0
  5 27  1  0  0  0  0
  6  7  1  0  0  0  0
  6 28  1  0  0  0  0
  6 29  1  0  0  0  0
  7  8  1  0  0  0  0
  8  9  1  0  0  0  0
  8 30  1  0  0  0  0
  8 31  1  0  0  0  0
  9 32  1  0  0  0  0
  9 33  1  0  0  0  0
 10 11  1  0  0  0  0
 10 34  1  0  0  0  0
 11 12  2  0  0  0  0
 11 13  1  0  0  0  0
 13 14  1  0  0  0  0
 13 15  1  0  0  0  0
 13 35  1  0  0  0  0
 14 36  1  0  0  0  0
 14 37  1  0  0  0  0
 14 38  1  0  0  0  0
 15 19  1  0  0  0  0
 15 16  1  0  0  0  0
 16 17  2  0  0  0  0
 16 39  1  0  0  0  0
 17 18  1  0  0  0  0
 18 19  2  0  0  0  0
 18 40  1  0  0  0  0
M  END
> <s_m_source_file>
AV-unprocessed.smi

> <i_m_source_file_index>
3345

> <i_lp_mmshare_version>
43012

> <i_f3d_flags>
0

> <s_epik_input>
W0NIMl0xW0NIMl1PW0NIMl1bQ0gyXU4xW0NIMl1bQ0BASF0oW0NIM10pW05IXUMoPU8pW0NASF0oW0NIM10pbjJbY0hdbltjSF1uMg==

> <s_epik_cmdline>
J2VwaWtfcHl0aG9uJywgJy1waCcsICc3LjAnLCAnLXRuJywgJzgnLCAnLW1hJywgJzIwMCcsICctbWV0YWxfYmluZGluZycsICctaW1hZScsICc8aW5maWxlLm1hZT4nLCAnLW9tYWUnLCAnPG91dGZpbGUubWFlPic=

> <r_lp_tautomer_probability>
1

> <r_epik_Ionization_Penalty>
0.211373

> <r_epik_Ionization_Penalty_Charging>
0

> <r_epik_Ionization_Penalty_Neutral>
0.211373

> <r_epik_State_Penalty>
0.201459

> <r_epik_Charging_Adjusted_Penalty>
0.201459

> <i_epik_Tot_Q>
0

> <i_epik_Tot_abs_Q>
0

> <r_epik_Metal_State_Penalty>
0.201458

> <b_epik_Metal_Only>
0

> <s_lp_Force_Field>
OPLS_2005

> <r_lp_Energy>
29.1888

> <b_lp_Chiralities_Consistent>
1

> <s_lp_Variant>
AV-unprocessed.smi:3345-4

> <Gold.Version>
5.8.1

> <Gold.Id.Protein>
6NUR|6NUR_protein|mol2

> <Gold.PLP.Fitness>
39.5278

> <Gold.PLP.PLP>
-33.6525

> <Gold.PLP.part.hbond>
-3.0000

> <Gold.PLP.part.metal>
0.0000

> <Gold.PLP.part.buried>
-4.9108

> <Gold.PLP.part.nonpolar>
-25.5417

> <Gold.PLP.part.repulsive>
0.2018

> <Gold.PLP.ligand.clash>
0.0000

> <Gold.PLP.ligand.torsion>
0.1948

> <Gold.PLP.Chemscore.Hbond>
2.0000

> <Gold.PLP.Chemscore.CHOScore>
0.0000

> <Gold.PLP.Chemscore.Metal>
0.0000

> <Gold.Chemscore.Hbonds>
donor molecule, donor type, donor heavy atom, donor atom, acceptor molecule, acceptor atom, score
      P1  H  6896  6908       L1    19  1.00
      P1  H 10752 10764       L1    17  0.98

> <Gold.PLP.Chemscore.Internal.Correction>
0.2649

> <Gold.Rescore>
     Score         DG    S(hbond)    S(metal)    S(lipo)     H(rot)  DE(clash)    DE(int)     intcor
     10.29     -12.23       0.99        0.00      84.88       2.54       0.00       1.93       ----

> <Gold.Chemscore.Fitness>
10.2944

> <Gold.Chemscore.DG>
-12.2294

> <Gold.Chemscore.ZeroCoef>
-5.4800

> <Gold.Chemscore.Hbond>
0.9906

> <Gold.Chemscore.Metal>
0.0000

> <Gold.Chemscore.Lipo>
84.8837

> <Gold.Chemscore.Internal_Hbond>
0.0000

> <Gold.Chemscore.DEClash>
0.0029

> <Gold.Chemscore.DEInternal>
1.9321

> <Gold.Chemscore.Rot>
2.5353

> <Gold.Chemscore.Internal.Correction>
   9.000000E+99

> <Gold.Chemscore.Hbonds>
donor molecule, donor type, donor heavy atom, donor atom, acceptor molecule, acceptor atom, score
      P1  H  6896  6908       L1    19  0.38
      P1  H 10752 10764       L1    17  0.64

> <Gold.Chemscore.Hbond.Weighted>
-3.3085

> <Gold.Chemscore.Metal.Weighted>
-0.0000

> <Gold.Chemscore.Lipo.Weighted>
-9.9314

> <Gold.Chemscore.Internal_Hbond.Weighted>
0.0000

> <Gold.Chemscore.DEClash.Weighted>
0.0029

> <Gold.Chemscore.DEInternal.Weighted>
1.9321

> <Gold.Chemscore.Rot.Weighted>
6.4905

> <Gold.Chemscore.Internal.Correction.Weighted>
   9.000000E+99

> <Gold.Protein.RotatedTorsions>
[ 6907 6896 6895 6894 ] final  -31.55 input  -60.11 | X-H torsion
[ 7974 7965 7964 7962 ] final  -30.66 input  175.53 | X-H torsion
[ 8008 7997 7996 7995 ] final   76.19 input   59.86 | X-H torsion
[ 10167 10162 10161 10158 ] final    5.92 input  -65.29 | X-H torsion
[ 10718 10713 10712 10709 ] final  150.58 input   66.30 | X-H torsion
[ 10763 10752 10751 10750 ] final   53.68 input  -60.55 | X-H torsion
[ 11005 11000 10999 10996 ] final -137.83 input  -57.11 | X-H torsion

> <Gold.Protein.ActiveResidues>
 VAL166  LYS551  ARG553  GLY616  TRP617  ASP618  TYR619  PRO620  LYS621  CYS622 
 ASP623  PHE694  ASN695  SER759  ASP760  ASP761  ALA762  ILE779  LEU786  VAL792 
 PHE793  MET794  SER795  GLU796  ALA797  LYS798  CYS799  TRP800  GLU811  SER814 

> <Gold.Protein.RotatedAtoms>
  151.0906  134.9913  159.8400 H   0  0  0  0  0  0  0  0  0  0  0  0  # atno 6907 bound_to 6896
  152.5428  134.2070  159.8745 H   0  0  0  0  0  0  0  0  0  0  0  0  # atno 6908 bound_to 6896
  151.2106  133.4514  159.2631 H   0  0  0  0  0  0  0  0  0  0  0  0  # atno 6909 bound_to 6896
  146.1126  140.5568  142.8771 H   0  0  0  0  0  0  0  0  0  0  0  0  # atno 7974 bound_to 7965
  155.8237  140.3469  155.5530 H   0  0  0  0  0  0  0  0  0  0  0  0  # atno 8008 bound_to 7997
  155.8315  140.0928  157.1810 H   0  0  0  0  0  0  0  0  0  0  0  0  # atno 8009 bound_to 7997
  154.4004  140.1411  156.3607 H   0  0  0  0  0  0  0  0  0  0  0  0  # atno 8010 bound_to 7997
  140.6456  143.7671  150.7493 H   0  0  0  0  0  0  0  0  0  0  0  0  # atno 10167 bound_to 10162
  157.2817  131.0836  151.1527 H   0  0  0  0  0  0  0  0  0  0  0  0  # atno 10718 bound_to 10713
  152.9797  135.5770  154.4781 H   0  0  0  0  0  0  0  0  0  0  0  0  # atno 10763 bound_to 10752
  154.4334  135.2774  155.1899 H   0  0  0  0  0  0  0  0  0  0  0  0  # atno 10764 bound_to 10752
  154.3598  135.6191  153.5738 H   0  0  0  0  0  0  0  0  0  0  0  0  # atno 10765 bound_to 10752
  140.8674  134.2093  157.4671 H   0  0  0  0  0  0  0  0  0  0  0  0  # atno 11005 bound_to 11000
  144.7525  140.5226  143.6792 LP  0  0  0  0  0  0  0  0  0  0  0  0  # atno 17320 bound_to 7965
  145.5632  139.1480  143.3330 LP  0  0  0  0  0  0  0  0  0  0  0  0  # atno 17321 bound_to 7965
  140.1311  143.4525  152.2254 LP  0  0  0  0  0  0  0  0  0  0  0  0  # atno 17342 bound_to 10162
  139.5666  144.7439  151.4005 LP  0  0  0  0  0  0  0  0  0  0  0  0  # atno 17343 bound_to 10162
  157.2958  130.6818  149.6138 LP  0  0  0  0  0  0  0  0  0  0  0  0  # atno 17370 bound_to 10713
  155.9664  130.4407  150.5310 LP  0  0  0  0  0  0  0  0  0  0  0  0  # atno 17371 bound_to 10713
  139.8710  134.9758  156.4897 LP  0  0  0  0  0  0  0  0  0  0  0  0  # atno 17394 bound_to 11000
  140.8613  133.8058  155.9268 LP  0  0  0  0  0  0  0  0  0  0  0  0  # atno 17395 bound_to 11000

$$$$
