AV-unprocessed.smi:164|AV-procd|sdf|1382|dock5
  -GOLD-   2262019113D 1   1.00000     0.00000
 Structure written by MMmdl.
 53 55  0  0  0  0  0  0  0  0  1 V2000
  151.5699  144.4807  158.4938 C   0  0  0  0  0  0  0  0  0  0  0  0
  152.1917  143.1939  159.0089 C   0  0  0  0  0  0  0  0  0  0  0  0
  153.0454  143.2493  160.1293 C   0  0  0  0  0  0  0  0  0  0  0  0
  153.6362  142.0775  160.6336 C   0  0  0  0  0  0  0  0  0  0  0  0
  153.3740  140.8340  160.0266 C   0  0  0  0  0  0  0  0  0  0  0  0
  154.0237  139.5805  160.5833 C   0  0  0  0  0  0  0  0  0  0  0  0
  152.5078  140.7660  158.9108 C   0  0  0  0  0  0  0  0  0  0  0  0
  152.2474  139.5526  158.3278 O   0  0  0  0  0  0  0  0  0  0  0  0
  150.9537  139.0468  158.6244 C   0  0  0  0  0  0  0  0  0  0  0  0
  150.9064  137.5538  158.2617 C   0  0  2  0  0  0  0  0  0  0  0  0
  151.7990  137.3635  157.1817 O   0  0  0  0  0  0  0  0  0  0  0  0
  149.4961  137.1187  157.8030 C   0  0  0  0  0  0  0  0  0  0  0  0
  148.9945  135.9554  158.5174 N   0  0  0  0  0  0  0  0  0  0  0  0
  148.9325  134.7286  157.8127 C   0  0  0  0  0  0  0  0  0  0  0  0
  149.3114  134.6240  156.6447 O   0  0  0  0  0  0  0  0  0  0  0  0
  148.3644  133.6229  158.5744 C   0  0  0  0  0  0  0  0  0  0  0  0
  148.2226  132.4200  157.9928 F   0  0  0  0  0  0  0  0  0  0  0  0
  147.9566  133.7910  159.8509 C   0  0  0  0  0  0  0  0  0  0  0  0
  148.0592  134.9963  160.5309 N   0  0  0  0  0  0  0  0  0  0  0  0
  147.5143  135.1953  161.9377 C   0  0  2  0  0  0  0  0  0  0  0  0
  147.0086  133.9112  162.6088 C   0  0  0  0  0  0  0  0  0  0  0  0
  145.5037  133.9514  162.3544 C   0  0  0  0  0  0  0  0  0  0  0  0
  145.2730  135.2501  161.5746 C   0  0  0  0  0  0  0  0  0  0  0  0
  146.4139  136.0448  161.8678 O   0  0  0  0  0  0  0  0  0  0  0  0
  148.5455  136.1338  159.8472 C   0  0  0  0  0  0  0  0  0  0  0  0
  148.5666  137.2381  160.3958 O   0  0  0  0  0  0  0  0  0  0  0  0
  151.9277  141.9482  158.3860 C   0  0  0  0  0  0  0  0  0  0  0  0
  151.0207  141.8743  157.1647 C   0  0  0  0  0  0  0  0  0  0  0  0
  151.7444  145.3090  159.1813 H   0  0  0  0  0  0  0  0  0  0  0  0
  150.4916  144.3691  158.3766 H   0  0  0  0  0  0  0  0  0  0  0  0
  151.9987  144.7498  157.5282 H   0  0  0  0  0  0  0  0  0  0  0  0
  153.2545  144.1948  160.6082 H   0  0  0  0  0  0  0  0  0  0  0  0
  154.2909  142.1371  161.4908 H   0  0  0  0  0  0  0  0  0  0  0  0
  154.3125  138.9004  159.7815 H   0  0  0  0  0  0  0  0  0  0  0  0
  153.3321  139.0592  161.2452 H   0  0  0  0  0  0  0  0  0  0  0  0
  154.9213  139.8242  161.1524 H   0  0  0  0  0  0  0  0  0  0  0  0
  150.7864  139.1740  159.6943 H   0  0  0  0  0  0  0  0  0  0  0  0
  150.1660  139.6040  158.1130 H   0  0  0  0  0  0  0  0  0  0  0  0
  151.2272  136.9616  159.1196 H   0  0  0  0  0  0  0  0  0  0  0  0
  151.5360  136.5893  156.7075 H   0  0  0  0  0  0  0  0  0  0  0  0
  148.7639  137.9113  157.9673 H   0  0  0  0  0  0  0  0  0  0  0  0
  149.4423  136.9289  156.7297 H   0  0  0  0  0  0  0  0  0  0  0  0
  147.5188  132.9338  160.3373 H   0  0  0  0  0  0  0  0  0  0  0  0
  148.3323  135.6429  162.5047 H   0  0  0  0  0  0  0  0  0  0  0  0
  147.5173  133.0171  162.2492 H   0  0  0  0  0  0  0  0  0  0  0  0
  147.2002  133.9897  163.6797 H   0  0  0  0  0  0  0  0  0  0  0  0
  145.1540  133.0825  161.7960 H   0  0  0  0  0  0  0  0  0  0  0  0
  144.9662  133.9747  163.3030 H   0  0  0  0  0  0  0  0  0  0  0  0
  145.2239  135.0573  160.5021 H   0  0  0  0  0  0  0  0  0  0  0  0
  144.3524  135.7558  161.8662 H   0  0  0  0  0  0  0  0  0  0  0  0
  151.1591  140.9485  156.6068 H   0  0  0  0  0  0  0  0  0  0  0  0
  151.2235  142.6920  156.4734 H   0  0  0  0  0  0  0  0  0  0  0  0
  149.9755  141.9315  157.4696 H   0  0  0  0  0  0  0  0  0  0  0  0
  1  2  1  0  0  0  0
  1 29  1  0  0  0  0
  1 30  1  0  0  0  0
  1 31  1  0  0  0  0
  2 27  1  0  0  0  0
  2  3  2  0  0  0  0
  3  4  1  0  0  0  0
  3 32  1  0  0  0  0
  4  5  2  0  0  0  0
  4 33  1  0  0  0  0
  5  6  1  0  0  0  0
  5  7  1  0  0  0  0
  6 34  1  0  0  0  0
  6 35  1  0  0  0  0
  6 36  1  0  0  0  0
  7  8  1  0  0  0  0
  7 27  2  0  0  0  0
  8  9  1  0  0  0  0
  9 10  1  0  0  0  0
  9 37  1  0  0  0  0
  9 38  1  0  0  0  0
 10 11  1  0  0  0  0
 10 12  1  0  0  0  0
 10 39  1  0  0  0  0
 11 40  1  0  0  0  0
 12 13  1  0  0  0  0
 12 41  1  0  0  0  0
 12 42  1  0  0  0  0
 13 25  1  0  0  0  0
 13 14  1  0  0  0  0
 14 15  2  0  0  0  0
 14 16  1  0  0  0  0
 16 17  1  0  0  0  0
 16 18  2  0  0  0  0
 18 19  1  0  0  0  0
 18 43  1  0  0  0  0
 19 20  1  0  0  0  0
 19 25  1  0  0  0  0
 20 24  1  0  0  0  0
 20 21  1  0  0  0  0
 20 44  1  0  0  0  0
 21 22  1  0  0  0  0
 21 45  1  0  0  0  0
 21 46  1  0  0  0  0
 22 23  1  0  0  0  0
 22 47  1  0  0  0  0
 22 48  1  0  0  0  0
 23 24  1  0  0  0  0
 23 49  1  0  0  0  0
 23 50  1  0  0  0  0
 25 26  2  0  0  0  0
 27 28  1  0  0  0  0
 28 51  1  0  0  0  0
 28 52  1  0  0  0  0
 28 53  1  0  0  0  0
M  END
> <s_m_source_file>
AV-unprocessed.smi

> <i_m_source_file_index>
164

> <i_lp_mmshare_version>
43012

> <i_f3d_flags>
0

> <s_epik_input>
W0NIM11jMVtjSF1bY0hdYyhbQ0gzXSljKGMxW0NIM10pT1tDSDJdW0NASF0oW09IXSlbQ0gyXW4yYyg9TyljKEYpW2NIXW4oYzI9TylbQ0BASF0zW0NIMl1bQ0gyXVtDSDJdTzM=

> <s_epik_cmdline>
J2VwaWtfcHl0aG9uJywgJy1waCcsICc3LjAnLCAnLXRuJywgJzgnLCAnLW1hJywgJzIwMCcsICctbWV0YWxfYmluZGluZycsICctaW1hZScsICc8aW5maWxlLm1hZT4nLCAnLW9tYWUnLCAnPG91dGZpbGUubWFlPic=

> <r_lp_tautomer_probability>
1

> <r_epik_Ionization_Penalty>
1.45842e-07

> <r_epik_Ionization_Penalty_Charging>
2.86622e-08

> <r_epik_Ionization_Penalty_Neutral>
1.1718e-07

> <r_epik_State_Penalty>
-0

> <r_epik_Charging_Adjusted_Penalty>
2.86622e-08

> <i_epik_Tot_Q>
0

> <i_epik_Tot_abs_Q>
0

> <r_epik_Metal_State_Penalty>
-0

> <b_epik_Metal_Only>
0

> <s_epik_Chemistry_Notes>
This compound contains an acetal/aminal-like group ( X-CH(R)-Y where X, Y are N, S, or O) that may be acid/base labile, releasing an aldehyde.

> <s_lp_Force_Field>
OPLS_2005

> <r_lp_Energy>
44.8383

> <b_lp_Chiralities_Consistent>
1

> <s_lp_Variant>
AV-unprocessed.smi:164-1

> <Gold.Version>
5.8.1

> <Gold.Id.Protein>
6NUR|6NUR_protein|mol2

> <Gold.PLP.Fitness>
50.4884

> <Gold.PLP.PLP>
-50.6213

> <Gold.PLP.part.hbond>
-2.0000

> <Gold.PLP.part.metal>
0.0000

> <Gold.PLP.part.buried>
-6.2734

> <Gold.PLP.part.nonpolar>
-42.4818

> <Gold.PLP.part.repulsive>
0.0000

> <Gold.PLP.ligand.clash>
0.0000

> <Gold.PLP.ligand.torsion>
1.5897

> <Gold.PLP.Chemscore.Hbond>
0.8951

> <Gold.PLP.Chemscore.CHOScore>
0.0000

> <Gold.PLP.Chemscore.Metal>
0.0000

> <Gold.Chemscore.Hbonds>
donor molecule, donor type, donor heavy atom, donor atom, acceptor molecule, acceptor atom, score
      P1  H  6931  6943       L1    26  0.66
      P1  H  6934  6947       L1    26  0.15

> <Gold.PLP.Chemscore.Internal.Correction>
0.3611

> <Gold.Rescore>
     Score         DG    S(hbond)    S(metal)    S(lipo)     H(rot)  DE(clash)    DE(int)     intcor
     14.41     -17.41       1.26        0.00     125.77       2.73       0.04       2.97       ----

> <Gold.Chemscore.Fitness>
14.4074

> <Gold.Chemscore.DG>
-17.4145

> <Gold.Chemscore.ZeroCoef>
-5.4800

> <Gold.Chemscore.Hbond>
1.2612

> <Gold.Chemscore.Metal>
0.0000

> <Gold.Chemscore.Lipo>
125.7651

> <Gold.Chemscore.Internal_Hbond>
0.0000

> <Gold.Chemscore.DEClash>
0.0405

> <Gold.Chemscore.DEInternal>
2.9665

> <Gold.Chemscore.Rot>
2.7315

> <Gold.Chemscore.Internal.Correction>
   9.000000E+99

> <Gold.Chemscore.Hbonds>
donor molecule, donor type, donor heavy atom, donor atom, acceptor molecule, acceptor atom, score
      P1  H  6931  6943       L1    26  0.66
      P1  H  6934  6947       L1    26  0.15

> <Gold.Chemscore.Hbond.Weighted>
-4.2125

> <Gold.Chemscore.Metal.Weighted>
-0.0000

> <Gold.Chemscore.Lipo.Weighted>
-14.7145

> <Gold.Chemscore.Internal_Hbond.Weighted>
0.0000

> <Gold.Chemscore.DEClash.Weighted>
0.0405

> <Gold.Chemscore.DEInternal.Weighted>
2.9665

> <Gold.Chemscore.Rot.Weighted>
6.9925

> <Gold.Chemscore.Internal.Correction.Weighted>
   9.000000E+99

> <Gold.Protein.RotatedTorsions>
[ 6907 6896 6895 6894 ] final   65.01 input  -60.11 | X-H torsion
[ 7974 7965 7964 7962 ] final   60.17 input  175.53 | X-H torsion
[ 8008 7997 7996 7995 ] final -166.57 input   59.86 | X-H torsion
[ 10167 10162 10161 10158 ] final   65.50 input  -65.29 | X-H torsion
[ 10718 10713 10712 10709 ] final -139.38 input   66.30 | X-H torsion
[ 10763 10752 10751 10750 ] final  108.65 input  -60.55 | X-H torsion
[ 11005 11000 10999 10996 ] final  -49.61 input  -57.11 | X-H torsion

> <Gold.Protein.ActiveResidues>
 VAL166  LYS551  ARG553  GLY616  TRP617  ASP618  TYR619  PRO620  LYS621  CYS622 
 ASP623  PHE694  ASN695  SER759  ASP760  ASP761  ALA762  ILE779  LEU786  VAL792 
 PHE793  MET794  SER795  GLU796  ALA797  LYS798  CYS799  TRP800  GLU811  SER814 

> <Gold.Protein.RotatedAtoms>
  152.4375  134.5658  159.9906 H   0  0  0  0  0  0  0  0  0  0  0  0  # atno 6907 bound_to 6896
  151.5764  133.3377  159.3007 H   0  0  0  0  0  0  0  0  0  0  0  0  # atno 6908 bound_to 6896
  150.8275  134.7548  159.6890 H   0  0  0  0  0  0  0  0  0  0  0  0  # atno 6909 bound_to 6896
  145.8991  139.3567  143.0603 H   0  0  0  0  0  0  0  0  0  0  0  0  # atno 7974 bound_to 7965
  155.8657  140.0985  157.1584 H   0  0  0  0  0  0  0  0  0  0  0  0  # atno 8008 bound_to 7997
  154.3993  140.1356  156.4078 H   0  0  0  0  0  0  0  0  0  0  0  0  # atno 8009 bound_to 7997
  155.7807  140.3458  155.5298 H   0  0  0  0  0  0  0  0  0  0  0  0  # atno 8010 bound_to 7997
  140.1106  144.4822  150.6980 H   0  0  0  0  0  0  0  0  0  0  0  0  # atno 10167 bound_to 10162
  156.3100  130.7477  151.1550 H   0  0  0  0  0  0  0  0  0  0  0  0  # atno 10718 bound_to 10713
  153.4237  135.3805  155.2127 H   0  0  0  0  0  0  0  0  0  0  0  0  # atno 10763 bound_to 10752
  154.8746  135.3823  154.4353 H   0  0  0  0  0  0  0  0  0  0  0  0  # atno 10764 bound_to 10752
  153.4876  135.7088  153.5965 H   0  0  0  0  0  0  0  0  0  0  0  0  # atno 10765 bound_to 10752
  141.0769  133.6663  156.3611 H   0  0  0  0  0  0  0  0  0  0  0  0  # atno 11005 bound_to 11000
  145.8814  140.9360  143.0599 LP  0  0  0  0  0  0  0  0  0  0  0  0  # atno 17320 bound_to 7965
  144.6734  140.0785  143.7470 LP  0  0  0  0  0  0  0  0  0  0  0  0  # atno 17321 bound_to 7965
  140.6928  143.2386  151.5084 LP  0  0  0  0  0  0  0  0  0  0  0  0  # atno 17342 bound_to 10162
  139.5621  144.2130  152.1708 LP  0  0  0  0  0  0  0  0  0  0  0  0  # atno 17343 bound_to 10162
  157.7389  131.0536  150.5267 LP  0  0  0  0  0  0  0  0  0  0  0  0  # atno 17370 bound_to 10713
  156.5406  130.4207  149.6156 LP  0  0  0  0  0  0  0  0  0  0  0  0  # atno 17371 bound_to 10713
  140.5554  134.5987  157.5419 LP  0  0  0  0  0  0  0  0  0  0  0  0  # atno 17394 bound_to 11000
  139.9581  134.7499  156.0296 LP  0  0  0  0  0  0  0  0  0  0  0  0  # atno 17395 bound_to 11000

$$$$
