#       Name:                AV-unprocessed.smi:1605
#       Creating user name   scv26
#       Creation time:       Fri Mar 27 07:11:28 2020


#       File generated by GOLD software.
#

@<TRIPOS>MOLECULE
AV-unprocessed.smi:1605
    56    58     1
SMALL
NO_CHARGES


@<TRIPOS>ATOM
      1 ****        -6.2921   3.8984   1.2493 C.3            1 S1                 0.0000
      2 ****        -4.9443   3.8498   0.8073 O.3            1 S1                 0.0000
      3 ****        -4.4050   2.5372   0.7161 C.3            1 S1                 0.0000
      4 ****        -4.0429   1.9722   2.1036 C.3            1 S1                 0.0000
      5 ****        -3.2755   0.6455   1.9664 C.3            1 S1                 0.0000
      6 ****        -2.0580   0.7762   1.1633 N.3            1 S1                 0.0000
      7 ****        -1.3133  -0.4879   1.1301 C.3            1 S1                 0.0000
      8 ****         0.2244  -0.3750   1.0248 C.3            1 S1                 0.0000
      9 ****         0.7203   0.2248   2.2053 O.3            1 S1                 0.0000
     10 ****         0.7766   0.3462  -0.2199 C.3            1 S1                 0.0000
     11 ****         2.2204   0.2343  -0.3233 N.pl3          1 S1                 0.0000
     12 ****         3.1353   1.1564   0.0333 C.2            1 S1                 0.0000
     13 ****         4.4157   0.8460  -0.1489 N.2            1 S1                 0.0000
     14 ****         4.3201  -0.4268  -0.6850 C.ar           1 S1                 0.0000
     15 ****         5.3276  -1.3232  -1.1037 C.ar           1 S1                 0.0000
     16 ****         4.9959  -2.5926  -1.6286 C.ar           1 S1                 0.0000
     17 ****         6.1117  -3.5246  -2.0668 C.3            1 S1                 0.0000
     18 ****         3.6369  -2.9823  -1.7405 C.ar           1 S1                 0.0000
     19 ****         3.2570  -4.3422  -2.2992 C.3            1 S1                 0.0000
     20 ****         2.6177  -2.0985  -1.3281 C.ar           1 S1                 0.0000
     21 ****         2.9608  -0.8382  -0.8074 C.ar           1 S1                 0.0000
     22 ****        -2.4260   1.2428  -0.1784 C.3            1 S1                 0.0000
     23 ****        -3.1371   2.6056  -0.1503 C.3            1 S1                 0.0000
     24 ****        -6.6380   4.9319   1.2408 H              1 S1                 0.0000
     25 ****        -6.3995   3.5237   2.2671 H              1 S1                 0.0000
     26 ****        -6.9455   3.3234   0.5920 H              1 S1                 0.0000
     27 ****        -5.1207   1.8757   0.2241 H              1 S1                 0.0000
     28 ****        -3.4298   2.6925   2.6469 H              1 S1                 0.0000
     29 ****        -4.9391   1.8107   2.7021 H              1 S1                 0.0000
     30 ****        -3.0186   0.2932   2.9662 H              1 S1                 0.0000
     31 ****        -3.9286  -0.1124   1.5307 H              1 S1                 0.0000
     32 ****        -1.5162  -1.0498   2.0433 H              1 S1                 0.0000
     33 ****        -1.6932  -1.1179   0.3245 H              1 S1                 0.0000
     34 ****         0.6130  -1.3942   1.0158 H              1 S1                 0.0000
     35 ****         0.3454   1.0894   2.2786 H              1 S1                 0.0000
     36 ****         0.3387  -0.0726  -1.1267 H              1 S1                 0.0000
     37 ****         0.5220   1.4061  -0.1960 H              1 S1                 0.0000
     38 ****         2.8447   2.1087   0.4523 H              1 S1                 0.0000
     39 ****         6.3625  -1.0261  -1.0170 H              1 S1                 0.0000
     40 ****         6.0095  -3.7728  -3.1236 H              1 S1                 0.0000
     41 ****         6.0865  -4.4489  -1.4888 H              1 S1                 0.0000
     42 ****         7.0915  -3.0676  -1.9244 H              1 S1                 0.0000
     43 ****         2.1752  -4.4771  -2.3174 H              1 S1                 0.0000
     44 ****         3.6832  -5.1387  -1.6888 H              1 S1                 0.0000
     45 ****         3.6244  -4.4524  -3.3198 H              1 S1                 0.0000
     46 ****         1.5787  -2.3819  -1.4074 H              1 S1                 0.0000
     47 ****        -1.5504   1.3285  -0.8159 H              1 S1                 0.0000
     48 ****        -3.0744   0.5087  -0.6594 H              1 S1                 0.0000
     49 ****        -3.3931   2.9148  -1.1641 H              1 S1                 0.0000
     50 ****        -2.4568   3.3620   0.2438 H              1 S1                 0.0000
     51 ****        -4.3850   4.3741   1.4495 LP             1 S1                 0.0000
     52 ****        -4.8962   4.2716  -0.0981 LP             1 S1                 0.0000
     53 ****        -1.4458   1.4500   1.5771 LP             1 S1                 0.0000
     54 ****         1.7170   0.2912   2.1580 LP             1 S1                 0.0000
     55 ****         0.4602  -0.3251   2.9991 LP             1 S1                 0.0000
     56 ****         5.2320   1.3887   0.0491 LP             1 S1                 0.0000
@<TRIPOS>BOND
    1    1    2 1     
    2    1   24 1     
    3    1   25 1     
    4    1   26 1     
    5    2    3 1     
    6    3   23 1     
    7    3    4 1     
    8    3   27 1     
    9    4    5 1     
   10    4   28 1     
   11    4   29 1     
   12    5    6 1     
   13    5   30 1     
   14    5   31 1     
   15    6    7 1     
   16    6   22 1     
   17    7    8 1     
   18    7   32 1     
   19    7   33 1     
   20    8    9 1     
   21    8   10 1     
   22    8   34 1     
   23    9   35 1     
   24   10   11 1     
   25   10   36 1     
   26   10   37 1     
   27   11   21 1     
   28   11   12 1     
   29   12   13 2     
   30   12   38 1     
   31   13   14 1     
   32   14   21 ar    
   33   14   15 ar    
   34   15   16 ar    
   35   15   39 1     
   36   16   17 1     
   37   16   18 ar    
   38   17   40 1     
   39   17   41 1     
   40   17   42 1     
   41   18   19 1     
   42   18   20 ar    
   43   19   43 1     
   44   19   44 1     
   45   19   45 1     
   46   20   21 ar    
   47   20   46 1     
   48   22   23 1     
   49   22   47 1     
   50   22   48 1     
   51   23   49 1     
   52   23   50 1     
   53    2   51 1     
   54    2   52 1     
   55    6   53 1     
   56    9   54 1     
   57    9   55 1     
   58   13   56 1     
@<TRIPOS>SUBSTRUCTURE
      1 S1             1
@<TRIPOS>SET
LONE_PAIRS      STATIC     ATOMS    <user>   **** ""
6 51 52 53 54 55 56
DONOR_HYDROGENS      STATIC     ATOMS    <user>   **** ""
1 35
ATOM$BLUE        STATIC     ATOMS    COLORGROUP SYSTEM
6 51 52 53 54 55 56
ATOM$RED        STATIC     ATOMS    COLORGROUP SYSTEM
1 35
