AV-unprocessed.smi:2340|AV-procd|sdf|9349|dock2
  -GOLD-   2272012573D 1   1.00000     0.00000
 Structure written by MMmdl.
 40 41  0  0  0  0  0  0  0  0  1 V2000
  145.8101  150.6425  158.6065 C   0  0  0  0  0  0  0  0  0  0  0  0
  145.3450  149.2545  158.2970 C   0  0  0  0  0  0  0  0  0  0  0  0
  145.0211  148.7465  157.0639 C   0  0  0  0  0  0  0  0  0  0  0  0
  144.5296  147.0780  157.1580 S   0  0  0  0  0  0  0  0  0  0  0  0
  144.7860  147.1312  158.9002 C   0  0  0  0  0  0  0  0  0  0  0  0
  144.5760  145.9552  159.8066 C   0  0  1  0  0  0  0  0  0  0  0  0
  143.0873  145.6163  159.9668 C   0  0  0  0  0  0  0  0  0  0  0  0
  145.4157  144.7241  159.3992 C   0  0  0  0  0  0  0  0  0  0  0  0
  146.8252  145.0433  159.1894 N   0  0  0  0  0  0  0  0  0  0  0  0
  147.8534  144.3023  159.6233 C   0  0  0  0  0  0  0  0  0  0  0  0
  147.7293  143.2365  160.2264 O   0  0  0  0  0  0  0  0  0  0  0  0
  149.0308  144.8671  159.3226 N   0  0  0  0  0  0  0  0  0  0  0  0
  150.3446  144.3267  159.6717 C   0  0  2  0  0  0  0  0  0  0  0  0
  151.4414  145.3418  159.3546 C   0  0  0  0  0  0  0  0  0  0  0  0
  152.4680  144.5455  158.5562 C   0  0  0  0  0  0  0  0  0  0  0  0
  151.6817  143.5689  157.8972 O   0  0  0  0  0  0  0  0  0  0  0  0
  150.7419  143.0822  158.8441 C   0  0  2  0  0  0  0  0  0  0  0  0
  149.6184  142.3161  158.1271 C   0  0  0  0  0  0  0  0  0  0  0  0
  145.2061  148.3245  159.3306 N   0  0  0  0  0  0  0  0  0  0  0  0
  145.8230  151.2676  157.7133 H   0  0  0  0  0  0  0  0  0  0  0  0
  146.8196  150.6359  159.0187 H   0  0  0  0  0  0  0  0  0  0  0  0
  145.1570  151.1235  159.3350 H   0  0  0  0  0  0  0  0  0  0  0  0
  145.0423  149.2500  156.1087 H   0  0  0  0  0  0  0  0  0  0  0  0
  144.9246  146.2596  160.7949 H   0  0  0  0  0  0  0  0  0  0  0  0
  142.5278  146.4746  160.3398 H   0  0  0  0  0  0  0  0  0  0  0  0
  142.9456  144.7978  160.6731 H   0  0  0  0  0  0  0  0  0  0  0  0
  142.6426  145.3157  159.0179 H   0  0  0  0  0  0  0  0  0  0  0  0
  145.3171  143.9301  160.1412 H   0  0  0  0  0  0  0  0  0  0  0  0
  145.0357  144.3160  158.4623 H   0  0  0  0  0  0  0  0  0  0  0  0
  147.0301  145.9035  158.7025 H   0  0  0  0  0  0  0  0  0  0  0  0
  149.0222  145.7423  158.8199 H   0  0  0  0  0  0  0  0  0  0  0  0
  150.3804  144.0756  160.7335 H   0  0  0  0  0  0  0  0  0  0  0  0
  151.0567  146.1535  158.7352 H   0  0  0  0  0  0  0  0  0  0  0  0
  151.8731  145.7882  160.2507 H   0  0  0  0  0  0  0  0  0  0  0  0
  153.0225  145.1623  157.8486 H   0  0  0  0  0  0  0  0  0  0  0  0
  153.1818  144.0538  159.2191 H   0  0  0  0  0  0  0  0  0  0  0  0
  151.2722  142.3884  159.4990 H   0  0  0  0  0  0  0  0  0  0  0  0
  148.8779  141.9483  158.8377 H   0  0  0  0  0  0  0  0  0  0  0  0
  150.0191  141.4544  157.5934 H   0  0  0  0  0  0  0  0  0  0  0  0
  149.1062  142.9430  157.3969 H   0  0  0  0  0  0  0  0  0  0  0  0
  1  2  1  0  0  0  0
  1 20  1  0  0  0  0
  1 21  1  0  0  0  0
  1 22  1  0  0  0  0
  2 19  1  0  0  0  0
  2  3  2  0  0  0  0
  3  4  1  0  0  0  0
  3 23  1  0  0  0  0
  4  5  1  0  0  0  0
  5  6  1  0  0  0  0
  5 19  2  0  0  0  0
  6  7  1  0  0  0  0
  6  8  1  0  0  0  0
  6 24  1  0  0  0  0
  7 25  1  0  0  0  0
  7 26  1  0  0  0  0
  7 27  1  0  0  0  0
  8  9  1  0  0  0  0
  8 28  1  0  0  0  0
  8 29  1  0  0  0  0
  9 10  1  0  0  0  0
  9 30  1  0  0  0  0
 10 11  2  0  0  0  0
 10 12  1  0  0  0  0
 12 13  1  0  0  0  0
 12 31  1  0  0  0  0
 13 17  1  0  0  0  0
 13 14  1  0  0  0  0
 13 32  1  0  0  0  0
 14 15  1  0  0  0  0
 14 33  1  0  0  0  0
 14 34  1  0  0  0  0
 15 16  1  0  0  0  0
 15 35  1  0  0  0  0
 15 36  1  0  0  0  0
 16 17  1  0  0  0  0
 17 18  1  0  0  0  0
 17 37  1  0  0  0  0
 18 38  1  0  0  0  0
 18 39  1  0  0  0  0
 18 40  1  0  0  0  0
M  END
> <s_m_source_file>
AV-unprocessed.smi

> <i_m_source_file_index>
2340

> <i_lp_mmshare_version>
43012

> <i_f3d_flags>
0

> <s_epik_input>
W0NIM11jMVtjSF1zYyhuMSlbQ0BIXShbQ0gzXSlbQ0gyXVtOSF1DKD1PKVtOSF1bQ0BASF0yW0NIMl1bQ0gyXU9bQ0BIXTJbQ0gzXQ==

> <s_epik_cmdline>
J2VwaWtfcHl0aG9uJywgJy1waCcsICc3LjAnLCAnLXRuJywgJzgnLCAnLW1hJywgJzIwMCcsICctbWV0YWxfYmluZGluZycsICctaW1hZScsICc8aW5maWxlLm1hZT4nLCAnLW9tYWUnLCAnPG91dGZpbGUubWFlPic=

> <r_epik_Ionization_Penalty>
0.00156622

> <r_epik_Ionization_Penalty_Charging>
0

> <r_epik_Ionization_Penalty_Neutral>
0.00156622

> <r_epik_State_Penalty>
0.00101902

> <r_epik_Charging_Adjusted_Penalty>
0.00101902

> <i_epik_Tot_Q>
0

> <i_epik_Tot_abs_Q>
0

> <r_epik_Metal_State_Penalty>
-0

> <b_epik_Metal_Only>
0

> <s_lp_Force_Field>
OPLS_2005

> <r_lp_Energy>
5.61614

> <b_lp_Chiralities_Consistent>
1

> <s_lp_Variant>
AV-unprocessed.smi:2340-6

> <Gold.Version>
5.8.1

> <Gold.Id.Protein>
6NUR|6NUR_protein|mol2

> <Gold.PLP.Fitness>
43.0211

> <Gold.PLP.PLP>
-37.2913

> <Gold.PLP.part.hbond>
-2.6198

> <Gold.PLP.part.metal>
0.0000

> <Gold.PLP.part.buried>
-5.9378

> <Gold.PLP.part.nonpolar>
-30.2891

> <Gold.PLP.part.repulsive>
0.5105

> <Gold.PLP.ligand.clash>
0.0000

> <Gold.PLP.ligand.torsion>
0.3529

> <Gold.PLP.Chemscore.Hbond>
2.1040

> <Gold.PLP.Chemscore.CHOScore>
0.0000

> <Gold.PLP.Chemscore.Metal>
0.0000

> <Gold.Chemscore.Hbonds>
donor molecule, donor type, donor heavy atom, donor atom, acceptor molecule, acceptor atom, score
      L1  H     9    30       P1  8029  0.48
      L1  H    12    31       P1  8029  0.42
      P1  H  6933  6944       L1    11  1.00

> <Gold.PLP.Chemscore.Internal.Correction>
0.1235

> <Gold.Rescore>
     Score         DG    S(hbond)    S(metal)    S(lipo)     H(rot)  DE(clash)    DE(int)     intcor
     19.07     -20.45       2.20        0.00      98.74       1.53       0.91       0.46       ----

> <Gold.Chemscore.Fitness>
19.0734

> <Gold.Chemscore.DG>
-20.4458

> <Gold.Chemscore.ZeroCoef>
-5.4800

> <Gold.Chemscore.Hbond>
2.1965

> <Gold.Chemscore.Metal>
0.0000

> <Gold.Chemscore.Lipo>
98.7424

> <Gold.Chemscore.Internal_Hbond>
0.0000

> <Gold.Chemscore.DEClash>
0.9105

> <Gold.Chemscore.DEInternal>
0.4618

> <Gold.Chemscore.Rot>
1.5325

> <Gold.Chemscore.Internal.Correction>
   9.000000E+99

> <Gold.Chemscore.Hbonds>
donor molecule, donor type, donor heavy atom, donor atom, acceptor molecule, acceptor atom, score
      L1  H     9    30       P1  8029  0.48
      L1  H    12    31       P1  8029  0.42
      P1  H  6933  6944       L1    11  0.97

> <Gold.Chemscore.Hbond.Weighted>
-7.3362

> <Gold.Chemscore.Metal.Weighted>
-0.0000

> <Gold.Chemscore.Lipo.Weighted>
-11.5529

> <Gold.Chemscore.Internal_Hbond.Weighted>
0.0000

> <Gold.Chemscore.DEClash.Weighted>
0.9105

> <Gold.Chemscore.DEInternal.Weighted>
0.4618

> <Gold.Chemscore.Rot.Weighted>
3.9233

> <Gold.Chemscore.Internal.Correction.Weighted>
   9.000000E+99

> <Gold.Protein.RotatedTorsions>
[ 6907 6896 6895 6894 ] final  154.29 input  -60.11 | X-H torsion
[ 7974 7965 7964 7962 ] final   54.42 input  175.53 | X-H torsion
[ 8008 7997 7996 7995 ] final  -27.72 input   59.86 | X-H torsion
[ 10167 10162 10161 10158 ] final  133.53 input  -65.29 | X-H torsion
[ 10718 10713 10712 10709 ] final   28.85 input   66.30 | X-H torsion
[ 10763 10752 10751 10750 ] final  124.93 input  -60.55 | X-H torsion
[ 11005 11000 10999 10996 ] final -108.93 input  -57.11 | X-H torsion

> <Gold.Protein.ActiveResidues>
 VAL166  LYS551  ARG553  GLY616  TRP617  ASP618  TYR619  PRO620  LYS621  CYS622 
 ASP623  PHE694  ASN695  SER759  ASP760  ASP761  ALA762  ILE779  LEU786  VAL792 
 PHE793  MET794  SER795  GLU796  ALA797  LYS798  CYS799  TRP800  GLU811  SER814 

> <Gold.Protein.RotatedAtoms>
  152.0606  133.4060  159.4415 H   0  0  0  0  0  0  0  0  0  0  0  0  # atno 6907 bound_to 6896
  150.6866  134.3204  159.4793 H   0  0  0  0  0  0  0  0  0  0  0  0  # atno 6908 bound_to 6896
  152.1025  134.9331  160.0620 H   0  0  0  0  0  0  0  0  0  0  0  0  # atno 6909 bound_to 6896
  145.9611  139.4060  143.0248 H   0  0  0  0  0  0  0  0  0  0  0  0  # atno 7974 bound_to 7965
  154.4364  140.1865  156.0976 H   0  0  0  0  0  0  0  0  0  0  0  0  # atno 8008 bound_to 7997
  156.0317  140.3330  155.7121 H   0  0  0  0  0  0  0  0  0  0  0  0  # atno 8009 bound_to 7997
  155.5829  140.0623  157.2769 H   0  0  0  0  0  0  0  0  0  0  0  0  # atno 8010 bound_to 7997
  139.5293  144.6611  151.5008 H   0  0  0  0  0  0  0  0  0  0  0  0  # atno 10167 bound_to 10162
  157.2388  130.7059  149.6348 H   0  0  0  0  0  0  0  0  0  0  0  0  # atno 10718 bound_to 10713
  153.6692  135.3333  155.3148 H   0  0  0  0  0  0  0  0  0  0  0  0  # atno 10763 bound_to 10752
  154.8495  135.4382  154.1723 H   0  0  0  0  0  0  0  0  0  0  0  0  # atno 10764 bound_to 10752
  153.2709  135.7000  153.7557 H   0  0  0  0  0  0  0  0  0  0  0  0  # atno 10765 bound_to 10752
  141.0875  133.9113  157.2152 H   0  0  0  0  0  0  0  0  0  0  0  0  # atno 11005 bound_to 11000
  145.8039  140.9758  143.0984 LP  0  0  0  0  0  0  0  0  0  0  0  0  # atno 17320 bound_to 7965
  144.6815  139.9836  143.7483 LP  0  0  0  0  0  0  0  0  0  0  0  0  # atno 17321 bound_to 7965
  140.6460  143.8793  150.6738 LP  0  0  0  0  0  0  0  0  0  0  0  0  # atno 17342 bound_to 10162
  140.2143  143.3859  152.1694 LP  0  0  0  0  0  0  0  0  0  0  0  0  # atno 17343 bound_to 10162
  155.9671  130.4465  150.5542 LP  0  0  0  0  0  0  0  0  0  0  0  0  # atno 17370 bound_to 10713
  157.3400  131.0715  151.1795 LP  0  0  0  0  0  0  0  0  0  0  0  0  # atno 17371 bound_to 10713
  139.9695  135.0132  156.9476 LP  0  0  0  0  0  0  0  0  0  0  0  0  # atno 17394 bound_to 11000
  140.5329  134.0796  155.7320 LP  0  0  0  0  0  0  0  0  0  0  0  0  # atno 17395 bound_to 11000

$$$$
