AV-unprocessed.smi:785|AV-procd|sdf|3720|dock6
  -GOLD-   22720 1143D 1   1.00000     0.00000
 Structure written by MMmdl.
 35 36  0  0  0  0  0  0  0  0  1 V2000
  153.0748  142.3157  160.9713 C   0  0  0  0  0  0  0  0  0  0  0  0
  152.4566  142.6564  159.6587 C   0  0  0  0  0  0  0  0  0  0  0  0
  151.7421  141.7934  158.9317 N   0  0  0  0  0  0  0  0  0  0  0  0
  151.2715  142.3524  157.7385 C   0  0  0  0  0  0  0  0  0  0  0  0
  150.4439  141.5262  156.7967 C   0  0  0  0  0  0  0  0  0  0  0  0
  151.2587  140.3459  156.2649 C   0  0  0  0  0  0  0  0  0  0  0  0
  151.5309  140.2753  155.0666 O   0  0  0  0  0  0  0  0  0  0  0  0
  151.6497  139.4310  157.1661 N   0  0  0  0  0  0  0  0  0  0  0  0
  152.4366  138.2419  156.8644 C   0  0  0  0  0  0  0  0  0  0  0  0
  152.2440  137.1536  157.9354 C   0  0  0  0  0  0  0  0  0  0  0  0
  152.5021  137.6696  159.2743 N   0  0  0  0  0  0  0  0  0  0  0  0
  152.9604  136.9449  160.3061 C   0  0  0  0  0  0  0  0  0  0  0  0
  153.2155  135.7425  160.2209 O   0  0  0  0  0  0  0  0  0  0  0  0
  153.1339  137.7276  161.5667 C   0  0  0  0  0  0  0  0  0  0  0  0
  154.5228  137.7924  162.1691 C   0  0  0  0  0  0  0  0  0  0  0  0
  153.4550  136.9598  162.8329 C   0  0  0  0  0  0  0  0  0  0  0  0
  151.6389  143.6660  157.5774 C   0  0  0  0  0  0  0  0  0  0  0  0
  152.5991  144.2425  158.9116 S   0  0  0  0  0  0  0  0  0  0  0  0
  152.7173  141.3480  161.3250 H   0  0  0  0  0  0  0  0  0  0  0  0
  152.8190  143.0733  161.7120 H   0  0  0  0  0  0  0  0  0  0  0  0
  154.1594  142.2738  160.8721 H   0  0  0  0  0  0  0  0  0  0  0  0
  149.5499  141.1488  157.2954 H   0  0  0  0  0  0  0  0  0  0  0  0
  150.0938  142.1311  155.9593 H   0  0  0  0  0  0  0  0  0  0  0  0
  151.3820  139.5683  158.1301 H   0  0  0  0  0  0  0  0  0  0  0  0
  152.1194  137.8716  155.8891 H   0  0  0  0  0  0  0  0  0  0  0  0
  153.4917  138.5037  156.7685 H   0  0  0  0  0  0  0  0  0  0  0  0
  151.2196  136.7812  157.9138 H   0  0  0  0  0  0  0  0  0  0  0  0
  152.8894  136.2971  157.7329 H   0  0  0  0  0  0  0  0  0  0  0  0
  152.3182  138.6506  159.4280 H   0  0  0  0  0  0  0  0  0  0  0  0
  152.5115  138.6144  161.6783 H   0  0  0  0  0  0  0  0  0  0  0  0
  155.3326  137.2619  161.6710 H   0  0  0  0  0  0  0  0  0  0  0  0
  154.8108  138.7278  162.6443 H   0  0  0  0  0  0  0  0  0  0  0  0
  153.0195  137.3307  163.7584 H   0  0  0  0  0  0  0  0  0  0  0  0
  153.5564  135.8775  162.7746 H   0  0  0  0  0  0  0  0  0  0  0  0
  151.4058  144.3264  156.7554 H   0  0  0  0  0  0  0  0  0  0  0  0
  1  2  1  0  0  0  0
  1 19  1  0  0  0  0
  1 20  1  0  0  0  0
  1 21  1  0  0  0  0
  2 18  1  0  0  0  0
  2  3  2  0  0  0  0
  3  4  1  0  0  0  0
  4  5  1  0  0  0  0
  4 17  2  0  0  0  0
  5  6  1  0  0  0  0
  5 22  1  0  0  0  0
  5 23  1  0  0  0  0
  6  7  2  0  0  0  0
  6  8  1  0  0  0  0
  8  9  1  0  0  0  0
  8 24  1  0  0  0  0
  9 10  1  0  0  0  0
  9 25  1  0  0  0  0
  9 26  1  0  0  0  0
 10 11  1  0  0  0  0
 10 27  1  0  0  0  0
 10 28  1  0  0  0  0
 11 12  1  0  0  0  0
 11 29  1  0  0  0  0
 12 13  2  0  0  0  0
 12 14  1  0  0  0  0
 14 16  1  0  0  0  0
 14 15  1  0  0  0  0
 14 30  1  0  0  0  0
 15 16  1  0  0  0  0
 15 31  1  0  0  0  0
 15 32  1  0  0  0  0
 16 33  1  0  0  0  0
 16 34  1  0  0  0  0
 17 18  1  0  0  0  0
 17 35  1  0  0  0  0
M  END
> <s_m_source_file>
AV-unprocessed.smi

> <i_m_source_file_index>
785

> <i_lp_mmshare_version>
43012

> <i_f3d_flags>
0

> <s_epik_input>
W0NIM11jMW5jKFtjSF1zMSlbQ0gyXUMoPU8pW05IXVtDSDJdW0NIMl1bTkhdQyg9TylbQ0hdMltDSDJdW0NIMl0y

> <s_epik_cmdline>
J2VwaWtfcHl0aG9uJywgJy1waCcsICc3LjAnLCAnLXRuJywgJzgnLCAnLW1hJywgJzIwMCcsICctbWV0YWxfYmluZGluZycsICctaW1hZScsICc8aW5maWxlLm1hZT4nLCAnLW9tYWUnLCAnPG91dGZpbGUubWFlPic=

> <r_lp_tautomer_probability>
1

> <r_epik_Ionization_Penalty>
4.93122e-05

> <r_epik_Ionization_Penalty_Charging>
0

> <r_epik_Ionization_Penalty_Neutral>
4.93122e-05

> <r_epik_State_Penalty>
-0

> <r_epik_Charging_Adjusted_Penalty>
0

> <i_epik_Tot_Q>
0

> <i_epik_Tot_abs_Q>
0

> <r_epik_Metal_State_Penalty>
-0

> <b_epik_Metal_Only>
0

> <s_lp_Force_Field>
OPLS_2005

> <r_lp_Energy>
2.28636

> <b_lp_Chiralities_Consistent>
1

> <s_lp_Variant>
AV-unprocessed.smi:785-1

> <Gold.Version>
5.8.1

> <Gold.Id.Protein>
6NUR|6NUR_protein|mol2

> <Gold.PLP.Fitness>
43.2702

> <Gold.PLP.PLP>
-35.0901

> <Gold.PLP.part.hbond>
-2.0000

> <Gold.PLP.part.metal>
0.0000

> <Gold.PLP.part.buried>
-4.2113

> <Gold.PLP.part.nonpolar>
-28.8290

> <Gold.PLP.part.repulsive>
0.2268

> <Gold.PLP.ligand.clash>
0.0000

> <Gold.PLP.ligand.torsion>
0.4614

> <Gold.PLP.Chemscore.Hbond>
2.0000

> <Gold.PLP.Chemscore.CHOScore>
1.0000

> <Gold.PLP.Chemscore.Metal>
0.0000

> <Gold.Chemscore.Hbonds>
donor molecule, donor type, donor heavy atom, donor atom, acceptor molecule, acceptor atom, score
      P1  H  6896  6908       L1    13  0.37
      P1  H  7989  7998       L1     7  0.98
      L1  C    17    35       P1  8028  0.44

> <Gold.PLP.Chemscore.Internal.Correction>
0.1029

> <Gold.Rescore>
     Score         DG    S(hbond)    S(metal)    S(lipo)     H(rot)  DE(clash)    DE(int)     intcor
     17.09     -17.47       1.99        0.00      92.97       2.16       0.00       0.39       ----

> <Gold.Chemscore.Fitness>
17.0854

> <Gold.Chemscore.DG>
-17.4710

> <Gold.Chemscore.ZeroCoef>
-5.4800

> <Gold.Chemscore.Hbond>
1.9869

> <Gold.Chemscore.Metal>
0.0000

> <Gold.Chemscore.Lipo>
92.9713

> <Gold.Chemscore.Internal_Hbond>
0.0000

> <Gold.Chemscore.DEClash>
0.0000

> <Gold.Chemscore.DEInternal>
0.3856

> <Gold.Chemscore.Rot>
2.1573

> <Gold.Chemscore.Internal.Correction>
   9.000000E+99

> <Gold.Chemscore.Hbonds>
donor molecule, donor type, donor heavy atom, donor atom, acceptor molecule, acceptor atom, score
      P1  H  6896  6908       L1    13  0.37
      P1  H  7989  7998       L1     7  0.93

> <Gold.Chemscore.Hbond.Weighted>
-6.6362

> <Gold.Chemscore.Metal.Weighted>
-0.0000

> <Gold.Chemscore.Lipo.Weighted>
-10.8776

> <Gold.Chemscore.Internal_Hbond.Weighted>
0.0000

> <Gold.Chemscore.DEClash.Weighted>
0.0000

> <Gold.Chemscore.DEInternal.Weighted>
0.3856

> <Gold.Chemscore.Rot.Weighted>
5.5228

> <Gold.Chemscore.Internal.Correction.Weighted>
   9.000000E+99

> <Gold.Protein.RotatedTorsions>
[ 6907 6896 6895 6894 ] final  -73.56 input  -60.11 | X-H torsion
[ 7974 7965 7964 7962 ] final  -65.01 input  175.53 | X-H torsion
[ 8008 7997 7996 7995 ] final   28.28 input   59.86 | X-H torsion
[ 10167 10162 10161 10158 ] final -138.10 input  -65.29 | X-H torsion
[ 10718 10713 10712 10709 ] final  102.29 input   66.30 | X-H torsion
[ 10763 10752 10751 10750 ] final  -54.82 input  -60.55 | X-H torsion
[ 11005 11000 10999 10996 ] final  -30.77 input  -57.11 | X-H torsion

> <Gold.Protein.ActiveResidues>
 VAL166  LYS551  ARG553  GLY616  TRP617  ASP618  TYR619  PRO620  LYS621  CYS622 
 ASP623  PHE694  ASN695  SER759  ASP760  ASP761  ALA762  ILE779  LEU786  VAL792 
 PHE793  MET794  SER795  GLU796  ALA797  LYS798  CYS799  TRP800  GLU811  SER814 

> <Gold.Protein.RotatedAtoms>
  150.7125  134.4998  159.5555 H   0  0  0  0  0  0  0  0  0  0  0  0  # atno 6907 bound_to 6896
  152.2598  134.8043  160.0441 H   0  0  0  0  0  0  0  0  0  0  0  0  # atno 6908 bound_to 6896
  151.8761  133.3450  159.3787 H   0  0  0  0  0  0  0  0  0  0  0  0  # atno 6909 bound_to 6896
  145.7596  140.8868  143.0437 H   0  0  0  0  0  0  0  0  0  0  0  0  # atno 7974 bound_to 7965
  155.0562  140.3185  155.4675 H   0  0  0  0  0  0  0  0  0  0  0  0  # atno 8008 bound_to 7997
  156.2823  140.2137  156.5632 H   0  0  0  0  0  0  0  0  0  0  0  0  # atno 8009 bound_to 7997
  154.7170  140.0493  157.0591 H   0  0  0  0  0  0  0  0  0  0  0  0  # atno 8010 bound_to 7997
  139.8512  143.7196  152.2657 H   0  0  0  0  0  0  0  0  0  0  0  0  # atno 10167 bound_to 10162
  157.6806  131.0749  150.5381 H   0  0  0  0  0  0  0  0  0  0  0  0  # atno 10718 bound_to 10713
  154.1810  135.6443  153.5034 H   0  0  0  0  0  0  0  0  0  0  0  0  # atno 10763 bound_to 10752
  153.0059  135.5406  154.6514 H   0  0  0  0  0  0  0  0  0  0  0  0  # atno 10764 bound_to 10752
  154.5879  135.2931  155.0639 H   0  0  0  0  0  0  0  0  0  0  0  0  # atno 10765 bound_to 10752
  140.9411  133.7278  156.1077 H   0  0  0  0  0  0  0  0  0  0  0  0  # atno 11005 bound_to 11000
  144.6833  139.9704  143.7482 LP  0  0  0  0  0  0  0  0  0  0  0  0  # atno 17320 bound_to 7965
  146.0277  139.3307  143.0774 LP  0  0  0  0  0  0  0  0  0  0  0  0  # atno 17321 bound_to 7965
  139.7463  144.7546  151.0574 LP  0  0  0  0  0  0  0  0  0  0  0  0  # atno 17342 bound_to 10162
  140.7787  143.4912  150.9891 LP  0  0  0  0  0  0  0  0  0  0  0  0  # atno 17343 bound_to 10162
  156.5689  130.4274  149.6028 LP  0  0  0  0  0  0  0  0  0  0  0  0  # atno 17370 bound_to 10713
  156.2757  130.7042  151.1853 LP  0  0  0  0  0  0  0  0  0  0  0  0  # atno 17371 bound_to 10713
  140.7732  134.3808  157.5503 LP  0  0  0  0  0  0  0  0  0  0  0  0  # atno 17394 bound_to 11000
  139.8820  134.9035  156.2857 LP  0  0  0  0  0  0  0  0  0  0  0  0  # atno 17395 bound_to 11000

$$$$
