AV-unprocessed.smi:794|AV-procd|sdf|3758|dock2
  -GOLD-   22720 1193D 1   1.00000     0.00000
 Structure written by MMmdl.
 41 43  0  0  0  0  0  0  0  0  1 V2000
  152.2317  144.3174  161.4630 C   0  0  0  0  0  0  0  0  0  0  0  0
  152.1442  143.3670  160.3084 C   0  0  0  0  0  0  0  0  0  0  0  0
  151.1750  143.5677  159.3209 N   0  0  0  0  0  0  0  0  0  0  0  0
  151.2298  142.6387  158.3612 C   0  0  0  0  0  0  0  0  0  0  0  0
  150.3677  142.5984  157.2340 N   0  0  0  0  0  0  0  0  0  0  0  0
  150.1616  141.5787  156.3822 C   0  0  0  0  0  0  0  0  0  0  0  0
  150.7068  140.4764  156.4451 O   0  0  0  0  0  0  0  0  0  0  0  0
  149.2769  141.9111  155.4320 N   0  0  0  0  0  0  0  0  0  0  0  0
  148.8483  141.0289  154.3486 C   0  0  2  0  0  0  0  0  0  0  0  0
  147.6728  141.6011  153.5164 C   0  0  2  0  0  0  0  0  0  0  0  0
  146.5025  142.0451  154.4207 C   0  0  0  0  0  0  0  0  0  0  0  0
  145.9512  140.7043  154.9399 C   0  0  0  0  0  0  0  0  0  0  0  0
  146.8587  139.6705  154.2449 C   0  0  1  0  0  0  0  0  0  0  0  0
  147.0970  140.3358  152.8940 C   0  0  0  0  0  0  0  0  0  0  0  0
  148.2619  139.6998  154.8946 C   0  0  1  0  0  0  0  0  0  0  0  0
  149.1100  138.4635  154.5389 C   0  0  0  0  0  0  0  0  0  0  0  0
  149.5410  138.5392  153.1965 O   0  0  0  0  0  0  0  0  0  0  0  0
  152.4879  141.4409  158.6121 S   0  0  0  0  0  0  0  0  0  0  0  0
  152.9401  142.2677  160.0826 C   0  0  0  0  0  0  0  0  0  0  0  0
  154.0661  141.7697  160.9263 C   0  0  0  0  0  0  0  0  0  0  0  0
  152.2376  143.7830  162.4131 H   0  0  0  0  0  0  0  0  0  0  0  0
  151.3890  145.0094  161.4815 H   0  0  0  0  0  0  0  0  0  0  0  0
  153.1445  144.9110  161.4127 H   0  0  0  0  0  0  0  0  0  0  0  0
  149.8472  143.4445  157.0558 H   0  0  0  0  0  0  0  0  0  0  0  0
  148.8725  142.8358  155.4542 H   0  0  0  0  0  0  0  0  0  0  0  0
  149.6949  140.8255  153.6894 H   0  0  0  0  0  0  0  0  0  0  0  0
  147.9788  142.3626  152.7983 H   0  0  0  0  0  0  0  0  0  0  0  0
  146.8025  142.7167  155.2253 H   0  0  0  0  0  0  0  0  0  0  0  0
  145.7435  142.5636  153.8335 H   0  0  0  0  0  0  0  0  0  0  0  0
  145.9915  140.6298  156.0271 H   0  0  0  0  0  0  0  0  0  0  0  0
  144.9115  140.5758  154.6359 H   0  0  0  0  0  0  0  0  0  0  0  0
  146.4152  138.6755  154.1951 H   0  0  0  0  0  0  0  0  0  0  0  0
  146.1796  140.5094  152.3284 H   0  0  0  0  0  0  0  0  0  0  0  0
  147.8073  139.8032  152.2600 H   0  0  0  0  0  0  0  0  0  0  0  0
  148.1499  139.7301  155.9803 H   0  0  0  0  0  0  0  0  0  0  0  0
  149.9915  138.4128  155.1786 H   0  0  0  0  0  0  0  0  0  0  0  0
  148.5522  137.5386  154.6862 H   0  0  0  0  0  0  0  0  0  0  0  0
  149.3576  137.7137  152.7746 H   0  0  0  0  0  0  0  0  0  0  0  0
  154.8111  142.5511  161.0769 H   0  0  0  0  0  0  0  0  0  0  0  0
  154.5629  140.9182  160.4610 H   0  0  0  0  0  0  0  0  0  0  0  0
  153.7047  141.4540  161.9053 H   0  0  0  0  0  0  0  0  0  0  0  0
  1  2  1  0  0  0  0
  1 21  1  0  0  0  0
  1 22  1  0  0  0  0
  1 23  1  0  0  0  0
  2 19  2  0  0  0  0
  2  3  1  0  0  0  0
  3  4  2  0  0  0  0
  4  5  1  0  0  0  0
  4 18  1  0  0  0  0
  5  6  1  0  0  0  0
  5 24  1  0  0  0  0
  6  7  2  0  0  0  0
  6  8  1  0  0  0  0
  8  9  1  0  0  0  0
  8 25  1  0  0  0  0
  9 15  1  0  0  0  0
  9 10  1  0  0  0  0
  9 26  1  0  0  0  0
 10 14  1  0  0  0  0
 10 11  1  0  0  0  0
 10 27  1  0  0  0  0
 11 12  1  0  0  0  0
 11 28  1  0  0  0  0
 11 29  1  0  0  0  0
 12 13  1  0  0  0  0
 12 30  1  0  0  0  0
 12 31  1  0  0  0  0
 13 14  1  0  0  0  0
 13 15  1  0  0  0  0
 13 32  1  0  0  0  0
 14 33  1  0  0  0  0
 14 34  1  0  0  0  0
 15 16  1  0  0  0  0
 15 35  1  0  0  0  0
 16 17  1  0  0  0  0
 16 36  1  0  0  0  0
 16 37  1  0  0  0  0
 17 38  1  0  0  0  0
 18 19  1  0  0  0  0
 19 20  1  0  0  0  0
 20 39  1  0  0  0  0
 20 40  1  0  0  0  0
 20 41  1  0  0  0  0
M  END
> <s_m_source_file>
AV-unprocessed.smi

> <i_m_source_file_index>
794

> <i_lp_mmshare_version>
43012

> <i_f3d_flags>
0

> <s_epik_input>
W0NIM11jMW5jKHNjMVtDSDNdKVtOSF1DKD1PKVtOSF1bQ0BIXShbQ0BASF0yMylbQ0BIXShbQ0gyXVtPSF0pW0NAQEhdKFtDSDJdMylbQ0gyXVtDSDJdMg==

> <s_epik_cmdline>
J2VwaWtfcHl0aG9uJywgJy1waCcsICc3LjAnLCAnLXRuJywgJzgnLCAnLW1hJywgJzIwMCcsICctbWV0YWxfYmluZGluZycsICctaW1hZScsICc8aW5maWxlLm1hZT4nLCAnLW9tYWUnLCAnPG91dGZpbGUubWFlPic=

> <r_lp_tautomer_probability>
0.999

> <r_epik_Ionization_Penalty>
0.000713029

> <r_epik_Ionization_Penalty_Charging>
0

> <r_epik_Ionization_Penalty_Neutral>
0.000713029

> <r_epik_State_Penalty>
0.000177984

> <r_epik_Charging_Adjusted_Penalty>
0.000177984

> <i_epik_Tot_Q>
0

> <i_epik_Tot_abs_Q>
0

> <r_epik_Metal_State_Penalty>
-0

> <b_epik_Metal_Only>
0

> <s_lp_Force_Field>
OPLS_2005

> <r_lp_Energy>
47.0696

> <b_lp_Chiralities_Consistent>
1

> <s_lp_Variant>
AV-unprocessed.smi:794-3

> <Gold.Version>
5.8.1

> <Gold.Id.Protein>
6NUR|6NUR_protein|mol2

> <Gold.PLP.Fitness>
48.2507

> <Gold.PLP.PLP>
-40.2164

> <Gold.PLP.part.hbond>
-3.9796

> <Gold.PLP.part.metal>
0.0000

> <Gold.PLP.part.buried>
-5.3026

> <Gold.PLP.part.nonpolar>
-31.6463

> <Gold.PLP.part.repulsive>
0.2376

> <Gold.PLP.ligand.clash>
0.0000

> <Gold.PLP.ligand.torsion>
0.2010

> <Gold.PLP.Chemscore.Hbond>
2.8060

> <Gold.PLP.Chemscore.CHOScore>
0.0000

> <Gold.PLP.Chemscore.Metal>
0.0000

> <Gold.Chemscore.Hbonds>
donor molecule, donor type, donor heavy atom, donor atom, acceptor molecule, acceptor atom, score
      L1  H     5    24       P1  8028  0.79
      L1  H     8    25       P1  8028  1.00
      L1  H    17    38       P1  7948  1.00

> <Gold.PLP.Chemscore.Internal.Correction>
0.0183

> <Gold.Rescore>
     Score         DG    S(hbond)    S(metal)    S(lipo)     H(rot)  DE(clash)    DE(int)     intcor
     19.17     -21.84       2.86        0.00      97.04       1.78       0.12       2.55       ----

> <Gold.Chemscore.Fitness>
19.1694

> <Gold.Chemscore.DG>
-21.8375

> <Gold.Chemscore.ZeroCoef>
-5.4800

> <Gold.Chemscore.Hbond>
2.8622

> <Gold.Chemscore.Metal>
0.0000

> <Gold.Chemscore.Lipo>
97.0425

> <Gold.Chemscore.Internal_Hbond>
0.0000

> <Gold.Chemscore.DEClash>
0.1186

> <Gold.Chemscore.DEInternal>
2.5495

> <Gold.Chemscore.Rot>
1.7798

> <Gold.Chemscore.Internal.Correction>
   9.000000E+99

> <Gold.Chemscore.Hbonds>
donor molecule, donor type, donor heavy atom, donor atom, acceptor molecule, acceptor atom, score
      L1  H     5    24       P1  8028  0.73
      L1  H     8    25       P1  8028  0.98
      L1  H    17    38       P1  7948  0.91

> <Gold.Chemscore.Hbond.Weighted>
-9.5597

> <Gold.Chemscore.Metal.Weighted>
-0.0000

> <Gold.Chemscore.Lipo.Weighted>
-11.3540

> <Gold.Chemscore.Internal_Hbond.Weighted>
0.0000

> <Gold.Chemscore.DEClash.Weighted>
0.1186

> <Gold.Chemscore.DEInternal.Weighted>
2.5495

> <Gold.Chemscore.Rot.Weighted>
4.5562

> <Gold.Chemscore.Internal.Correction.Weighted>
   9.000000E+99

> <Gold.Protein.RotatedTorsions>
[ 6907 6896 6895 6894 ] final   -7.47 input  -60.11 | X-H torsion
[ 7974 7965 7964 7962 ] final -127.06 input  175.53 | X-H torsion
[ 8008 7997 7996 7995 ] final  -39.14 input   59.86 | X-H torsion
[ 10167 10162 10161 10158 ] final  -65.26 input  -65.29 | X-H torsion
[ 10718 10713 10712 10709 ] final   64.38 input   66.30 | X-H torsion
[ 10763 10752 10751 10750 ] final  -56.60 input  -60.55 | X-H torsion
[ 11005 11000 10999 10996 ] final -108.02 input  -57.11 | X-H torsion

> <Gold.Protein.ActiveResidues>
 VAL166  LYS551  ARG553  GLY616  TRP617  ASP618  TYR619  PRO620  LYS621  CYS622 
 ASP623  PHE694  ASN695  SER759  ASP760  ASP761  ALA762  ILE779  LEU786  VAL792 
 PHE793  MET794  SER795  GLU796  ALA797  LYS798  CYS799  TRP800  GLU811  SER814 

> <Gold.Protein.RotatedAtoms>
  151.4490  135.1028  159.9692 H   0  0  0  0  0  0  0  0  0  0  0  0  # atno 6907 bound_to 6896
  152.4895  133.8457  159.7186 H   0  0  0  0  0  0  0  0  0  0  0  0  # atno 6908 bound_to 6896
  150.9035  133.7029  159.2900 H   0  0  0  0  0  0  0  0  0  0  0  0  # atno 6909 bound_to 6896
  144.9809  140.7639  143.4613 H   0  0  0  0  0  0  0  0  0  0  0  0  # atno 7974 bound_to 7965
  154.4027  140.1559  156.2814 H   0  0  0  0  0  0  0  0  0  0  0  0  # atno 8008 bound_to 7997
  155.8866  140.3441  155.5904 H   0  0  0  0  0  0  0  0  0  0  0  0  # atno 8009 bound_to 7997
  155.7606  140.0817  157.2147 H   0  0  0  0  0  0  0  0  0  0  0  0  # atno 8010 bound_to 7997
  140.5742  143.2320  151.6476 H   0  0  0  0  0  0  0  0  0  0  0  0  # atno 10167 bound_to 10162
  157.6036  130.9157  149.9839 H   0  0  0  0  0  0  0  0  0  0  0  0  # atno 10718 bound_to 10713
  154.2092  135.6397  153.5110 H   0  0  0  0  0  0  0  0  0  0  0  0  # atno 10763 bound_to 10752
  152.9994  135.5470  154.6234 H   0  0  0  0  0  0  0  0  0  0  0  0  # atno 10764 bound_to 10752
  154.5666  135.2913  155.0841 H   0  0  0  0  0  0  0  0  0  0  0  0  # atno 10765 bound_to 10752
  141.0924  133.9032  157.2045 H   0  0  0  0  0  0  0  0  0  0  0  0  # atno 11005 bound_to 11000
  145.2422  139.2067  143.4986 LP  0  0  0  0  0  0  0  0  0  0  0  0  # atno 17320 bound_to 7965
  146.3408  140.2320  142.8593 LP  0  0  0  0  0  0  0  0  0  0  0  0  # atno 17321 bound_to 7965
  139.5134  144.3445  152.0709 LP  0  0  0  0  0  0  0  0  0  0  0  0  # atno 17342 bound_to 10162
  140.2586  144.4091  150.6194 LP  0  0  0  0  0  0  0  0  0  0  0  0  # atno 17343 bound_to 10162
  156.1116  130.3650  150.0040 LP  0  0  0  0  0  0  0  0  0  0  0  0  # atno 17370 bound_to 10713
  156.8137  130.9334  151.3643 LP  0  0  0  0  0  0  0  0  0  0  0  0  # atno 17371 bound_to 10713
  139.9752  135.0116  156.9614 LP  0  0  0  0  0  0  0  0  0  0  0  0  # atno 17394 bound_to 11000
  140.5221  134.0897  155.7294 LP  0  0  0  0  0  0  0  0  0  0  0  0  # atno 17395 bound_to 11000

$$$$
