#       Name:                AV-unprocessed.smi:2792
#       Creating user name   scv26
#       Creation time:       Fri Mar 27 15:20:55 2020


#       File generated by GOLD software.
#

@<TRIPOS>MOLECULE
AV-unprocessed.smi:2792
    49    51     1
SMALL
NO_CHARGES


@<TRIPOS>ATOM
      1 ****        -3.4097  -3.3843   3.5398 C.3            1 S1                 0.0000
      2 ****        -1.8787  -3.2584   3.4573 C.3            1 S1                 0.0000
      3 ****        -1.3283  -2.5063   2.2207 C.3            1 S1                 0.0000
      4 ****        -1.7863  -3.1505   0.8947 C.3            1 S1                 0.0000
      5 ****        -1.8408  -1.1876   2.2502 O.3            1 S1                 0.0000
      6 ****         0.2173  -2.4194   2.3244 C.3            1 S1                 0.0000
      7 ****         0.8638  -1.7753   1.1902 N.pl3          1 S1                 0.0000
      8 ****         1.3910  -2.3996   0.0810 C.2            1 S1                 0.0000
      9 ****         1.9229  -1.6047  -0.8073 N.2            1 S1                 0.0000
     10 ****         1.7605  -0.3375  -0.2626 C.ar           1 S1                 0.0000
     11 ****         2.1033   0.9699  -0.6940 C.ar           1 S1                 0.0000
     12 ****         2.7297   1.1755  -1.8737 N.pl3          1 S1                 0.0000
     13 ****         2.7936   2.5139  -2.4523 C.3            1 S1                 0.0000
     14 ****         1.4490   3.1111  -2.8373 C.ar           1 S1                 0.0000
     15 ****         0.5260   2.3634  -3.6000 C.ar           1 S1                 0.0000
     16 ****        -0.7196   2.9202  -3.9494 C.ar           1 S1                 0.0000
     17 ****        -1.0467   4.2274  -3.5403 C.ar           1 S1                 0.0000
     18 ****        -0.1265   4.9786  -2.7837 C.ar           1 S1                 0.0000
     19 ****         1.1196   4.4223  -2.4346 C.ar           1 S1                 0.0000
     20 ****         1.7887   2.0086   0.1241 N.ar           1 S1                 0.0000
     21 ****         1.1685   1.7822   1.2863 C.ar           1 S1                 0.0000
     22 ****         0.7830   0.6179   1.8138 N.ar           1 S1                 0.0000
     23 ****         1.1018  -0.4259   0.9957 C.ar           1 S1                 0.0000
     24 ****        -3.7020  -3.8647   4.4737 H              1 S1                 0.0000
     25 ****        -3.8111  -3.9905   2.7284 H              1 S1                 0.0000
     26 ****        -3.8967  -2.4096   3.5082 H              1 S1                 0.0000
     27 ****        -1.5287  -2.7599   4.3625 H              1 S1                 0.0000
     28 ****        -1.4493  -4.2607   3.4883 H              1 S1                 0.0000
     29 ****        -1.4166  -4.1724   0.8073 H              1 S1                 0.0000
     30 ****        -1.4302  -2.5949   0.0271 H              1 S1                 0.0000
     31 ****        -2.8722  -3.1827   0.8110 H              1 S1                 0.0000
     32 ****        -1.4390  -0.6926   1.5523 H              1 S1                 0.0000
     33 ****         0.5095  -1.8864   3.2306 H              1 S1                 0.0000
     34 ****         0.6363  -3.4222   2.4184 H              1 S1                 0.0000
     35 ****         1.3602  -3.4712  -0.0526 H              1 S1                 0.0000
     36 ****         2.9994   0.4204  -2.4875 H              1 S1                 0.0000
     37 ****         3.3145   3.1800  -1.7631 H              1 S1                 0.0000
     38 ****         3.4100   2.4633  -3.3500 H              1 S1                 0.0000
     39 ****         0.7695   1.3598  -3.9168 H              1 S1                 0.0000
     40 ****        -1.4243   2.3441  -4.5311 H              1 S1                 0.0000
     41 ****        -2.0023   4.6545  -3.8072 H              1 S1                 0.0000
     42 ****        -0.3766   5.9814  -2.4700 H              1 S1                 0.0000
     43 ****         1.8189   5.0034  -1.8514 H              1 S1                 0.0000
     44 ****         0.9500   2.6591   1.8776 H              1 S1                 0.0000
     45 ****        -1.6281  -0.7629   3.1303 LP             1 S1                 0.0000
     46 ****        -2.8323  -1.2083   2.1211 LP             1 S1                 0.0000
     47 ****         2.3487  -1.8510  -1.6779 LP             1 S1                 0.0000
     48 ****         2.0214   2.9435  -0.1438 LP             1 S1                 0.0000
     49 ****         0.3200   0.5233   2.6952 LP             1 S1                 0.0000
@<TRIPOS>BOND
    1    1    2 1     
    2    1   24 1     
    3    1   25 1     
    4    1   26 1     
    5    2    3 1     
    6    2   27 1     
    7    2   28 1     
    8    3    4 1     
    9    3    5 1     
   10    3    6 1     
   11    4   29 1     
   12    4   30 1     
   13    4   31 1     
   14    5   32 1     
   15    6    7 1     
   16    6   33 1     
   17    6   34 1     
   18    7   23 1     
   19    7    8 1     
   20    8    9 2     
   21    8   35 1     
   22    9   10 1     
   23   10   23 ar    
   24   10   11 ar    
   25   11   12 1     
   26   11   20 ar    
   27   12   13 1     
   28   12   36 1     
   29   13   14 1     
   30   13   37 1     
   31   13   38 1     
   32   14   19 ar    
   33   14   15 ar    
   34   15   16 ar    
   35   15   39 1     
   36   16   17 ar    
   37   16   40 1     
   38   17   18 ar    
   39   17   41 1     
   40   18   19 ar    
   41   18   42 1     
   42   19   43 1     
   43   20   21 ar    
   44   21   22 ar    
   45   21   44 1     
   46   22   23 ar    
   47    5   45 1     
   48    5   46 1     
   49    9   47 1     
   50   20   48 1     
   51   22   49 1     
@<TRIPOS>SUBSTRUCTURE
      1 S1             1
@<TRIPOS>SET
LONE_PAIRS      STATIC     ATOMS    <user>   **** ""
5 45 46 47 48 49
DONOR_HYDROGENS      STATIC     ATOMS    <user>   **** ""
2 32 36
ATOM$BLUE        STATIC     ATOMS    COLORGROUP SYSTEM
5 45 46 47 48 49
ATOM$RED        STATIC     ATOMS    COLORGROUP SYSTEM
2 32 36
