#       Name:                AV-unprocessed.smi:550
#       Creating user name   scv26
#       Creation time:       Thu Mar 26 23:39:15 2020


#       File generated by GOLD software.
#

@<TRIPOS>MOLECULE
AV-unprocessed.smi:550
    49    51     1
SMALL
NO_CHARGES


@<TRIPOS>ATOM
      1 ****         2.0921   0.5486   0.3861 O.2            1 S1                 0.0000
      2 ****         1.5631  -0.5509   0.5463 C.2            1 S1                 0.0000
      3 ****         2.2561  -1.6929   0.6595 N.am           1 S1                 0.0000
      4 ****         3.7123  -1.7948   0.6373 C.3            1 S1                 0.0000
      5 ****         4.2938  -1.7470  -0.7947 C.3            1 S1                 0.0000
      6 ****         3.8068  -2.9195  -1.6764 C.3            1 S1                 0.0000
      7 ****         4.6011  -4.1849  -1.3236 C.3            1 S1                 0.0000
      8 ****         6.2512  -3.6057  -0.7745 S.o2           1 S1                 0.0000
      9 ****         6.4760  -4.0536   0.6082 O.2            1 S1                 0.0000
     10 ****         7.2454  -3.8669  -1.8264 O.2            1 S1                 0.0000
     11 ****         5.8290  -1.8219  -0.7754 C.3            1 S1                 0.0000
     12 ****         0.2390  -0.7749   0.6139 N.am           1 S1                 0.0000
     13 ****        -0.8256   0.1676   0.5807 C.ar           1 S1                 0.0000
     14 ****        -2.1281  -0.3222   0.3425 C.ar           1 S1                 0.0000
     15 ****        -3.2198   0.5698   0.3174 C.ar           1 S1                 0.0000
     16 ****        -2.9946   1.9477   0.5432 C.ar           1 S1                 0.0000
     17 ****        -4.0074   2.9170   0.5406 N.3            1 S1                 0.0000
     18 ****        -4.6308   3.1308  -0.7538 C.3            1 S1                 0.0000
     19 ****        -5.9226   3.8973  -0.4615 C.3            1 S1                 0.0000
     20 ****        -6.2477   3.5757   1.0022 C.3            1 S1                 0.0000
     21 ****        -5.0946   2.6871   1.4783 C.3            1 S1                 0.0000
     22 ****        -1.7353   2.3770   0.7747 N.pl3          1 S1                 1.0000
     23 ****        -0.6623   1.5571   0.8048 C.ar           1 S1                 0.0000
     24 ****         1.7432  -2.5537   0.7836 H              1 S1                 0.0000
     25 ****         4.1396  -0.9938   1.2431 H              1 S1                 0.0000
     26 ****         3.9905  -2.7260   1.1312 H              1 S1                 0.0000
     27 ****         3.9942  -0.8025  -1.2508 H              1 S1                 0.0000
     28 ****         2.7321  -3.0864  -1.6043 H              1 S1                 0.0000
     29 ****         4.0069  -2.6688  -2.7188 H              1 S1                 0.0000
     30 ****         4.1377  -4.7203  -0.4949 H              1 S1                 0.0000
     31 ****         4.7036  -4.8695  -2.1658 H              1 S1                 0.0000
     32 ****         6.2427  -1.3842  -1.6843 H              1 S1                 0.0000
     33 ****         6.2841  -1.3239   0.0812 H              1 S1                 0.0000
     34 ****        -0.0423  -1.7426   0.6727 H              1 S1                 0.0000
     35 ****        -2.2940  -1.3767   0.1752 H              1 S1                 0.0000
     36 ****        -4.2144   0.1941   0.1265 H              1 S1                 0.0000
     37 ****        -3.9737   3.6915  -1.4192 H              1 S1                 0.0000
     38 ****        -4.8584   2.1758  -1.2295 H              1 S1                 0.0000
     39 ****        -5.7584   4.9694  -0.5766 H              1 S1                 0.0000
     40 ****        -6.7260   3.6096  -1.1406 H              1 S1                 0.0000
     41 ****        -6.2889   4.4958   1.5865 H              1 S1                 0.0000
     42 ****        -7.2083   3.0710   1.1100 H              1 S1                 0.0000
     43 ****        -5.4025   1.6411   1.4693 H              1 S1                 0.0000
     44 ****        -4.7909   2.9379   2.4952 H              1 S1                 0.0000
     45 ****         0.2738   2.0497   1.0196 H              1 S1                 0.0000
     46 ****        -1.5870   3.3729   0.9405 H              1 S1                 0.0000
     47 ****         3.0881   0.6215   0.3344 LP             1 S1                 0.0000
     48 ****         1.5260   1.3692   0.3077 LP             1 S1                 0.0000
     49 ****        -3.4860   3.7229   0.8210 LP             1 S1                 0.0000
@<TRIPOS>BOND
    1    1    2 2     
    2    2    3 am    
    3    2   12 am    
    4    3    4 1     
    5    3   24 1     
    6    4    5 1     
    7    4   25 1     
    8    4   26 1     
    9    5   11 1     
   10    5    6 1     
   11    5   27 1     
   12    6    7 1     
   13    6   28 1     
   14    6   29 1     
   15    7    8 1     
   16    7   30 1     
   17    7   31 1     
   18    8    9 2     
   19    8   10 2     
   20    8   11 1     
   21   11   32 1     
   22   11   33 1     
   23   12   13 1     
   24   12   34 1     
   25   13   23 ar    
   26   13   14 ar    
   27   14   15 ar    
   28   14   35 1     
   29   15   16 ar    
   30   15   36 1     
   31   16   17 1     
   32   16   22 ar    
   33   17   21 1     
   34   17   18 1     
   35   18   19 1     
   36   18   37 1     
   37   18   38 1     
   38   19   20 1     
   39   19   39 1     
   40   19   40 1     
   41   20   21 1     
   42   20   41 1     
   43   20   42 1     
   44   21   43 1     
   45   21   44 1     
   46   22   23 ar    
   47   22   46 1     
   48   23   45 1     
   49    1   47 1     
   50    1   48 1     
   51   17   49 1     
@<TRIPOS>SUBSTRUCTURE
      1 S1             1
@<TRIPOS>SET
LONE_PAIRS      STATIC     ATOMS    <user>   **** ""
5 47 48 9 10 49
DONOR_HYDROGENS      STATIC     ATOMS    <user>   **** ""
3 24 34 46
ATOM$BLUE        STATIC     ATOMS    COLORGROUP SYSTEM
5 47 48 9 10 49
ATOM$RED        STATIC     ATOMS    COLORGROUP SYSTEM
3 24 34 46
