AV-unprocessed.smi:887|AV-procd|sdf|4053|dock1
  -GOLD-   22720 1543D 1   1.00000     0.00000
 Structure written by MMmdl.
 31 32  0  0  0  0  0  0  0  0  1 V2000
  146.8044  139.0265  152.2291 C   0  0  0  0  0  0  0  0  0  0  0  0
  147.9862  138.4798  152.8778 N   0  0  0  0  0  0  0  0  0  0  0  0
  148.6860  139.1135  153.8309 C   0  0  0  0  0  0  0  0  0  0  0  0
  148.3894  140.2293  154.2577 O   0  0  0  0  0  0  0  0  0  0  0  0
  149.9008  138.3755  154.3973 C   0  0  0  0  0  0  0  0  0  0  0  0
  150.7115  139.2787  155.2709 C   0  0  0  0  0  0  0  0  0  0  0  0
  151.9706  139.5791  154.9753 N   0  0  0  0  0  0  0  0  0  0  0  0
  152.3491  140.4438  156.0120 O   0  0  0  0  0  0  0  0  0  0  0  0
  151.2744  140.5347  156.8324 C   0  0  0  0  0  0  0  0  0  0  0  0
  151.3382  141.4700  157.9991 C   0  0  1  0  0  0  0  0  0  0  0  0
  152.4472  141.0666  158.9956 C   0  0  0  0  0  0  0  0  0  0  0  0
  152.7459  142.1528  160.0146 C   0  0  0  0  0  0  0  0  0  0  0  0
  152.2902  143.4131  159.9146 C   0  0  0  0  0  0  0  0  0  0  0  0
  151.4304  143.9015  158.7640 C   0  0  0  0  0  0  0  0  0  0  0  0
  151.4714  142.9413  157.5614 C   0  0  0  0  0  0  0  0  0  0  0  0
  150.2115  139.8609  156.3962 N   0  0  0  0  0  0  0  0  0  0  0  0
  146.3833  138.2924  151.5421 H   0  0  0  0  0  0  0  0  0  0  0  0
  147.0555  139.9220  151.6595 H   0  0  0  0  0  0  0  0  0  0  0  0
  146.0395  139.2832  152.9632 H   0  0  0  0  0  0  0  0  0  0  0  0
  148.2969  137.5660  152.5800 H   0  0  0  0  0  0  0  0  0  0  0  0
  149.5718  137.5074  154.9705 H   0  0  0  0  0  0  0  0  0  0  0  0
  150.5190  137.9994  153.5812 H   0  0  0  0  0  0  0  0  0  0  0  0
  150.3843  141.3846  158.5223 H   0  0  0  0  0  0  0  0  0  0  0  0
  152.1712  140.1464  159.5117 H   0  0  0  0  0  0  0  0  0  0  0  0
  153.3775  140.8632  158.4638 H   0  0  0  0  0  0  0  0  0  0  0  0
  153.3654  141.8728  160.8540 H   0  0  0  0  0  0  0  0  0  0  0  0
  152.5250  144.1317  160.6862 H   0  0  0  0  0  0  0  0  0  0  0  0
  150.4084  144.0087  159.1280 H   0  0  0  0  0  0  0  0  0  0  0  0
  151.7653  144.8932  158.4587 H   0  0  0  0  0  0  0  0  0  0  0  0
  152.4124  143.0759  157.0260 H   0  0  0  0  0  0  0  0  0  0  0  0
  150.6776  143.2027  156.8605 H   0  0  0  0  0  0  0  0  0  0  0  0
  1  2  1  0  0  0  0
  1 17  1  0  0  0  0
  1 18  1  0  0  0  0
  1 19  1  0  0  0  0
  2  3  1  0  0  0  0
  2 20  1  0  0  0  0
  3  4  2  0  0  0  0
  3  5  1  0  0  0  0
  5  6  1  0  0  0  0
  5 21  1  0  0  0  0
  5 22  1  0  0  0  0
  6 16  1  0  0  0  0
  6  7  2  0  0  0  0
  7  8  1  0  0  0  0
  8  9  1  0  0  0  0
  9 10  1  0  0  0  0
  9 16  2  0  0  0  0
 10 15  1  0  0  0  0
 10 11  1  0  0  0  0
 10 23  1  0  0  0  0
 11 12  1  0  0  0  0
 11 24  1  0  0  0  0
 11 25  1  0  0  0  0
 12 13  2  0  0  0  0
 12 26  1  0  0  0  0
 13 14  1  0  0  0  0
 13 27  1  0  0  0  0
 14 15  1  0  0  0  0
 14 28  1  0  0  0  0
 14 29  1  0  0  0  0
 15 30  1  0  0  0  0
 15 31  1  0  0  0  0
M  END
> <s_m_source_file>
AV-unprocessed.smi

> <i_m_source_file_index>
887

> <i_lp_mmshare_version>
43012

> <i_f3d_flags>
0

> <s_epik_input>
W0NIM11bTkhdQyg9TylbQ0gyXWMxbm9jKG4xKVtDQEBIXTJbQ0gyXVtDSF09W0NIXVtDSDJdW0NIMl0y

> <s_epik_cmdline>
J2VwaWtfcHl0aG9uJywgJy1waCcsICc3LjAnLCAnLXRuJywgJzgnLCAnLW1hJywgJzIwMCcsICctbWV0YWxfYmluZGluZycsICctaW1hZScsICc8aW5maWxlLm1hZT4nLCAnLW9tYWUnLCAnPG91dGZpbGUubWFlPic=

> <r_lp_tautomer_probability>
1

> <r_epik_Ionization_Penalty>
1.02915e-07

> <r_epik_Ionization_Penalty_Charging>
0

> <r_epik_Ionization_Penalty_Neutral>
1.02915e-07

> <r_epik_State_Penalty>
-0

> <r_epik_Charging_Adjusted_Penalty>
0

> <i_epik_Tot_Q>
0

> <i_epik_Tot_abs_Q>
0

> <r_epik_Metal_State_Penalty>
-0

> <b_epik_Metal_Only>
0

> <s_lp_Force_Field>
OPLS_2005

> <r_lp_Energy>
6.05076

> <b_lp_Chiralities_Consistent>
1

> <s_lp_Variant>
AV-unprocessed.smi:887-2

> <Gold.Version>
5.8.1

> <Gold.Id.Protein>
6NUR|6NUR_protein|mol2

> <Gold.PLP.Fitness>
40.3455

> <Gold.PLP.PLP>
-31.7626

> <Gold.PLP.part.hbond>
-4.0000

> <Gold.PLP.part.metal>
0.0000

> <Gold.PLP.part.buried>
-0.3448

> <Gold.PLP.part.nonpolar>
-27.4445

> <Gold.PLP.part.repulsive>
0.2007

> <Gold.PLP.ligand.clash>
0.0000

> <Gold.PLP.ligand.torsion>
0.1781

> <Gold.PLP.Chemscore.Hbond>
2.9440

> <Gold.PLP.Chemscore.CHOScore>
0.0000

> <Gold.PLP.Chemscore.Metal>
0.0000

> <Gold.Chemscore.Hbonds>
donor molecule, donor type, donor heavy atom, donor atom, acceptor molecule, acceptor atom, score
      L1  H     2    20       P1  7948  1.00
      P1  H  7989  7998       L1     7  0.94
      P1  H  7997  8008       L1     8  1.00

> <Gold.PLP.Chemscore.Internal.Correction>
0.1070

> <Gold.Rescore>
     Score         DG    S(hbond)    S(metal)    S(lipo)     H(rot)  DE(clash)    DE(int)     intcor
     14.09     -15.88       1.80        0.00      73.16       1.63       0.27       1.51       ----

> <Gold.Chemscore.Fitness>
14.0916

> <Gold.Chemscore.DG>
-15.8789

> <Gold.Chemscore.ZeroCoef>
-5.4800

> <Gold.Chemscore.Hbond>
1.8008

> <Gold.Chemscore.Metal>
0.0000

> <Gold.Chemscore.Lipo>
73.1639

> <Gold.Chemscore.Internal_Hbond>
0.0000

> <Gold.Chemscore.DEClash>
0.2737

> <Gold.Chemscore.DEInternal>
1.5137

> <Gold.Chemscore.Rot>
1.6312

> <Gold.Chemscore.Internal.Correction>
   9.000000E+99

> <Gold.Chemscore.Hbonds>
donor molecule, donor type, donor heavy atom, donor atom, acceptor molecule, acceptor atom, score
      L1  H     2    20       P1  7948  1.00
      P1  H  7989  7998       L1     7  0.07
      P1  H  7997  8008       L1     8  0.45

> <Gold.Chemscore.Hbond.Weighted>
-6.0146

> <Gold.Chemscore.Metal.Weighted>
-0.0000

> <Gold.Chemscore.Lipo.Weighted>
-8.5602

> <Gold.Chemscore.Internal_Hbond.Weighted>
0.0000

> <Gold.Chemscore.DEClash.Weighted>
0.2737

> <Gold.Chemscore.DEInternal.Weighted>
1.5137

> <Gold.Chemscore.Rot.Weighted>
4.1758

> <Gold.Chemscore.Internal.Correction.Weighted>
   9.000000E+99

> <Gold.Protein.RotatedTorsions>
[ 6907 6896 6895 6894 ] final -157.51 input  -60.11 | X-H torsion
[ 7974 7965 7964 7962 ] final -117.43 input  175.53 | X-H torsion
[ 8008 7997 7996 7995 ] final  -37.24 input   59.86 | X-H torsion
[ 10167 10162 10161 10158 ] final   85.65 input  -65.29 | X-H torsion
[ 10718 10713 10712 10709 ] final -119.01 input   66.30 | X-H torsion
[ 10763 10752 10751 10750 ] final -151.59 input  -60.55 | X-H torsion
[ 11005 11000 10999 10996 ] final   55.65 input  -57.11 | X-H torsion

> <Gold.Protein.ActiveResidues>
 VAL166  LYS551  ARG553  GLY616  TRP617  ASP618  TYR619  PRO620  LYS621  CYS622 
 ASP623  PHE694  ASN695  SER759  ASP760  ASP761  ALA762  ILE779  LEU786  VAL792 
 PHE793  MET794  SER795  GLU796  ALA797  LYS798  CYS799  TRP800  GLU811  SER814 

> <Gold.Protein.RotatedAtoms>
  151.3040  133.4110  159.2641 H   0  0  0  0  0  0  0  0  0  0  0  0  # atno 6907 bound_to 6896
  151.0171  134.9441  159.8049 H   0  0  0  0  0  0  0  0  0  0  0  0  # atno 6908 bound_to 6896
  152.5315  134.3004  159.9129 H   0  0  0  0  0  0  0  0  0  0  0  0  # atno 6909 bound_to 6896
  145.0853  140.8454  143.4014 H   0  0  0  0  0  0  0  0  0  0  0  0  # atno 7974 bound_to 7965
  154.4057  140.1609  156.2504 H   0  0  0  0  0  0  0  0  0  0  0  0  # atno 8008 bound_to 7997
  155.9124  140.3426  155.6086 H   0  0  0  0  0  0  0  0  0  0  0  0  # atno 8009 bound_to 7997
  155.7320  140.0781  157.2275 H   0  0  0  0  0  0  0  0  0  0  0  0  # atno 8010 bound_to 7997
  139.8956  144.6360  150.8692 H   0  0  0  0  0  0  0  0  0  0  0  0  # atno 10167 bound_to 10162
  156.1149  130.6278  150.9363 H   0  0  0  0  0  0  0  0  0  0  0  0  # atno 10718 bound_to 10713
  154.8048  135.3256  154.7459 H   0  0  0  0  0  0  0  0  0  0  0  0  # atno 10763 bound_to 10752
  153.8120  135.6895  153.4844 H   0  0  0  0  0  0  0  0  0  0  0  0  # atno 10764 bound_to 10752
  153.1786  135.4595  154.9943 H   0  0  0  0  0  0  0  0  0  0  0  0  # atno 10765 bound_to 10752
  140.0590  134.5629  155.9174 H   0  0  0  0  0  0  0  0  0  0  0  0  # atno 11005 bound_to 11000
  145.1129  139.2745  143.5628 LP  0  0  0  0  0  0  0  0  0  0  0  0  # atno 17320 bound_to 7965
  146.3531  140.0730  142.8622 LP  0  0  0  0  0  0  0  0  0  0  0  0  # atno 17321 bound_to 7965
  140.7717  143.3476  151.2079 LP  0  0  0  0  0  0  0  0  0  0  0  0  # atno 17342 bound_to 10162
  139.7071  143.9438  152.2931 LP  0  0  0  0  0  0  0  0  0  0  0  0  # atno 17343 bound_to 10162
  157.6332  131.0919  150.8400 LP  0  0  0  0  0  0  0  0  0  0  0  0  # atno 17370 bound_to 10713
  156.8505  130.5079  149.5312 LP  0  0  0  0  0  0  0  0  0  0  0  0  # atno 17371 bound_to 10713
  141.1965  133.6592  156.5694 LP  0  0  0  0  0  0  0  0  0  0  0  0  # atno 17394 bound_to 11000
  140.3799  134.7532  157.4654 LP  0  0  0  0  0  0  0  0  0  0  0  0  # atno 17395 bound_to 11000

$$$$
