AV-unprocessed.smi:2446|AV-procd|sdf|9642|dock5
  -GOLD-   2272013273D 1   1.00000     0.00000
 Structure written by MMmdl.
 39 40  0  0  0  0  0  0  0  0  1 V2000
  146.7560  142.6463  153.8153 C   0  0  0  0  0  0  0  0  0  0  0  0
  147.3254  141.2378  153.8236 C   0  0  0  0  0  0  0  0  0  0  0  0
  146.7442  140.2386  153.0138 C   0  0  0  0  0  0  0  0  0  0  0  0
  147.1875  138.9655  152.9659 N   0  0  0  0  0  0  0  0  0  0  0  0
  148.2406  138.6370  153.7418 C   0  0  0  0  0  0  0  0  0  0  0  0
  148.8971  139.5528  154.5867 C   0  0  0  0  0  0  0  0  0  0  0  0
  148.4409  140.8928  154.6250 C   0  0  0  0  0  0  0  0  0  0  0  0
  149.0171  141.8960  155.4534 N   0  0  0  0  0  0  0  0  0  0  0  0
  150.1533  141.8601  156.1773 C   0  0  0  0  0  0  0  0  0  0  0  0
  150.9035  140.8903  156.2621 O   0  0  0  0  0  0  0  0  0  0  0  0
  150.4343  143.0117  156.8153 N   0  0  0  0  0  0  0  0  0  0  0  0
  151.5769  143.3192  157.6792 C   0  0  1  0  0  0  0  0  0  0  0  0
  151.2089  144.4782  158.6226 C   0  0  0  0  0  0  0  0  0  0  0  0
  152.3590  144.7973  159.5896 C   0  0  0  0  0  0  0  0  0  0  0  0
  152.7803  143.5527  160.3867 C   0  0  0  0  0  0  0  0  0  0  0  0
  153.1639  142.3843  159.4544 C   0  0  1  0  0  0  0  0  0  0  0  0
  153.6083  141.1346  160.2418 C   0  0  0  0  0  0  0  0  0  0  0  0
  152.7688  140.8828  161.2467 F   0  0  0  0  0  0  0  0  0  0  0  0
  153.6428  140.0751  159.4332 F   0  0  0  0  0  0  0  0  0  0  0  0
  154.8318  141.3188  160.7379 F   0  0  0  0  0  0  0  0  0  0  0  0
  152.0003  142.0747  158.4889 C   0  0  0  0  0  0  0  0  0  0  0  0
  145.8897  142.7195  153.1572 H   0  0  0  0  0  0  0  0  0  0  0  0
  147.5051  143.3577  153.4666 H   0  0  0  0  0  0  0  0  0  0  0  0
  146.4427  142.9374  154.8184 H   0  0  0  0  0  0  0  0  0  0  0  0
  145.8955  140.4647  152.3849 H   0  0  0  0  0  0  0  0  0  0  0  0
  148.5681  137.6089  153.6930 H   0  0  0  0  0  0  0  0  0  0  0  0
  149.7210  139.2059  155.1904 H   0  0  0  0  0  0  0  0  0  0  0  0
  148.5443  142.7874  155.4335 H   0  0  0  0  0  0  0  0  0  0  0  0
  149.7711  143.7627  156.6885 H   0  0  0  0  0  0  0  0  0  0  0  0
  152.4176  143.6495  157.0663 H   0  0  0  0  0  0  0  0  0  0  0  0
  150.9606  145.3680  158.0426 H   0  0  0  0  0  0  0  0  0  0  0  0
  150.3159  144.2230  159.1952 H   0  0  0  0  0  0  0  0  0  0  0  0
  153.2131  145.1791  159.0289 H   0  0  0  0  0  0  0  0  0  0  0  0
  152.0585  145.5917  160.2735 H   0  0  0  0  0  0  0  0  0  0  0  0
  153.6190  143.8069  161.0352 H   0  0  0  0  0  0  0  0  0  0  0  0
  151.9641  143.2497  161.0437 H   0  0  0  0  0  0  0  0  0  0  0  0
  154.0151  142.7070  158.8526 H   0  0  0  0  0  0  0  0  0  0  0  0
  151.1465  141.6978  159.0538 H   0  0  0  0  0  0  0  0  0  0  0  0
  152.2930  141.2731  157.8109 H   0  0  0  0  0  0  0  0  0  0  0  0
  1  2  1  0  0  0  0
  1 22  1  0  0  0  0
  1 23  1  0  0  0  0
  1 24  1  0  0  0  0
  2  7  1  0  0  0  0
  2  3  2  0  0  0  0
  3  4  1  0  0  0  0
  3 25  1  0  0  0  0
  4  5  2  0  0  0  0
  5  6  1  0  0  0  0
  5 26  1  0  0  0  0
  6  7  2  0  0  0  0
  6 27  1  0  0  0  0
  7  8  1  0  0  0  0
  8  9  1  0  0  0  0
  8 28  1  0  0  0  0
  9 10  2  0  0  0  0
  9 11  1  0  0  0  0
 11 12  1  0  0  0  0
 11 29  1  0  0  0  0
 12 21  1  0  0  0  0
 12 13  1  0  0  0  0
 12 30  1  0  0  0  0
 13 14  1  0  0  0  0
 13 31  1  0  0  0  0
 13 32  1  0  0  0  0
 14 15  1  0  0  0  0
 14 33  1  0  0  0  0
 14 34  1  0  0  0  0
 15 16  1  0  0  0  0
 15 35  1  0  0  0  0
 15 36  1  0  0  0  0
 16 17  1  0  0  0  0
 16 21  1  0  0  0  0
 16 37  1  0  0  0  0
 17 18  1  0  0  0  0
 17 19  1  0  0  0  0
 17 20  1  0  0  0  0
 21 38  1  0  0  0  0
 21 39  1  0  0  0  0
M  END
> <s_m_source_file>
AV-unprocessed.smi

> <i_m_source_file_index>
2446

> <i_lp_mmshare_version>
43012

> <i_f3d_flags>
0

> <s_epik_input>
W0NIM11jMVtjSF1uW2NIXVtjSF1jMVtOSF1DKD1PKVtOSF1bQ0BASF0yW0NIMl1bQ0gyXVtDSDJdW0NAQEhdKEMoRikoRilGKVtDSDJdMg==

> <s_epik_cmdline>
J2VwaWtfcHl0aG9uJywgJy1waCcsICc3LjAnLCAnLXRuJywgJzgnLCAnLW1hJywgJzIwMCcsICctbWV0YWxfYmluZGluZycsICctaW1hZScsICc8aW5maWxlLm1hZT4nLCAnLW9tYWUnLCAnPG91dGZpbGUubWFlPic=

> <r_epik_Ionization_Penalty>
0.20168

> <r_epik_Ionization_Penalty_Charging>
0

> <r_epik_Ionization_Penalty_Neutral>
0.20168

> <r_epik_State_Penalty>
0.191514

> <r_epik_Charging_Adjusted_Penalty>
0.191514

> <i_epik_Tot_Q>
0

> <i_epik_Tot_abs_Q>
0

> <r_epik_Metal_State_Penalty>
0.142371

> <b_epik_Metal_Only>
0

> <s_lp_Force_Field>
OPLS_2005

> <r_lp_Energy>
26.2068

> <b_lp_Chiralities_Consistent>
1

> <s_lp_Variant>
AV-unprocessed.smi:2446-2

> <Gold.Version>
5.8.1

> <Gold.Id.Protein>
6NUR|6NUR_protein|mol2

> <Gold.PLP.Fitness>
49.7148

> <Gold.PLP.PLP>
-39.6839

> <Gold.PLP.part.hbond>
-2.0000

> <Gold.PLP.part.metal>
0.0000

> <Gold.PLP.part.buried>
-1.9606

> <Gold.PLP.part.nonpolar>
-36.6263

> <Gold.PLP.part.repulsive>
0.6472

> <Gold.PLP.ligand.clash>
0.0000

> <Gold.PLP.ligand.torsion>
0.7535

> <Gold.PLP.Chemscore.Hbond>
1.8400

> <Gold.PLP.Chemscore.CHOScore>
2.0000

> <Gold.PLP.Chemscore.Metal>
0.0000

> <Gold.Chemscore.Hbonds>
donor molecule, donor type, donor heavy atom, donor atom, acceptor molecule, acceptor atom, score
      L1  H     8    28       P1  8028  0.85
      L1  H    11    29       P1  8028  0.99
      L1  C     3    25       P1 10175  1.00
      L1  C     5    26       P1  7948  1.00

> <Gold.PLP.Chemscore.Internal.Correction>
0.0179

> <Gold.Rescore>
     Score         DG    S(hbond)    S(metal)    S(lipo)     H(rot)  DE(clash)    DE(int)     intcor
     17.98     -22.56       1.85        0.00     115.04       1.00       1.49       3.09       ----

> <Gold.Chemscore.Fitness>
17.9796

> <Gold.Chemscore.DG>
-22.5637

> <Gold.Chemscore.ZeroCoef>
-5.4800

> <Gold.Chemscore.Hbond>
1.8515

> <Gold.Chemscore.Metal>
0.0000

> <Gold.Chemscore.Lipo>
115.0415

> <Gold.Chemscore.Internal_Hbond>
0.0000

> <Gold.Chemscore.DEClash>
1.4897

> <Gold.Chemscore.DEInternal>
3.0945

> <Gold.Chemscore.Rot>
1.0000

> <Gold.Chemscore.Internal.Correction>
   9.000000E+99

> <Gold.Chemscore.Hbonds>
donor molecule, donor type, donor heavy atom, donor atom, acceptor molecule, acceptor atom, score
      L1  H     8    28       P1  8028  0.82
      L1  H    11    29       P1  8028  0.94

> <Gold.Chemscore.Hbond.Weighted>
-6.1839

> <Gold.Chemscore.Metal.Weighted>
-0.0000

> <Gold.Chemscore.Lipo.Weighted>
-13.4599

> <Gold.Chemscore.Internal_Hbond.Weighted>
0.0000

> <Gold.Chemscore.DEClash.Weighted>
1.4897

> <Gold.Chemscore.DEInternal.Weighted>
3.0945

> <Gold.Chemscore.Rot.Weighted>
2.5600

> <Gold.Chemscore.Internal.Correction.Weighted>
   9.000000E+99

> <Gold.Protein.RotatedTorsions>
[ 6907 6896 6895 6894 ] final  -46.89 input  -60.11 | X-H torsion
[ 7974 7965 7964 7962 ] final  -79.58 input  175.53 | X-H torsion
[ 8008 7997 7996 7995 ] final  179.29 input   59.86 | X-H torsion
[ 10167 10162 10161 10158 ] final  -60.51 input  -65.29 | X-H torsion
[ 10718 10713 10712 10709 ] final  -56.62 input   66.30 | X-H torsion
[ 10763 10752 10751 10750 ] final  111.16 input  -60.55 | X-H torsion
[ 11005 11000 10999 10996 ] final   10.96 input  -57.11 | X-H torsion

> <Gold.Protein.ActiveResidues>
 VAL166  LYS551  ARG553  GLY616  TRP617  ASP618  TYR619  PRO620  LYS621  CYS622 
 ASP623  PHE694  ASN695  SER759  ASP760  ASP761  ALA762  ILE779  LEU786  VAL792 
 PHE793  MET794  SER795  GLU796  ALA797  LYS798  CYS799  TRP800  GLU811  SER814 

> <Gold.Protein.RotatedAtoms>
  150.9065  134.8480  159.7395 H   0  0  0  0  0  0  0  0  0  0  0  0  # atno 6907 bound_to 6896
  152.4921  134.4424  159.9558 H   0  0  0  0  0  0  0  0  0  0  0  0  # atno 6908 bound_to 6896
  151.4471  133.3588  159.2825 H   0  0  0  0  0  0  0  0  0  0  0  0  # atno 6909 bound_to 6896
  145.5713  140.9465  143.1394 H   0  0  0  0  0  0  0  0  0  0  0  0  # atno 7974 bound_to 7965
  156.0451  140.1312  157.0113 H   0  0  0  0  0  0  0  0  0  0  0  0  # atno 8008 bound_to 7997
  154.4409  140.1022  156.6364 H   0  0  0  0  0  0  0  0  0  0  0  0  # atno 8009 bound_to 7997
  155.5608  140.3464  155.4493 H   0  0  0  0  0  0  0  0  0  0  0  0  # atno 8010 bound_to 7997
  140.6067  143.2375  151.5806 H   0  0  0  0  0  0  0  0  0  0  0  0  # atno 10167 bound_to 10162
  156.1274  130.4161  150.0330 H   0  0  0  0  0  0  0  0  0  0  0  0  # atno 10718 bound_to 10713
  153.4593  135.3726  155.2329 H   0  0  0  0  0  0  0  0  0  0  0  0  # atno 10763 bound_to 10752
  154.8757  135.3905  154.3943 H   0  0  0  0  0  0  0  0  0  0  0  0  # atno 10764 bound_to 10752
  153.4515  135.7085  153.6170 H   0  0  0  0  0  0  0  0  0  0  0  0  # atno 10765 bound_to 10752
  140.5086  134.0675  155.7812 H   0  0  0  0  0  0  0  0  0  0  0  0  # atno 11005 bound_to 11000
  144.7436  139.7380  143.7301 LP  0  0  0  0  0  0  0  0  0  0  0  0  # atno 17320 bound_to 7965
  146.1782  139.4962  142.9883 LP  0  0  0  0  0  0  0  0  0  0  0  0  # atno 17321 bound_to 7965
  139.5330  144.2862  152.1190 LP  0  0  0  0  0  0  0  0  0  0  0  0  # atno 17342 bound_to 10162
  140.2053  144.4617  150.6412 LP  0  0  0  0  0  0  0  0  0  0  0  0  # atno 17343 bound_to 10162
  156.8251  130.9372  151.3639 LP  0  0  0  0  0  0  0  0  0  0  0  0  # atno 17370 bound_to 10713
  157.6455  130.8840  149.9530 LP  0  0  0  0  0  0  0  0  0  0  0  0  # atno 17371 bound_to 10713
  141.1398  133.9159  157.2352 LP  0  0  0  0  0  0  0  0  0  0  0  0  # atno 17394 bound_to 11000
  139.9672  135.0138  156.9418 LP  0  0  0  0  0  0  0  0  0  0  0  0  # atno 17395 bound_to 11000

$$$$
