AV-unprocessed.smi:2052|AV-procd|sdf|8328|dock4
  -GOLD-   2272010593D 1   1.00000     0.00000
 Structure written by MMmdl.
 41 42  0  0  0  0  0  0  0  0  1 V2000
  143.5436  143.8838  156.2020 C   0  0  0  0  0  0  0  0  0  0  0  0
  144.3217  142.2505  156.3273 S   0  0  0  0  0  0  0  0  0  0  0  0
  145.8323  142.5156  155.3521 C   0  0  2  0  0  0  0  0  0  0  0  0
  145.4824  143.0964  153.9728 C   0  0  0  0  0  0  0  0  0  0  0  0
  146.6589  141.2315  155.2147 C   0  0  0  0  0  0  0  0  0  0  0  0
  146.2355  140.1666  155.6654 O   0  0  0  0  0  0  0  0  0  0  0  0
  147.8380  141.3435  154.5831 N   0  0  0  0  0  0  0  0  0  0  0  0
  148.7438  140.2337  154.3032 C   0  0  0  0  0  0  0  0  0  0  0  0
  150.0748  140.3038  155.0411 C   0  0  0  0  0  0  0  0  0  0  0  0
  151.1603  139.5215  154.6015 C   0  0  0  0  0  0  0  0  0  0  0  0
  152.3754  139.6030  155.3061 C   0  0  0  0  0  0  0  0  0  0  0  0
  152.5551  140.3954  156.3832 N   0  0  0  0  0  0  0  0  0  0  0  0
  151.5194  141.1556  156.8170 C   0  0  0  0  0  0  0  0  0  0  0  0
  151.7214  141.9898  157.9375 N   0  0  0  0  0  0  0  0  0  0  0  0
  152.9216  141.7764  158.7440 C   0  0  0  0  0  0  0  0  0  0  0  0
  152.8294  142.5674  160.0598 C   0  0  0  0  0  0  0  0  0  0  0  0
  152.5957  143.9430  159.7768 O   0  0  0  0  0  0  0  0  0  0  0  0
  151.3671  144.1401  159.0849 C   0  0  0  0  0  0  0  0  0  0  0  0
  151.4043  143.4018  157.7358 C   0  0  0  0  0  0  0  0  0  0  0  0
  150.2581  141.1249  156.1765 C   0  0  0  0  0  0  0  0  0  0  0  0
  142.5809  143.8790  156.7132 H   0  0  0  0  0  0  0  0  0  0  0  0
  143.3782  144.1484  155.1577 H   0  0  0  0  0  0  0  0  0  0  0  0
  144.1710  144.6475  156.6613 H   0  0  0  0  0  0  0  0  0  0  0  0
  146.4295  143.2616  155.8788 H   0  0  0  0  0  0  0  0  0  0  0  0
  146.3772  143.2502  153.3681 H   0  0  0  0  0  0  0  0  0  0  0  0
  144.9860  144.0619  154.0727 H   0  0  0  0  0  0  0  0  0  0  0  0
  144.8128  142.4383  153.4174 H   0  0  0  0  0  0  0  0  0  0  0  0
  148.1142  142.2547  154.2474 H   0  0  0  0  0  0  0  0  0  0  0  0
  148.2442  139.3078  154.5887 H   0  0  0  0  0  0  0  0  0  0  0  0
  148.9222  140.1700  153.2283 H   0  0  0  0  0  0  0  0  0  0  0  0
  151.0673  138.8727  153.7429 H   0  0  0  0  0  0  0  0  0  0  0  0
  153.2273  139.0163  154.9962 H   0  0  0  0  0  0  0  0  0  0  0  0
  153.0430  140.7156  158.9674 H   0  0  0  0  0  0  0  0  0  0  0  0
  153.7986  142.0942  158.1785 H   0  0  0  0  0  0  0  0  0  0  0  0
  152.0336  142.1752  160.6951 H   0  0  0  0  0  0  0  0  0  0  0  0
  153.7595  142.4728  160.6201 H   0  0  0  0  0  0  0  0  0  0  0  0
  150.5326  143.7915  159.6955 H   0  0  0  0  0  0  0  0  0  0  0  0
  151.2185  145.2078  158.9236 H   0  0  0  0  0  0  0  0  0  0  0  0
  152.1649  143.8434  157.0906 H   0  0  0  0  0  0  0  0  0  0  0  0
  150.4477  143.5354  157.2327 H   0  0  0  0  0  0  0  0  0  0  0  0
  149.4383  141.7159  156.5557 H   0  0  0  0  0  0  0  0  0  0  0  0
  1  2  1  0  0  0  0
  1 21  1  0  0  0  0
  1 22  1  0  0  0  0
  1 23  1  0  0  0  0
  2  3  1  0  0  0  0
  3  4  1  0  0  0  0
  3  5  1  0  0  0  0
  3 24  1  0  0  0  0
  4 25  1  0  0  0  0
  4 26  1  0  0  0  0
  4 27  1  0  0  0  0
  5  6  2  0  0  0  0
  5  7  1  0  0  0  0
  7  8  1  0  0  0  0
  7 28  1  0  0  0  0
  8  9  1  0  0  0  0
  8 29  1  0  0  0  0
  8 30  1  0  0  0  0
  9 20  1  0  0  0  0
  9 10  2  0  0  0  0
 10 11  1  0  0  0  0
 10 31  1  0  0  0  0
 11 12  2  0  0  0  0
 11 32  1  0  0  0  0
 12 13  1  0  0  0  0
 13 14  1  0  0  0  0
 13 20  2  0  0  0  0
 14 19  1  0  0  0  0
 14 15  1  0  0  0  0
 15 16  1  0  0  0  0
 15 33  1  0  0  0  0
 15 34  1  0  0  0  0
 16 17  1  0  0  0  0
 16 35  1  0  0  0  0
 16 36  1  0  0  0  0
 17 18  1  0  0  0  0
 18 19  1  0  0  0  0
 18 37  1  0  0  0  0
 18 38  1  0  0  0  0
 19 39  1  0  0  0  0
 19 40  1  0  0  0  0
 20 41  1  0  0  0  0
M  END
> <s_m_source_file>
AV-unprocessed.smi

> <i_m_source_file_index>
2052

> <i_lp_mmshare_version>
43012

> <i_f3d_flags>
0

> <s_epik_input>
W0NIM11TW0NASF0oW0NIM10pQyg9TylbTkhdW0NIMl1jMVtjSF1bY0hdbmMoW2NIXTEpTjJbQ0gyXVtDSDJdT1tDSDJdW0NIMl0y

> <s_epik_cmdline>
J2VwaWtfcHl0aG9uJywgJy1waCcsICc3LjAnLCAnLXRuJywgJzgnLCAnLW1hJywgJzIwMCcsICctbWV0YWxfYmluZGluZycsICctaW1hZScsICc8aW5maWxlLm1hZT4nLCAnLW9tYWUnLCAnPG91dGZpbGUubWFlPic=

> <r_lp_tautomer_probability>
1

> <r_epik_Ionization_Penalty>
0.00463955

> <r_epik_Ionization_Penalty_Charging>
0

> <r_epik_Ionization_Penalty_Neutral>
0.00463955

> <r_epik_State_Penalty>
0.00335544

> <r_epik_Charging_Adjusted_Penalty>
0.00335544

> <i_epik_Tot_Q>
0

> <i_epik_Tot_abs_Q>
0

> <r_epik_Metal_State_Penalty>
-0

> <b_epik_Metal_Only>
0

> <s_lp_Force_Field>
OPLS_2005

> <r_lp_Energy>
14.3355

> <b_lp_Chiralities_Consistent>
1

> <s_lp_Variant>
AV-unprocessed.smi:2052-1

> <Gold.Version>
5.8.1

> <Gold.Id.Protein>
6NUR|6NUR_protein|mol2

> <Gold.PLP.Fitness>
42.9213

> <Gold.PLP.PLP>
-40.6126

> <Gold.PLP.part.hbond>
-1.0000

> <Gold.PLP.part.metal>
0.0000

> <Gold.PLP.part.buried>
-4.2503

> <Gold.PLP.part.nonpolar>
-34.9135

> <Gold.PLP.part.repulsive>
0.2233

> <Gold.PLP.ligand.clash>
0.0000

> <Gold.PLP.ligand.torsion>
0.4759

> <Gold.PLP.Chemscore.Hbond>
0.9600

> <Gold.PLP.Chemscore.CHOScore>
0.0000

> <Gold.PLP.Chemscore.Metal>
0.0000

> <Gold.Chemscore.Hbonds>
donor molecule, donor type, donor heavy atom, donor atom, acceptor molecule, acceptor atom, score
      P1  H  7997  8009       L1    12  0.74

> <Gold.PLP.Chemscore.Internal.Correction>
0.3804

> <Gold.Rescore>
     Score         DG    S(hbond)    S(metal)    S(lipo)     H(rot)  DE(clash)    DE(int)     intcor
     12.36     -12.89       0.05        0.00      98.48       1.67       0.01       0.52       ----

> <Gold.Chemscore.Fitness>
12.3552

> <Gold.Chemscore.DG>
-12.8901

> <Gold.Chemscore.ZeroCoef>
-5.4800

> <Gold.Chemscore.Hbond>
0.0474

> <Gold.Chemscore.Metal>
0.0000

> <Gold.Chemscore.Lipo>
98.4839

> <Gold.Chemscore.Internal_Hbond>
0.0000

> <Gold.Chemscore.DEClash>
0.0149

> <Gold.Chemscore.DEInternal>
0.5200

> <Gold.Chemscore.Rot>
1.6682

> <Gold.Chemscore.Internal.Correction>
   9.000000E+99

> <Gold.Chemscore.Hbonds>
donor molecule, donor type, donor heavy atom, donor atom, acceptor molecule, acceptor atom, score
      P1  H  7997  8009       L1    12  0.19

> <Gold.Chemscore.Hbond.Weighted>
-0.1582

> <Gold.Chemscore.Metal.Weighted>
-0.0000

> <Gold.Chemscore.Lipo.Weighted>
-11.5226

> <Gold.Chemscore.Internal_Hbond.Weighted>
0.0000

> <Gold.Chemscore.DEClash.Weighted>
0.0149

> <Gold.Chemscore.DEInternal.Weighted>
0.5200

> <Gold.Chemscore.Rot.Weighted>
4.2707

> <Gold.Chemscore.Internal.Correction.Weighted>
   9.000000E+99

> <Gold.Protein.RotatedTorsions>
[ 6907 6896 6895 6894 ] final   85.95 input  -60.11 | X-H torsion
[ 7974 7965 7964 7962 ] final   84.16 input  175.53 | X-H torsion
[ 8008 7997 7996 7995 ] final  175.81 input   59.86 | X-H torsion
[ 10167 10162 10161 10158 ] final   62.48 input  -65.29 | X-H torsion
[ 10718 10713 10712 10709 ] final   29.76 input   66.30 | X-H torsion
[ 10763 10752 10751 10750 ] final -108.43 input  -60.55 | X-H torsion
[ 11005 11000 10999 10996 ] final   90.64 input  -57.11 | X-H torsion

> <Gold.Protein.ActiveResidues>
 VAL166  LYS551  ARG553  GLY616  TRP617  ASP618  TYR619  PRO620  LYS621  CYS622 
 ASP623  PHE694  ASN695  SER759  ASP760  ASP761  ALA762  ILE779  LEU786  VAL792 
 PHE793  MET794  SER795  GLU796  ALA797  LYS798  CYS799  TRP800  GLU811  SER814 

> <Gold.Protein.RotatedAtoms>
  152.5385  134.2507  159.8897 H   0  0  0  0  0  0  0  0  0  0  0  0  # atno 6907 bound_to 6896
  151.2471  133.4362  159.2617 H   0  0  0  0  0  0  0  0  0  0  0  0  # atno 6908 bound_to 6896
  151.0573  134.9727  159.8299 H   0  0  0  0  0  0  0  0  0  0  0  0  # atno 6909 bound_to 6896
  145.6024  139.2354  143.2238 H   0  0  0  0  0  0  0  0  0  0  0  0  # atno 7974 bound_to 7965
  156.0831  140.1399  156.9688 H   0  0  0  0  0  0  0  0  0  0  0  0  # atno 8008 bound_to 7997
  154.4596  140.0948  156.6905 H   0  0  0  0  0  0  0  0  0  0  0  0  # atno 8009 bound_to 7997
  155.5043  140.3452  155.4379 H   0  0  0  0  0  0  0  0  0  0  0  0  # atno 8010 bound_to 7997
  140.1434  144.4532  150.6798 H   0  0  0  0  0  0  0  0  0  0  0  0  # atno 10167 bound_to 10162
  157.2507  130.7113  149.6404 H   0  0  0  0  0  0  0  0  0  0  0  0  # atno 10718 bound_to 10713
  154.8135  135.4638  154.0579 H   0  0  0  0  0  0  0  0  0  0  0  0  # atno 10763 bound_to 10752
  153.1991  135.6866  153.8261 H   0  0  0  0  0  0  0  0  0  0  0  0  # atno 10764 bound_to 10752
  153.7752  135.3264  155.3335 H   0  0  0  0  0  0  0  0  0  0  0  0  # atno 10765 bound_to 10752
  139.8852  134.8626  156.3314 H   0  0  0  0  0  0  0  0  0  0  0  0  # atno 11005 bound_to 11000
  146.1566  140.6849  142.9297 LP  0  0  0  0  0  0  0  0  0  0  0  0  # atno 17320 bound_to 7965
  144.7304  140.4655  143.6942 LP  0  0  0  0  0  0  0  0  0  0  0  0  # atno 17321 bound_to 7965
  140.6747  143.2300  151.5538 LP  0  0  0  0  0  0  0  0  0  0  0  0  # atno 17342 bound_to 10162
  139.5461  144.2518  152.1444 LP  0  0  0  0  0  0  0  0  0  0  0  0  # atno 17343 bound_to 10162
  155.9666  130.4428  150.5397 LP  0  0  0  0  0  0  0  0  0  0  0  0  # atno 17370 bound_to 10713
  157.3281  131.0694  151.1882 LP  0  0  0  0  0  0  0  0  0  0  0  0  # atno 17371 bound_to 10713
  140.9720  133.7321  156.0549 LP  0  0  0  0  0  0  0  0  0  0  0  0  # atno 17394 bound_to 11000
  140.7858  134.3673  157.5476 LP  0  0  0  0  0  0  0  0  0  0  0  0  # atno 17395 bound_to 11000

$$$$
