#       Name:                AV-unprocessed.smi:1920
#       Creating user name   scv26
#       Creation time:       Fri Mar 27 09:52:32 2020


#       File generated by GOLD software.
#

@<TRIPOS>MOLECULE
AV-unprocessed.smi:1920
    39    40     1
SMALL
NO_CHARGES


@<TRIPOS>ATOM
      1 ****        -2.1430  -0.2886   2.3736 C.3            1 S1                 0.0000
      2 ****        -1.5738   0.3272   1.0847 C.3            1 S1                 0.0000
      3 ****        -2.0830  -0.3728  -0.1948 C.3            1 S1                 0.0000
      4 ****        -3.5292  -0.3489  -0.3083 N.pl3          1 S1                 0.0000
      5 ****        -4.3275   0.7544  -0.5810 C.2            1 S1                 0.0000
      6 ****        -5.6282   0.3038  -0.5982 C.2            1 S1                 0.0000
      7 ****        -5.6530  -1.0662  -0.3475 N.2            1 S1                 0.0000
      8 ****        -4.3741  -1.3825  -0.1898 C.2            1 S1                 0.0000
      9 ****        -0.1152   0.2869   1.1400 N.am           1 S1                 0.0000
     10 ****         0.7114   1.0894   0.4513 C.2            1 S1                 0.0000
     11 ****         0.3178   1.9638  -0.3208 O.2            1 S1                 0.0000
     12 ****         2.2130   0.8722   0.6681 C.3            1 S1                 0.0000
     13 ****         3.0164   0.7515  -0.6453 C.3            1 S1                 0.0000
     14 ****         2.6044  -0.4227  -1.5006 C.2            1 S1                 0.0000
     15 ****         3.6279  -1.2117  -1.8189 C.2            1 S1                 0.0000
     16 ****         4.9294  -0.7279  -1.2424 C.3            1 S1                 0.0000
     17 ****         4.5309   0.5136  -0.4132 C.3            1 S1                 0.0000
     18 ****        -3.2284  -0.1962   2.4164 H              1 S1                 0.0000
     19 ****        -1.7423   0.2102   3.2566 H              1 S1                 0.0000
     20 ****        -1.8961  -1.3481   2.4486 H              1 S1                 0.0000
     21 ****        -1.8859   1.3730   1.0580 H              1 S1                 0.0000
     22 ****        -1.6712   0.1050  -1.0846 H              1 S1                 0.0000
     23 ****        -1.7488  -1.4113  -0.2161 H              1 S1                 0.0000
     24 ****        -3.9148   1.7409  -0.7332 H              1 S1                 0.0000
     25 ****        -6.5404   0.8553  -0.7728 H              1 S1                 0.0000
     26 ****        -4.0451  -2.3897   0.0201 H              1 S1                 0.0000
     27 ****         0.2976  -0.4025   1.7515 H              1 S1                 0.0000
     28 ****         2.5915   1.7120   1.2516 H              1 S1                 0.0000
     29 ****         2.3688  -0.0199   1.2772 H              1 S1                 0.0000
     30 ****         2.8833   1.6547  -1.2429 H              1 S1                 0.0000
     31 ****         1.5837  -0.5754  -1.8202 H              1 S1                 0.0000
     32 ****         3.5635  -2.0996  -2.4303 H              1 S1                 0.0000
     33 ****         5.3849  -1.5007  -0.6226 H              1 S1                 0.0000
     34 ****         5.6201  -0.4722  -2.0463 H              1 S1                 0.0000
     35 ****         5.1136   1.3865  -0.7095 H              1 S1                 0.0000
     36 ****         4.7428   0.3350   0.6419 H              1 S1                 0.0000
     37 ****        -6.4486  -1.6700  -0.2980 LP             1 S1                 0.0000
     38 ****        -0.6626   2.1038  -0.4598 LP             1 S1                 0.0000
     39 ****         0.9784   2.5341  -0.8090 LP             1 S1                 0.0000
@<TRIPOS>BOND
    1    1    2 1     
    2    1   18 1     
    3    1   19 1     
    4    1   20 1     
    5    2    3 1     
    6    2    9 1     
    7    2   21 1     
    8    3    4 1     
    9    3   22 1     
   10    3   23 1     
   11    4    8 1     
   12    4    5 1     
   13    5    6 2     
   14    5   24 1     
   15    6    7 1     
   16    6   25 1     
   17    7    8 2     
   18    8   26 1     
   19    9   10 am    
   20    9   27 1     
   21   10   11 2     
   22   10   12 1     
   23   12   13 1     
   24   12   28 1     
   25   12   29 1     
   26   13   17 1     
   27   13   14 1     
   28   13   30 1     
   29   14   15 2     
   30   14   31 1     
   31   15   16 1     
   32   15   32 1     
   33   16   17 1     
   34   16   33 1     
   35   16   34 1     
   36   17   35 1     
   37   17   36 1     
   38    7   37 1     
   39   11   38 1     
   40   11   39 1     
@<TRIPOS>SUBSTRUCTURE
      1 S1             1
@<TRIPOS>SET
LONE_PAIRS      STATIC     ATOMS    <user>   **** ""
3 37 38 39
DONOR_HYDROGENS      STATIC     ATOMS    <user>   **** ""
1 27
ATOM$BLUE        STATIC     ATOMS    COLORGROUP SYSTEM
3 37 38 39
ATOM$RED        STATIC     ATOMS    COLORGROUP SYSTEM
1 27
