#       Name:                AV-unprocessed.smi:177
#       Creating user name   scv26
#       Creation time:       Thu Mar 26 19:22:52 2020


#       File generated by GOLD software.
#

@<TRIPOS>MOLECULE
AV-unprocessed.smi:177
    72    76     1
SMALL
NO_CHARGES


@<TRIPOS>ATOM
      1 ****        -0.0216  -0.3938   4.3727 C.3            1 S1                 0.0000
      2 ****        -1.2345  -0.9338   3.8709 O.3            1 S1                 0.0000
      3 ****        -1.8841  -0.1145   2.9077 C.3            1 S1                 0.0000
      4 ****        -2.7016   0.9969   3.5965 C.3            1 S1                 0.0000
      5 ****        -3.5184   1.8088   2.5790 C.3            1 S1                 0.0000
      6 ****        -4.4488   0.8915   1.7607 C.3            1 S1                 0.0000
      7 ****        -5.2735   1.6119   0.8427 O.3            1 S1                 0.0000
      8 ****        -4.6040   2.0782  -0.3239 C.3            1 S1                 0.0000
      9 ****        -3.9862   0.8883  -1.0777 C.3            1 S1                 0.0000
     10 ****        -3.0912   0.1332  -0.2084 N.pl3          1 S1                 0.0000
     11 ****        -1.7740   0.4393  -0.2864 C.ar           1 S1                 0.0000
     12 ****        -1.3706   1.7316  -0.1780 N.ar           1 S1                 0.0000
     13 ****        -0.0710   2.0359  -0.2257 C.ar           1 S1                 0.0000
     14 ****         0.9706   1.2183  -0.3867 N.ar           1 S1                 0.0000
     15 ****         0.5686  -0.0766  -0.5321 C.ar           1 S1                 0.0000
     16 ****        -0.7734  -0.5485  -0.4949 C.ar           1 S1                 0.0000
     17 ****        -0.7981  -1.9252  -0.6761 N.2            1 S1                 0.0000
     18 ****         0.4596  -2.2522  -0.7904 C.2            1 S1                 0.0000
     19 ****         1.3490  -1.2014  -0.7389 N.pl3          1 S1                 0.0000
     20 ****         2.7989  -1.2865  -0.8370 C.3            1 S1                 0.0000
     21 ****         3.3998  -1.1075  -2.2690 C.3            1 S1                 0.0000
     22 ****         2.8340  -2.1710  -3.2527 C.3            1 S1                 0.0000
     23 ****         1.5129  -1.9035  -3.6807 O.3            1 S1                 0.0000
     24 ****         3.1757   0.3142  -2.8461 C.3            1 S1                 0.0000
     25 ****         3.9918   1.3934  -2.1113 C.3            1 S1                 0.0000
     26 ****         5.3747   1.0672  -2.1484 O.3            1 S1                 0.0000
     27 ****         5.6686  -0.1586  -1.4918 C.3            1 S1                 0.0000
     28 ****         4.9340  -1.3167  -2.1922 C.3            1 S1                 0.0000
     29 ****        -3.7069  -0.2777   1.0636 C.3            1 S1                 0.0000
     30 ****        -2.8001  -1.0328   2.0694 C.3            1 S1                 0.0000
     31 ****         0.4116  -1.0860   5.0946 H              1 S1                 0.0000
     32 ****        -0.1786   0.5584   4.8792 H              1 S1                 0.0000
     33 ****         0.7056  -0.2495   3.5726 H              1 S1                 0.0000
     34 ****        -1.1318   0.3351   2.2613 H              1 S1                 0.0000
     35 ****        -3.3747   0.5532   4.3313 H              1 S1                 0.0000
     36 ****        -2.0456   1.6703   4.1474 H              1 S1                 0.0000
     37 ****        -4.1125   2.5577   3.1030 H              1 S1                 0.0000
     38 ****        -2.8400   2.3609   1.9321 H              1 S1                 0.0000
     39 ****        -5.1423   0.4472   2.4759 H              1 S1                 0.0000
     40 ****        -5.3294   2.5826  -0.9622 H              1 S1                 0.0000
     41 ****        -3.8536   2.8240  -0.0638 H              1 S1                 0.0000
     42 ****        -4.7745   0.2203  -1.4257 H              1 S1                 0.0000
     43 ****        -3.4580   1.2343  -1.9674 H              1 S1                 0.0000
     44 ****         0.1681   3.0833  -0.1173 H              1 S1                 0.0000
     45 ****         0.7749  -3.2759  -0.9320 H              1 S1                 0.0000
     46 ****         3.2119  -0.5566  -0.1422 H              1 S1                 0.0000
     47 ****         3.0936  -2.2586  -0.4393 H              1 S1                 0.0000
     48 ****         3.4444  -2.2225  -4.1549 H              1 S1                 0.0000
     49 ****         2.8658  -3.1638  -2.8028 H              1 S1                 0.0000
     50 ****         0.9546  -1.8529  -2.9197 H              1 S1                 0.0000
     51 ****         3.4735   0.3252  -3.8956 H              1 S1                 0.0000
     52 ****         2.1193   0.5805  -2.8389 H              1 S1                 0.0000
     53 ****         3.8497   2.3583  -2.5978 H              1 S1                 0.0000
     54 ****         3.6640   1.5152  -1.0790 H              1 S1                 0.0000
     55 ****         6.7452  -0.3239  -1.5371 H              1 S1                 0.0000
     56 ****         5.4102  -0.0941  -0.4347 H              1 S1                 0.0000
     57 ****         5.1664  -2.2588  -1.6941 H              1 S1                 0.0000
     58 ****         5.3452  -1.4029  -3.1989 H              1 S1                 0.0000
     59 ****        -4.4713  -0.9929   0.7570 H              1 S1                 0.0000
     60 ****        -2.2220  -1.8099   1.5731 H              1 S1                 0.0000
     61 ****        -3.4520  -1.5670   2.7619 H              1 S1                 0.0000
     62 ****        -1.8592  -1.0688   4.6399 LP             1 S1                 0.0000
     63 ****        -1.0326  -1.8165   3.4465 LP             1 S1                 0.0000
     64 ****        -5.6527   2.4040   1.3210 LP             1 S1                 0.0000
     65 ****        -6.0174   1.0092   0.5542 LP             1 S1                 0.0000
     66 ****        -2.0486   2.4575  -0.0621 LP             1 S1                 0.0000
     67 ****         1.9249   1.5170  -0.3992 LP             1 S1                 0.0000
     68 ****        -1.5959  -2.5270  -0.7109 LP             1 S1                 0.0000
     69 ****         1.1980  -2.6382  -4.2816 LP             1 S1                 0.0000
     70 ****         1.4882  -1.0347  -4.1753 LP             1 S1                 0.0000
     71 ****         5.8881   1.8001  -1.7019 LP             1 S1                 0.0000
     72 ****         5.6604   0.9945  -3.1040 LP             1 S1                 0.0000
@<TRIPOS>BOND
    1    1    2 1     
    2    1   31 1     
    3    1   32 1     
    4    1   33 1     
    5    2    3 1     
    6    3   30 1     
    7    3    4 1     
    8    3   34 1     
    9    4    5 1     
   10    4   35 1     
   11    4   36 1     
   12    5    6 1     
   13    5   37 1     
   14    5   38 1     
   15    6   29 1     
   16    6    7 1     
   17    6   39 1     
   18    7    8 1     
   19    8    9 1     
   20    8   40 1     
   21    8   41 1     
   22    9   10 1     
   23    9   42 1     
   24    9   43 1     
   25   10   11 1     
   26   10   29 1     
   27   11   16 ar    
   28   11   12 ar    
   29   12   13 ar    
   30   13   14 ar    
   31   13   44 1     
   32   14   15 ar    
   33   15   19 1     
   34   15   16 ar    
   35   16   17 1     
   36   17   18 2     
   37   18   19 1     
   38   18   45 1     
   39   19   20 1     
   40   20   21 1     
   41   20   46 1     
   42   20   47 1     
   43   21   28 1     
   44   21   22 1     
   45   21   24 1     
   46   22   23 1     
   47   22   48 1     
   48   22   49 1     
   49   23   50 1     
   50   24   25 1     
   51   24   51 1     
   52   24   52 1     
   53   25   26 1     
   54   25   53 1     
   55   25   54 1     
   56   26   27 1     
   57   27   28 1     
   58   27   55 1     
   59   27   56 1     
   60   28   57 1     
   61   28   58 1     
   62   29   30 1     
   63   29   59 1     
   64   30   60 1     
   65   30   61 1     
   66    2   62 1     
   67    2   63 1     
   68    7   64 1     
   69    7   65 1     
   70   12   66 1     
   71   14   67 1     
   72   17   68 1     
   73   23   69 1     
   74   23   70 1     
   75   26   71 1     
   76   26   72 1     
@<TRIPOS>SUBSTRUCTURE
      1 S1             1
@<TRIPOS>SET
LONE_PAIRS      STATIC     ATOMS    <user>   **** ""
11 62 63 64 65 66 67 68 69 70 71 72
DONOR_HYDROGENS      STATIC     ATOMS    <user>   **** ""
1 50
ATOM$BLUE        STATIC     ATOMS    COLORGROUP SYSTEM
11 62 63 64 65 66 67 68 69 70 71 72
ATOM$RED        STATIC     ATOMS    COLORGROUP SYSTEM
1 50
