AV-unprocessed.smi:95|AV-procd|sdf|858|dock3
  -GOLD-   2262017303D 1   1.00000     0.00000
 Structure written by MMmdl.
 42 45  0  0  0  0  0  0  0  0  2 V2000
  151.8214  140.4197  154.7435 O   0  0  0  0  0  0  0  0  0  0  0  0
  150.7817  139.7822  154.5652 C   0  0  0  0  0  0  0  0  0  0  0  0
  150.7543  138.3856  154.1482 C   0  0  0  0  0  0  0  0  0  0  0  0
  151.9097  137.7258  153.9611 F   0  0  0  0  0  0  0  0  0  0  0  0
  149.5848  137.7345  153.9677 C   0  0  0  0  0  0  0  0  0  0  0  0
  148.3461  138.3336  154.1374 N   0  0  0  0  0  0  0  0  0  0  0  0
  147.0564  137.5443  154.0332 C   0  0  1  0  0  0  0  0  0  0  0  0
  146.0100  138.1611  153.0884 C   0  0  0  0  0  0  0  0  0  0  0  0
  146.1074  137.2652  151.8690 C   0  0  0  0  0  0  0  0  0  0  0  0
  146.4841  135.9302  152.4991 C   0  0  0  0  0  0  0  0  0  0  0  0
  147.3822  136.2765  153.5458 O   0  0  0  0  0  0  0  0  0  0  0  0
  148.2820  139.6640  154.6118 C   0  0  0  0  0  0  0  0  0  0  0  0
  147.1987  140.1892  154.8791 O   0  0  0  0  0  0  0  0  0  0  0  0
  149.5057  140.3563  154.7773 N   0  0  0  0  0  0  0  0  0  0  0  0
  149.4708  141.7296  155.2529 C   0  0  0  0  0  0  0  0  0  0  0  0
  150.1576  141.9555  156.5920 C   0  0  0  0  0  0  0  0  0  0  0  0
  150.7286  140.9071  157.3476 C   0  0  0  0  0  0  0  0  0  0  0  0
  151.3574  141.2027  158.5741 C   0  0  0  0  0  0  0  0  0  0  0  0
  151.4014  142.5401  159.0219 C   0  0  0  0  0  0  0  0  0  0  0  0
  152.0205  142.8776  160.2427 C   0  0  0  0  0  0  0  0  0  0  0  0
  152.0497  144.2209  160.6682 C   0  0  0  0  0  0  0  0  0  0  0  0
  151.4621  145.2287  159.8773 C   0  0  0  0  0  0  0  0  0  0  0  0
  150.8424  144.8986  158.6557 C   0  0  0  0  0  0  0  0  0  0  0  0
  150.8122  143.5564  158.2282 C   0  0  0  0  0  0  0  0  0  0  0  0
  150.2223  143.2228  157.0590 N   0  3  0  0  0  0  0  0  0  0  0  0
  149.6434  136.6950  153.6871 H   0  0  0  0  0  0  0  0  0  0  0  0
  146.6576  137.4822  155.0470 H   0  0  0  0  0  0  0  0  0  0  0  0
  145.0286  138.0466  153.5505 H   0  0  0  0  0  0  0  0  0  0  0  0
  146.1659  139.2228  152.8975 H   0  0  0  0  0  0  0  0  0  0  0  0
  145.1796  137.2192  151.2981 H   0  0  0  0  0  0  0  0  0  0  0  0
  146.9010  137.6024  151.2019 H   0  0  0  0  0  0  0  0  0  0  0  0
  145.6049  135.4469  152.9279 H   0  0  0  0  0  0  0  0  0  0  0  0
  146.9417  135.2412  151.7888 H   0  0  0  0  0  0  0  0  0  0  0  0
  149.9204  142.3425  154.4687 H   0  0  0  0  0  0  0  0  0  0  0  0
  148.4341  142.0630  155.3032 H   0  0  0  0  0  0  0  0  0  0  0  0
  150.6887  139.8866  156.9959 H   0  0  0  0  0  0  0  0  0  0  0  0
  151.7989  140.4097  159.1601 H   0  0  0  0  0  0  0  0  0  0  0  0
  152.4736  142.1121  160.8561 H   0  0  0  0  0  0  0  0  0  0  0  0
  152.5238  144.4791  161.6039 H   0  0  0  0  0  0  0  0  0  0  0  0
  151.4872  146.2566  160.2087 H   0  0  0  0  0  0  0  0  0  0  0  0
  150.3944  145.6767  158.0545 H   0  0  0  0  0  0  0  0  0  0  0  0
  149.8069  143.9662  156.4977 H   0  0  0  0  0  0  0  0  0  0  0  0
  1  2  2  0  0  0  0
  2 14  1  0  0  0  0
  2  3  1  0  0  0  0
  3  4  1  0  0  0  0
  3  5  2  0  0  0  0
  5  6  1  0  0  0  0
  5 26  1  0  0  0  0
  6  7  1  0  0  0  0
  6 12  1  0  0  0  0
  7 11  1  0  0  0  0
  7  8  1  0  0  0  0
  7 27  1  0  0  0  0
  8  9  1  0  0  0  0
  8 28  1  0  0  0  0
  8 29  1  0  0  0  0
  9 10  1  0  0  0  0
  9 30  1  0  0  0  0
  9 31  1  0  0  0  0
 10 11  1  0  0  0  0
 10 32  1  0  0  0  0
 10 33  1  0  0  0  0
 12 13  2  0  0  0  0
 12 14  1  0  0  0  0
 14 15  1  0  0  0  0
 15 16  1  0  0  0  0
 15 34  1  0  0  0  0
 15 35  1  0  0  0  0
 16 25  1  0  0  0  0
 16 17  2  0  0  0  0
 17 18  1  0  0  0  0
 17 36  1  0  0  0  0
 18 19  2  0  0  0  0
 18 37  1  0  0  0  0
 19 24  1  0  0  0  0
 19 20  1  0  0  0  0
 20 21  2  0  0  0  0
 20 38  1  0  0  0  0
 21 22  1  0  0  0  0
 21 39  1  0  0  0  0
 22 23  2  0  0  0  0
 22 40  1  0  0  0  0
 23 24  1  0  0  0  0
 23 41  1  0  0  0  0
 24 25  2  0  0  0  0
 25 42  1  0  0  0  0
M  CHG  1  25   1
M  END
> <s_m_source_file>
AV-unprocessed.smi

> <i_m_source_file_index>
95

> <i_lp_mmshare_version>
43012

> <i_f3d_flags>
0

> <s_epik_input>
TzFbQ0gyXVtDSDJdW0NIMl1bQ0BIXTFuKFtjSF1jKEYpYzI9TyljKD1PKW4yW0NIMl1jKFtjSF1bY0hdMyluYyhjMzQpW2NIXVtjSF1bY0hdW2NIXTQ=

> <s_epik_cmdline>
J2VwaWtfcHl0aG9uJywgJy1waCcsICc3LjAnLCAnLXRuJywgJzgnLCAnLW1hJywgJzIwMCcsICctbWV0YWxfYmluZGluZycsICctaW1hZScsICc8aW5maWxlLm1hZT4nLCAnLW9tYWUnLCAnPG91dGZpbGUubWFlPic=

> <r_lp_tautomer_probability>
1

> <r_epik_Ionization_Penalty>
1.83445

> <r_epik_Ionization_Penalty_Charging>
1.83445

> <r_epik_Ionization_Penalty_Neutral>
6.33322e-12

> <r_epik_State_Penalty>
1.95069

> <r_epik_Charging_Adjusted_Penalty>
3.78513

> <i_epik_Tot_Q>
1

> <i_epik_Tot_abs_Q>
1

> <r_epik_Metal_State_Penalty>
6.02102

> <b_epik_Metal_Only>
0

> <s_epik_Chemistry_Notes>
This compound contains an acetal/aminal-like group ( X-CH(R)-Y where X, Y are N, S, or O) that may be acid/base labile, releasing an aldehyde.

> <s_lp_Force_Field>
OPLS_2005

> <r_lp_Energy>
36.6829

> <b_lp_Chiralities_Consistent>
1

> <s_lp_Variant>
AV-unprocessed.smi:95-4

> <Gold.Version>
5.8.1

> <Gold.Id.Protein>
6NUR|6NUR_protein|mol2

> <Gold.PLP.Fitness>
51.1331

> <Gold.PLP.PLP>
-40.6228

> <Gold.PLP.part.hbond>
-2.0000

> <Gold.PLP.part.metal>
0.0000

> <Gold.PLP.part.buried>
-3.1505

> <Gold.PLP.part.nonpolar>
-36.5421

> <Gold.PLP.part.repulsive>
0.1780

> <Gold.PLP.ligand.clash>
0.0000

> <Gold.PLP.ligand.torsion>
0.0966

> <Gold.PLP.Chemscore.Hbond>
2.9920

> <Gold.PLP.Chemscore.CHOScore>
0.5439

> <Gold.PLP.Chemscore.Metal>
0.0000

> <Gold.Chemscore.Hbonds>
donor molecule, donor type, donor heavy atom, donor atom, acceptor molecule, acceptor atom, score
      L1  H    25    42       P1  8028  1.56
      P1  H  7989  7998       L1     1  0.14
      L1  C     5    26       P1  7948  0.63

> <Gold.PLP.Chemscore.Internal.Correction>
0.0957

> <Gold.Rescore>
     Score         DG    S(hbond)    S(metal)    S(lipo)     H(rot)  DE(clash)    DE(int)     intcor
     18.59     -20.11       1.97        0.00     102.62       1.54       0.14       1.39       ----

> <Gold.Chemscore.Fitness>
18.5852

> <Gold.Chemscore.DG>
-20.1122

> <Gold.Chemscore.ZeroCoef>
-5.4800

> <Gold.Chemscore.Hbond>
1.9669

> <Gold.Chemscore.Metal>
0.0000

> <Gold.Chemscore.Lipo>
102.6240

> <Gold.Chemscore.Internal_Hbond>
0.0000

> <Gold.Chemscore.DEClash>
0.1354

> <Gold.Chemscore.DEInternal>
1.3916

> <Gold.Chemscore.Rot>
1.5407

> <Gold.Chemscore.Internal.Correction>
   9.000000E+99

> <Gold.Chemscore.Hbonds>
donor molecule, donor type, donor heavy atom, donor atom, acceptor molecule, acceptor atom, score
      L1  H    25    42       P1  8028  0.77

> <Gold.Chemscore.Hbond.Weighted>
-6.5694

> <Gold.Chemscore.Metal.Weighted>
-0.0000

> <Gold.Chemscore.Lipo.Weighted>
-12.0070

> <Gold.Chemscore.Internal_Hbond.Weighted>
0.0000

> <Gold.Chemscore.DEClash.Weighted>
0.1354

> <Gold.Chemscore.DEInternal.Weighted>
1.3916

> <Gold.Chemscore.Rot.Weighted>
3.9443

> <Gold.Chemscore.Internal.Correction.Weighted>
   9.000000E+99

> <Gold.Protein.RotatedTorsions>
[ 6907 6896 6895 6894 ] final -133.92 input  -60.11 | X-H torsion
[ 7974 7965 7964 7962 ] final  -41.13 input  175.53 | X-H torsion
[ 8008 7997 7996 7995 ] final -141.45 input   59.86 | X-H torsion
[ 10167 10162 10161 10158 ] final  101.91 input  -65.29 | X-H torsion
[ 10718 10713 10712 10709 ] final   85.21 input   66.30 | X-H torsion
[ 10763 10752 10751 10750 ] final -172.87 input  -60.55 | X-H torsion
[ 11005 11000 10999 10996 ] final -176.72 input  -57.11 | X-H torsion

> <Gold.Protein.ActiveResidues>
 VAL166  LYS551  ARG553  GLY616  TRP617  ASP618  TYR619  PRO620  LYS621  CYS622 
 ASP623  PHE694  ASN695  SER759  ASP760  ASP761  ALA762  ILE779  LEU786  VAL792 
 PHE793  MET794  SER795  GLU796  ALA797  LYS798  CYS799  TRP800  GLU811  SER814 

> <Gold.Protein.RotatedAtoms>
  150.9797  133.6258  159.2724 H   0  0  0  0  0  0  0  0  0  0  0  0  # atno 6907 bound_to 6896
  151.3517  135.0884  159.9415 H   0  0  0  0  0  0  0  0  0  0  0  0  # atno 6908 bound_to 6896
  152.5211  133.9389  159.7671 H   0  0  0  0  0  0  0  0  0  0  0  0  # atno 6909 bound_to 6896
  146.0240  140.6815  142.9164 H   0  0  0  0  0  0  0  0  0  0  0  0  # atno 7974 bound_to 7965
  155.4779  140.0558  157.2971 H   0  0  0  0  0  0  0  0  0  0  0  0  # atno 8008 bound_to 7997
  154.4672  140.2024  156.0041 H   0  0  0  0  0  0  0  0  0  0  0  0  # atno 8009 bound_to 7997
  156.0994  140.3221  155.7926 H   0  0  0  0  0  0  0  0  0  0  0  0  # atno 8010 bound_to 7997
  139.7396  144.7015  151.0595 H   0  0  0  0  0  0  0  0  0  0  0  0  # atno 10167 bound_to 10162
  157.6911  131.0165  150.2789 H   0  0  0  0  0  0  0  0  0  0  0  0  # atno 10718 bound_to 10713
  154.6144  135.2868  155.0396 H   0  0  0  0  0  0  0  0  0  0  0  0  # atno 10763 bound_to 10752
  154.1614  135.6487  153.4991 H   0  0  0  0  0  0  0  0  0  0  0  0  # atno 10764 bound_to 10752
  153.0208  135.5379  154.6910 H   0  0  0  0  0  0  0  0  0  0  0  0  # atno 10765 bound_to 10752
  140.4490  134.6361  157.4792 H   0  0  0  0  0  0  0  0  0  0  0  0  # atno 11005 bound_to 11000
  144.7002  140.3616  143.7162 LP  0  0  0  0  0  0  0  0  0  0  0  0  # atno 17320 bound_to 7965
  145.7148  139.1694  143.2518 LP  0  0  0  0  0  0  0  0  0  0  0  0  # atno 17321 bound_to 7965
  140.7784  143.4941  150.9856 LP  0  0  0  0  0  0  0  0  0  0  0  0  # atno 17342 bound_to 10162
  139.8629  143.7291  152.3172 LP  0  0  0  0  0  0  0  0  0  0  0  0  # atno 17343 bound_to 10162
  156.3339  130.3804  149.7467 LP  0  0  0  0  0  0  0  0  0  0  0  0  # atno 17370 bound_to 10713
  156.4998  130.8123  151.3128 LP  0  0  0  0  0  0  0  0  0  0  0  0  # atno 17371 bound_to 10713
  140.0019  134.6823  155.9516 LP  0  0  0  0  0  0  0  0  0  0  0  0  # atno 17394 bound_to 11000
  141.1672  133.6537  156.4523 LP  0  0  0  0  0  0  0  0  0  0  0  0  # atno 17395 bound_to 11000

$$$$
