AV-unprocessed.smi:347|AV-procd|sdf|2394|dock5
  -GOLD-   2262022323D 1   1.00000     0.00000
 Structure written by MMmdl.
 45 46  0  0  0  0  0  0  0  0  2 V2000
  146.8648  134.8441  162.7840 C   0  0  0  0  0  0  0  0  0  0  0  0
  147.1529  135.7140  161.6088 C   0  0  0  0  0  0  0  0  0  0  0  0
  146.4783  135.9588  160.4458 C   0  0  0  0  0  0  0  0  0  0  0  0
  147.3200  136.8870  159.7772 C   0  0  0  0  0  0  0  0  0  0  0  0
  146.9651  137.4062  158.5063 N   0  0  0  0  0  0  0  0  0  0  0  0
  147.5716  138.3948  157.8278 C   0  0  0  0  0  0  0  0  0  0  0  0
  148.5790  138.9976  158.1983 O   0  0  0  0  0  0  0  0  0  0  0  0
  146.9338  138.6563  156.6776 N   0  0  0  0  0  0  0  0  0  0  0  0
  147.3146  139.6790  155.7054 C   0  0  0  0  0  0  0  0  0  0  0  0
  146.5750  139.5635  154.3583 C   0  0  0  0  0  0  0  0  0  0  0  0
  147.0722  138.4281  153.4285 C   0  0  0  0  0  0  0  0  0  0  0  0
  146.5191  137.0461  153.8414 C   0  0  0  0  0  0  0  0  0  0  0  0
  146.5381  138.7082  152.0100 C   0  0  0  0  0  0  0  0  0  0  0  0
  148.5595  138.4193  153.3341 N   0  3  0  0  0  0  0  0  0  0  0  0
  149.3871  138.5842  154.5630 C   0  0  0  0  0  0  0  0  0  0  0  0
  149.5522  137.2473  155.3195 C   0  0  0  0  0  0  0  0  0  0  0  0
  150.7954  139.0004  154.0949 C   0  0  0  0  0  0  0  0  0  0  0  0
  148.8336  139.7129  155.4720 C   0  0  0  0  0  0  0  0  0  0  0  0
  148.4093  137.1830  160.4691 N   0  0  0  0  0  0  0  0  0  0  0  0
  148.3085  136.4318  161.6461 O   0  0  0  0  0  0  0  0  0  0  0  0
  145.8065  134.5866  162.8270 H   0  0  0  0  0  0  0  0  0  0  0  0
  147.1277  135.3474  163.7145 H   0  0  0  0  0  0  0  0  0  0  0  0
  147.4364  133.9177  162.7268 H   0  0  0  0  0  0  0  0  0  0  0  0
  145.5352  135.5395  160.1286 H   0  0  0  0  0  0  0  0  0  0  0  0
  146.1538  136.9889  158.0754 H   0  0  0  0  0  0  0  0  0  0  0  0
  146.1208  138.1006  156.4546 H   0  0  0  0  0  0  0  0  0  0  0  0
  147.0406  140.6363  156.1533 H   0  0  0  0  0  0  0  0  0  0  0  0
  145.4983  139.4817  154.5122 H   0  0  0  0  0  0  0  0  0  0  0  0
  146.7134  140.5155  153.8431 H   0  0  0  0  0  0  0  0  0  0  0  0
  145.4323  137.0225  153.7525 H   0  0  0  0  0  0  0  0  0  0  0  0
  146.7407  136.7728  154.8675 H   0  0  0  0  0  0  0  0  0  0  0  0
  146.9121  136.2552  153.2017 H   0  0  0  0  0  0  0  0  0  0  0  0
  145.4482  138.7512  151.9962 H   0  0  0  0  0  0  0  0  0  0  0  0
  146.8429  137.9318  151.3067 H   0  0  0  0  0  0  0  0  0  0  0  0
  146.9058  139.6591  151.6218 H   0  0  0  0  0  0  0  0  0  0  0  0
  148.8530  137.5828  152.8499 H   0  0  0  0  0  0  0  0  0  0  0  0
  150.2853  137.3442  156.1211 H   0  0  0  0  0  0  0  0  0  0  0  0
  149.9046  136.4577  154.6548 H   0  0  0  0  0  0  0  0  0  0  0  0
  148.6407  136.8920  155.7881 H   0  0  0  0  0  0  0  0  0  0  0  0
  151.4637  139.1681  154.9405 H   0  0  0  0  0  0  0  0  0  0  0  0
  150.7688  139.9232  153.5136 H   0  0  0  0  0  0  0  0  0  0  0  0
  151.2504  138.2346  153.4652 H   0  0  0  0  0  0  0  0  0  0  0  0
  149.0591  140.6735  155.0059 H   0  0  0  0  0  0  0  0  0  0  0  0
  149.3619  139.7268  156.4266 H   0  0  0  0  0  0  0  0  0  0  0  0
  148.7931  139.2081  152.7483 H   0  0  0  0  0  0  0  0  0  0  0  0
  1  2  1  0  0  0  0
  1 21  1  0  0  0  0
  1 22  1  0  0  0  0
  1 23  1  0  0  0  0
  2 20  1  0  0  0  0
  2  3  2  0  0  0  0
  3  4  1  0  0  0  0
  3 24  1  0  0  0  0
  4  5  1  0  0  0  0
  4 19  2  0  0  0  0
  5  6  1  0  0  0  0
  5 25  1  0  0  0  0
  6  7  2  0  0  0  0
  6  8  1  0  0  0  0
  8  9  1  0  0  0  0
  8 26  1  0  0  0  0
  9 18  1  0  0  0  0
  9 10  1  0  0  0  0
  9 27  1  0  0  0  0
 10 11  1  0  0  0  0
 10 28  1  0  0  0  0
 10 29  1  0  0  0  0
 11 12  1  0  0  0  0
 11 13  1  0  0  0  0
 11 14  1  0  0  0  0
 12 30  1  0  0  0  0
 12 31  1  0  0  0  0
 12 32  1  0  0  0  0
 13 33  1  0  0  0  0
 13 34  1  0  0  0  0
 13 35  1  0  0  0  0
 14 15  1  0  0  0  0
 14 36  1  0  0  0  0
 14 45  1  0  0  0  0
 15 16  1  0  0  0  0
 15 17  1  0  0  0  0
 15 18  1  0  0  0  0
 16 37  1  0  0  0  0
 16 38  1  0  0  0  0
 16 39  1  0  0  0  0
 17 40  1  0  0  0  0
 17 41  1  0  0  0  0
 17 42  1  0  0  0  0
 18 43  1  0  0  0  0
 18 44  1  0  0  0  0
 19 20  1  0  0  0  0
M  CHG  1  14   1
M  END
> <s_m_source_file>
AV-unprocessed.smi

> <i_m_source_file_index>
347

> <i_lp_mmshare_version>
43012

> <i_f3d_flags>
0

> <s_epik_input>
W0NIM11jMVtjSF1jKG5vMSlbTkhdQyg9TylbTkhdW0NIXShbQ0gyXUMyKFtDSDNdKVtDSDNdKVtDSDJdQyhbTkhdMikoW0NIM10pW0NIM10=

> <s_epik_cmdline>
J2VwaWtfcHl0aG9uJywgJy1waCcsICc3LjAnLCAnLXRuJywgJzgnLCAnLW1hJywgJzIwMCcsICctbWV0YWxfYmluZGluZycsICctaW1hZScsICc8aW5maWxlLm1hZT4nLCAnLW9tYWUnLCAnPG91dGZpbGUubWFlPic=

> <r_lp_tautomer_probability>
1

> <r_epik_Ionization_Penalty>
0.000125139

> <r_epik_Ionization_Penalty_Charging>
0.000103024

> <r_epik_Ionization_Penalty_Neutral>
2.21147e-05

> <r_epik_State_Penalty>
-0

> <r_epik_Charging_Adjusted_Penalty>
0.000103024

> <i_epik_Tot_Q>
1

> <i_epik_Tot_abs_Q>
1

> <r_epik_Metal_State_Penalty>
-0

> <b_epik_Metal_Only>
0

> <s_lp_Force_Field>
OPLS_2005

> <r_lp_Energy>
23.9758

> <b_lp_Chiralities_Consistent>
1

> <s_lp_Variant>
AV-unprocessed.smi:347-1

> <Gold.Version>
5.8.1

> <Gold.Id.Protein>
6NUR|6NUR_protein|mol2

> <Gold.PLP.Fitness>
35.0485

> <Gold.PLP.PLP>
-26.3235

> <Gold.PLP.part.hbond>
-5.5748

> <Gold.PLP.part.metal>
0.0000

> <Gold.PLP.part.buried>
-2.4102

> <Gold.PLP.part.nonpolar>
-18.2618

> <Gold.PLP.part.repulsive>
0.1611

> <Gold.PLP.ligand.clash>
0.0000

> <Gold.PLP.ligand.torsion>
0.1905

> <Gold.PLP.Chemscore.Hbond>
3.0300

> <Gold.PLP.Chemscore.CHOScore>
0.0000

> <Gold.PLP.Chemscore.Metal>
0.0000

> <Gold.Chemscore.Hbonds>
donor molecule, donor type, donor heavy atom, donor atom, acceptor molecule, acceptor atom, score
      L1  H    14    36       P1  7948  2.00
      L1  H    14    45       P1  7957  1.00
      P1  H  6934  6947       L1    19  0.03

> <Gold.PLP.Chemscore.Internal.Correction>
0.0162

> <Gold.Rescore>
     Score         DG    S(hbond)    S(metal)    S(lipo)     H(rot)  DE(clash)    DE(int)     intcor
     14.42     -17.26       1.97        0.00      66.40       1.00       0.03       2.81       ----

> <Gold.Chemscore.Fitness>
14.4186

> <Gold.Chemscore.DG>
-17.2628

> <Gold.Chemscore.ZeroCoef>
-5.4800

> <Gold.Chemscore.Hbond>
1.9681

> <Gold.Chemscore.Metal>
0.0000

> <Gold.Chemscore.Lipo>
66.4050

> <Gold.Chemscore.Internal_Hbond>
0.0000

> <Gold.Chemscore.DEClash>
0.0309

> <Gold.Chemscore.DEInternal>
2.8133

> <Gold.Chemscore.Rot>
1.0000

> <Gold.Chemscore.Internal.Correction>
   9.000000E+99

> <Gold.Chemscore.Hbonds>
donor molecule, donor type, donor heavy atom, donor atom, acceptor molecule, acceptor atom, score
      L1  H    14    36       P1  7948  1.00
      L1  H    14    45       P1  7957  0.96

> <Gold.Chemscore.Hbond.Weighted>
-6.5734

> <Gold.Chemscore.Metal.Weighted>
-0.0000

> <Gold.Chemscore.Lipo.Weighted>
-7.7694

> <Gold.Chemscore.Internal_Hbond.Weighted>
0.0000

> <Gold.Chemscore.DEClash.Weighted>
0.0309

> <Gold.Chemscore.DEInternal.Weighted>
2.8133

> <Gold.Chemscore.Rot.Weighted>
2.5600

> <Gold.Chemscore.Internal.Correction.Weighted>
   9.000000E+99

> <Gold.Protein.RotatedTorsions>
[ 6907 6896 6895 6894 ] final -108.14 input  -60.11 | X-H torsion
[ 7974 7965 7964 7962 ] final -106.55 input  175.53 | X-H torsion
[ 8008 7997 7996 7995 ] final   25.35 input   59.86 | X-H torsion
[ 10167 10162 10161 10158 ] final -137.16 input  -65.29 | X-H torsion
[ 10718 10713 10712 10709 ] final  125.03 input   66.30 | X-H torsion
[ 10763 10752 10751 10750 ] final  -19.15 input  -60.55 | X-H torsion
[ 11005 11000 10999 10996 ] final -116.37 input  -57.11 | X-H torsion

> <Gold.Protein.ActiveResidues>
 VAL166  LYS551  ARG553  GLY616  TRP617  ASP618  TYR619  PRO620  LYS621  CYS622 
 ASP623  PHE694  ASN695  SER759  ASP760  ASP761  ALA762  ILE779  LEU786  VAL792 
 PHE793  MET794  SER795  GLU796  ALA797  LYS798  CYS799  TRP800  GLU811  SER814 

> <Gold.Protein.RotatedAtoms>
  150.7484  133.9721  159.3548 H   0  0  0  0  0  0  0  0  0  0  0  0  # atno 6907 bound_to 6896
  151.7656  135.0797  160.0361 H   0  0  0  0  0  0  0  0  0  0  0  0  # atno 6908 bound_to 6896
  152.3374  133.5990  159.5888 H   0  0  0  0  0  0  0  0  0  0  0  0  # atno 6909 bound_to 6896
  145.2164  140.9117  143.3285 H   0  0  0  0  0  0  0  0  0  0  0  0  # atno 7974 bound_to 7965
  155.0104  140.3136  155.4832 H   0  0  0  0  0  0  0  0  0  0  0  0  # atno 8008 bound_to 7997
  156.2910  140.2216  156.5159 H   0  0  0  0  0  0  0  0  0  0  0  0  # atno 8009 bound_to 7997
  154.7540  140.0464  157.0905 H   0  0  0  0  0  0  0  0  0  0  0  0  # atno 8010 bound_to 7997
  139.8606  143.7082  152.2650 H   0  0  0  0  0  0  0  0  0  0  0  0  # atno 10167 bound_to 10162
  157.5536  131.1093  150.8659 H   0  0  0  0  0  0  0  0  0  0  0  0  # atno 10718 bound_to 10713
  153.6003  135.6999  153.5387 H   0  0  0  0  0  0  0  0  0  0  0  0  # atno 10763 bound_to 10752
  153.3103  135.4103  155.1329 H   0  0  0  0  0  0  0  0  0  0  0  0  # atno 10764 bound_to 10752
  154.8584  135.3670  154.5538 H   0  0  0  0  0  0  0  0  0  0  0  0  # atno 10765 bound_to 10752
  141.0426  133.9812  157.2970 H   0  0  0  0  0  0  0  0  0  0  0  0  # atno 11005 bound_to 11000
  144.9807  139.3786  143.6263 LP  0  0  0  0  0  0  0  0  0  0  0  0  # atno 17320 bound_to 7965
  146.3386  139.8946  142.8804 LP  0  0  0  0  0  0  0  0  0  0  0  0  # atno 17321 bound_to 7965
  139.7378  144.7567  151.0700 LP  0  0  0  0  0  0  0  0  0  0  0  0  # atno 17342 bound_to 10162
  140.7775  143.5009  150.9772 LP  0  0  0  0  0  0  0  0  0  0  0  0  # atno 17343 bound_to 10162
  156.9177  130.5304  149.5279 LP  0  0  0  0  0  0  0  0  0  0  0  0  # atno 17370 bound_to 10713
  156.0599  130.5653  150.9170 LP  0  0  0  0  0  0  0  0  0  0  0  0  # atno 17371 bound_to 10713
  139.9287  135.0201  156.8326 LP  0  0  0  0  0  0  0  0  0  0  0  0  # atno 17394 bound_to 11000
  140.6206  133.9997  155.7617 LP  0  0  0  0  0  0  0  0  0  0  0  0  # atno 17395 bound_to 11000

$$$$
