#       Name:                AV-unprocessed.smi:788
#       Creating user name   scv26
#       Creation time:       Fri Mar 27 01:17:11 2020


#       File generated by GOLD software.
#

@<TRIPOS>MOLECULE
AV-unprocessed.smi:788
    39    40     1
SMALL
NO_CHARGES


@<TRIPOS>ATOM
      1 ****        -0.7179   0.5451  -2.6025 C.3            1 S1                 0.0000
      2 ****        -1.0785  -0.1484  -1.2759 C.3            1 S1                 0.0000
      3 ****        -2.6065  -0.2933  -1.1442 C.3            1 S1                 0.0000
      4 ****        -2.9975  -1.0038   0.1576 C.3            1 S1                 0.0000
      5 ****        -2.4281  -0.2659   1.3755 C.3            1 S1                 0.0000
      6 ****        -0.8972  -0.1194   1.2851 C.3            1 S1                 0.0000
      7 ****        -0.3530   0.6059   2.5295 C.3            1 S1                 0.0000
      8 ****        -0.4862   0.5765  -0.0388 C.3            1 S1                 0.0000
      9 ****         0.9743   0.6157  -0.1363 N.am           1 S1                 0.0000
     10 ****         1.7555   1.7051  -0.2805 C.2            1 S1                 0.0000
     11 ****         1.2304   2.8141  -0.3657 O.2            1 S1                 0.0000
     12 ****         3.1006   1.5154  -0.3249 N.pl3          1 S1                -1.0000
     13 ****         3.6649   0.3003  -0.1958 C.2            1 S1                 0.0000
     14 ****         3.9984  -0.4555  -1.2545 N.2            1 S1                 0.0000
     15 ****         4.5596  -1.6745  -0.8993 N.2            1 S1                 0.0000
     16 ****         4.6443  -1.8032   0.4246 C.2            1 S1                 0.0000
     17 ****         4.0445  -0.4486   1.3578 S.3            1 S1                 0.0000
     18 ****        -1.0671   1.5779  -2.6160 H              1 S1                 0.0000
     19 ****        -1.1702   0.0297  -3.4500 H              1 S1                 0.0000
     20 ****         0.3588   0.5564  -2.7727 H              1 S1                 0.0000
     21 ****        -0.6557  -1.1538  -1.3115 H              1 S1                 0.0000
     22 ****        -3.0742   0.6918  -1.1751 H              1 S1                 0.0000
     23 ****        -3.0035  -0.8497  -1.9939 H              1 S1                 0.0000
     24 ****        -4.0832  -1.0656   0.2355 H              1 S1                 0.0000
     25 ****        -2.6283  -2.0300   0.1427 H              1 S1                 0.0000
     26 ****        -2.8894   0.7196   1.4522 H              1 S1                 0.0000
     27 ****        -2.6989  -0.8044   2.2843 H              1 S1                 0.0000
     28 ****        -0.4714  -1.1242   1.2836 H              1 S1                 0.0000
     29 ****        -0.7058   1.6368   2.5706 H              1 S1                 0.0000
     30 ****         0.7370   0.6274   2.5402 H              1 S1                 0.0000
     31 ****        -0.6727   0.1077   3.4448 H              1 S1                 0.0000
     32 ****        -0.8911   1.5897  -0.0186 H              1 S1                 0.0000
     33 ****         1.4452  -0.2753  -0.0807 H              1 S1                 0.0000
     34 ****         5.0630  -2.7008   0.8542 H              1 S1                 0.0000
     35 ****         0.2348   2.9002  -0.3278 LP             1 S1                 0.0000
     36 ****         1.7990   3.6297  -0.4729 LP             1 S1                 0.0000
     37 ****         3.6939   2.3092  -0.4587 LP             1 S1                 0.0000
     38 ****         3.8569  -0.1693  -2.2022 LP             1 S1                 0.0000
     39 ****         4.8619  -2.3678  -1.5535 LP             1 S1                 0.0000
@<TRIPOS>BOND
    1    1    2 1     
    2    1   18 1     
    3    1   19 1     
    4    1   20 1     
    5    2    8 1     
    6    2    3 1     
    7    2   21 1     
    8    3    4 1     
    9    3   22 1     
   10    3   23 1     
   11    4    5 1     
   12    4   24 1     
   13    4   25 1     
   14    5    6 1     
   15    5   26 1     
   16    5   27 1     
   17    6    7 1     
   18    6    8 1     
   19    6   28 1     
   20    7   29 1     
   21    7   30 1     
   22    7   31 1     
   23    8    9 1     
   24    8   32 1     
   25    9   10 am    
   26    9   33 1     
   27   10   11 2     
   28   10   12 1     
   29   12   13 1     
   30   13   17 1     
   31   13   14 2     
   32   14   15 1     
   33   15   16 2     
   34   16   17 1     
   35   16   34 1     
   36   11   35 1     
   37   11   36 1     
   38   12   37 1     
   39   14   38 1     
   40   15   39 1     
@<TRIPOS>SUBSTRUCTURE
      1 S1             1
@<TRIPOS>SET
LONE_PAIRS      STATIC     ATOMS    <user>   **** ""
5 35 36 37 38 39
DONOR_HYDROGENS      STATIC     ATOMS    <user>   **** ""
1 33
ATOM$BLUE        STATIC     ATOMS    COLORGROUP SYSTEM
5 35 36 37 38 39
ATOM$RED        STATIC     ATOMS    COLORGROUP SYSTEM
1 33
