AV-unprocessed.smi:64|AV-procd|sdf|609|dock3
  -GOLD-   2262016503D 1   1.00000     0.00000
 Structure written by MMmdl.
 32 33  0  0  0  0  0  0  0  0  1 V2000
  147.9477  134.9212  160.4985 C   0  0  0  0  0  0  0  0  0  0  0  0
  148.4145  136.2646  159.9521 C   0  0  0  0  0  0  0  0  0  0  0  0
  148.1801  137.3155  160.5487 O   0  0  0  0  0  0  0  0  0  0  0  0
  149.0796  136.1472  158.7931 O   0  0  0  0  0  0  0  0  0  0  0  0
  149.6333  137.3007  158.1812 C   0  0  0  0  0  0  0  0  0  0  0  0
  149.7615  137.0589  156.6751 C   0  0  0  0  0  0  0  0  0  0  0  0
  150.8223  137.8574  156.1765 O   0  0  0  0  0  0  0  0  0  0  0  0
  150.6583  138.2193  154.8465 C   0  0  0  0  0  0  0  0  0  0  0  0
  149.9804  139.5002  154.8251 N   0  0  0  0  0  0  0  0  0  0  0  0
  150.4270  140.7173  155.2757 C   0  0  0  0  0  0  0  0  0  0  0  0
  149.5737  141.6894  155.1078 N   0  0  0  0  0  0  0  0  0  0  0  0
  148.4802  141.0816  154.4966 C   0  0  0  0  0  0  0  0  0  0  0  0
  147.2312  141.6417  154.0632 C   0  0  0  0  0  0  0  0  0  0  0  0
  146.8496  142.8073  154.1450 O   0  0  0  0  0  0  0  0  0  0  0  0
  146.3939  140.6790  153.4844 N   0  0  0  0  0  0  0  0  0  0  0  0
  146.7278  139.3337  153.3452 C   0  0  0  0  0  0  0  0  0  0  0  0
  145.8139  138.5415  152.7695 N   0  0  0  0  0  0  0  0  0  0  0  0
  147.8765  138.8188  153.7467 N   0  0  0  0  0  0  0  0  0  0  0  0
  148.7211  139.7333  154.3169 C   0  0  0  0  0  0  0  0  0  0  0  0
  145.4953  140.9968  153.1524 H   0  0  0  0  0  0  0  0  0  0  0  0
  148.1657  134.1160  159.7962 H   0  0  0  0  0  0  0  0  0  0  0  0
  146.8722  134.9410  160.6750 H   0  0  0  0  0  0  0  0  0  0  0  0
  148.4489  134.7029  161.4415 H   0  0  0  0  0  0  0  0  0  0  0  0
  149.0139  138.1775  158.3759 H   0  0  0  0  0  0  0  0  0  0  0  0
  150.6179  137.4914  158.6101 H   0  0  0  0  0  0  0  0  0  0  0  0
  149.9861  136.0070  156.4934 H   0  0  0  0  0  0  0  0  0  0  0  0
  148.8220  137.2872  156.1690 H   0  0  0  0  0  0  0  0  0  0  0  0
  151.6208  138.3151  154.3404 H   0  0  0  0  0  0  0  0  0  0  0  0
  150.0439  137.4870  154.3198 H   0  0  0  0  0  0  0  0  0  0  0  0
  151.3977  140.8618  155.7273 H   0  0  0  0  0  0  0  0  0  0  0  0
  144.9347  138.9322  152.4622 H   0  0  0  0  0  0  0  0  0  0  0  0
  146.0011  137.5577  152.6407 H   0  0  0  0  0  0  0  0  0  0  0  0
  1  2  1  0  0  0  0
  1 21  1  0  0  0  0
  1 22  1  0  0  0  0
  1 23  1  0  0  0  0
  2  3  2  0  0  0  0
  2  4  1  0  0  0  0
  4  5  1  0  0  0  0
  5  6  1  0  0  0  0
  5 24  1  0  0  0  0
  5 25  1  0  0  0  0
  6  7  1  0  0  0  0
  6 26  1  0  0  0  0
  6 27  1  0  0  0  0
  7  8  1  0  0  0  0
  8  9  1  0  0  0  0
  8 28  1  0  0  0  0
  8 29  1  0  0  0  0
  9 19  1  0  0  0  0
  9 10  1  0  0  0  0
 10 11  2  0  0  0  0
 10 30  1  0  0  0  0
 11 12  1  0  0  0  0
 12 19  2  0  0  0  0
 12 13  1  0  0  0  0
 13 14  2  0  0  0  0
 13 15  1  0  0  0  0
 15 20  1  0  0  0  0
 15 16  1  0  0  0  0
 16 17  1  0  0  0  0
 16 18  2  0  0  0  0
 17 31  1  0  0  0  0
 17 32  1  0  0  0  0
 18 19  1  0  0  0  0
M  END
> <s_m_source_file>
AV-unprocessed.smi

> <i_m_source_file_index>
64

> <i_lp_mmshare_version>
43012

> <i_f3d_flags>
0

> <s_epik_input>
W0NIM11DKD1PKU9bQ0gyXVtDSDJdT1tDSDJdbihbY0hdbjEpYyhjMTIpbmMoW05IMl0pW25IXWMyPU8=

> <s_epik_cmdline>
J2VwaWtfcHl0aG9uJywgJy1waCcsICc3LjAnLCAnLXRuJywgJzgnLCAnLW1hJywgJzIwMCcsICctbWV0YWxfYmluZGluZycsICctaW1hZScsICc8aW5maWxlLm1hZT4nLCAnLW9tYWUnLCAnPG91dGZpbGUubWFlPic=

> <r_lp_tautomer_probability>
1

> <r_epik_Ionization_Penalty>
0.00155449

> <r_epik_Ionization_Penalty_Charging>
0.00148332

> <r_epik_Ionization_Penalty_Neutral>
7.1171e-05

> <r_epik_State_Penalty>
-0

> <r_epik_Charging_Adjusted_Penalty>
0.00148332

> <i_epik_Tot_Q>
0

> <i_epik_Tot_abs_Q>
0

> <r_epik_Metal_State_Penalty>
0.320128

> <b_epik_Metal_Only>
0

> <s_epik_Chemistry_Notes>
This compound has an ester and may undergo hydrolysis at high or low pH. This compound contains an acetal/aminal-like group ( X-CH(R)-Y where X, Y are N, S, or O) that may be acid/base labile, releasing an aldehyde.

> <s_lp_Force_Field>
OPLS_2005

> <r_lp_Energy>
2.66723

> <b_lp_Chiralities_Consistent>
1

> <s_lp_Variant>
AV-unprocessed.smi:64-1

> <Gold.Version>
5.8.1

> <Gold.Id.Protein>
6NUR|6NUR_protein|mol2

> <Gold.PLP.Fitness>
36.4993

> <Gold.PLP.PLP>
-27.7834

> <Gold.PLP.part.hbond>
-4.0619

> <Gold.PLP.part.metal>
0.0000

> <Gold.PLP.part.buried>
-4.8004

> <Gold.PLP.part.nonpolar>
-20.2461

> <Gold.PLP.part.repulsive>
0.6193

> <Gold.PLP.ligand.clash>
0.0000

> <Gold.PLP.ligand.torsion>
0.7182

> <Gold.PLP.Chemscore.Hbond>
3.3576

> <Gold.PLP.Chemscore.CHOScore>
0.0000

> <Gold.PLP.Chemscore.Metal>
0.0000

> <Gold.Chemscore.Hbonds>
donor molecule, donor type, donor heavy atom, donor atom, acceptor molecule, acceptor atom, score
      L1  H    15    20       P1 10175  0.96
      L1  H    17    31       P1 10175  0.98
      P1  H  6931  6943       L1     3  0.72
      P1  H  6934  6947       L1     3  0.64

> <Gold.PLP.Chemscore.Internal.Correction>
0.0794

> <Gold.Rescore>
     Score         DG    S(hbond)    S(metal)    S(lipo)     H(rot)  DE(clash)    DE(int)     intcor
      7.63      -8.37       3.32        0.00      16.39       3.95       0.02       0.72       ----

> <Gold.Chemscore.Fitness>
7.6287

> <Gold.Chemscore.DG>
-8.3665

> <Gold.Chemscore.ZeroCoef>
-5.4800

> <Gold.Chemscore.Hbond>
3.3190

> <Gold.Chemscore.Metal>
0.0000

> <Gold.Chemscore.Lipo>
16.3908

> <Gold.Chemscore.Internal_Hbond>
0.0000

> <Gold.Chemscore.DEClash>
0.0202

> <Gold.Chemscore.DEInternal>
0.7175

> <Gold.Chemscore.Rot>
3.9518

> <Gold.Chemscore.Internal.Correction>
   9.000000E+99

> <Gold.Chemscore.Hbonds>
donor molecule, donor type, donor heavy atom, donor atom, acceptor molecule, acceptor atom, score
      L1  H    15    20       P1 10175  0.35
      L1  H    17    31       P1 10175  0.91
      P1  H  6931  6943       L1     3  0.72
      P1  H  6934  6947       L1     3  0.61

> <Gold.Chemscore.Hbond.Weighted>
-11.0853

> <Gold.Chemscore.Metal.Weighted>
-0.0000

> <Gold.Chemscore.Lipo.Weighted>
-1.9177

> <Gold.Chemscore.Internal_Hbond.Weighted>
0.0000

> <Gold.Chemscore.DEClash.Weighted>
0.0202

> <Gold.Chemscore.DEInternal.Weighted>
0.7175

> <Gold.Chemscore.Rot.Weighted>
10.1165

> <Gold.Chemscore.Internal.Correction.Weighted>
   9.000000E+99

> <Gold.Protein.RotatedTorsions>
[ 6907 6896 6895 6894 ] final  -18.27 input  -60.11 | X-H torsion
[ 7974 7965 7964 7962 ] final    6.80 input  175.53 | X-H torsion
[ 8008 7997 7996 7995 ] final  -63.62 input   59.86 | X-H torsion
[ 10167 10162 10161 10158 ] final -149.14 input  -65.29 | X-H torsion
[ 10718 10713 10712 10709 ] final  148.66 input   66.30 | X-H torsion
[ 10763 10752 10751 10750 ] final -125.54 input  -60.55 | X-H torsion
[ 11005 11000 10999 10996 ] final   21.75 input  -57.11 | X-H torsion

> <Gold.Protein.ActiveResidues>
 VAL166  LYS551  ARG553  GLY616  TRP617  ASP618  TYR619  PRO620  LYS621  CYS622 
 ASP623  PHE694  ASN695  SER759  ASP760  ASP761  ALA762  ILE779  LEU786  VAL792 
 PHE793  MET794  SER795  GLU796  ALA797  LYS798  CYS799  TRP800  GLU811  SER814 

> <Gold.Protein.RotatedAtoms>
  151.2806  135.0713  159.9167 H   0  0  0  0  0  0  0  0  0  0  0  0  # atno 6907 bound_to 6896
  152.5334  134.0034  159.7915 H   0  0  0  0  0  0  0  0  0  0  0  0  # atno 6908 bound_to 6896
  151.0288  133.5759  159.2694 H   0  0  0  0  0  0  0  0  0  0  0  0  # atno 6909 bound_to 6896
  146.2432  140.0179  142.8400 H   0  0  0  0  0  0  0  0  0  0  0  0  # atno 7974 bound_to 7965
  154.4564  140.0971  156.6770 H   0  0  0  0  0  0  0  0  0  0  0  0  # atno 8008 bound_to 7997
  155.5124  140.3477  155.4372 H   0  0  0  0  0  0  0  0  0  0  0  0  # atno 8009 bound_to 7997
  156.0786  140.1367  156.9729 H   0  0  0  0  0  0  0  0  0  0  0  0  # atno 8010 bound_to 7997
  139.7469  143.8577  152.2577 H   0  0  0  0  0  0  0  0  0  0  0  0  # atno 10167 bound_to 10162
  157.3059  131.0879  151.1354 H   0  0  0  0  0  0  0  0  0  0  0  0  # atno 10718 bound_to 10713
  154.8737  135.4026  154.3285 H   0  0  0  0  0  0  0  0  0  0  0  0  # atno 10763 bound_to 10752
  153.4102  135.7020  153.6370 H   0  0  0  0  0  0  0  0  0  0  0  0  # atno 10764 bound_to 10752
  153.5076  135.3714  155.2541 H   0  0  0  0  0  0  0  0  0  0  0  0  # atno 10765 bound_to 10752
  140.3881  134.1849  155.7663 H   0  0  0  0  0  0  0  0  0  0  0  0  # atno 11005 bound_to 11000
  145.1267  140.9494  143.4568 LP  0  0  0  0  0  0  0  0  0  0  0  0  # atno 17320 bound_to 7965
  145.0427  139.3246  143.5968 LP  0  0  0  0  0  0  0  0  0  0  0  0  # atno 17321 bound_to 7965
  139.8544  144.7149  150.9175 LP  0  0  0  0  0  0  0  0  0  0  0  0  # atno 17342 bound_to 10162
  140.7793  143.3872  151.1374 LP  0  0  0  0  0  0  0  0  0  0  0  0  # atno 17343 bound_to 10162
  157.2695  130.6697  149.6012 LP  0  0  0  0  0  0  0  0  0  0  0  0  # atno 17370 bound_to 10713
  155.9674  130.4483  150.5616 LP  0  0  0  0  0  0  0  0  0  0  0  0  # atno 17371 bound_to 10713
  141.1900  133.8225  157.0934 LP  0  0  0  0  0  0  0  0  0  0  0  0  # atno 17394 bound_to 11000
  140.0427  134.9846  157.0992 LP  0  0  0  0  0  0  0  0  0  0  0  0  # atno 17395 bound_to 11000

$$$$
