AV-unprocessed.smi:2571|AV-procd|sdf|10108|dock2
  -GOLD-   2272014123D 1   1.00000     0.00000
 Structure written by MMmdl.
 38 40  0  0  0  0  0  0  0  0  1 V2000
  153.9680  140.9426  161.6071 C   0  0  0  0  0  0  0  0  0  0  0  0
  153.4273  142.2041  161.9722 O   0  0  0  0  0  0  0  0  0  0  0  0
  152.7796  142.9378  161.0015 C   0  0  0  0  0  0  0  0  0  0  0  0
  152.3994  144.2526  161.3388 C   0  0  0  0  0  0  0  0  0  0  0  0
  151.7360  145.0720  160.4064 C   0  0  0  0  0  0  0  0  0  0  0  0
  151.4426  144.5818  159.1209 C   0  0  0  0  0  0  0  0  0  0  0  0
  151.8104  143.2681  158.7649 C   0  0  0  0  0  0  0  0  0  0  0  0
  151.4947  142.7398  157.3746 C   0  0  2  0  0  0  0  0  0  0  0  0
  151.0050  143.7576  156.5222 O   0  0  0  0  0  0  0  0  0  0  0  0
  150.4977  141.5644  157.4341 C   0  0  0  0  0  0  0  0  0  0  0  0
  150.5899  140.6907  156.2744 N   0  0  0  0  0  0  0  0  0  0  0  0
  150.0591  141.0912  155.0904 N   0  0  0  0  0  0  0  0  0  0  0  0
  150.2868  140.0955  154.2361 C   0  0  0  0  0  0  0  0  0  0  0  0
  150.9751  139.0131  154.8500 C   0  0  0  0  0  0  0  0  0  0  0  0
  151.4612  137.7104  154.4056 C   0  0  0  0  0  0  0  0  0  0  0  0
  152.0643  136.9538  155.2682 N   0  0  0  0  0  0  0  0  0  0  0  0
  152.2489  137.3653  156.5931 N   0  0  0  0  0  0  0  0  0  0  0  0
  152.9447  136.4009  157.4419 C   0  0  0  0  0  0  0  0  0  0  0  0
  151.8308  138.5602  157.1096 C   0  0  0  0  0  0  0  0  0  0  0  0
  151.9987  138.9008  158.2805 O   0  0  0  0  0  0  0  0  0  0  0  0
  151.1432  139.4338  156.1280 C   0  0  0  0  0  0  0  0  0  0  0  0
  152.4795  142.4519  159.7037 C   0  0  0  0  0  0  0  0  0  0  0  0
  154.4463  140.4911  162.4761 H   0  0  0  0  0  0  0  0  0  0  0  0
  154.7259  141.0435  160.8292 H   0  0  0  0  0  0  0  0  0  0  0  0
  153.1895  140.2582  161.2670 H   0  0  0  0  0  0  0  0  0  0  0  0
  152.6203  144.6379  162.3236 H   0  0  0  0  0  0  0  0  0  0  0  0
  151.4521  146.0780  160.6782 H   0  0  0  0  0  0  0  0  0  0  0  0
  150.9348  145.2182  158.4109 H   0  0  0  0  0  0  0  0  0  0  0  0
  152.4221  142.3827  156.9248 H   0  0  0  0  0  0  0  0  0  0  0  0
  150.2190  144.1155  156.9055 H   0  0  0  0  0  0  0  0  0  0  0  0
  150.6857  140.9664  158.3272 H   0  0  0  0  0  0  0  0  0  0  0  0
  149.4742  141.9259  157.5275 H   0  0  0  0  0  0  0  0  0  0  0  0
  149.9478  140.1914  153.2152 H   0  0  0  0  0  0  0  0  0  0  0  0
  151.3178  137.3875  153.3745 H   0  0  0  0  0  0  0  0  0  0  0  0
  153.8557  136.8379  157.8533 H   0  0  0  0  0  0  0  0  0  0  0  0
  153.2293  135.5026  156.8916 H   0  0  0  0  0  0  0  0  0  0  0  0
  152.3085  136.0912  158.2721 H   0  0  0  0  0  0  0  0  0  0  0  0
  152.7555  141.4519  159.4045 H   0  0  0  0  0  0  0  0  0  0  0  0
  1  2  1  0  0  0  0
  1 23  1  0  0  0  0
  1 24  1  0  0  0  0
  1 25  1  0  0  0  0
  2  3  1  0  0  0  0
  3 22  1  0  0  0  0
  3  4  2  0  0  0  0
  4  5  1  0  0  0  0
  4 26  1  0  0  0  0
  5  6  2  0  0  0  0
  5 27  1  0  0  0  0
  6  7  1  0  0  0  0
  6 28  1  0  0  0  0
  7  8  1  0  0  0  0
  7 22  2  0  0  0  0
  8  9  1  0  0  0  0
  8 10  1  0  0  0  0
  8 29  1  0  0  0  0
  9 30  1  0  0  0  0
 10 11  1  0  0  0  0
 10 31  1  0  0  0  0
 10 32  1  0  0  0  0
 11 21  1  0  0  0  0
 11 12  1  0  0  0  0
 12 13  2  0  0  0  0
 13 14  1  0  0  0  0
 13 33  1  0  0  0  0
 14 21  2  0  0  0  0
 14 15  1  0  0  0  0
 15 16  2  0  0  0  0
 15 34  1  0  0  0  0
 16 17  1  0  0  0  0
 17 18  1  0  0  0  0
 17 19  1  0  0  0  0
 18 35  1  0  0  0  0
 18 36  1  0  0  0  0
 18 37  1  0  0  0  0
 19 20  2  0  0  0  0
 19 21  1  0  0  0  0
 22 38  1  0  0  0  0
M  END
> <s_m_source_file>
AV-unprocessed.smi

> <i_m_source_file_index>
2571

> <i_lp_mmshare_version>
43012

> <i_f3d_flags>
0

> <s_epik_input>
W0NIM11PYzFbY0hdW2NIXVtjSF1jKFtjSF0xKVtDQEhdKFtPSF0pW0NIMl1uKG5bY0hdMiljKGMyMyljKD1PKW4oW0NIM10pbltjSF0z

> <s_epik_cmdline>
J2VwaWtfcHl0aG9uJywgJy1waCcsICc3LjAnLCAnLXRuJywgJzgnLCAnLW1hJywgJzIwMCcsICctbWV0YWxfYmluZGluZycsICctaW1hZScsICc8aW5maWxlLm1hZT4nLCAnLW9tYWUnLCAnPG91dGZpbGUubWFlPic=

> <r_lp_tautomer_probability>
1

> <r_epik_Ionization_Penalty>
1.38887e-06

> <r_epik_Ionization_Penalty_Charging>
1.65421e-10

> <r_epik_Ionization_Penalty_Neutral>
1.38871e-06

> <r_epik_State_Penalty>
-0

> <r_epik_Charging_Adjusted_Penalty>
1.65421e-10

> <i_epik_Tot_Q>
0

> <i_epik_Tot_abs_Q>
0

> <r_epik_Metal_State_Penalty>
-0

> <b_epik_Metal_Only>
0

> <s_lp_Force_Field>
OPLS_2005

> <r_lp_Energy>
30.8007

> <b_lp_Chiralities_Consistent>
1

> <s_lp_Variant>
AV-unprocessed.smi:2571-1

> <Gold.Version>
5.8.1

> <Gold.Id.Protein>
6NUR|6NUR_protein|mol2

> <Gold.PLP.Fitness>
53.0242

> <Gold.PLP.PLP>
-44.6690

> <Gold.PLP.part.hbond>
-2.7553

> <Gold.PLP.part.metal>
0.0000

> <Gold.PLP.part.buried>
-4.0779

> <Gold.PLP.part.nonpolar>
-38.3525

> <Gold.PLP.part.repulsive>
0.2111

> <Gold.PLP.ligand.clash>
0.0000

> <Gold.PLP.ligand.torsion>
0.5666

> <Gold.PLP.Chemscore.Hbond>
1.1360

> <Gold.PLP.Chemscore.CHOScore>
2.0000

> <Gold.PLP.Chemscore.Metal>
0.0000

> <Gold.Chemscore.Hbonds>
donor molecule, donor type, donor heavy atom, donor atom, acceptor molecule, acceptor atom, score
      L1  H     9    30       P1  8028  0.32
      P1  H 10752 10764       L1    16  0.82
      L1  C    13    33       P1  7957  1.00
      L1  C    15    34       P1  7949  1.00

> <Gold.PLP.Chemscore.Internal.Correction>
0.0805

> <Gold.Rescore>
     Score         DG    S(hbond)    S(metal)    S(lipo)     H(rot)  DE(clash)    DE(int)     intcor
     16.70     -17.43       0.95        0.00     123.57       2.21       0.23       0.49       ----

> <Gold.Chemscore.Fitness>
16.7041

> <Gold.Chemscore.DG>
-17.4254

> <Gold.Chemscore.ZeroCoef>
-5.4800

> <Gold.Chemscore.Hbond>
0.9454

> <Gold.Chemscore.Metal>
0.0000

> <Gold.Chemscore.Lipo>
123.5659

> <Gold.Chemscore.Internal_Hbond>
0.0000

> <Gold.Chemscore.DEClash>
0.2298

> <Gold.Chemscore.DEInternal>
0.4915

> <Gold.Chemscore.Rot>
2.2146

> <Gold.Chemscore.Internal.Correction>
   9.000000E+99

> <Gold.Chemscore.Hbonds>
donor molecule, donor type, donor heavy atom, donor atom, acceptor molecule, acceptor atom, score
      L1  H     9    30       P1  8028  0.31
      P1  H 10752 10764       L1    16  0.61

> <Gold.Chemscore.Hbond.Weighted>
-3.1575

> <Gold.Chemscore.Metal.Weighted>
-0.0000

> <Gold.Chemscore.Lipo.Weighted>
-14.4572

> <Gold.Chemscore.Internal_Hbond.Weighted>
0.0000

> <Gold.Chemscore.DEClash.Weighted>
0.2298

> <Gold.Chemscore.DEInternal.Weighted>
0.4915

> <Gold.Chemscore.Rot.Weighted>
5.6693

> <Gold.Chemscore.Internal.Correction.Weighted>
   9.000000E+99

> <Gold.Protein.RotatedTorsions>
[ 6907 6896 6895 6894 ] final -134.29 input  -60.11 | X-H torsion
[ 7974 7965 7964 7962 ] final  -44.17 input  175.53 | X-H torsion
[ 8008 7997 7996 7995 ] final -100.57 input   59.86 | X-H torsion
[ 10167 10162 10161 10158 ] final   54.77 input  -65.29 | X-H torsion
[ 10718 10713 10712 10709 ] final -121.33 input   66.30 | X-H torsion
[ 10763 10752 10751 10750 ] final  -71.47 input  -60.55 | X-H torsion
[ 11005 11000 10999 10996 ] final  -93.31 input  -57.11 | X-H torsion

> <Gold.Protein.ActiveResidues>
 VAL166  LYS551  ARG553  GLY616  TRP617  ASP618  TYR619  PRO620  LYS621  CYS622 
 ASP623  PHE694  ASN695  SER759  ASP760  ASP761  ALA762  ILE779  LEU786  VAL792 
 PHE793  MET794  SER795  GLU796  ALA797  LYS798  CYS799  TRP800  GLU811  SER814 

> <Gold.Protein.RotatedAtoms>
  150.9840  133.6216  159.2717 H   0  0  0  0  0  0  0  0  0  0  0  0  # atno 6907 bound_to 6896
  151.3461  135.0873  159.9397 H   0  0  0  0  0  0  0  0  0  0  0  0  # atno 6908 bound_to 6896
  152.5225  133.9442  159.7695 H   0  0  0  0  0  0  0  0  0  0  0  0  # atno 6909 bound_to 6896
  145.9947  140.7141  142.9300 H   0  0  0  0  0  0  0  0  0  0  0  0  # atno 7974 bound_to 7965
  154.8305  140.0440  157.1474 H   0  0  0  0  0  0  0  0  0  0  0  0  # atno 8008 bound_to 7997
  154.9158  140.3020  155.5222 H   0  0  0  0  0  0  0  0  0  0  0  0  # atno 8009 bound_to 7997
  156.2986  140.2350  156.4202 H   0  0  0  0  0  0  0  0  0  0  0  0  # atno 8010 bound_to 7997
  140.2266  144.3732  150.6430 H   0  0  0  0  0  0  0  0  0  0  0  0  # atno 10167 bound_to 10162
  156.1329  130.6408  150.9649 H   0  0  0  0  0  0  0  0  0  0  0  0  # atno 10718 bound_to 10713
  154.4322  135.5961  153.6076 H   0  0  0  0  0  0  0  0  0  0  0  0  # atno 10763 bound_to 10752
  152.9799  135.5978  154.3825 H   0  0  0  0  0  0  0  0  0  0  0  0  # atno 10764 bound_to 10752
  154.3665  135.2841  155.2269 H   0  0  0  0  0  0  0  0  0  0  0  0  # atno 10765 bound_to 10752
  141.1500  133.7879  157.0142 H   0  0  0  0  0  0  0  0  0  0  0  0  # atno 11005 bound_to 11000
  144.6900  140.3130  143.7245 LP  0  0  0  0  0  0  0  0  0  0  0  0  # atno 17320 bound_to 7965
  145.7577  139.1814  143.2285 LP  0  0  0  0  0  0  0  0  0  0  0  0  # atno 17321 bound_to 7965
  140.6216  143.2177  151.6682 LP  0  0  0  0  0  0  0  0  0  0  0  0  # atno 17342 bound_to 10162
  139.5125  144.3474  152.0684 LP  0  0  0  0  0  0  0  0  0  0  0  0  # atno 17343 bound_to 10162
  157.6505  131.0897  150.8061 LP  0  0  0  0  0  0  0  0  0  0  0  0  # atno 17370 bound_to 10713
  156.8144  130.4963  149.5351 LP  0  0  0  0  0  0  0  0  0  0  0  0  # atno 17371 bound_to 10713
  140.0858  134.9622  157.1697 LP  0  0  0  0  0  0  0  0  0  0  0  0  # atno 17394 bound_to 11000
  140.3514  134.2594  155.7198 LP  0  0  0  0  0  0  0  0  0  0  0  0  # atno 17395 bound_to 11000

$$$$
