#       Name:                AV-unprocessed.smi:100
#       Creating user name   scv26
#       Creation time:       Thu Mar 26 17:39:47 2020


#       File generated by GOLD software.
#

@<TRIPOS>MOLECULE
AV-unprocessed.smi:100
    40    42     1
SMALL
NO_CHARGES


@<TRIPOS>ATOM
      1 ****        -5.0144   0.6595  -0.0735 N.pl3          1 S1                 0.0000
      2 ****        -3.6853   0.7879  -0.1870 C.ar           1 S1                 0.0000
      3 ****        -3.1856   1.9883  -0.5620 N.ar           1 S1                 0.0000
      4 ****        -1.8631   2.1408  -0.6823 C.ar           1 S1                 0.0000
      5 ****        -0.8973   1.2410  -0.4804 N.ar           1 S1                 0.0000
      6 ****        -1.4007   0.0295  -0.1034 C.ar           1 S1                 0.0000
      7 ****        -2.7806  -0.2739   0.0673 C.ar           1 S1                 0.0000
      8 ****        -2.9304  -1.5963   0.4607 N.2            1 S1                 0.0000
      9 ****        -1.7060  -2.0463   0.5164 C.2            1 S1                 0.0000
     10 ****        -0.7215  -1.1381   0.1917 N.pl3          1 S1                 0.0000
     11 ****         0.7590  -1.3861   0.1686 C.3            1 S1                 0.0000
     12 ****         1.3459  -0.6667  -0.8767 O.3            1 S1                 0.0000
     13 ****         2.2584   0.2998  -0.3588 C.3            1 S1                 0.0000
     14 ****         3.3842   0.5884  -1.3638 C.3            1 S1                 0.0000
     15 ****         2.9544   1.5391  -2.3147 O.3            1 S1                 0.0000
     16 ****         2.7309  -0.3274   0.9539 C.3            1 S1                 0.0000
     17 ****         3.6507  -1.2675   0.7240 F              1 S1                 0.0000
     18 ****         1.4652  -0.9800   1.4778 C.3            1 S1                 0.0000
     19 ****         0.7299  -0.0825   2.2909 O.3            1 S1                 0.0000
     20 ****        -5.4114  -0.2263   0.2050 H              1 S1                 0.0000
     21 ****        -5.6150   1.4466  -0.2718 H              1 S1                 0.0000
     22 ****        -1.5304   3.1236  -0.9821 H              1 S1                 0.0000
     23 ****        -1.4843  -3.0652   0.7990 H              1 S1                 0.0000
     24 ****         0.8554  -2.4508  -0.0487 H              1 S1                 0.0000
     25 ****         1.7243   1.2201  -0.1193 H              1 S1                 0.0000
     26 ****         4.2477   1.0102  -0.8484 H              1 S1                 0.0000
     27 ****         3.7156  -0.3231  -1.8619 H              1 S1                 0.0000
     28 ****         3.6636   1.7040  -2.9171 H              1 S1                 0.0000
     29 ****         3.1714   0.3938   1.6432 H              1 S1                 0.0000
     30 ****         1.6801  -1.8710   2.0691 H              1 S1                 0.0000
     31 ****        -0.1095  -0.4721   2.4830 H              1 S1                 0.0000
     32 ****        -3.8006   2.7548  -0.7475 LP             1 S1                 0.0000
     33 ****         0.0779   1.4319  -0.5920 LP             1 S1                 0.0000
     34 ****        -3.7782  -2.0894   0.6560 LP             1 S1                 0.0000
     35 ****         0.6316  -0.2002  -1.3983 LP             1 S1                 0.0000
     36 ****         1.8382  -1.2977  -1.4762 LP             1 S1                 0.0000
     37 ****         2.7012   2.3885  -1.8514 LP             1 S1                 0.0000
     38 ****         2.1642   1.1833  -2.8136 LP             1 S1                 0.0000
     39 ****         0.5977   0.7818   1.8056 LP             1 S1                 0.0000
     40 ****         1.2266   0.0860   3.1424 LP             1 S1                 0.0000
@<TRIPOS>BOND
    1    1    2 1     
    2    1   20 1     
    3    1   21 1     
    4    2    7 ar    
    5    2    3 ar    
    6    3    4 ar    
    7    4    5 ar    
    8    4   22 1     
    9    5    6 ar    
   10    6   10 1     
   11    6    7 ar    
   12    7    8 1     
   13    8    9 2     
   14    9   10 1     
   15    9   23 1     
   16   10   11 1     
   17   11   18 1     
   18   11   12 1     
   19   11   24 1     
   20   12   13 1     
   21   13   14 1     
   22   13   16 1     
   23   13   25 1     
   24   14   15 1     
   25   14   26 1     
   26   14   27 1     
   27   15   28 1     
   28   16   17 1     
   29   16   18 1     
   30   16   29 1     
   31   18   19 1     
   32   18   30 1     
   33   19   31 1     
   34    3   32 1     
   35    5   33 1     
   36    8   34 1     
   37   12   35 1     
   38   12   36 1     
   39   15   37 1     
   40   15   38 1     
   41   19   39 1     
   42   19   40 1     
@<TRIPOS>SUBSTRUCTURE
      1 S1             1
@<TRIPOS>SET
LONE_PAIRS      STATIC     ATOMS    <user>   **** ""
9 32 33 34 35 36 37 38 39 40
DONOR_HYDROGENS      STATIC     ATOMS    <user>   **** ""
4 20 21 28 31
ATOM$BLUE        STATIC     ATOMS    COLORGROUP SYSTEM
9 32 33 34 35 36 37 38 39 40
ATOM$RED        STATIC     ATOMS    COLORGROUP SYSTEM
4 20 21 28 31
