#       Name:                AV-unprocessed.smi:1224
#       Creating user name   scv26
#       Creation time:       Fri Mar 27 04:19:10 2020


#       File generated by GOLD software.
#

@<TRIPOS>MOLECULE
AV-unprocessed.smi:1224
    47    49     1
SMALL
NO_CHARGES


@<TRIPOS>ATOM
      1 ****        -2.2825   4.8923  -3.3767 C.3            1 S1                 0.0000
      2 ****        -2.0516   3.8201  -2.3255 C.ar           1 S1                 0.0000
      3 ****        -2.3410   4.1248  -0.9761 C.ar           1 S1                 0.0000
      4 ****        -2.1208   3.1230  -0.0383 C.ar           1 S1                 0.0000
      5 ****        -2.3065   3.1073   1.3459 N.pl3          1 S1                 1.0000
      6 ****        -1.9506   1.8885   1.8387 C.2            1 S1                 0.0000
      7 ****        -1.5373   1.1265   0.7891 N.pl3          1 S1                 0.0000
      8 ****        -1.0486  -0.2587   0.7588 C.3            1 S1                 0.0000
      9 ****         0.4902  -0.3499   0.7346 C.3            1 S1                 0.0000
     10 ****         1.0099   0.2652   1.8981 O.3            1 S1                 0.0000
     11 ****         0.9789  -1.8061   0.6782 C.3            1 S1                 0.0000
     12 ****         2.4412  -1.8744   0.4684 N.4            1 S1                 1.0000
     13 ****         2.9898  -3.2400   0.3368 C.3            1 S1                 0.0000
     14 ****         2.8860  -4.0237   1.6049 C.2            1 S1                 0.0000
     15 ****         1.9859  -5.0135   1.9089 C.2            1 S1                 0.0000
     16 ****         2.1626  -5.5483   3.2186 C.2            1 S1                 0.0000
     17 ****         3.1966  -4.9600   3.8970 C.2            1 S1                 0.0000
     18 ****         3.9750  -3.7316   2.9378 S.3            1 S1                 0.0000
     19 ****        -1.6283   1.8547  -0.4019 C.ar           1 S1                 0.0000
     20 ****        -1.3360   1.5382  -1.7262 C.ar           1 S1                 0.0000
     21 ****        -1.5565   2.5427  -2.6956 C.ar           1 S1                 0.0000
     22 ****        -1.2531   2.2245  -4.1499 C.3            1 S1                 0.0000
     23 ****        -2.6711   5.8094  -2.9327 H              1 S1                 0.0000
     24 ****        -3.0031   4.5515  -4.1204 H              1 S1                 0.0000
     25 ****        -1.3495   5.1375  -3.8848 H              1 S1                 0.0000
     26 ****        -2.7189   5.0948  -0.6868 H              1 S1                 0.0000
     27 ****        -1.9873   1.5840   2.8748 H              1 S1                 0.0000
     28 ****        -1.4465  -0.7666   1.6386 H              1 S1                 0.0000
     29 ****        -1.4842  -0.7577  -0.1077 H              1 S1                 0.0000
     30 ****         0.8678   0.1905  -0.1344 H              1 S1                 0.0000
     31 ****         0.6628  -0.1785   2.6575 H              1 S1                 0.0000
     32 ****         0.7016  -2.3321   1.5927 H              1 S1                 0.0000
     33 ****         0.4898  -2.3239  -0.1479 H              1 S1                 0.0000
     34 ****         2.6605  -1.3664  -0.3764 H              1 S1                 0.0000
     35 ****         2.4820  -3.7605  -0.4762 H              1 S1                 0.0000
     36 ****         4.0371  -3.1589   0.0450 H              1 S1                 0.0000
     37 ****         1.2125  -5.3688   1.2438 H              1 S1                 0.0000
     38 ****         1.5349  -6.3350   3.6108 H              1 S1                 0.0000
     39 ****         3.5477  -5.1729   4.8962 H              1 S1                 0.0000
     40 ****        -0.9586   0.5666  -2.0081 H              1 S1                 0.0000
     41 ****        -0.8844   1.2050  -4.2673 H              1 S1                 0.0000
     42 ****        -0.4926   2.9010  -4.5402 H              1 S1                 0.0000
     43 ****        -2.1518   2.3246  -4.7589 H              1 S1                 0.0000
     44 ****         2.8993  -1.4168   1.2440 H              1 S1                 0.0000
     45 ****        -2.6520   3.8701   1.9144 H              1 S1                 0.0000
     46 ****         0.7401   1.2279   1.9186 LP             1 S1                 0.0000
     47 ****         2.0077   0.1986   1.8965 LP             1 S1                 0.0000
@<TRIPOS>BOND
    1    1    2 1     
    2    1   23 1     
    3    1   24 1     
    4    1   25 1     
    5    2   21 ar    
    6    2    3 ar    
    7    3    4 ar    
    8    3   26 1     
    9    4   19 ar    
   10    4    5 1     
   11    5    6 2     
   12    5   45 1     
   13    6    7 1     
   14    6   27 1     
   15    7    8 1     
   16    7   19 1     
   17    8    9 1     
   18    8   28 1     
   19    8   29 1     
   20    9   10 1     
   21    9   11 1     
   22    9   30 1     
   23   10   31 1     
   24   11   12 1     
   25   11   32 1     
   26   11   33 1     
   27   12   13 1     
   28   12   34 1     
   29   12   44 1     
   30   13   14 1     
   31   13   35 1     
   32   13   36 1     
   33   14   18 1     
   34   14   15 2     
   35   15   16 1     
   36   15   37 1     
   37   16   17 2     
   38   16   38 1     
   39   17   18 1     
   40   17   39 1     
   41   19   20 ar    
   42   20   21 ar    
   43   20   40 1     
   44   21   22 1     
   45   22   41 1     
   46   22   42 1     
   47   22   43 1     
   48   10   46 1     
   49   10   47 1     
@<TRIPOS>SUBSTRUCTURE
      1 S1             1
@<TRIPOS>SET
LONE_PAIRS      STATIC     ATOMS    <user>   **** ""
2 46 47
DONOR_HYDROGENS      STATIC     ATOMS    <user>   **** ""
4 45 31 34 44
ATOM$BLUE        STATIC     ATOMS    COLORGROUP SYSTEM
2 46 47
ATOM$RED        STATIC     ATOMS    COLORGROUP SYSTEM
4 45 31 34 44
