AV-unprocessed.smi:777|AV-procd|sdf|3701|dock6
  -GOLD-   22720 1123D 1   1.00000     0.00000
 Structure written by MMmdl.
 37 38  0  0  0  0  0  0  0  0  2 V2000
  152.2144  144.8292  158.5088 C   0  0  0  0  0  0  0  0  0  0  0  0
  152.3734  143.3246  158.8145 C   0  0  2  0  0  0  0  0  0  0  0  0
  151.1544  142.4985  158.3760 C   0  0  0  0  0  0  0  0  0  0  0  0
  150.0498  142.7203  158.8713 O   0  0  0  0  0  0  0  0  0  0  0  0
  151.4109  141.5513  157.4535 N   0  0  0  0  0  0  0  0  0  0  0  0
  150.5702  140.5157  156.8329 C   0  0  0  0  0  0  0  0  0  0  0  0
  151.4968  139.8359  155.7917 C   0  0  0  0  0  0  0  0  0  0  0  0
  152.5960  139.3871  156.1870 O   0  0  0  0  0  0  0  0  0  0  0  0
  151.1194  139.8181  154.5984 O   0  5  0  0  0  0  0  0  0  0  0  0
  149.9746  139.4681  157.8278 C   0  0  0  0  0  0  0  0  0  0  0  0
  148.9818  138.4951  157.1618 C   0  0  0  0  0  0  0  0  0  0  0  0
  147.8383  139.2559  156.4751 C   0  0  0  0  0  0  0  0  0  0  0  0
  148.3792  140.2848  155.4719 C   0  0  0  0  0  0  0  0  0  0  0  0
  149.3832  141.2449  156.1406 C   0  0  0  0  0  0  0  0  0  0  0  0
  152.6745  143.0572  160.2175 N   0  0  0  0  0  0  0  0  0  0  0  0
  153.2921  141.9430  160.7503 C   0  0  0  0  0  0  0  0  0  0  0  0
  153.3162  142.0936  162.1070 C   0  0  0  0  0  0  0  0  0  0  0  0
  152.6648  143.3399  162.3189 C   0  0  0  0  0  0  0  0  0  0  0  0
  152.2743  143.9092  161.1906 N   0  0  0  0  0  0  0  0  0  0  0  0
  152.0541  144.9964  157.4433 H   0  0  0  0  0  0  0  0  0  0  0  0
  153.1112  145.3800  158.7936 H   0  0  0  0  0  0  0  0  0  0  0  0
  151.3716  145.2720  159.0412 H   0  0  0  0  0  0  0  0  0  0  0  0
  153.2307  142.9750  158.2367 H   0  0  0  0  0  0  0  0  0  0  0  0
  152.3756  141.5021  157.1600 H   0  0  0  0  0  0  0  0  0  0  0  0
  150.7622  138.9001  158.3252 H   0  0  0  0  0  0  0  0  0  0  0  0
  149.4317  139.9863  158.6189 H   0  0  0  0  0  0  0  0  0  0  0  0
  149.4966  137.8668  156.4342 H   0  0  0  0  0  0  0  0  0  0  0  0
  148.5735  137.8173  157.9119 H   0  0  0  0  0  0  0  0  0  0  0  0
  147.1743  138.5545  155.9693 H   0  0  0  0  0  0  0  0  0  0  0  0
  147.2356  139.7644  157.2287 H   0  0  0  0  0  0  0  0  0  0  0  0
  148.8519  139.7685  154.6357 H   0  0  0  0  0  0  0  0  0  0  0  0
  147.5521  140.8543  155.0477 H   0  0  0  0  0  0  0  0  0  0  0  0
  148.8492  141.8377  156.8849 H   0  0  0  0  0  0  0  0  0  0  0  0
  149.7409  141.9664  155.4043 H   0  0  0  0  0  0  0  0  0  0  0  0
  153.6558  141.1409  160.1248 H   0  0  0  0  0  0  0  0  0  0  0  0
  153.7267  141.4118  162.8366 H   0  0  0  0  0  0  0  0  0  0  0  0
  152.4599  143.8416  163.2531 H   0  0  0  0  0  0  0  0  0  0  0  0
  1  2  1  0  0  0  0
  1 20  1  0  0  0  0
  1 21  1  0  0  0  0
  1 22  1  0  0  0  0
  2  3  1  0  0  0  0
  2 15  1  0  0  0  0
  2 23  1  0  0  0  0
  3  4  2  0  0  0  0
  3  5  1  0  0  0  0
  5  6  1  0  0  0  0
  5 24  1  0  0  0  0
  6 14  1  0  0  0  0
  6  7  1  0  0  0  0
  6 10  1  0  0  0  0
  7  8  2  0  0  0  0
  7  9  1  0  0  0  0
 10 11  1  0  0  0  0
 10 25  1  0  0  0  0
 10 26  1  0  0  0  0
 11 12  1  0  0  0  0
 11 27  1  0  0  0  0
 11 28  1  0  0  0  0
 12 13  1  0  0  0  0
 12 29  1  0  0  0  0
 12 30  1  0  0  0  0
 13 14  1  0  0  0  0
 13 31  1  0  0  0  0
 13 32  1  0  0  0  0
 14 33  1  0  0  0  0
 14 34  1  0  0  0  0
 15 19  1  0  0  0  0
 15 16  1  0  0  0  0
 16 17  2  0  0  0  0
 16 35  1  0  0  0  0
 17 18  1  0  0  0  0
 17 36  1  0  0  0  0
 18 19  2  0  0  0  0
 18 37  1  0  0  0  0
M  CHG  1   9  -1
M  END
> <s_m_source_file>
AV-unprocessed.smi

> <i_m_source_file_index>
777

> <i_lp_mmshare_version>
43012

> <i_f3d_flags>
0

> <s_epik_input>
bjFbY0hdW2NIXVtjSF1uMVtDQEhdKFtDSDNdKUMoPU8pW05IXUMyKEMoPU8pW09IXSlbQ0gyXVtDSDJdW0NIMl1bQ0gyXVtDSDJdMg==

> <s_epik_cmdline>
J2VwaWtfcHl0aG9uJywgJy1waCcsICc3LjAnLCAnLXRuJywgJzgnLCAnLW1hJywgJzIwMCcsICctbWV0YWxfYmluZGluZycsICctaW1hZScsICc8aW5maWxlLm1hZT4nLCAnLW9tYWUnLCAnPG91dGZpbGUubWFlPic=

> <r_lp_tautomer_probability>
1

> <r_epik_Ionization_Penalty>
0.000371068

> <r_epik_Ionization_Penalty_Charging>
0.000323848

> <r_epik_Ionization_Penalty_Neutral>
4.72198e-05

> <r_epik_State_Penalty>
0.000195685

> <r_epik_Charging_Adjusted_Penalty>
0.000519533

> <i_epik_Tot_Q>
-1

> <i_epik_Tot_abs_Q>
1

> <r_epik_Metal_State_Penalty>
-0

> <b_epik_Metal_Only>
0

> <s_lp_Force_Field>
OPLS_2005

> <r_lp_Energy>
8.44032

> <b_lp_Chiralities_Consistent>
1

> <s_lp_Variant>
AV-unprocessed.smi:777-1

> <Gold.Version>
5.8.1

> <Gold.Id.Protein>
6NUR|6NUR_protein|mol2

> <Gold.PLP.Fitness>
47.9146

> <Gold.PLP.PLP>
-40.3987

> <Gold.PLP.part.hbond>
-2.6199

> <Gold.PLP.part.metal>
0.0000

> <Gold.PLP.part.buried>
-7.0127

> <Gold.PLP.part.nonpolar>
-31.7476

> <Gold.PLP.part.repulsive>
0.3566

> <Gold.PLP.ligand.clash>
0.0000

> <Gold.PLP.ligand.torsion>
0.8228

> <Gold.PLP.Chemscore.Hbond>
3.0000

> <Gold.PLP.Chemscore.CHOScore>
0.0000

> <Gold.PLP.Chemscore.Metal>
0.0000

> <Gold.Chemscore.Hbonds>
donor molecule, donor type, donor heavy atom, donor atom, acceptor molecule, acceptor atom, score
      P1  H  7989  7998       L1     9  1.00
      P1  H  7997  8010       L1     8  2.00

> <Gold.PLP.Chemscore.Internal.Correction>
0.1614

> <Gold.Rescore>
     Score         DG    S(hbond)    S(metal)    S(lipo)     H(rot)  DE(clash)    DE(int)     intcor
     14.77     -16.36       1.99        0.00      79.60       1.98       0.01       1.58       ----

> <Gold.Chemscore.Fitness>
14.7721

> <Gold.Chemscore.DG>
-16.3636

> <Gold.Chemscore.ZeroCoef>
-5.4800

> <Gold.Chemscore.Hbond>
1.9857

> <Gold.Chemscore.Metal>
0.0000

> <Gold.Chemscore.Lipo>
79.6007

> <Gold.Chemscore.Internal_Hbond>
0.0000

> <Gold.Chemscore.DEClash>
0.0126

> <Gold.Chemscore.DEInternal>
1.5789

> <Gold.Chemscore.Rot>
1.9774

> <Gold.Chemscore.Internal.Correction>
   9.000000E+99

> <Gold.Chemscore.Hbonds>
donor molecule, donor type, donor heavy atom, donor atom, acceptor molecule, acceptor atom, score
      P1  H  7989  7998       L1     9  0.98
      P1  H  7997  8010       L1     8  1.00

> <Gold.Chemscore.Hbond.Weighted>
-6.6323

> <Gold.Chemscore.Metal.Weighted>
-0.0000

> <Gold.Chemscore.Lipo.Weighted>
-9.3133

> <Gold.Chemscore.Internal_Hbond.Weighted>
0.0000

> <Gold.Chemscore.DEClash.Weighted>
0.0126

> <Gold.Chemscore.DEInternal.Weighted>
1.5789

> <Gold.Chemscore.Rot.Weighted>
5.0620

> <Gold.Chemscore.Internal.Correction.Weighted>
   9.000000E+99

> <Gold.Protein.RotatedTorsions>
[ 6907 6896 6895 6894 ] final  -87.42 input  -60.11 | X-H torsion
[ 7974 7965 7964 7962 ] final   67.64 input  175.53 | X-H torsion
[ 8008 7997 7996 7995 ] final   69.98 input   59.86 | X-H torsion
[ 10167 10162 10161 10158 ] final   73.65 input  -65.29 | X-H torsion
[ 10718 10713 10712 10709 ] final  152.32 input   66.30 | X-H torsion
[ 10763 10752 10751 10750 ] final -145.03 input  -60.55 | X-H torsion
[ 11005 11000 10999 10996 ] final  150.61 input  -57.11 | X-H torsion

> <Gold.Protein.ActiveResidues>
 VAL166  LYS551  ARG553  GLY616  TRP617  ASP618  TYR619  PRO620  LYS621  CYS622 
 ASP623  PHE694  ASN695  SER759  ASP760  ASP761  ALA762  ILE779  LEU786  VAL792 
 PHE793  MET794  SER795  GLU796  ALA797  LYS798  CYS799  TRP800  GLU811  SER814 

> <Gold.Protein.RotatedAtoms>
  150.6866  134.2899  159.4662 H   0  0  0  0  0  0  0  0  0  0  0  0  # atno 6907 bound_to 6896
  152.0805  134.9471  160.0583 H   0  0  0  0  0  0  0  0  0  0  0  0  # atno 6908 bound_to 6896
  152.0826  133.4125  159.4545 H   0  0  0  0  0  0  0  0  0  0  0  0  # atno 6909 bound_to 6896
  145.8123  139.3039  143.1092 H   0  0  0  0  0  0  0  0  0  0  0  0  # atno 7974 bound_to 7965
  155.7319  140.3492  155.5063 H   0  0  0  0  0  0  0  0  0  0  0  0  # atno 8008 bound_to 7997
  155.9175  140.1061  157.1254 H   0  0  0  0  0  0  0  0  0  0  0  0  # atno 8009 bound_to 7997
  154.4065  140.1256  156.4623 H   0  0  0  0  0  0  0  0  0  0  0  0  # atno 8010 bound_to 7997
  140.0222  144.5532  150.7573 H   0  0  0  0  0  0  0  0  0  0  0  0  # atno 10167 bound_to 10162
  157.2593  131.0795  151.1676 H   0  0  0  0  0  0  0  0  0  0  0  0  # atno 10718 bound_to 10713
  154.8402  135.3424  154.6439 H   0  0  0  0  0  0  0  0  0  0  0  0  # atno 10763 bound_to 10752
  153.7051  135.6967  153.5057 H   0  0  0  0  0  0  0  0  0  0  0  0  # atno 10764 bound_to 10752
  153.2494  135.4358  155.0735 H   0  0  0  0  0  0  0  0  0  0  0  0  # atno 10765 bound_to 10752
  140.1146  134.8902  157.1986 H   0  0  0  0  0  0  0  0  0  0  0  0  # atno 11005 bound_to 11000
  145.9764  140.8718  143.0136 LP  0  0  0  0  0  0  0  0  0  0  0  0  # atno 17320 bound_to 7965
  144.6756  140.2018  143.7386 LP  0  0  0  0  0  0  0  0  0  0  0  0  # atno 17321 bound_to 7965
  140.7338  143.2721  151.3856 LP  0  0  0  0  0  0  0  0  0  0  0  0  # atno 17342 bound_to 10162
  139.6132  144.1056  152.2320 LP  0  0  0  0  0  0  0  0  0  0  0  0  # atno 17343 bound_to 10162
  157.3192  130.6929  149.6259 LP  0  0  0  0  0  0  0  0  0  0  0  0  # atno 17370 bound_to 10713
  155.9664  130.4340  150.5031 LP  0  0  0  0  0  0  0  0  0  0  0  0  # atno 17371 bound_to 10713
  140.3045  134.3094  155.7281 LP  0  0  0  0  0  0  0  0  0  0  0  0  # atno 17394 bound_to 11000
  141.2138  133.7612  156.9688 LP  0  0  0  0  0  0  0  0  0  0  0  0  # atno 17395 bound_to 11000

$$$$
