AV-unprocessed.smi:2084|AV-procd|sdf|8515|dock3
  -GOLD-   2272011233D 1   1.00000     0.00000
 Structure written by MMmdl.
 38 39  0  0  0  0  0  0  0  0  3 V2000
  152.5132  141.0668  159.2299 C   0  0  0  0  0  0  0  0  0  0  0  0
  151.8685  139.7371  159.0422 N   0  3  0  0  0  0  0  0  0  0  0  0
  152.8297  138.6522  159.3709 C   0  0  0  0  0  0  0  0  0  0  0  0
  151.1021  139.5447  157.7567 C   0  0  0  0  0  0  0  0  0  0  0  0
  150.3533  138.1737  157.7907 C   0  0  0  0  0  0  0  0  0  0  0  0
  149.3536  138.0741  158.8551 N   0  0  0  0  0  0  0  0  0  0  0  0
  148.8881  136.9499  159.4170 C   0  0  0  0  0  0  0  0  0  0  0  0
  149.2901  135.8512  159.0277 O   0  0  0  0  0  0  0  0  0  0  0  0
  147.9960  137.1731  160.4074 N   0  5  0  0  0  0  0  0  0  0  0  0
  147.5404  136.1470  161.1443 C   0  0  0  0  0  0  0  0  0  0  0  0
  147.1095  136.2862  162.4032 N   0  0  0  0  0  0  0  0  0  0  0  0
  146.6866  135.0874  162.9804 C   0  0  0  0  0  0  0  0  0  0  0  0
  146.8072  134.0090  162.1445 C   0  0  0  0  0  0  0  0  0  0  0  0
  147.4580  134.4701  160.5976 S   0  0  0  0  0  0  0  0  0  0  0  0
  150.0731  140.7001  157.5542 C   0  0  0  0  0  0  0  0  0  0  0  0
  150.5808  141.5431  156.3824 C   0  0  0  0  0  0  0  0  0  0  0  0
  151.3322  140.5478  155.5066 C   0  0  0  0  0  0  0  0  0  0  0  0
  152.0274  139.6221  156.5066 C   0  0  0  0  0  0  0  0  0  0  0  0
  153.3669  141.2080  158.5684 H   0  0  0  0  0  0  0  0  0  0  0  0
  152.8845  141.1549  160.2513 H   0  0  0  0  0  0  0  0  0  0  0  0
  151.8336  141.9037  159.0852 H   0  0  0  0  0  0  0  0  0  0  0  0
  153.5422  138.4908  158.5615 H   0  0  0  0  0  0  0  0  0  0  0  0
  152.3246  137.7118  159.5862 H   0  0  0  0  0  0  0  0  0  0  0  0
  153.3986  138.8970  160.2685 H   0  0  0  0  0  0  0  0  0  0  0  0
  149.7850  138.0183  156.8751 H   0  0  0  0  0  0  0  0  0  0  0  0
  151.0740  137.3560  157.8414 H   0  0  0  0  0  0  0  0  0  0  0  0
  148.9870  138.9445  159.2119 H   0  0  0  0  0  0  0  0  0  0  0  0
  146.3152  135.0938  163.9943 H   0  0  0  0  0  0  0  0  0  0  0  0
  146.5557  132.9781  162.3420 H   0  0  0  0  0  0  0  0  0  0  0  0
  149.0900  140.3207  157.2829 H   0  0  0  0  0  0  0  0  0  0  0  0
  149.8893  141.2954  158.4482 H   0  0  0  0  0  0  0  0  0  0  0  0
  149.7733  142.0438  155.8473 H   0  0  0  0  0  0  0  0  0  0  0  0
  151.2678  142.3103  156.7406 H   0  0  0  0  0  0  0  0  0  0  0  0
  150.6223  139.9800  154.9034 H   0  0  0  0  0  0  0  0  0  0  0  0
  152.0323  141.0324  154.8258 H   0  0  0  0  0  0  0  0  0  0  0  0
  153.0022  140.0450  156.7419 H   0  0  0  0  0  0  0  0  0  0  0  0
  152.2292  138.6438  156.0691 H   0  0  0  0  0  0  0  0  0  0  0  0
  151.1647  139.6909  159.7653 H   0  0  0  0  0  0  0  0  0  0  0  0
  1  2  1  0  0  0  0
  1 19  1  0  0  0  0
  1 20  1  0  0  0  0
  1 21  1  0  0  0  0
  2  3  1  0  0  0  0
  2  4  1  0  0  0  0
  2 38  1  0  0  0  0
  3 22  1  0  0  0  0
  3 23  1  0  0  0  0
  3 24  1  0  0  0  0
  4 18  1  0  0  0  0
  4  5  1  0  0  0  0
  4 15  1  0  0  0  0
  5  6  1  0  0  0  0
  5 25  1  0  0  0  0
  5 26  1  0  0  0  0
  6  7  1  0  0  0  0
  6 27  1  0  0  0  0
  7  8  2  0  0  0  0
  7  9  1  0  0  0  0
  9 10  1  0  0  0  0
 10 14  1  0  0  0  0
 10 11  2  0  0  0  0
 11 12  1  0  0  0  0
 12 13  2  0  0  0  0
 12 28  1  0  0  0  0
 13 14  1  0  0  0  0
 13 29  1  0  0  0  0
 15 16  1  0  0  0  0
 15 30  1  0  0  0  0
 15 31  1  0  0  0  0
 16 17  1  0  0  0  0
 16 32  1  0  0  0  0
 16 33  1  0  0  0  0
 17 18  1  0  0  0  0
 17 34  1  0  0  0  0
 17 35  1  0  0  0  0
 18 36  1  0  0  0  0
 18 37  1  0  0  0  0
M  CHG  1   2   1
M  CHG  1   9  -1
M  END
> <s_m_source_file>
AV-unprocessed.smi

> <i_m_source_file_index>
2084

> <i_lp_mmshare_version>
43012

> <i_f3d_flags>
0

> <s_epik_input>
W0NIMl0xW0NIMl1bQ0gyXVtDSDJdQzEoTihbQ0gzXSlbQ0gzXSlbQ0gyXVtOSF1DKD1PKVtOSF1jMm5bY0hdW2NIXXMy

> <s_epik_cmdline>
J2VwaWtfcHl0aG9uJywgJy1waCcsICc3LjAnLCAnLXRuJywgJzgnLCAnLW1hJywgJzIwMCcsICctbWV0YWxfYmluZGluZycsICctaW1hZScsICc8aW5maWxlLm1hZT4nLCAnLW9tYWUnLCAnPG91dGZpbGUubWFlPic=

> <r_lp_tautomer_probability>
1

> <r_epik_Ionization_Penalty>
7.73928

> <r_epik_Ionization_Penalty_Charging>
6.33943

> <r_epik_Ionization_Penalty_Neutral>
1.39985

> <r_epik_State_Penalty>
6.33766

> <r_epik_Charging_Adjusted_Penalty>
12.6771

> <i_epik_Tot_Q>
0

> <i_epik_Tot_abs_Q>
2

> <r_epik_Metal_State_Penalty>
2.27131

> <b_epik_Metal_Only>
1

> <s_lp_Force_Field>
OPLS_2005

> <r_lp_Energy>
28.85

> <b_lp_Chiralities_Consistent>
1

> <s_lp_Variant>
AV-unprocessed.smi:2084-2

> <Gold.Version>
5.8.1

> <Gold.Id.Protein>
6NUR|6NUR_protein|mol2

> <Gold.PLP.Fitness>
41.2488

> <Gold.PLP.PLP>
-30.2834

> <Gold.PLP.part.hbond>
-3.0000

> <Gold.PLP.part.metal>
0.0000

> <Gold.PLP.part.buried>
-2.9869

> <Gold.PLP.part.nonpolar>
-25.4345

> <Gold.PLP.part.repulsive>
0.3682

> <Gold.PLP.ligand.clash>
0.0000

> <Gold.PLP.ligand.torsion>
0.3864

> <Gold.PLP.Chemscore.Hbond>
3.8674

> <Gold.PLP.Chemscore.CHOScore>
0.0000

> <Gold.PLP.Chemscore.Metal>
0.0000

> <Gold.Chemscore.Hbonds>
donor molecule, donor type, donor heavy atom, donor atom, acceptor molecule, acceptor atom, score
      P1  H  6896  6907       L1     8  1.00
      P1  H  6931  6943       L1     9  1.17
      P1  H  6934  6947       L1     9  1.35

> <Gold.PLP.Chemscore.Internal.Correction>
0.1359

> <Gold.Rescore>
     Score         DG    S(hbond)    S(metal)    S(lipo)     H(rot)  DE(clash)    DE(int)     intcor
     13.71     -15.57       1.87        0.00      66.93       1.55       0.08       1.78       ----

> <Gold.Chemscore.Fitness>
13.7077

> <Gold.Chemscore.DG>
-15.5685

> <Gold.Chemscore.ZeroCoef>
-5.4800

> <Gold.Chemscore.Hbond>
1.8674

> <Gold.Chemscore.Metal>
0.0000

> <Gold.Chemscore.Lipo>
66.9338

> <Gold.Chemscore.Internal_Hbond>
0.0000

> <Gold.Chemscore.DEClash>
0.0787

> <Gold.Chemscore.DEInternal>
1.7821

> <Gold.Chemscore.Rot>
1.5546

> <Gold.Chemscore.Internal.Correction>
   9.000000E+99

> <Gold.Chemscore.Hbonds>
donor molecule, donor type, donor heavy atom, donor atom, acceptor molecule, acceptor atom, score
      P1  H  6896  6907       L1     8  0.98
      P1  H  6931  6943       L1     9  0.08
      P1  H  6934  6947       L1     9  0.59

> <Gold.Chemscore.Hbond.Weighted>
-6.2371

> <Gold.Chemscore.Metal.Weighted>
-0.0000

> <Gold.Chemscore.Lipo.Weighted>
-7.8313

> <Gold.Chemscore.Internal_Hbond.Weighted>
0.0000

> <Gold.Chemscore.DEClash.Weighted>
0.0787

> <Gold.Chemscore.DEInternal.Weighted>
1.7821

> <Gold.Chemscore.Rot.Weighted>
3.9798

> <Gold.Chemscore.Internal.Correction.Weighted>
   9.000000E+99

> <Gold.Protein.RotatedTorsions>
[ 6907 6896 6895 6894 ] final  -73.82 input  -60.11 | X-H torsion
[ 7974 7965 7964 7962 ] final  160.66 input  175.53 | X-H torsion
[ 8008 7997 7996 7995 ] final   98.95 input   59.86 | X-H torsion
[ 10167 10162 10161 10158 ] final -137.31 input  -65.29 | X-H torsion
[ 10718 10713 10712 10709 ] final -175.97 input   66.30 | X-H torsion
[ 10763 10752 10751 10750 ] final -156.07 input  -60.55 | X-H torsion
[ 11005 11000 10999 10996 ] final  162.88 input  -57.11 | X-H torsion

> <Gold.Protein.ActiveResidues>
 VAL166  LYS551  ARG553  GLY616  TRP617  ASP618  TYR619  PRO620  LYS621  CYS622 
 ASP623  PHE694  ASN695  SER759  ASP760  ASP761  ALA762  ILE779  LEU786  VAL792 
 PHE793  MET794  SER795  GLU796  ALA797  LYS798  CYS799  TRP800  GLU811  SER814 

> <Gold.Protein.RotatedAtoms>
  150.7116  134.4960  159.5538 H   0  0  0  0  0  0  0  0  0  0  0  0  # atno 6907 bound_to 6896
  152.2568  134.8073  160.0446 H   0  0  0  0  0  0  0  0  0  0  0  0  # atno 6908 bound_to 6896
  151.8801  133.3458  159.3800 H   0  0  0  0  0  0  0  0  0  0  0  0  # atno 6909 bound_to 6896
  144.7725  139.7788  143.6291 H   0  0  0  0  0  0  0  0  0  0  0  0  # atno 7974 bound_to 7965
  156.1056  140.3236  155.8001 H   0  0  0  0  0  0  0  0  0  0  0  0  # atno 8008 bound_to 7997
  155.4762  140.0550  157.2990 H   0  0  0  0  0  0  0  0  0  0  0  0  # atno 8009 bound_to 7997
  154.4725  140.2018  155.9973 H   0  0  0  0  0  0  0  0  0  0  0  0  # atno 8010 bound_to 7997
  139.8590  143.7101  152.2652 H   0  0  0  0  0  0  0  0  0  0  0  0  # atno 10167 bound_to 10162
  156.8077  130.9575  151.3117 H   0  0  0  0  0  0  0  0  0  0  0  0  # atno 10718 bound_to 10713
  154.7740  135.3154  154.8130 H   0  0  0  0  0  0  0  0  0  0  0  0  # atno 10763 bound_to 10752
  153.8858  135.6830  153.4768 H   0  0  0  0  0  0  0  0  0  0  0  0  # atno 10764 bound_to 10752
  153.1360  135.4759  154.9358 H   0  0  0  0  0  0  0  0  0  0  0  0  # atno 10765 bound_to 10752
  140.2302  134.8129  157.3309 H   0  0  0  0  0  0  0  0  0  0  0  0  # atno 11005 bound_to 11000
  146.1883  139.5109  142.9822 LP  0  0  0  0  0  0  0  0  0  0  0  0  # atno 17320 bound_to 7965
  145.6280  141.0309  143.1878 LP  0  0  0  0  0  0  0  0  0  0  0  0  # atno 17321 bound_to 7965
  139.7392  144.7564  151.0679 LP  0  0  0  0  0  0  0  0  0  0  0  0  # atno 17342 bound_to 10162
  140.7777  143.4993  150.9792 LP  0  0  0  0  0  0  0  0  0  0  0  0  # atno 17343 bound_to 10162
  157.6522  130.8894  149.9656 LP  0  0  0  0  0  0  0  0  0  0  0  0  # atno 17370 bound_to 10713
  156.1063  130.3652  150.0127 LP  0  0  0  0  0  0  0  0  0  0  0  0  # atno 17371 bound_to 10713
  140.1758  134.4551  155.7802 LP  0  0  0  0  0  0  0  0  0  0  0  0  # atno 17394 bound_to 11000
  141.2218  133.6962  156.7785 LP  0  0  0  0  0  0  0  0  0  0  0  0  # atno 17395 bound_to 11000

$$$$
