AV-unprocessed.smi:3331|AV-procd|sdf|12824|dock7
  -GOLD-   2272019203D 1   1.00000     0.00000
 Structure written by MMmdl.
 46 47  0  0  0  0  0  0  0  0  1 V2000
  153.7638  141.9997  162.4951 C   0  0  0  0  0  0  0  0  0  0  0  0
  152.7333  142.3525  161.4138 C   0  0  1  0  0  0  0  0  0  0  0  0
  152.6571  143.8782  161.1770 C   0  0  0  0  0  0  0  0  0  0  0  0
  151.7213  144.2481  160.0033 C   0  0  1  0  0  0  0  0  0  0  0  0
  151.7585  145.7526  159.7024 C   0  0  0  0  0  0  0  0  0  0  0  0
  152.0713  143.4095  158.7557 C   0  0  0  0  0  0  0  0  0  0  0  0
  151.9902  141.9884  159.1152 N   0  0  0  0  0  0  0  0  0  0  0  0
  150.9744  141.1915  158.6978 C   0  0  0  0  0  0  0  0  0  0  0  0
  150.8332  140.0432  159.1245 O   0  0  0  0  0  0  0  0  0  0  0  0
  149.9614  141.7063  157.6469 C   0  0  2  0  0  0  0  0  0  0  0  0
  148.6112  141.9984  158.3202 C   0  0  0  0  0  0  0  0  0  0  0  0
  149.7605  140.7569  156.5390 N   0  0  0  0  0  0  0  0  0  0  0  0
  148.8823  141.2687  155.4902 C   0  0  0  0  0  0  0  0  0  0  0  0
  149.1177  140.4925  154.1851 C   0  0  0  0  0  0  0  0  0  0  0  0
  150.1450  139.4782  154.3414 N   0  0  0  0  0  0  0  0  0  0  0  0
  150.0236  138.1089  154.2320 C   0  0  0  0  0  0  0  0  0  0  0  0
  151.2525  137.5710  154.4859 C   0  0  0  0  0  0  0  0  0  0  0  0
  152.0712  138.7060  154.7438 C   0  0  0  0  0  0  0  0  0  0  0  0
  151.4062  139.8462  154.6546 N   0  0  0  0  0  0  0  0  0  0  0  0
  153.0337  141.6321  160.0842 C   0  0  0  0  0  0  0  0  0  0  0  0
  154.7688  142.3024  162.1993 H   0  0  0  0  0  0  0  0  0  0  0  0
  153.7810  140.9260  162.6841 H   0  0  0  0  0  0  0  0  0  0  0  0
  153.5295  142.4964  163.4369 H   0  0  0  0  0  0  0  0  0  0  0  0
  151.7572  142.0156  161.7670 H   0  0  0  0  0  0  0  0  0  0  0  0
  152.3281  144.3803  162.0875 H   0  0  0  0  0  0  0  0  0  0  0  0
  153.6585  144.2557  160.9650 H   0  0  0  0  0  0  0  0  0  0  0  0
  150.7005  143.9985  160.2978 H   0  0  0  0  0  0  0  0  0  0  0  0
  152.7539  146.0706  159.3911 H   0  0  0  0  0  0  0  0  0  0  0  0
  151.4809  146.3355  160.5810 H   0  0  0  0  0  0  0  0  0  0  0  0
  151.0621  146.0090  158.9036 H   0  0  0  0  0  0  0  0  0  0  0  0
  151.4099  143.6741  157.9294 H   0  0  0  0  0  0  0  0  0  0  0  0
  153.0794  143.6431  158.4099 H   0  0  0  0  0  0  0  0  0  0  0  0
  150.3249  142.6279  157.1944 H   0  0  0  0  0  0  0  0  0  0  0  0
  148.7147  142.7202  159.1311 H   0  0  0  0  0  0  0  0  0  0  0  0
  148.1700  141.0925  158.7383 H   0  0  0  0  0  0  0  0  0  0  0  0
  147.8996  142.4130  157.6057 H   0  0  0  0  0  0  0  0  0  0  0  0
  149.4171  139.8643  156.8627 H   0  0  0  0  0  0  0  0  0  0  0  0
  147.8479  141.1531  155.8152 H   0  0  0  0  0  0  0  0  0  0  0  0
  149.0364  142.3327  155.3073 H   0  0  0  0  0  0  0  0  0  0  0  0
  148.1981  140.0181  153.8396 H   0  0  0  0  0  0  0  0  0  0  0  0
  149.4305  141.1781  153.3964 H   0  0  0  0  0  0  0  0  0  0  0  0
  149.0821  137.6375  153.9922 H   0  0  0  0  0  0  0  0  0  0  0  0
  151.5246  136.5261  154.4907 H   0  0  0  0  0  0  0  0  0  0  0  0
  153.1219  138.7352  154.9915 H   0  0  0  0  0  0  0  0  0  0  0  0
  154.0021  141.9554  159.6990 H   0  0  0  0  0  0  0  0  0  0  0  0
  153.1434  140.5599  160.2340 H   0  0  0  0  0  0  0  0  0  0  0  0
  1  2  1  0  0  0  0
  1 21  1  0  0  0  0
  1 22  1  0  0  0  0
  1 23  1  0  0  0  0
  2 20  1  0  0  0  0
  2  3  1  0  0  0  0
  2 24  1  0  0  0  0
  3  4  1  0  0  0  0
  3 25  1  0  0  0  0
  3 26  1  0  0  0  0
  4  5  1  0  0  0  0
  4  6  1  0  0  0  0
  4 27  1  0  0  0  0
  5 28  1  0  0  0  0
  5 29  1  0  0  0  0
  5 30  1  0  0  0  0
  6  7  1  0  0  0  0
  6 31  1  0  0  0  0
  6 32  1  0  0  0  0
  7  8  1  0  0  0  0
  7 20  1  0  0  0  0
  8  9  2  0  0  0  0
  8 10  1  0  0  0  0
 10 11  1  0  0  0  0
 10 12  1  0  0  0  0
 10 33  1  0  0  0  0
 11 34  1  0  0  0  0
 11 35  1  0  0  0  0
 11 36  1  0  0  0  0
 12 13  1  0  0  0  0
 12 37  1  0  0  0  0
 13 14  1  0  0  0  0
 13 38  1  0  0  0  0
 13 39  1  0  0  0  0
 14 15  1  0  0  0  0
 14 40  1  0  0  0  0
 14 41  1  0  0  0  0
 15 19  1  0  0  0  0
 15 16  1  0  0  0  0
 16 17  2  0  0  0  0
 16 42  1  0  0  0  0
 17 18  1  0  0  0  0
 17 43  1  0  0  0  0
 18 19  2  0  0  0  0
 18 44  1  0  0  0  0
 20 45  1  0  0  0  0
 20 46  1  0  0  0  0
M  END
> <s_m_source_file>
AV-unprocessed.smi

> <i_m_source_file_index>
3331

> <i_lp_mmshare_version>
43012

> <i_f3d_flags>
0

> <s_epik_input>
W0NIM11bQ0BASF0xW0NIMl1bQ0BASF0oW0NIM10pW0NIMl1OKFtDSDJdMSlDKD1PKVtDQEhdKFtDSDNdKVtOSF1bQ0gyXVtDSDJdbjJbY0hdW2NIXVtjSF1uMg==

> <s_epik_cmdline>
J2VwaWtfcHl0aG9uJywgJy1waCcsICc3LjAnLCAnLXRuJywgJzgnLCAnLW1hJywgJzIwMCcsICctbWV0YWxfYmluZGluZycsICctaW1hZScsICc8aW5maWxlLm1hZT4nLCAnLW9tYWUnLCAnPG91dGZpbGUubWFlPic=

> <r_lp_tautomer_probability>
1

> <r_epik_Ionization_Penalty>
0.767994

> <r_epik_Ionization_Penalty_Charging>
0

> <r_epik_Ionization_Penalty_Neutral>
0.767994

> <r_epik_State_Penalty>
0.795453

> <r_epik_Charging_Adjusted_Penalty>
0.795453

> <i_epik_Tot_Q>
0

> <i_epik_Tot_abs_Q>
0

> <r_epik_Metal_State_Penalty>
0.794784

> <b_epik_Metal_Only>
0

> <s_lp_Force_Field>
OPLS_2005

> <r_lp_Energy>
28.4276

> <b_lp_Chiralities_Consistent>
1

> <s_lp_Variant>
AV-unprocessed.smi:3331-8

> <Gold.Version>
5.8.1

> <Gold.Id.Protein>
6NUR|6NUR_protein|mol2

> <Gold.PLP.Fitness>
49.3066

> <Gold.PLP.PLP>
-45.7805

> <Gold.PLP.part.hbond>
-1.1910

> <Gold.PLP.part.metal>
0.0000

> <Gold.PLP.part.buried>
-1.3131

> <Gold.PLP.part.nonpolar>
-43.5222

> <Gold.PLP.part.repulsive>
0.0771

> <Gold.PLP.ligand.clash>
0.0000

> <Gold.PLP.ligand.torsion>
0.7628

> <Gold.PLP.Chemscore.Hbond>
0.9000

> <Gold.PLP.Chemscore.CHOScore>
0.7611

> <Gold.PLP.Chemscore.Metal>
0.0000

> <Gold.Chemscore.Hbonds>
donor molecule, donor type, donor heavy atom, donor atom, acceptor molecule, acceptor atom, score
      P1  H  7989  7998       L1    19  0.95
      L1  C    16    42       P1  7948  0.73

> <Gold.PLP.Chemscore.Internal.Correction>
0.0684

> <Gold.Rescore>
     Score         DG    S(hbond)    S(metal)    S(lipo)     H(rot)  DE(clash)    DE(int)     intcor
     15.70     -18.17       0.95        0.00     117.67       1.66       0.16       2.31       ----

> <Gold.Chemscore.Fitness>
15.7013

> <Gold.Chemscore.DG>
-18.1689

> <Gold.Chemscore.ZeroCoef>
-5.4800

> <Gold.Chemscore.Hbond>
0.9532

> <Gold.Chemscore.Metal>
0.0000

> <Gold.Chemscore.Lipo>
117.6682

> <Gold.Chemscore.Internal_Hbond>
0.0000

> <Gold.Chemscore.DEClash>
0.1587

> <Gold.Chemscore.DEInternal>
2.3090

> <Gold.Chemscore.Rot>
1.6649

> <Gold.Chemscore.Internal.Correction>
   9.000000E+99

> <Gold.Chemscore.Hbonds>
donor molecule, donor type, donor heavy atom, donor atom, acceptor molecule, acceptor atom, score
      P1  H  7989  7998       L1    19  0.20

> <Gold.Chemscore.Hbond.Weighted>
-3.1838

> <Gold.Chemscore.Metal.Weighted>
-0.0000

> <Gold.Chemscore.Lipo.Weighted>
-13.7672

> <Gold.Chemscore.Internal_Hbond.Weighted>
0.0000

> <Gold.Chemscore.DEClash.Weighted>
0.1587

> <Gold.Chemscore.DEInternal.Weighted>
2.3090

> <Gold.Chemscore.Rot.Weighted>
4.2621

> <Gold.Chemscore.Internal.Correction.Weighted>
   9.000000E+99

> <Gold.Protein.RotatedTorsions>
[ 6907 6896 6895 6894 ] final -139.11 input  -60.11 | X-H torsion
[ 7974 7965 7964 7962 ] final  -60.16 input  175.53 | X-H torsion
[ 8008 7997 7996 7995 ] final  -98.43 input   59.86 | X-H torsion
[ 10167 10162 10161 10158 ] final  107.47 input  -65.29 | X-H torsion
[ 10718 10713 10712 10709 ] final -170.96 input   66.30 | X-H torsion
[ 10763 10752 10751 10750 ] final   50.37 input  -60.55 | X-H torsion
[ 11005 11000 10999 10996 ] final   47.30 input  -57.11 | X-H torsion

> <Gold.Protein.ActiveResidues>
 VAL166  LYS551  ARG553  GLY616  TRP617  ASP618  TYR619  PRO620  LYS621  CYS622 
 ASP623  PHE694  ASN695  SER759  ASP760  ASP761  ALA762  ILE779  LEU786  VAL792 
 PHE793  MET794  SER795  GLU796  ALA797  LYS798  CYS799  TRP800  GLU811  SER814 

> <Gold.Protein.RotatedAtoms>
  151.0436  133.5684  159.2648 H   0  0  0  0  0  0  0  0  0  0  0  0  # atno 6907 bound_to 6896
  151.2721  135.0687  159.9148 H   0  0  0  0  0  0  0  0  0  0  0  0  # atno 6908 bound_to 6896
  152.5369  134.0165  159.8016 H   0  0  0  0  0  0  0  0  0  0  0  0  # atno 6909 bound_to 6896
  145.8189  140.8553  143.0143 H   0  0  0  0  0  0  0  0  0  0  0  0  # atno 7974 bound_to 7965
  154.8012  140.0455  157.1274 H   0  0  0  0  0  0  0  0  0  0  0  0  # atno 8008 bound_to 7997
  154.9477  140.3061  155.5070 H   0  0  0  0  0  0  0  0  0  0  0  0  # atno 8009 bound_to 7997
  156.2962  140.2294  156.4552 H   0  0  0  0  0  0  0  0  0  0  0  0  # atno 8010 bound_to 7997
  139.6925  144.7106  151.1324 H   0  0  0  0  0  0  0  0  0  0  0  0  # atno 10167 bound_to 10162
  156.7339  130.9316  151.3106 H   0  0  0  0  0  0  0  0  0  0  0  0  # atno 10718 bound_to 10713
  152.9785  135.5881  154.4242 H   0  0  0  0  0  0  0  0  0  0  0  0  # atno 10763 bound_to 10752
  154.3863  135.2767  155.2183 H   0  0  0  0  0  0  0  0  0  0  0  0  # atno 10764 bound_to 10752
  154.4075  135.6089  153.5987 H   0  0  0  0  0  0  0  0  0  0  0  0  # atno 10765 bound_to 10752
  140.1291  134.4729  155.8536 H   0  0  0  0  0  0  0  0  0  0  0  0  # atno 11005 bound_to 11000
  144.6749  140.0504  143.7479 LP  0  0  0  0  0  0  0  0  0  0  0  0  # atno 17320 bound_to 7965
  145.9697  139.2860  143.1106 LP  0  0  0  0  0  0  0  0  0  0  0  0  # atno 17321 bound_to 7965
  140.7687  143.5539  150.9173 LP  0  0  0  0  0  0  0  0  0  0  0  0  # atno 17342 bound_to 10162
  139.9217  143.6598  152.3095 LP  0  0  0  0  0  0  0  0  0  0  0  0  # atno 17343 bound_to 10162
  157.6847  130.9174  150.0356 LP  0  0  0  0  0  0  0  0  0  0  0  0  # atno 17370 bound_to 10713
  156.1510  130.3642  149.9438 LP  0  0  0  0  0  0  0  0  0  0  0  0  # atno 17371 bound_to 10713
  141.2167  133.6789  156.7035 LP  0  0  0  0  0  0  0  0  0  0  0  0  # atno 17394 bound_to 11000
  140.2865  134.8275  157.3979 LP  0  0  0  0  0  0  0  0  0  0  0  0  # atno 17395 bound_to 11000

$$$$
