AV-unprocessed.smi:3194|AV-procd|sdf|12212|dock7
  -GOLD-   2272018 53D 1   1.00000     0.00000
 Structure written by MMmdl.
 27 27  0  0  0  0  0  0  0  0  2 V2000
  151.5290  137.6629  154.9396 C   0  0  0  0  0  0  0  0  0  0  0  0
  152.6315  138.0849  155.9217 C   0  0  2  0  0  0  0  0  0  0  0  0
  152.5843  137.2402  157.2102 C   0  0  0  0  0  0  0  0  0  0  0  0
  152.7342  135.8622  156.9287 O   0  0  0  0  0  0  0  0  0  0  0  0
  152.4472  139.4990  156.2546 N   0  5  0  0  0  0  0  0  0  0  0  0
  151.3631  140.2431  155.8885 C   0  0  0  0  0  0  0  0  0  0  0  0
  150.9258  140.5051  154.7620 O   0  0  0  0  0  0  0  0  0  0  0  0
  150.6282  140.8230  157.1155 C   0  0  0  0  0  0  0  0  0  0  0  0
  149.4962  141.4069  156.7126 F   0  0  0  0  0  0  0  0  0  0  0  0
  150.2893  139.8293  157.9433 F   0  0  0  0  0  0  0  0  0  0  0  0
  151.5029  141.8494  157.8357 C   0  0  0  0  0  0  0  0  0  0  0  0
  151.3780  143.2316  157.5641 C   0  0  0  0  0  0  0  0  0  0  0  0
  152.1939  144.1361  158.2694 C   0  0  0  0  0  0  0  0  0  0  0  0
  153.1049  143.6322  159.2167 C   0  0  0  0  0  0  0  0  0  0  0  0
  153.1572  142.2390  159.4182 C   0  0  0  0  0  0  0  0  0  0  0  0
  152.3797  141.3630  158.7476 N   0  0  0  0  0  0  0  0  0  0  0  0
  153.5879  137.8930  155.4319 H   0  0  0  0  0  0  0  0  0  0  0  0
  151.6375  136.6152  154.6581 H   0  0  0  0  0  0  0  0  0  0  0  0
  151.5705  138.2533  154.0235 H   0  0  0  0  0  0  0  0  0  0  0  0
  150.5364  137.7887  155.3739 H   0  0  0  0  0  0  0  0  0  0  0  0
  153.3627  137.5498  157.9089 H   0  0  0  0  0  0  0  0  0  0  0  0
  151.6287  137.3780  157.7165 H   0  0  0  0  0  0  0  0  0  0  0  0
  151.9938  135.4008  157.2900 H   0  0  0  0  0  0  0  0  0  0  0  0
  150.6620  143.5934  156.8411 H   0  0  0  0  0  0  0  0  0  0  0  0
  152.1196  145.1983  158.0888 H   0  0  0  0  0  0  0  0  0  0  0  0
  153.7454  144.2963  159.7775 H   0  0  0  0  0  0  0  0  0  0  0  0
  153.8430  141.8166  160.1377 H   0  0  0  0  0  0  0  0  0  0  0  0
  1  2  1  0  0  0  0
  1 18  1  0  0  0  0
  1 19  1  0  0  0  0
  1 20  1  0  0  0  0
  2 17  1  0  0  0  0
  2  3  1  0  0  0  0
  2  5  1  0  0  0  0
  3  4  1  0  0  0  0
  3 21  1  0  0  0  0
  3 22  1  0  0  0  0
  4 23  1  0  0  0  0
  5  6  1  0  0  0  0
  6  7  2  0  0  0  0
  6  8  1  0  0  0  0
  8  9  1  0  0  0  0
  8 10  1  0  0  0  0
  8 11  1  0  0  0  0
 11 16  1  0  0  0  0
 11 12  2  0  0  0  0
 12 13  1  0  0  0  0
 12 24  1  0  0  0  0
 13 14  2  0  0  0  0
 13 25  1  0  0  0  0
 14 15  1  0  0  0  0
 14 26  1  0  0  0  0
 15 16  2  0  0  0  0
 15 27  1  0  0  0  0
M  CHG  1   5  -1
M  END
> <s_m_source_file>
AV-unprocessed.smi

> <i_m_source_file_index>
3194

> <i_lp_mmshare_version>
43012

> <i_f3d_flags>
0

> <s_epik_input>
W09IXVtDSDJdW0NASF0oW0NIM10pW05IXUMoPU8pQyhGKShGKWMxW2NIXVtjSF1bY0hdW2NIXW4x

> <s_epik_cmdline>
J2VwaWtfcHl0aG9uJywgJy1waCcsICc3LjAnLCAnLXRuJywgJzgnLCAnLW1hJywgJzIwMCcsICctbWV0YWxfYmluZGluZycsICctaW1hZScsICc8aW5maWxlLm1hZT4nLCAnLW9tYWUnLCAnPG91dGZpbGUubWFlPic=

> <r_lp_tautomer_probability>
1

> <r_epik_Ionization_Penalty>
5.78943

> <r_epik_Ionization_Penalty_Charging>
5.78942

> <r_epik_Ionization_Penalty_Neutral>
4.0054e-06

> <r_epik_State_Penalty>
5.78939

> <r_epik_Charging_Adjusted_Penalty>
11.5788

> <i_epik_Tot_Q>
-1

> <i_epik_Tot_abs_Q>
1

> <r_epik_Metal_State_Penalty>
1.76064

> <b_epik_Metal_Only>
1

> <s_lp_Force_Field>
OPLS_2005

> <r_lp_Energy>
16.8834

> <b_lp_Chiralities_Consistent>
1

> <s_lp_Variant>
AV-unprocessed.smi:3194-4

> <Gold.Version>
5.8.1

> <Gold.Id.Protein>
6NUR|6NUR_protein|mol2

> <Gold.PLP.Fitness>
41.1445

> <Gold.PLP.PLP>
-32.6353

> <Gold.PLP.part.hbond>
-2.8250

> <Gold.PLP.part.metal>
0.0000

> <Gold.PLP.part.buried>
-4.4009

> <Gold.PLP.part.nonpolar>
-26.1518

> <Gold.PLP.part.repulsive>
0.0822

> <Gold.PLP.ligand.clash>
0.0000

> <Gold.PLP.ligand.torsion>
1.7667

> <Gold.PLP.Chemscore.Hbond>
4.0000

> <Gold.PLP.Chemscore.CHOScore>
0.0000

> <Gold.PLP.Chemscore.Metal>
0.0000

> <Gold.Chemscore.Hbonds>
donor molecule, donor type, donor heavy atom, donor atom, acceptor molecule, acceptor atom, score
      P1  H  7989  7998       L1     7  0.89
      P1  H  7997  8009       L1     5  1.95
      P1  H 10752 10763       L1     4  1.00

> <Gold.PLP.Chemscore.Internal.Correction>
0.0426

> <Gold.Rescore>
     Score         DG    S(hbond)    S(metal)    S(lipo)     H(rot)  DE(clash)    DE(int)     intcor
     13.30     -16.40       2.32        0.00      80.38       2.43       0.01       3.10       ----

> <Gold.Chemscore.Fitness>
13.3012

> <Gold.Chemscore.DG>
-16.4039

> <Gold.Chemscore.ZeroCoef>
-5.4800

> <Gold.Chemscore.Hbond>
2.3156

> <Gold.Chemscore.Metal>
0.0000

> <Gold.Chemscore.Lipo>
80.3818

> <Gold.Chemscore.Internal_Hbond>
0.0000

> <Gold.Chemscore.DEClash>
0.0060

> <Gold.Chemscore.DEInternal>
3.0967

> <Gold.Chemscore.Rot>
2.4277

> <Gold.Chemscore.Internal.Correction>
   9.000000E+99

> <Gold.Chemscore.Hbonds>
donor molecule, donor type, donor heavy atom, donor atom, acceptor molecule, acceptor atom, score
      P1  H  7989  7998       L1     7  0.84
      P1  H  7997  8009       L1     5  0.23
      P1  H 10752 10763       L1     4  0.91

> <Gold.Chemscore.Hbond.Weighted>
-7.7341

> <Gold.Chemscore.Metal.Weighted>
-0.0000

> <Gold.Chemscore.Lipo.Weighted>
-9.4047

> <Gold.Chemscore.Internal_Hbond.Weighted>
0.0000

> <Gold.Chemscore.DEClash.Weighted>
0.0060

> <Gold.Chemscore.DEInternal.Weighted>
3.0967

> <Gold.Chemscore.Rot.Weighted>
6.2149

> <Gold.Chemscore.Internal.Correction.Weighted>
   9.000000E+99

> <Gold.Protein.RotatedTorsions>
[ 6907 6896 6895 6894 ] final  -48.10 input  -60.11 | X-H torsion
[ 7974 7965 7964 7962 ] final  100.40 input  175.53 | X-H torsion
[ 8008 7997 7996 7995 ] final -147.75 input   59.86 | X-H torsion
[ 10167 10162 10161 10158 ] final  -84.08 input  -65.29 | X-H torsion
[ 10718 10713 10712 10709 ] final   91.83 input   66.30 | X-H torsion
[ 10763 10752 10751 10750 ] final  104.23 input  -60.55 | X-H torsion
[ 11005 11000 10999 10996 ] final  158.01 input  -57.11 | X-H torsion

> <Gold.Protein.ActiveResidues>
 VAL166  LYS551  ARG553  GLY616  TRP617  ASP618  TYR619  PRO620  LYS621  CYS622 
 ASP623  PHE694  ASN695  SER759  ASP760  ASP761  ALA762  ILE779  LEU786  VAL792 
 PHE793  MET794  SER795  GLU796  ALA797  LYS798  CYS799  TRP800  GLU811  SER814 

> <Gold.Protein.RotatedAtoms>
  150.8940  134.8346  159.7312 H   0  0  0  0  0  0  0  0  0  0  0  0  # atno 6907 bound_to 6896
  152.4854  134.4605  159.9613 H   0  0  0  0  0  0  0  0  0  0  0  0  # atno 6908 bound_to 6896
  151.4664  133.3541  159.2852 H   0  0  0  0  0  0  0  0  0  0  0  0  # atno 6909 bound_to 6896
  145.3861  139.2371  143.3377 H   0  0  0  0  0  0  0  0  0  0  0  0  # atno 7974 bound_to 7965
  155.5805  140.0643  157.2784 H   0  0  0  0  0  0  0  0  0  0  0  0  # atno 8008 bound_to 7997
  154.4334  140.1853  156.1018 H   0  0  0  0  0  0  0  0  0  0  0  0  # atno 8009 bound_to 7997
  156.0308  140.3306  155.7142 H   0  0  0  0  0  0  0  0  0  0  0  0  # atno 8010 bound_to 7997
  140.4166  143.2601  151.8946 H   0  0  0  0  0  0  0  0  0  0  0  0  # atno 10167 bound_to 10162
  157.6960  131.0421  150.3789 H   0  0  0  0  0  0  0  0  0  0  0  0  # atno 10718 bound_to 10713
  153.3631  135.3950  155.1733 H   0  0  0  0  0  0  0  0  0  0  0  0  # atno 10763 bound_to 10752
  154.8682  135.3684  154.5073 H   0  0  0  0  0  0  0  0  0  0  0  0  # atno 10764 bound_to 10752
  153.5534  135.7082  153.5641 H   0  0  0  0  0  0  0  0  0  0  0  0  # atno 10765 bound_to 10752
  140.1825  134.8466  157.2819 H   0  0  0  0  0  0  0  0  0  0  0  0  # atno 11005 bound_to 11000
  146.2820  140.4536  142.8773 LP  0  0  0  0  0  0  0  0  0  0  0  0  # atno 17320 bound_to 7965
  144.8473  140.6949  143.6191 LP  0  0  0  0  0  0  0  0  0  0  0  0  # atno 17321 bound_to 7965
  139.4782  144.5481  151.8427 LP  0  0  0  0  0  0  0  0  0  0  0  0  # atno 17342 bound_to 10162
  140.4579  144.1763  150.5903 LP  0  0  0  0  0  0  0  0  0  0  0  0  # atno 17343 bound_to 10162
  156.4205  130.3952  149.6828 LP  0  0  0  0  0  0  0  0  0  0  0  0  # atno 17370 bound_to 10713
  156.4081  130.7708  151.2720 LP  0  0  0  0  0  0  0  0  0  0  0  0  # atno 17371 bound_to 10713
  140.2252  134.3976  155.7547 LP  0  0  0  0  0  0  0  0  0  0  0  0  # atno 17394 bound_to 11000
  141.2223  133.7186  156.8553 LP  0  0  0  0  0  0  0  0  0  0  0  0  # atno 17395 bound_to 11000

$$$$
