AV-unprocessed.smi:1893|AV-procd|sdf|7675|dock8
  -GOLD-   22720 9413D 1   1.00000     0.00000
 Structure written by MMmdl.
 43 44  0  0  0  0  0  0  0  0  2 V2000
  147.6730  135.1728  154.8258 C   0  0  0  0  0  0  0  0  0  0  0  0
  146.6933  134.8257  153.6846 C   0  0  2  0  0  0  0  0  0  0  0  0
  147.1221  133.4739  153.0700 C   0  0  0  0  0  0  0  0  0  0  0  0
  146.2070  133.0437  151.9216 C   0  0  0  0  0  0  0  0  0  0  0  0
  146.1638  134.1520  150.8706 C   0  0  0  0  0  0  0  0  0  0  0  0
  145.7172  135.4755  151.5062 C   0  0  0  0  0  0  0  0  0  0  0  0
  146.6089  135.8892  152.6287 N   0  3  1  0  0  0  0  0  0  0  0  0
  146.2399  137.2380  153.1473 C   0  0  0  0  0  0  0  0  0  0  0  0
  146.5819  138.3785  152.1647 C   0  0  0  0  0  0  0  0  0  0  0  0
  147.6448  139.2283  152.6874 N   0  0  0  0  0  0  0  0  0  0  0  0
  147.6441  139.8077  153.8986 C   0  0  0  0  0  0  0  0  0  0  0  0
  146.7123  139.6913  154.6955 O   0  0  0  0  0  0  0  0  0  0  0  0
  148.8930  140.6285  154.2575 C   0  0  1  0  0  0  0  0  0  0  0  0
  148.6899  141.5276  155.4912 C   0  0  0  0  0  0  0  0  0  0  0  0
  150.0380  139.7468  154.4389 N   0  0  0  0  0  0  0  0  0  0  0  0
  150.1602  138.4253  154.2841 C   0  0  0  0  0  0  0  0  0  0  0  0
  151.3789  137.9663  154.5317 N   0  0  0  0  0  0  0  0  0  0  0  0
  152.0007  139.1367  154.8629 C   0  0  0  0  0  0  0  0  0  0  0  0
  151.2436  140.2330  154.8195 N   0  0  0  0  0  0  0  0  0  0  0  0
  147.8446  134.3074  155.4668 H   0  0  0  0  0  0  0  0  0  0  0  0
  147.2929  135.9551  155.4816 H   0  0  0  0  0  0  0  0  0  0  0  0
  148.6421  135.4885  154.4383 H   0  0  0  0  0  0  0  0  0  0  0  0
  145.6989  134.7029  154.1173 H   0  0  0  0  0  0  0  0  0  0  0  0
  148.1484  133.5441  152.7059 H   0  0  0  0  0  0  0  0  0  0  0  0
  147.1221  132.6969  153.8357 H   0  0  0  0  0  0  0  0  0  0  0  0
  146.5668  132.1150  151.4778 H   0  0  0  0  0  0  0  0  0  0  0  0
  145.2025  132.8452  152.2977 H   0  0  0  0  0  0  0  0  0  0  0  0
  147.1480  134.2732  150.4159 H   0  0  0  0  0  0  0  0  0  0  0  0
  145.4816  133.8750  150.0661 H   0  0  0  0  0  0  0  0  0  0  0  0
  145.7016  136.2306  150.7228 H   0  0  0  0  0  0  0  0  0  0  0  0
  144.6930  135.3847  151.8718 H   0  0  0  0  0  0  0  0  0  0  0  0
  145.1798  137.2459  153.4049 H   0  0  0  0  0  0  0  0  0  0  0  0
  146.7751  137.4638  154.0661 H   0  0  0  0  0  0  0  0  0  0  0  0
  146.9190  137.9618  151.2151 H   0  0  0  0  0  0  0  0  0  0  0  0
  145.7189  139.0049  151.9416 H   0  0  0  0  0  0  0  0  0  0  0  0
  148.4482  139.3761  152.0931 H   0  0  0  0  0  0  0  0  0  0  0  0
  149.1006  141.2814  153.4076 H   0  0  0  0  0  0  0  0  0  0  0  0
  147.8575  142.2170  155.3454 H   0  0  0  0  0  0  0  0  0  0  0  0
  149.5796  142.1275  155.6842 H   0  0  0  0  0  0  0  0  0  0  0  0
  148.4863  140.9436  156.3896 H   0  0  0  0  0  0  0  0  0  0  0  0
  149.3428  137.7876  153.9804 H   0  0  0  0  0  0  0  0  0  0  0  0
  153.0435  139.1829  155.1407 H   0  0  0  0  0  0  0  0  0  0  0  0
  147.5398  135.9758  152.2467 H   0  0  0  0  0  0  0  0  0  0  0  0
  1  2  1  0  0  0  0
  1 20  1  0  0  0  0
  1 21  1  0  0  0  0
  1 22  1  0  0  0  0
  2  7  1  0  0  0  0
  2  3  1  0  0  0  0
  2 23  1  0  0  0  0
  3  4  1  0  0  0  0
  3 24  1  0  0  0  0
  3 25  1  0  0  0  0
  4  5  1  0  0  0  0
  4 26  1  0  0  0  0
  4 27  1  0  0  0  0
  5  6  1  0  0  0  0
  5 28  1  0  0  0  0
  5 29  1  0  0  0  0
  6  7  1  0  0  0  0
  6 30  1  0  0  0  0
  6 31  1  0  0  0  0
  7  8  1  0  0  0  0
  7 43  1  0  0  0  0
  8  9  1  0  0  0  0
  8 32  1  0  0  0  0
  8 33  1  0  0  0  0
  9 10  1  0  0  0  0
  9 34  1  0  0  0  0
  9 35  1  0  0  0  0
 10 11  1  0  0  0  0
 10 36  1  0  0  0  0
 11 12  2  0  0  0  0
 11 13  1  0  0  0  0
 13 14  1  0  0  0  0
 13 15  1  0  0  0  0
 13 37  1  0  0  0  0
 14 38  1  0  0  0  0
 14 39  1  0  0  0  0
 14 40  1  0  0  0  0
 15 19  1  0  0  0  0
 15 16  1  0  0  0  0
 16 17  2  0  0  0  0
 16 41  1  0  0  0  0
 17 18  1  0  0  0  0
 18 19  2  0  0  0  0
 18 42  1  0  0  0  0
M  CHG  1   7   1
M  END
> <s_m_source_file>
AV-unprocessed.smi

> <i_m_source_file_index>
1893

> <i_lp_mmshare_version>
43012

> <i_f3d_flags>
0

> <s_epik_input>
W0NIM11bQ0BASF0xW0NIMl1bQ0gyXVtDSDJdW0NIMl1OMVtDSDJdW0NIMl1bTkhdQyg9TylbQ0BIXShbQ0gzXSluMltjSF1uW2NIXW4y

> <s_epik_cmdline>
J2VwaWtfcHl0aG9uJywgJy1waCcsICc3LjAnLCAnLXRuJywgJzgnLCAnLW1hJywgJzIwMCcsICctbWV0YWxfYmluZGluZycsICctaW1hZScsICc8aW5maWxlLm1hZT4nLCAnLW9tYWUnLCAnPG91dGZpbGUubWFlPic=

> <r_lp_tautomer_probability>
1

> <r_epik_Ionization_Penalty>
0.00266409

> <r_epik_Ionization_Penalty_Charging>
0.00265606

> <r_epik_Ionization_Penalty_Neutral>
8.02794e-06

> <r_epik_State_Penalty>
0.00184955

> <r_epik_Charging_Adjusted_Penalty>
0.00450561

> <i_epik_Tot_Q>
1

> <i_epik_Tot_abs_Q>
1

> <r_epik_Metal_State_Penalty>
-0

> <b_epik_Metal_Only>
0

> <s_lp_Force_Field>
OPLS_2005

> <r_lp_Energy>
24.8268

> <b_lp_Chiralities_Consistent>
1

> <s_lp_Variant>
AV-unprocessed.smi:1893-5

> <Gold.Version>
5.8.1

> <Gold.Id.Protein>
6NUR|6NUR_protein|mol2

> <Gold.PLP.Fitness>
46.5192

> <Gold.PLP.PLP>
-33.1663

> <Gold.PLP.part.hbond>
-3.0000

> <Gold.PLP.part.metal>
0.0000

> <Gold.PLP.part.buried>
-3.0504

> <Gold.PLP.part.nonpolar>
-27.0271

> <Gold.PLP.part.repulsive>
0.4037

> <Gold.PLP.ligand.clash>
0.0000

> <Gold.PLP.ligand.torsion>
0.8365

> <Gold.PLP.Chemscore.Hbond>
4.0000

> <Gold.PLP.Chemscore.CHOScore>
0.9812

> <Gold.PLP.Chemscore.Metal>
0.0000

> <Gold.Chemscore.Hbonds>
donor molecule, donor type, donor heavy atom, donor atom, acceptor molecule, acceptor atom, score
      L1  H     7    43       P1  7948  1.69
      L1  H    10    36       P1  7957  1.00
      P1  H  7989  7998       L1    19  0.86
      L1  C    16    41       P1  7948  0.74

> <Gold.PLP.Chemscore.Internal.Correction>
0.0824

> <Gold.Rescore>
     Score         DG    S(hbond)    S(metal)    S(lipo)     H(rot)  DE(clash)    DE(int)     intcor
     12.49     -14.48       2.82        0.00      51.88       2.54       0.02       1.97       ----

> <Gold.Chemscore.Fitness>
12.4856

> <Gold.Chemscore.DG>
-14.4753

> <Gold.Chemscore.ZeroCoef>
-5.4800

> <Gold.Chemscore.Hbond>
2.8208

> <Gold.Chemscore.Metal>
0.0000

> <Gold.Chemscore.Lipo>
51.8841

> <Gold.Chemscore.Internal_Hbond>
0.0000

> <Gold.Chemscore.DEClash>
0.0158

> <Gold.Chemscore.DEInternal>
1.9739

> <Gold.Chemscore.Rot>
2.5377

> <Gold.Chemscore.Internal.Correction>
   9.000000E+99

> <Gold.Chemscore.Hbonds>
donor molecule, donor type, donor heavy atom, donor atom, acceptor molecule, acceptor atom, score
      L1  H     7    43       P1  7948  0.82
      L1  H    10    36       P1  7957  0.99
      P1  H  7989  7998       L1    19  0.06

> <Gold.Chemscore.Hbond.Weighted>
-9.4215

> <Gold.Chemscore.Metal.Weighted>
-0.0000

> <Gold.Chemscore.Lipo.Weighted>
-6.0704

> <Gold.Chemscore.Internal_Hbond.Weighted>
0.0000

> <Gold.Chemscore.DEClash.Weighted>
0.0158

> <Gold.Chemscore.DEInternal.Weighted>
1.9739

> <Gold.Chemscore.Rot.Weighted>
6.4966

> <Gold.Chemscore.Internal.Correction.Weighted>
   9.000000E+99

> <Gold.Protein.RotatedTorsions>
[ 6907 6896 6895 6894 ] final  -36.11 input  -60.11 | X-H torsion
[ 7974 7965 7964 7962 ] final -133.81 input  175.53 | X-H torsion
[ 8008 7997 7996 7995 ] final -149.09 input   59.86 | X-H torsion
[ 10167 10162 10161 10158 ] final  166.02 input  -65.29 | X-H torsion
[ 10718 10713 10712 10709 ] final -118.43 input   66.30 | X-H torsion
[ 10763 10752 10751 10750 ] final  -37.03 input  -60.55 | X-H torsion
[ 11005 11000 10999 10996 ] final  -15.36 input  -57.11 | X-H torsion

> <Gold.Protein.ActiveResidues>
 VAL166  LYS551  ARG553  GLY616  TRP617  ASP618  TYR619  PRO620  LYS621  CYS622 
 ASP623  PHE694  ASN695  SER759  ASP760  ASP761  ALA762  ILE779  LEU786  VAL792 
 PHE793  MET794  SER795  GLU796  ALA797  LYS798  CYS799  TRP800  GLU811  SER814 

> <Gold.Protein.RotatedAtoms>
  151.0313  134.9541  159.8112 H   0  0  0  0  0  0  0  0  0  0  0  0  # atno 6907 bound_to 6896
  152.5346  134.2777  159.9005 H   0  0  0  0  0  0  0  0  0  0  0  0  # atno 6908 bound_to 6896
  151.2786  133.4178  159.2659 H   0  0  0  0  0  0  0  0  0  0  0  0  # atno 6909 bound_to 6896
  144.9160  140.6954  143.4995 H   0  0  0  0  0  0  0  0  0  0  0  0  # atno 7974 bound_to 7965
  155.6020  140.0663  157.2730 H   0  0  0  0  0  0  0  0  0  0  0  0  # atno 8008 bound_to 7997
  154.4276  140.1816  156.1231 H   0  0  0  0  0  0  0  0  0  0  0  0  # atno 8009 bound_to 7997
  156.0151  140.3322  155.6984 H   0  0  0  0  0  0  0  0  0  0  0  0  # atno 8010 bound_to 7997
  139.4917  144.4071  151.9343 H   0  0  0  0  0  0  0  0  0  0  0  0  # atno 10167 bound_to 10162
  156.1106  130.6245  150.9290 H   0  0  0  0  0  0  0  0  0  0  0  0  # atno 10718 bound_to 10713
  153.8895  135.6813  153.4761 H   0  0  0  0  0  0  0  0  0  0  0  0  # atno 10763 bound_to 10752
  153.1189  135.4749  154.9159 H   0  0  0  0  0  0  0  0  0  0  0  0  # atno 10764 bound_to 10752
  154.7629  135.3216  154.8296 H   0  0  0  0  0  0  0  0  0  0  0  0  # atno 10765 bound_to 10752
  140.7958  133.8252  155.9423 H   0  0  0  0  0  0  0  0  0  0  0  0  # atno 11005 bound_to 11000
  145.3375  139.1741  143.4503 LP  0  0  0  0  0  0  0  0  0  0  0  0  # atno 17320 bound_to 7965
  146.3182  140.3413  142.8648 LP  0  0  0  0  0  0  0  0  0  0  0  0  # atno 17321 bound_to 7965
  140.3511  144.3087  150.5949 LP  0  0  0  0  0  0  0  0  0  0  0  0  # atno 17342 bound_to 10162
  140.5484  143.2210  151.7968 LP  0  0  0  0  0  0  0  0  0  0  0  0  # atno 17343 bound_to 10162
  157.6287  131.0923  150.8484 LP  0  0  0  0  0  0  0  0  0  0  0  0  # atno 17370 bound_to 10713
  156.8596  130.5108  149.5305 LP  0  0  0  0  0  0  0  0  0  0  0  0  # atno 17371 bound_to 10713
  140.9344  134.1981  157.4841 LP  0  0  0  0  0  0  0  0  0  0  0  0  # atno 17394 bound_to 11000
  139.8726  134.9846  156.5247 LP  0  0  0  0  0  0  0  0  0  0  0  0  # atno 17395 bound_to 11000

$$$$
