AV-unprocessed.smi:1254|AV-procd|sdf|5269|dock1
  -GOLD-   22720 4383D 1   1.00000     0.00000
 Structure written by MMmdl.
 46 47  0  0  0  0  0  0  0  0  2 V2000
  153.2458  142.9770  160.2435 C   0  0  0  0  0  0  0  0  0  0  0  0
  152.4304  142.5194  159.0826 C   0  0  0  0  0  0  0  0  0  0  0  0
  151.3945  143.0851  158.3935 C   0  0  0  0  0  0  0  0  0  0  0  0
  151.0872  142.1026  157.4149 C   0  0  0  0  0  0  0  0  0  0  0  0
  150.0398  142.3070  156.4805 N   0  0  0  0  0  0  0  0  0  0  0  0
  149.7570  141.5677  155.3945 C   0  0  0  0  0  0  0  0  0  0  0  0
  150.3912  140.5805  155.0217 O   0  0  0  0  0  0  0  0  0  0  0  0
  148.6838  142.0426  154.7460 N   0  0  0  0  0  0  0  0  0  0  0  0
  148.1093  141.4598  153.5367 C   0  0  0  0  0  0  0  0  0  0  0  0
  147.8771  139.9400  153.6522 C   0  0  2  0  0  0  0  0  0  0  0  0
  146.9577  139.3776  152.5469 C   0  0  0  0  0  0  0  0  0  0  0  0
  146.7189  137.9283  152.7575 N   0  3  2  0  0  0  0  0  0  0  0  0
  145.8831  137.2973  151.7039 C   0  0  0  0  0  0  0  0  0  0  0  0
  145.3294  135.9125  152.1065 C   0  0  0  0  0  0  0  0  0  0  0  0
  145.1736  135.0160  150.8691 C   0  0  0  0  0  0  0  0  0  0  0  0
  143.9937  136.0222  152.8611 C   0  0  0  0  0  0  0  0  0  0  0  0
  146.1859  137.6867  154.1189 C   0  0  0  0  0  0  0  0  0  0  0  0
  147.1168  138.3008  155.1765 C   0  0  0  0  0  0  0  0  0  0  0  0
  147.2777  139.6899  154.9189 O   0  0  0  0  0  0  0  0  0  0  0  0
  151.8679  141.0359  157.4959 N   0  0  0  0  0  0  0  0  0  0  0  0
  152.7314  141.2968  158.5663 O   0  0  0  0  0  0  0  0  0  0  0  0
  153.2761  144.0657  160.2920 H   0  0  0  0  0  0  0  0  0  0  0  0
  154.2712  142.6140  160.1673 H   0  0  0  0  0  0  0  0  0  0  0  0
  152.8245  142.6082  161.1787 H   0  0  0  0  0  0  0  0  0  0  0  0
  150.9319  144.0455  158.5668 H   0  0  0  0  0  0  0  0  0  0  0  0
  149.4350  143.0931  156.6667 H   0  0  0  0  0  0  0  0  0  0  0  0
  148.2194  142.8552  155.1244 H   0  0  0  0  0  0  0  0  0  0  0  0
  147.1716  141.9657  153.3006 H   0  0  0  0  0  0  0  0  0  0  0  0
  148.7874  141.6684  152.7087 H   0  0  0  0  0  0  0  0  0  0  0  0
  148.8414  139.4298  153.6172 H   0  0  0  0  0  0  0  0  0  0  0  0
  146.0050  139.9097  152.5420 H   0  0  0  0  0  0  0  0  0  0  0  0
  147.4197  139.5405  151.5745 H   0  0  0  0  0  0  0  0  0  0  0  0
  145.0378  137.9503  151.4804 H   0  0  0  0  0  0  0  0  0  0  0  0
  146.4632  137.2256  150.7826 H   0  0  0  0  0  0  0  0  0  0  0  0
  146.0450  135.4159  152.7611 H   0  0  0  0  0  0  0  0  0  0  0  0
  144.4585  135.4369  150.1613 H   0  0  0  0  0  0  0  0  0  0  0  0
  144.8216  134.0214  151.1447 H   0  0  0  0  0  0  0  0  0  0  0  0
  146.1241  134.8936  150.3485 H   0  0  0  0  0  0  0  0  0  0  0  0
  143.2348  136.5185  152.2551 H   0  0  0  0  0  0  0  0  0  0  0  0
  144.1024  136.5869  153.7875 H   0  0  0  0  0  0  0  0  0  0  0  0
  143.6121  135.0360  153.1276 H   0  0  0  0  0  0  0  0  0  0  0  0
  145.1870  138.1178  154.2027 H   0  0  0  0  0  0  0  0  0  0  0  0
  146.0892  136.6149  154.2965 H   0  0  0  0  0  0  0  0  0  0  0  0
  146.6905  138.1728  156.1717 H   0  0  0  0  0  0  0  0  0  0  0  0
  148.0875  137.8025  155.1795 H   0  0  0  0  0  0  0  0  0  0  0  0
  147.6194  137.4718  152.7216 H   0  0  0  0  0  0  0  0  0  0  0  0
  1  2  1  0  0  0  0
  1 22  1  0  0  0  0
  1 23  1  0  0  0  0
  1 24  1  0  0  0  0
  2 21  1  0  0  0  0
  2  3  2  0  0  0  0
  3  4  1  0  0  0  0
  3 25  1  0  0  0  0
  4  5  1  0  0  0  0
  4 20  2  0  0  0  0
  5  6  1  0  0  0  0
  5 26  1  0  0  0  0
  6  7  2  0  0  0  0
  6  8  1  0  0  0  0
  8  9  1  0  0  0  0
  8 27  1  0  0  0  0
  9 10  1  0  0  0  0
  9 28  1  0  0  0  0
  9 29  1  0  0  0  0
 10 19  1  0  0  0  0
 10 11  1  0  0  0  0
 10 30  1  0  0  0  0
 11 12  1  0  0  0  0
 11 31  1  0  0  0  0
 11 32  1  0  0  0  0
 12 13  1  0  0  0  0
 12 17  1  0  0  0  0
 12 46  1  0  0  0  0
 13 14  1  0  0  0  0
 13 33  1  0  0  0  0
 13 34  1  0  0  0  0
 14 15  1  0  0  0  0
 14 16  1  0  0  0  0
 14 35  1  0  0  0  0
 15 36  1  0  0  0  0
 15 37  1  0  0  0  0
 15 38  1  0  0  0  0
 16 39  1  0  0  0  0
 16 40  1  0  0  0  0
 16 41  1  0  0  0  0
 17 18  1  0  0  0  0
 17 42  1  0  0  0  0
 17 43  1  0  0  0  0
 18 19  1  0  0  0  0
 18 44  1  0  0  0  0
 18 45  1  0  0  0  0
 20 21  1  0  0  0  0
M  CHG  1  12   1
M  END
> <s_m_source_file>
AV-unprocessed.smi

> <i_m_source_file_index>
1254

> <i_lp_mmshare_version>
43012

> <i_f3d_flags>
0

> <s_epik_input>
W0NIM11jMVtjSF1jKG5vMSlbTkhdQyg9TylbTkhdW0NIMl1bQ0BASF0yW0NIMl1OKFtDSDJdW0NIMl1PMilbQ0gyXVtDSF0oW0NIM10pW0NIM10=

> <s_epik_cmdline>
J2VwaWtfcHl0aG9uJywgJy1waCcsICc3LjAnLCAnLXRuJywgJzgnLCAnLW1hJywgJzIwMCcsICctbWV0YWxfYmluZGluZycsICctaW1hZScsICc8aW5maWxlLm1hZT4nLCAnLW9tYWUnLCAnPG91dGZpbGUubWFlPic=

> <r_epik_Ionization_Penalty>
0.0986825

> <r_epik_Ionization_Penalty_Charging>
0.0986478

> <r_epik_Ionization_Penalty_Neutral>
3.46838e-05

> <r_epik_State_Penalty>
0.0887259

> <r_epik_Charging_Adjusted_Penalty>
0.187374

> <i_epik_Tot_Q>
1

> <i_epik_Tot_abs_Q>
1

> <r_epik_Metal_State_Penalty>
0.103424

> <b_epik_Metal_Only>
0

> <s_lp_Force_Field>
OPLS_2005

> <r_lp_Energy>
15.3676

> <b_lp_Chiralities_Consistent>
1

> <s_lp_Variant>
AV-unprocessed.smi:1254-1

> <Gold.Version>
5.8.1

> <Gold.Id.Protein>
6NUR|6NUR_protein|mol2

> <Gold.PLP.Fitness>
45.0701

> <Gold.PLP.PLP>
-33.2388

> <Gold.PLP.part.hbond>
-4.0000

> <Gold.PLP.part.metal>
0.0000

> <Gold.PLP.part.buried>
1.5246

> <Gold.PLP.part.nonpolar>
-29.3744

> <Gold.PLP.part.repulsive>
0.4499

> <Gold.PLP.ligand.clash>
0.0000

> <Gold.PLP.ligand.torsion>
0.7008

> <Gold.PLP.Chemscore.Hbond>
4.3620

> <Gold.PLP.Chemscore.CHOScore>
0.0000

> <Gold.PLP.Chemscore.Metal>
0.0000

> <Gold.Chemscore.Hbonds>
donor molecule, donor type, donor heavy atom, donor atom, acceptor molecule, acceptor atom, score
      L1  H     5    26       P1  8028  0.72
      L1  H     8    27       P1  8028  0.67
      L1  H    12    46       P1  7948  2.00
      P1  H  7989  7998       L1     7  0.94

> <Gold.PLP.Chemscore.Internal.Correction>
0.1469

> <Gold.Rescore>
     Score         DG    S(hbond)    S(metal)    S(lipo)     H(rot)  DE(clash)    DE(int)     intcor
     17.04     -20.19       2.94        0.00      79.65       1.73       0.06       3.09       ----

> <Gold.Chemscore.Fitness>
17.0407

> <Gold.Chemscore.DG>
-20.1942

> <Gold.Chemscore.ZeroCoef>
-5.4800

> <Gold.Chemscore.Hbond>
2.9408

> <Gold.Chemscore.Metal>
0.0000

> <Gold.Chemscore.Lipo>
79.6457

> <Gold.Chemscore.Internal_Hbond>
0.0000

> <Gold.Chemscore.DEClash>
0.0622

> <Gold.Chemscore.DEInternal>
3.0913

> <Gold.Chemscore.Rot>
1.7291

> <Gold.Chemscore.Internal.Correction>
   9.000000E+99

> <Gold.Chemscore.Hbonds>
donor molecule, donor type, donor heavy atom, donor atom, acceptor molecule, acceptor atom, score
      L1  H     5    26       P1  8028  0.70
      L1  H     8    27       P1  8028  0.63
      L1  H    12    46       P1  7948  0.92
      P1  H  7989  7998       L1     7  0.80

> <Gold.Chemscore.Hbond.Weighted>
-9.8222

> <Gold.Chemscore.Metal.Weighted>
-0.0000

> <Gold.Chemscore.Lipo.Weighted>
-9.3186

> <Gold.Chemscore.Internal_Hbond.Weighted>
0.0000

> <Gold.Chemscore.DEClash.Weighted>
0.0622

> <Gold.Chemscore.DEInternal.Weighted>
3.0913

> <Gold.Chemscore.Rot.Weighted>
4.4265

> <Gold.Chemscore.Internal.Correction.Weighted>
   9.000000E+99

> <Gold.Protein.RotatedTorsions>
[ 6907 6896 6895 6894 ] final -106.11 input  -60.11 | X-H torsion
[ 7974 7965 7964 7962 ] final  102.23 input  175.53 | X-H torsion
[ 8008 7997 7996 7995 ] final   37.12 input   59.86 | X-H torsion
[ 10167 10162 10161 10158 ] final  121.07 input  -65.29 | X-H torsion
[ 10718 10713 10712 10709 ] final   54.17 input   66.30 | X-H torsion
[ 10763 10752 10751 10750 ] final  -81.90 input  -60.55 | X-H torsion
[ 11005 11000 10999 10996 ] final  -53.38 input  -57.11 | X-H torsion

> <Gold.Protein.ActiveResidues>
 VAL166  LYS551  ARG553  GLY616  TRP617  ASP618  TYR619  PRO620  LYS621  CYS622 
 ASP623  PHE694  ASN695  SER759  ASP760  ASP761  ALA762  ILE779  LEU786  VAL792 
 PHE793  MET794  SER795  GLU796  ALA797  LYS798  CYS799  TRP800  GLU811  SER814 

> <Gold.Protein.RotatedAtoms>
  150.7372  134.0025  159.3642 H   0  0  0  0  0  0  0  0  0  0  0  0  # atno 6907 bound_to 6896
  151.7980  135.0715  160.0406 H   0  0  0  0  0  0  0  0  0  0  0  0  # atno 6908 bound_to 6896
  152.3161  133.5767  159.5749 H   0  0  0  0  0  0  0  0  0  0  0  0  # atno 6909 bound_to 6896
  145.3619  139.2416  143.3502 H   0  0  0  0  0  0  0  0  0  0  0  0  # atno 7974 bound_to 7965
  155.1986  140.3314  155.4347 H   0  0  0  0  0  0  0  0  0  0  0  0  # atno 8008 bound_to 7997
  156.2415  140.1897  156.7024 H   0  0  0  0  0  0  0  0  0  0  0  0  # atno 8009 bound_to 7997
  154.6157  140.0602  156.9537 H   0  0  0  0  0  0  0  0  0  0  0  0  # atno 8010 bound_to 7997
  139.5942  144.7036  151.3215 H   0  0  0  0  0  0  0  0  0  0  0  0  # atno 10167 bound_to 10162
  157.5232  130.8579  149.8587 H   0  0  0  0  0  0  0  0  0  0  0  0  # atno 10718 bound_to 10713
  154.5692  135.5610  153.7079 H   0  0  0  0  0  0  0  0  0  0  0  0  # atno 10763 bound_to 10752
  153.0043  135.6292  154.2138 H   0  0  0  0  0  0  0  0  0  0  0  0  # atno 10764 bound_to 10752
  154.2078  135.2875  155.2949 H   0  0  0  0  0  0  0  0  0  0  0  0  # atno 10765 bound_to 10752
  141.0973  133.6623  156.4163 H   0  0  0  0  0  0  0  0  0  0  0  0  # atno 11005 bound_to 11000
  146.2924  140.4254  142.8734 LP  0  0  0  0  0  0  0  0  0  0  0  0  # atno 17320 bound_to 7965
  144.8640  140.7180  143.6089 LP  0  0  0  0  0  0  0  0  0  0  0  0  # atno 17321 bound_to 7965
  140.7198  143.7166  150.7728 LP  0  0  0  0  0  0  0  0  0  0  0  0  # atno 17342 bound_to 10162
  140.0728  143.5044  152.2571 LP  0  0  0  0  0  0  0  0  0  0  0  0  # atno 17343 bound_to 10162
  156.0368  130.3749  150.1538 LP  0  0  0  0  0  0  0  0  0  0  0  0  # atno 17370 bound_to 10713
  156.9725  130.9839  151.3455 LP  0  0  0  0  0  0  0  0  0  0  0  0  # atno 17371 bound_to 10713
  140.5109  134.6396  157.5284 LP  0  0  0  0  0  0  0  0  0  0  0  0  # atno 17394 bound_to 11000
  139.9813  134.7132  155.9854 LP  0  0  0  0  0  0  0  0  0  0  0  0  # atno 17395 bound_to 11000

$$$$
