#       Name:                AV-unprocessed.smi:544
#       Creating user name   scv26
#       Creation time:       Thu Mar 26 23:37:33 2020


#       File generated by GOLD software.
#

@<TRIPOS>MOLECULE
AV-unprocessed.smi:544
    56    58     1
SMALL
NO_CHARGES


@<TRIPOS>ATOM
      1 ****        -4.9723   2.3548   0.4844 C.3            1 S1                 0.0000
      2 ****        -4.2114   1.7051  -0.6735 C.3            1 S1                 0.0000
      3 ****        -2.8229   1.8359  -0.4280 O.3            1 S1                 0.0000
      4 ****        -2.0148   1.2793  -1.4497 C.3            1 S1                 0.0000
      5 ****        -0.5163   1.4647  -1.1296 C.3            1 S1                 0.0000
      6 ****        -0.1214   0.8667   0.1463 N.pl3          1 S1                 0.0000
      7 ****         0.4784  -0.3391   0.3906 C.2            1 S1                 0.0000
      8 ****         0.8765  -1.2533  -0.6017 N.pl3          1 S1                 0.0000
      9 ****         0.2422  -1.5791  -1.8817 C.3            1 S1                 0.0000
     10 ****         1.2053  -1.3775  -3.0650 C.3            1 S1                 0.0000
     11 ****         2.4531  -2.2521  -2.8933 C.3            1 S1                 0.0000
     12 ****         3.0709  -2.0248  -1.5039 C.3            1 S1                 0.0000
     13 ****         4.2626  -2.9599  -1.2587 C.3            1 S1                 0.0000
     14 ****         1.9914  -2.1884  -0.4141 C.3            1 S1                 0.0000
     15 ****         0.7120  -0.5723   1.6850 N.2            1 S1                 0.0000
     16 ****         0.2452   0.5658   2.3155 C.2            1 S1                 0.0000
     17 ****        -0.2329   1.4621   1.4135 C.2            1 S1                 0.0000
     18 ****        -0.7367   2.8060   1.7924 C.2            1 S1                 0.0000
     19 ****        -1.0940   3.6197   0.9434 O.2            1 S1                 0.0000
     20 ****        -0.7308   3.0009   3.1489 N.pl3          1 S1                -1.0000
     21 ****        -0.2740   2.1086   4.0934 C.2            1 S1                 0.0000
     22 ****        -0.3037   2.3643   5.2980 O.2            1 S1                 0.0000
     23 ****         0.2312   0.8994   3.6970 N.am           1 S1                 0.0000
     24 ****         0.7414  -0.0631   4.6778 C.3            1 S1                 0.0000
     25 ****        -6.0496   2.2770   0.3367 H              1 S1                 0.0000
     26 ****        -4.7206   3.4125   0.5711 H              1 S1                 0.0000
     27 ****        -4.7275   1.8739   1.4319 H              1 S1                 0.0000
     28 ****        -4.4827   0.6515  -0.7550 H              1 S1                 0.0000
     29 ****        -4.4755   2.1911  -1.6138 H              1 S1                 0.0000
     30 ****        -2.2679   0.2254  -1.5520 H              1 S1                 0.0000
     31 ****        -2.2430   1.7591  -2.4023 H              1 S1                 0.0000
     32 ****         0.1016   1.0653  -1.9290 H              1 S1                 0.0000
     33 ****        -0.2683   2.5246  -1.1145 H              1 S1                 0.0000
     34 ****        -0.0851  -2.6195  -1.8529 H              1 S1                 0.0000
     35 ****        -0.6636  -1.0066  -2.0358 H              1 S1                 0.0000
     36 ****         0.7039  -1.6242  -4.0010 H              1 S1                 0.0000
     37 ****         1.4989  -0.3300  -3.1361 H              1 S1                 0.0000
     38 ****         2.1776  -3.3012  -3.0078 H              1 S1                 0.0000
     39 ****         3.1789  -2.0314  -3.6765 H              1 S1                 0.0000
     40 ****         3.4410  -0.9992  -1.4587 H              1 S1                 0.0000
     41 ****         3.9591  -4.0066  -1.2946 H              1 S1                 0.0000
     42 ****         4.7095  -2.7769  -0.2814 H              1 S1                 0.0000
     43 ****         5.0389  -2.8117  -2.0096 H              1 S1                 0.0000
     44 ****         2.4531  -2.0328   0.5611 H              1 S1                 0.0000
     45 ****         1.6094  -3.2104  -0.4068 H              1 S1                 0.0000
     46 ****         1.5483   0.3789   5.2638 H              1 S1                 0.0000
     47 ****         1.1353  -0.9680   4.2158 H              1 S1                 0.0000
     48 ****        -0.0519  -0.3654   5.3626 H              1 S1                 0.0000
     49 ****        -2.6084   1.3738   0.4325 LP             1 S1                 0.0000
     50 ****        -2.6058   2.8087  -0.3471 LP             1 S1                 0.0000
     51 ****         1.1276  -1.3813   2.1007 LP             1 S1                 0.0000
     52 ****        -1.0488   3.3823  -0.0270 LP             1 S1                 0.0000
     53 ****        -1.4299   4.5192   1.2229 LP             1 S1                 0.0000
     54 ****        -1.0914   3.8714   3.4839 LP             1 S1                 0.0000
     55 ****        -0.6670   3.2407   5.6143 LP             1 S1                 0.0000
     56 ****         0.0355   1.6956   5.9596 LP             1 S1                 0.0000
@<TRIPOS>BOND
    1    1    2 1     
    2    1   25 1     
    3    1   26 1     
    4    1   27 1     
    5    2    3 1     
    6    2   28 1     
    7    2   29 1     
    8    3    4 1     
    9    4    5 1     
   10    4   30 1     
   11    4   31 1     
   12    5    6 1     
   13    5   32 1     
   14    5   33 1     
   15    6   17 1     
   16    6    7 1     
   17    7    8 1     
   18    7   15 2     
   19    8   14 1     
   20    8    9 1     
   21    9   10 1     
   22    9   34 1     
   23    9   35 1     
   24   10   11 1     
   25   10   36 1     
   26   10   37 1     
   27   11   12 1     
   28   11   38 1     
   29   11   39 1     
   30   12   13 1     
   31   12   14 1     
   32   12   40 1     
   33   13   41 1     
   34   13   42 1     
   35   13   43 1     
   36   14   44 1     
   37   14   45 1     
   38   15   16 1     
   39   16   23 1     
   40   16   17 2     
   41   17   18 1     
   42   18   19 2     
   43   18   20 1     
   44   20   21 1     
   45   21   22 2     
   46   21   23 am    
   47   23   24 1     
   48   24   46 1     
   49   24   47 1     
   50   24   48 1     
   51    3   49 1     
   52    3   50 1     
   53   15   51 1     
   54   19   52 1     
   55   19   53 1     
   56   20   54 1     
   57   22   55 1     
   58   22   56 1     
@<TRIPOS>SUBSTRUCTURE
      1 S1             1
@<TRIPOS>SET
LONE_PAIRS      STATIC     ATOMS    <user>   **** ""
8 49 50 51 52 53 54 55 56
ATOM$BLUE        STATIC     ATOMS    COLORGROUP SYSTEM
8 49 50 51 52 53 54 55 56
