AV-unprocessed.smi:2648|AV-procd|sdf|10287|dock4
  -GOLD-   2272014303D 1   1.00000     0.00000
 Structure written by MMmdl.
 31 32  0  0  0  0  0  0  0  0  2 V2000
  144.6545  136.6337  152.2876 O   0  0  0  0  0  0  0  0  0  0  0  0
  145.8577  136.4055  152.1637 C   0  0  0  0  0  0  0  0  0  0  0  0
  146.8157  137.2476  152.5762 N   0  0  0  0  0  0  0  0  0  0  0  0
  146.5752  138.5303  153.2252 C   0  0  0  0  0  0  0  0  0  0  0  0
  147.1916  138.5710  154.6350 C   0  0  0  0  0  0  0  0  0  0  0  0
  148.6184  138.8992  154.5779 N   0  0  0  0  0  0  0  0  0  0  0  0
  149.6018  138.0032  154.7053 C   0  0  0  0  0  0  0  0  0  0  0  0
  149.5011  136.7913  154.8983 O   0  0  0  0  0  0  0  0  0  0  0  0
  150.9120  138.7414  154.5577 C   0  0  0  0  0  0  0  0  0  0  0  0
  150.4763  140.1012  154.3328 N   0  5  0  0  0  0  0  0  0  0  0  0
  149.1229  140.1273  154.3517 C   0  0  0  0  0  0  0  0  0  0  0  0
  148.4045  141.1125  154.1850 O   0  0  0  0  0  0  0  0  0  0  0  0
  146.3881  135.2925  151.6276 N   0  0  0  0  0  0  0  0  0  0  0  0
  145.7185  134.1704  151.0680 C   0  0  0  0  0  0  0  0  0  0  0  0
  146.5098  133.1092  150.5814 C   0  0  0  0  0  0  0  0  0  0  0  0
  145.8701  131.9924  150.0072 C   0  0  0  0  0  0  0  0  0  0  0  0
  144.5301  131.8858  149.8874 N   0  0  0  0  0  0  0  0  0  0  0  0
  143.7749  132.9089  150.3401 C   0  0  0  0  0  0  0  0  0  0  0  0
  144.3130  134.0695  150.9312 C   0  0  0  0  0  0  0  0  0  0  0  0
  147.7795  136.9806  152.4406 H   0  0  0  0  0  0  0  0  0  0  0  0
  147.0155  139.3101  152.6030 H   0  0  0  0  0  0  0  0  0  0  0  0
  145.5040  138.7359  153.2674 H   0  0  0  0  0  0  0  0  0  0  0  0
  146.6683  139.3003  155.2558 H   0  0  0  0  0  0  0  0  0  0  0  0
  147.0519  137.6092  155.1316 H   0  0  0  0  0  0  0  0  0  0  0  0
  151.5080  138.6239  155.4631 H   0  0  0  0  0  0  0  0  0  0  0  0
  151.4795  138.3276  153.7236 H   0  0  0  0  0  0  0  0  0  0  0  0
  147.3934  135.2159  151.6738 H   0  0  0  0  0  0  0  0  0  0  0  0
  147.5874  133.1429  150.6494 H   0  0  0  0  0  0  0  0  0  0  0  0
  146.4514  131.1631  149.6321 H   0  0  0  0  0  0  0  0  0  0  0  0
  142.7066  132.8029  150.2218 H   0  0  0  0  0  0  0  0  0  0  0  0
  143.6441  134.8531  151.2517 H   0  0  0  0  0  0  0  0  0  0  0  0
  1  2  2  0  0  0  0
  2  3  1  0  0  0  0
  2 13  1  0  0  0  0
  3  4  1  0  0  0  0
  3 20  1  0  0  0  0
  4  5  1  0  0  0  0
  4 21  1  0  0  0  0
  4 22  1  0  0  0  0
  5  6  1  0  0  0  0
  5 23  1  0  0  0  0
  5 24  1  0  0  0  0
  6 11  1  0  0  0  0
  6  7  1  0  0  0  0
  7  8  2  0  0  0  0
  7  9  1  0  0  0  0
  9 10  1  0  0  0  0
  9 25  1  0  0  0  0
  9 26  1  0  0  0  0
 10 11  1  0  0  0  0
 11 12  2  0  0  0  0
 13 14  1  0  0  0  0
 13 27  1  0  0  0  0
 14 19  1  0  0  0  0
 14 15  2  0  0  0  0
 15 16  1  0  0  0  0
 15 28  1  0  0  0  0
 16 17  2  0  0  0  0
 16 29  1  0  0  0  0
 17 18  1  0  0  0  0
 18 19  2  0  0  0  0
 18 30  1  0  0  0  0
 19 31  1  0  0  0  0
M  CHG  1  10  -1
M  END
> <s_m_source_file>
AV-unprocessed.smi

> <i_m_source_file_index>
2648

> <i_lp_mmshare_version>
43012

> <i_f3d_flags>
0

> <s_epik_input>
W2NIXTFbY0hdbltjSF1bY0hdYzFbTkhdQyg9TylbTkhdW0NIMl1bQ0gyXU4yQyg9TylbQ0gyXVtOSF1DMj1P

> <s_epik_cmdline>
J2VwaWtfcHl0aG9uJywgJy1waCcsICc3LjAnLCAnLXRuJywgJzgnLCAnLW1hJywgJzIwMCcsICctbWV0YWxfYmluZGluZycsICctaW1hZScsICc8aW5maWxlLm1hZT4nLCAnLW9tYWUnLCAnPG91dGZpbGUubWFlPic=

> <r_lp_tautomer_probability>
1

> <r_epik_Ionization_Penalty>
5.93063

> <r_epik_Ionization_Penalty_Charging>
5.82164

> <r_epik_Ionization_Penalty_Neutral>
0.10899

> <r_epik_State_Penalty>
5.92035

> <r_epik_Charging_Adjusted_Penalty>
11.742

> <i_epik_Tot_Q>
-1

> <i_epik_Tot_abs_Q>
1

> <r_epik_Metal_State_Penalty>
1.97767

> <b_epik_Metal_Only>
1

> <s_lp_Force_Field>
OPLS_2005

> <r_lp_Energy>
14.3233

> <b_lp_Chiralities_Consistent>
1

> <s_lp_Variant>
AV-unprocessed.smi:2648-3

> <Gold.Version>
5.8.1

> <Gold.Id.Protein>
6NUR|6NUR_protein|mol2

> <Gold.PLP.Fitness>
44.1024

> <Gold.PLP.PLP>
-30.3035

> <Gold.PLP.part.hbond>
-3.4385

> <Gold.PLP.part.metal>
0.0000

> <Gold.PLP.part.buried>
-6.0771

> <Gold.PLP.part.nonpolar>
-23.4181

> <Gold.PLP.part.repulsive>
0.8831

> <Gold.PLP.ligand.clash>
0.0000

> <Gold.PLP.ligand.torsion>
0.3401

> <Gold.PLP.Chemscore.Hbond>
2.9280

> <Gold.PLP.Chemscore.CHOScore>
1.8955

> <Gold.PLP.Chemscore.Metal>
0.0000

> <Gold.Chemscore.Hbonds>
donor molecule, donor type, donor heavy atom, donor atom, acceptor molecule, acceptor atom, score
      L1  H     3    20       P1  7948  0.93
      L1  H    13    27       P1  7948  0.88
      P1  H  7989  7998       L1    10  1.00
      L1  C    16    29       P1 10747  0.70
      L1  C    18    30       P1 10186  1.00

> <Gold.PLP.Chemscore.Internal.Correction>
0.0086

> <Gold.Rescore>
     Score         DG    S(hbond)    S(metal)    S(lipo)     H(rot)  DE(clash)    DE(int)     intcor
     15.22     -16.87       2.92        0.00      55.42       1.90       0.12       1.53       ----

> <Gold.Chemscore.Fitness>
15.2158

> <Gold.Chemscore.DG>
-16.8675

> <Gold.Chemscore.ZeroCoef>
-5.4800

> <Gold.Chemscore.Hbond>
2.9220

> <Gold.Chemscore.Metal>
0.0000

> <Gold.Chemscore.Lipo>
55.4212

> <Gold.Chemscore.Internal_Hbond>
0.0000

> <Gold.Chemscore.DEClash>
0.1213

> <Gold.Chemscore.DEInternal>
1.5304

> <Gold.Chemscore.Rot>
1.8969

> <Gold.Chemscore.Internal.Correction>
   9.000000E+99

> <Gold.Chemscore.Hbonds>
donor molecule, donor type, donor heavy atom, donor atom, acceptor molecule, acceptor atom, score
      L1  H     3    20       P1  7948  0.88
      L1  H    13    27       P1  7948  0.78
      P1  H  7989  7998       L1    10  0.69
      P1  H 10785 10796       L1    17  0.02

> <Gold.Chemscore.Hbond.Weighted>
-9.7593

> <Gold.Chemscore.Metal.Weighted>
-0.0000

> <Gold.Chemscore.Lipo.Weighted>
-6.4843

> <Gold.Chemscore.Internal_Hbond.Weighted>
0.0000

> <Gold.Chemscore.DEClash.Weighted>
0.1213

> <Gold.Chemscore.DEInternal.Weighted>
1.5304

> <Gold.Chemscore.Rot.Weighted>
4.8561

> <Gold.Chemscore.Internal.Correction.Weighted>
   9.000000E+99

> <Gold.Protein.RotatedTorsions>
[ 6907 6896 6895 6894 ] final  177.21 input  -60.11 | X-H torsion
[ 7974 7965 7964 7962 ] final -153.74 input  175.53 | X-H torsion
[ 8008 7997 7996 7995 ] final  122.81 input   59.86 | X-H torsion
[ 10167 10162 10161 10158 ] final  -13.29 input  -65.29 | X-H torsion
[ 10718 10713 10712 10709 ] final    1.50 input   66.30 | X-H torsion
[ 10763 10752 10751 10750 ] final -131.59 input  -60.55 | X-H torsion
[ 11005 11000 10999 10996 ] final  -48.65 input  -57.11 | X-H torsion

> <Gold.Protein.ActiveResidues>
 VAL166  LYS551  ARG553  GLY616  TRP617  ASP618  TYR619  PRO620  LYS621  CYS622 
 ASP623  PHE694  ASN695  SER759  ASP760  ASP761  ALA762  ILE779  LEU786  VAL792 
 PHE793  MET794  SER795  GLU796  ALA797  LYS798  CYS799  TRP800  GLU811  SER814 

> <Gold.Protein.RotatedAtoms>
  151.7076  133.3312  159.3282 H   0  0  0  0  0  0  0  0  0  0  0  0  # atno 6907 bound_to 6896
  150.7708  134.6560  159.6323 H   0  0  0  0  0  0  0  0  0  0  0  0  # atno 6908 bound_to 6896
  152.3731  134.6707  160.0221 H   0  0  0  0  0  0  0  0  0  0  0  0  # atno 6909 bound_to 6896
  144.7725  140.4484  143.5897 H   0  0  0  0  0  0  0  0  0  0  0  0  # atno 7974 bound_to 7965
  156.2742  140.2777  156.1528 H   0  0  0  0  0  0  0  0  0  0  0  0  # atno 8008 bound_to 7997
  155.0836  140.0388  157.2664 H   0  0  0  0  0  0  0  0  0  0  0  0  # atno 8009 bound_to 7997
  154.6945  140.2636  155.6785 H   0  0  0  0  0  0  0  0  0  0  0  0  # atno 8010 bound_to 7997
  140.7179  143.5442  150.9374 H   0  0  0  0  0  0  0  0  0  0  0  0  # atno 10167 bound_to 10162
  156.8491  130.5547  149.5671 H   0  0  0  0  0  0  0  0  0  0  0  0  # atno 10718 bound_to 10713
  154.8749  135.3825  154.4271 H   0  0  0  0  0  0  0  0  0  0  0  0  # atno 10763 bound_to 10752
  153.4969  135.7030  153.5858 H   0  0  0  0  0  0  0  0  0  0  0  0  # atno 10764 bound_to 10752
  153.4207  135.3902  155.2076 H   0  0  0  0  0  0  0  0  0  0  0  0  # atno 10765 bound_to 10752
  141.0713  133.6678  156.3472 H   0  0  0  0  0  0  0  0  0  0  0  0  # atno 11005 bound_to 11000
  145.6282  139.1533  143.2984 LP  0  0  0  0  0  0  0  0  0  0  0  0  # atno 17320 bound_to 7965
  146.1881  140.6388  142.9158 LP  0  0  0  0  0  0  0  0  0  0  0  0  # atno 17321 bound_to 7965
  139.9165  143.6657  152.3105 LP  0  0  0  0  0  0  0  0  0  0  0  0  # atno 17342 bound_to 10162
  139.7059  144.7628  151.1195 LP  0  0  0  0  0  0  0  0  0  0  0  0  # atno 17343 bound_to 10162
  156.0838  130.5842  150.9611 LP  0  0  0  0  0  0  0  0  0  0  0  0  # atno 17370 bound_to 10713
  157.6313  131.0921  150.8435 LP  0  0  0  0  0  0  0  0  0  0  0  0  # atno 17371 bound_to 10713
  140.5667  134.5881  157.5447 LP  0  0  0  0  0  0  0  0  0  0  0  0  # atno 17394 bound_to 11000
  139.9527  134.7589  156.0412 LP  0  0  0  0  0  0  0  0  0  0  0  0  # atno 17395 bound_to 11000

$$$$
