AV-unprocessed.smi:1484|AV-procd|sdf|5999|dock4
  -GOLD-   22720 6 93D 1   1.00000     0.00000
 Structure written by MMmdl.
 38 39  0  0  0  0  0  0  0  0  1 V2000
  153.0039  142.6316  162.0726 C   0  0  0  0  0  0  0  0  0  0  0  0
  152.2217  143.2912  160.9280 C   0  0  2  0  0  0  0  0  0  0  0  0
  150.8124  143.7181  161.3812 C   0  0  0  0  0  0  0  0  0  0  0  0
  150.0291  144.3779  160.2356 C   0  0  0  0  0  0  0  0  0  0  0  0
  149.9493  143.4554  159.0096 C   0  0  0  0  0  0  0  0  0  0  0  0
  151.3533  143.0209  158.5431 C   0  0  2  0  0  0  0  0  0  0  0  0
  151.2589  142.0867  157.4254 N   0  0  0  0  0  0  0  0  0  0  0  0
  152.2984  141.5988  156.7314 C   0  0  0  0  0  0  0  0  0  0  0  0
  153.4685  141.9090  156.9610 O   0  0  0  0  0  0  0  0  0  0  0  0
  151.9490  140.6294  155.5925 C   0  0  0  0  0  0  0  0  0  0  0  0
  150.5776  140.1055  155.6705 N   0  0  0  0  0  0  0  0  0  0  0  0
  150.3229  139.3502  156.8051 N   0  0  0  0  0  0  0  0  0  0  0  0
  149.1502  138.8472  156.9951 C   0  0  0  0  0  0  0  0  0  0  0  0
  148.9401  138.1083  158.1336 O   0  0  0  0  0  0  0  0  0  0  0  0
  148.0842  139.0517  156.0391 C   0  0  0  0  0  0  0  0  0  0  0  0
  148.3435  139.7843  154.9340 C   0  0  0  0  0  0  0  0  0  0  0  0
  149.6627  140.3692  154.6875 C   0  0  0  0  0  0  0  0  0  0  0  0
  149.9270  141.0384  153.6888 O   0  0  0  0  0  0  0  0  0  0  0  0
  152.1348  142.3662  159.6981 C   0  0  0  0  0  0  0  0  0  0  0  0
  148.0577  138.3089  158.4049 H   0  0  0  0  0  0  0  0  0  0  0  0
  152.5126  141.7206  162.4157 H   0  0  0  0  0  0  0  0  0  0  0  0
  153.0924  143.3042  162.9261 H   0  0  0  0  0  0  0  0  0  0  0  0
  154.0133  142.3668  161.7566 H   0  0  0  0  0  0  0  0  0  0  0  0
  152.7667  144.1895  160.6342 H   0  0  0  0  0  0  0  0  0  0  0  0
  150.2618  142.8491  161.7443 H   0  0  0  0  0  0  0  0  0  0  0  0
  150.8835  144.4109  162.2203 H   0  0  0  0  0  0  0  0  0  0  0  0
  149.0245  144.6355  160.5722 H   0  0  0  0  0  0  0  0  0  0  0  0
  150.5110  145.3156  159.9559 H   0  0  0  0  0  0  0  0  0  0  0  0
  149.3525  142.5762  159.2566 H   0  0  0  0  0  0  0  0  0  0  0  0
  149.4246  143.9680  158.2025 H   0  0  0  0  0  0  0  0  0  0  0  0
  151.9071  143.9047  158.2197 H   0  0  0  0  0  0  0  0  0  0  0  0
  150.3320  141.7830  157.1640 H   0  0  0  0  0  0  0  0  0  0  0  0
  152.1029  141.1248  154.6317 H   0  0  0  0  0  0  0  0  0  0  0  0
  152.6681  139.8086  155.6162 H   0  0  0  0  0  0  0  0  0  0  0  0
  147.1071  138.6250  156.2120 H   0  0  0  0  0  0  0  0  0  0  0  0
  147.5567  139.9452  154.2118 H   0  0  0  0  0  0  0  0  0  0  0  0
  153.1394  142.1077  159.3607 H   0  0  0  0  0  0  0  0  0  0  0  0
  151.6544  141.4282  159.9818 H   0  0  0  0  0  0  0  0  0  0  0  0
  1  2  1  0  0  0  0
  1 21  1  0  0  0  0
  1 22  1  0  0  0  0
  1 23  1  0  0  0  0
  2 19  1  0  0  0  0
  2  3  1  0  0  0  0
  2 24  1  0  0  0  0
  3  4  1  0  0  0  0
  3 25  1  0  0  0  0
  3 26  1  0  0  0  0
  4  5  1  0  0  0  0
  4 27  1  0  0  0  0
  4 28  1  0  0  0  0
  5  6  1  0  0  0  0
  5 29  1  0  0  0  0
  5 30  1  0  0  0  0
  6  7  1  0  0  0  0
  6 19  1  0  0  0  0
  6 31  1  0  0  0  0
  7  8  1  0  0  0  0
  7 32  1  0  0  0  0
  8  9  2  0  0  0  0
  8 10  1  0  0  0  0
 10 33  1  0  0  0  0
 10 34  1  0  0  0  0
 10 11  1  0  0  0  0
 11 12  1  0  0  0  0
 11 17  1  0  0  0  0
 12 13  2  0  0  0  0
 13 14  1  0  0  0  0
 13 15  1  0  0  0  0
 14 20  1  0  0  0  0
 15 35  1  0  0  0  0
 15 16  2  0  0  0  0
 16 36  1  0  0  0  0
 16 17  1  0  0  0  0
 17 18  2  0  0  0  0
 19 37  1  0  0  0  0
 19 38  1  0  0  0  0
M  END
> <s_m_source_file>
AV-unprocessed.smi

> <i_m_source_file_index>
1484

> <i_lp_mmshare_version>
43012

> <i_f3d_flags>
0

> <s_epik_input>
W0NIM11bQ0BASF0xW0NIMl1bQ0gyXVtDSDJdW0NASF0oW0NIMl0xKVtOSF1DKD1PKVtDSDJdbjJbbkhdYyg9TylbY0hdW2NIXWMyPU8=

> <s_epik_cmdline>
J2VwaWtfcHl0aG9uJywgJy1waCcsICc3LjAnLCAnLXRuJywgJzgnLCAnLW1hJywgJzIwMCcsICctbWV0YWxfYmluZGluZycsICctaW1hZScsICc8aW5maWxlLm1hZT4nLCAnLW9tYWUnLCAnPG91dGZpbGUubWFlPic=

> <r_lp_tautomer_probability>
0.9996

> <r_epik_Ionization_Penalty>
2.10343

> <r_epik_Ionization_Penalty_Charging>
3.97871e-08

> <r_epik_Ionization_Penalty_Neutral>
2.10343

> <r_epik_State_Penalty>
1.67966

> <r_epik_Charging_Adjusted_Penalty>
1.67966

> <i_epik_Tot_Q>
0

> <i_epik_Tot_abs_Q>
0

> <r_epik_Metal_State_Penalty>
1.67966

> <b_epik_Metal_Only>
0

> <s_lp_Force_Field>
OPLS_2005

> <r_lp_Energy>
18.4171

> <b_lp_Chiralities_Consistent>
1

> <s_lp_Variant>
AV-unprocessed.smi:1484-7

> <Gold.Version>
5.8.1

> <Gold.Id.Protein>
6NUR|6NUR_protein|mol2

> <Gold.PLP.Fitness>
46.7878

> <Gold.PLP.PLP>
-40.2823

> <Gold.PLP.part.hbond>
-4.0000

> <Gold.PLP.part.metal>
0.0000

> <Gold.PLP.part.buried>
-5.1661

> <Gold.PLP.part.nonpolar>
-32.9880

> <Gold.PLP.part.repulsive>
2.0530

> <Gold.PLP.ligand.clash>
0.0000

> <Gold.PLP.ligand.torsion>
0.2171

> <Gold.PLP.Chemscore.Hbond>
2.3114

> <Gold.PLP.Chemscore.CHOScore>
0.0000

> <Gold.PLP.Chemscore.Metal>
0.0000

> <Gold.Chemscore.Hbonds>
donor molecule, donor type, donor heavy atom, donor atom, acceptor molecule, acceptor atom, score
      P1  H  7989  7998       L1    18  0.32
      P1  H  8011  8017       L1    18  0.91

> <Gold.PLP.Chemscore.Internal.Correction>
0.0056

> <Gold.Rescore>
     Score         DG    S(hbond)    S(metal)    S(lipo)     H(rot)  DE(clash)    DE(int)     intcor
     16.05     -17.83       2.06        0.00      95.74       2.24       0.47       1.30       ----

> <Gold.Chemscore.Fitness>
16.0533

> <Gold.Chemscore.DG>
-17.8310

> <Gold.Chemscore.ZeroCoef>
-5.4800

> <Gold.Chemscore.Hbond>
2.0628

> <Gold.Chemscore.Metal>
0.0000

> <Gold.Chemscore.Lipo>
95.7355

> <Gold.Chemscore.Internal_Hbond>
0.0000

> <Gold.Chemscore.DEClash>
0.4749

> <Gold.Chemscore.DEInternal>
1.3028

> <Gold.Chemscore.Rot>
2.2421

> <Gold.Chemscore.Internal.Correction>
   9.000000E+99

> <Gold.Chemscore.Hbonds>
donor molecule, donor type, donor heavy atom, donor atom, acceptor molecule, acceptor atom, score
      P1  H  7989  7998       L1    18  0.18
      P1  H  8011  8017       L1    18  0.88

> <Gold.Chemscore.Hbond.Weighted>
-6.8898

> <Gold.Chemscore.Metal.Weighted>
-0.0000

> <Gold.Chemscore.Lipo.Weighted>
-11.2011

> <Gold.Chemscore.Internal_Hbond.Weighted>
0.0000

> <Gold.Chemscore.DEClash.Weighted>
0.4749

> <Gold.Chemscore.DEInternal.Weighted>
1.3028

> <Gold.Chemscore.Rot.Weighted>
5.7398

> <Gold.Chemscore.Internal.Correction.Weighted>
   9.000000E+99

> <Gold.Protein.RotatedTorsions>
[ 6907 6896 6895 6894 ] final   96.61 input  -60.11 | X-H torsion
[ 7974 7965 7964 7962 ] final -106.09 input  175.53 | X-H torsion
[ 8008 7997 7996 7995 ] final   49.03 input   59.86 | X-H torsion
[ 10167 10162 10161 10158 ] final -159.39 input  -65.29 | X-H torsion
[ 10718 10713 10712 10709 ] final -175.29 input   66.30 | X-H torsion
[ 10763 10752 10751 10750 ] final  166.08 input  -60.55 | X-H torsion
[ 11005 11000 10999 10996 ] final    3.64 input  -57.11 | X-H torsion

> <Gold.Protein.ActiveResidues>
 VAL166  LYS551  ARG553  GLY616  TRP617  ASP618  TYR619  PRO620  LYS621  CYS622 
 ASP623  PHE694  ASN695  SER759  ASP760  ASP761  ALA762  ILE779  LEU786  VAL792 
 PHE793  MET794  SER795  GLU796  ALA797  LYS798  CYS799  TRP800  GLU811  SER814 

> <Gold.Protein.RotatedAtoms>
  152.5433  134.0860  159.8256 H   0  0  0  0  0  0  0  0  0  0  0  0  # atno 6907 bound_to 6896
  151.0956  133.5275  159.2620 H   0  0  0  0  0  0  0  0  0  0  0  0  # atno 6908 bound_to 6896
  151.2050  135.0467  159.8942 H   0  0  0  0  0  0  0  0  0  0  0  0  # atno 6909 bound_to 6896
  145.2222  140.9138  143.3253 H   0  0  0  0  0  0  0  0  0  0  0  0  # atno 7974 bound_to 7965
  155.3955  140.3435  155.4254 H   0  0  0  0  0  0  0  0  0  0  0  0  # atno 8008 bound_to 7997
  156.1533  140.1578  156.8766 H   0  0  0  0  0  0  0  0  0  0  0  0  # atno 8009 bound_to 7997
  154.5072  140.0799  156.7899 H   0  0  0  0  0  0  0  0  0  0  0  0  # atno 8010 bound_to 7997
  139.6619  143.9898  152.2230 H   0  0  0  0  0  0  0  0  0  0  0  0  # atno 10167 bound_to 10162
  156.7977  130.9541  151.3119 H   0  0  0  0  0  0  0  0  0  0  0  0  # atno 10718 bound_to 10713
  154.3337  135.2754  155.2459 H   0  0  0  0  0  0  0  0  0  0  0  0  # atno 10763 bound_to 10752
  154.4760  135.5871  153.6358 H   0  0  0  0  0  0  0  0  0  0  0  0  # atno 10764 bound_to 10752
  152.9864  135.6099  154.3531 H   0  0  0  0  0  0  0  0  0  0  0  0  # atno 10765 bound_to 10752
  140.5908  133.9926  155.8088 H   0  0  0  0  0  0  0  0  0  0  0  0  # atno 11005 bound_to 11000
  144.9755  139.3836  143.6288 LP  0  0  0  0  0  0  0  0  0  0  0  0  # atno 17320 bound_to 7965
  146.3373  139.8872  142.8815 LP  0  0  0  0  0  0  0  0  0  0  0  0  # atno 17321 bound_to 7965
  139.9639  144.6539  150.8053 LP  0  0  0  0  0  0  0  0  0  0  0  0  # atno 17342 bound_to 10162
  140.7583  143.3105  151.2857 LP  0  0  0  0  0  0  0  0  0  0  0  0  # atno 17343 bound_to 10162
  157.6569  130.8932  149.9747 LP  0  0  0  0  0  0  0  0  0  0  0  0  # atno 17370 bound_to 10713
  156.1120  130.3649  150.0033 LP  0  0  0  0  0  0  0  0  0  0  0  0  # atno 17371 bound_to 10713
  141.0936  133.9878  157.3197 LP  0  0  0  0  0  0  0  0  0  0  0  0  # atno 17394 bound_to 11000
  139.9275  135.0201  156.8285 LP  0  0  0  0  0  0  0  0  0  0  0  0  # atno 17395 bound_to 11000

$$$$
