AV-unprocessed.smi:1047|AV-procd|sdf|4573|dock10
  -GOLD-   22720 3 33D 1   1.00000     0.00000
 Structure written by MMmdl.
 56 58  0  0  0  0  0  0  0  0  2 V2000
  144.0361  133.2336  151.8635 C   0  0  0  0  0  0  0  0  0  0  0  0
  142.8104  134.1204  152.1239 C   0  0  0  0  0  0  0  0  0  0  0  0
  142.7908  134.6773  153.5027 N   0  3  2  0  0  0  0  0  0  0  0  0
  141.5532  135.4317  153.8171 C   0  0  0  0  0  0  0  0  0  0  0  0
  141.5846  136.8368  153.1894 C   0  0  0  0  0  0  0  0  0  0  0  0
  142.7434  137.5300  153.6367 O   0  0  0  0  0  0  0  0  0  0  0  0
  143.9524  136.8878  153.2447 C   0  0  1  0  0  0  0  0  0  0  0  0
  145.1193  137.7672  153.7194 C   0  0  0  0  0  0  0  0  0  0  0  0
  145.5718  138.6675  152.6632 N   0  0  0  0  0  0  0  0  0  0  0  0
  146.9299  139.1629  152.8644 C   0  0  0  0  0  0  0  0  0  0  0  0
  146.9656  140.2939  153.9096 C   0  0  2  0  0  0  0  0  0  0  0  0
  145.9349  141.2134  153.6078 O   0  0  0  0  0  0  0  0  0  0  0  0
  148.3120  141.0496  153.9457 C   0  0  0  0  0  0  0  0  0  0  0  0
  149.4000  140.2807  154.5303 N   0  0  0  0  0  0  0  0  0  0  0  0
  149.8775  139.0956  154.1026 C   0  0  0  0  0  0  0  0  0  0  0  0
  150.8842  138.5606  154.7869 N   0  0  0  0  0  0  0  0  0  0  0  0
  151.0776  139.5039  155.7811 C   0  0  0  0  0  0  0  0  0  0  0  0
  152.0037  139.5351  156.8467 C   0  0  0  0  0  0  0  0  0  0  0  0
  152.0216  140.6132  157.7599 C   0  0  0  0  0  0  0  0  0  0  0  0
  153.0342  140.6056  158.8916 C   0  0  0  0  0  0  0  0  0  0  0  0
  151.1026  141.6831  157.6137 C   0  0  0  0  0  0  0  0  0  0  0  0
  151.1025  142.8521  158.5827 C   0  0  0  0  0  0  0  0  0  0  0  0
  150.1713  141.6680  156.5545 C   0  0  0  0  0  0  0  0  0  0  0  0
  150.1636  140.5903  155.6513 C   0  0  0  0  0  0  0  0  0  0  0  0
  143.9885  135.4746  153.8720 C   0  0  0  0  0  0  0  0  0  0  0  0
  143.9637  132.7608  150.8840 H   0  0  0  0  0  0  0  0  0  0  0  0
  144.1142  132.4398  152.6067 H   0  0  0  0  0  0  0  0  0  0  0  0
  144.9656  133.8021  151.8770 H   0  0  0  0  0  0  0  0  0  0  0  0
  142.7520  134.9143  151.3798 H   0  0  0  0  0  0  0  0  0  0  0  0
  141.9225  133.5035  151.9807 H   0  0  0  0  0  0  0  0  0  0  0  0
  140.6704  134.8801  153.4919 H   0  0  0  0  0  0  0  0  0  0  0  0
  141.4734  135.5241  154.9009 H   0  0  0  0  0  0  0  0  0  0  0  0
  141.5699  136.7861  152.0998 H   0  0  0  0  0  0  0  0  0  0  0  0
  140.7012  137.3997  153.4912 H   0  0  0  0  0  0  0  0  0  0  0  0
  143.9795  136.8294  152.1554 H   0  0  0  0  0  0  0  0  0  0  0  0
  144.7932  138.3560  154.5776 H   0  0  0  0  0  0  0  0  0  0  0  0
  145.9423  137.1416  154.0674 H   0  0  0  0  0  0  0  0  0  0  0  0
  144.9316  139.4506  152.5768 H   0  0  0  0  0  0  0  0  0  0  0  0
  147.5522  138.3396  153.2177 H   0  0  0  0  0  0  0  0  0  0  0  0
  147.3651  139.4958  151.9210 H   0  0  0  0  0  0  0  0  0  0  0  0
  146.7793  139.8867  154.9044 H   0  0  0  0  0  0  0  0  0  0  0  0
  145.2190  140.7413  153.2103 H   0  0  0  0  0  0  0  0  0  0  0  0
  148.6030  141.3531  152.9393 H   0  0  0  0  0  0  0  0  0  0  0  0
  148.2011  141.9705  154.5200 H   0  0  0  0  0  0  0  0  0  0  0  0
  149.4650  138.5994  153.2362 H   0  0  0  0  0  0  0  0  0  0  0  0
  152.7030  138.7195  156.9579 H   0  0  0  0  0  0  0  0  0  0  0  0
  152.5294  140.6442  159.8570 H   0  0  0  0  0  0  0  0  0  0  0  0
  153.7003  141.4651  158.8134 H   0  0  0  0  0  0  0  0  0  0  0  0
  153.6473  139.7043  158.8715 H   0  0  0  0  0  0  0  0  0  0  0  0
  150.3481  143.5917  158.3135 H   0  0  0  0  0  0  0  0  0  0  0  0
  152.0726  143.3493  158.5826 H   0  0  0  0  0  0  0  0  0  0  0  0
  150.8886  142.5085  159.5950 H   0  0  0  0  0  0  0  0  0  0  0  0
  149.4660  142.4768  156.4315 H   0  0  0  0  0  0  0  0  0  0  0  0
  144.0083  135.5645  154.9590 H   0  0  0  0  0  0  0  0  0  0  0  0
  144.9039  134.9511  153.5996 H   0  0  0  0  0  0  0  0  0  0  0  0
  142.7841  133.8710  154.1111 H   0  0  0  0  0  0  0  0  0  0  0  0
  1  2  1  0  0  0  0
  1 26  1  0  0  0  0
  1 27  1  0  0  0  0
  1 28  1  0  0  0  0
  2  3  1  0  0  0  0
  2 29  1  0  0  0  0
  2 30  1  0  0  0  0
  3 25  1  0  0  0  0
  3  4  1  0  0  0  0
  3 56  1  0  0  0  0
  4  5  1  0  0  0  0
  4 31  1  0  0  0  0
  4 32  1  0  0  0  0
  5  6  1  0  0  0  0
  5 33  1  0  0  0  0
  5 34  1  0  0  0  0
  6  7  1  0  0  0  0
  7  8  1  0  0  0  0
  7 25  1  0  0  0  0
  7 35  1  0  0  0  0
  8  9  1  0  0  0  0
  8 36  1  0  0  0  0
  8 37  1  0  0  0  0
  9 10  1  0  0  0  0
  9 38  1  0  0  0  0
 10 11  1  0  0  0  0
 10 39  1  0  0  0  0
 10 40  1  0  0  0  0
 11 12  1  0  0  0  0
 11 13  1  0  0  0  0
 11 41  1  0  0  0  0
 12 42  1  0  0  0  0
 13 14  1  0  0  0  0
 13 43  1  0  0  0  0
 13 44  1  0  0  0  0
 14 24  1  0  0  0  0
 14 15  1  0  0  0  0
 15 16  2  0  0  0  0
 15 45  1  0  0  0  0
 16 17  1  0  0  0  0
 17 24  2  0  0  0  0
 17 18  1  0  0  0  0
 18 19  2  0  0  0  0
 18 46  1  0  0  0  0
 19 20  1  0  0  0  0
 19 21  1  0  0  0  0
 20 47  1  0  0  0  0
 20 48  1  0  0  0  0
 20 49  1  0  0  0  0
 21 22  1  0  0  0  0
 21 23  2  0  0  0  0
 22 50  1  0  0  0  0
 22 51  1  0  0  0  0
 22 52  1  0  0  0  0
 23 24  1  0  0  0  0
 23 53  1  0  0  0  0
 25 54  1  0  0  0  0
 25 55  1  0  0  0  0
M  CHG  1   3   1
M  END
> <s_m_source_file>
AV-unprocessed.smi

> <i_m_source_file_index>
1047

> <i_lp_mmshare_version>
43012

> <i_f3d_flags>
0

> <s_epik_input>
W0NIM11bQ0gyXU4xW0NIMl1bQ0gyXU9bQ0BIXShbQ0gyXTEpW0NIMl1bTkhdW0NIMl1bQ0BIXShbT0hdKVtDSDJdbihbY0hdbjIpYyhjMjMpW2NIXWMoW0NIM10pYyhbY0hdMylbQ0gzXQ==

> <s_epik_cmdline>
J2VwaWtfcHl0aG9uJywgJy1waCcsICc3LjAnLCAnLXRuJywgJzgnLCAnLW1hJywgJzIwMCcsICctbWV0YWxfYmluZGluZycsICctaW1hZScsICc8aW5maWxlLm1hZT4nLCAnLW9tYWUnLCAnPG91dGZpbGUubWFlPic=

> <r_epik_Ionization_Penalty>
1.19246

> <r_epik_Ionization_Penalty_Charging>
0.210041

> <r_epik_Ionization_Penalty_Neutral>
0.982415

> <r_epik_State_Penalty>
1.57595

> <r_epik_Charging_Adjusted_Penalty>
1.78599

> <i_epik_Tot_Q>
1

> <i_epik_Tot_abs_Q>
1

> <r_epik_Metal_State_Penalty>
1.46172

> <b_epik_Metal_Only>
0

> <s_lp_Force_Field>
OPLS_2005

> <r_lp_Energy>
32.195

> <b_lp_Chiralities_Consistent>
1

> <s_lp_Variant>
AV-unprocessed.smi:1047-14

> <Gold.Version>
5.8.1

> <Gold.Id.Protein>
6NUR|6NUR_protein|mol2

> <Gold.PLP.Fitness>
55.0215

> <Gold.PLP.PLP>
-41.4339

> <Gold.PLP.part.hbond>
-3.0000

> <Gold.PLP.part.metal>
0.0000

> <Gold.PLP.part.buried>
-5.6232

> <Gold.PLP.part.nonpolar>
-34.1396

> <Gold.PLP.part.repulsive>
0.2473

> <Gold.PLP.ligand.clash>
0.0000

> <Gold.PLP.ligand.torsion>
0.8072

> <Gold.PLP.Chemscore.Hbond>
4.0000

> <Gold.PLP.Chemscore.CHOScore>
1.0164

> <Gold.PLP.Chemscore.Metal>
0.0000

> <Gold.Chemscore.Hbonds>
donor molecule, donor type, donor heavy atom, donor atom, acceptor molecule, acceptor atom, score
      L1  H     3    56       P1 10957  1.11
      L1  H     9    38       P1 10175  1.00
      L1  H    12    42       P1 10175  1.00
      L1  C    15    45       P1  7948  0.46
      L1  C    15    45       P1  7957  0.65

> <Gold.PLP.Chemscore.Internal.Correction>
0.1528

> <Gold.Rescore>
     Score         DG    S(hbond)    S(metal)    S(lipo)     H(rot)  DE(clash)    DE(int)     intcor
     19.59     -20.42       2.81        0.00     105.00       2.62       0.06       0.78       ----

> <Gold.Chemscore.Fitness>
19.5864

> <Gold.Chemscore.DG>
-20.4241

> <Gold.Chemscore.ZeroCoef>
-5.4800

> <Gold.Chemscore.Hbond>
2.8051

> <Gold.Chemscore.Metal>
0.0000

> <Gold.Chemscore.Lipo>
104.9980

> <Gold.Chemscore.Internal_Hbond>
0.0000

> <Gold.Chemscore.DEClash>
0.0566

> <Gold.Chemscore.DEInternal>
0.7811

> <Gold.Chemscore.Rot>
2.6209

> <Gold.Chemscore.Internal.Correction>
   9.000000E+99

> <Gold.Chemscore.Hbonds>
donor molecule, donor type, donor heavy atom, donor atom, acceptor molecule, acceptor atom, score
      L1  H     3    56       P1 10957  0.54
      L1  H     9    38       P1 10175  0.99
      L1  H    12    42       P1 10175  0.78

> <Gold.Chemscore.Hbond.Weighted>
-9.3690

> <Gold.Chemscore.Metal.Weighted>
-0.0000

> <Gold.Chemscore.Lipo.Weighted>
-12.2848

> <Gold.Chemscore.Internal_Hbond.Weighted>
0.0000

> <Gold.Chemscore.DEClash.Weighted>
0.0566

> <Gold.Chemscore.DEInternal.Weighted>
0.7811

> <Gold.Chemscore.Rot.Weighted>
6.7096

> <Gold.Chemscore.Internal.Correction.Weighted>
   9.000000E+99

> <Gold.Protein.RotatedTorsions>
[ 6907 6896 6895 6894 ] final  148.15 input  -60.11 | X-H torsion
[ 7974 7965 7964 7962 ] final   64.32 input  175.53 | X-H torsion
[ 8008 7997 7996 7995 ] final   44.63 input   59.86 | X-H torsion
[ 10167 10162 10161 10158 ] final  136.46 input  -65.29 | X-H torsion
[ 10718 10713 10712 10709 ] final -140.68 input   66.30 | X-H torsion
[ 10763 10752 10751 10750 ] final  135.64 input  -60.55 | X-H torsion
[ 11005 11000 10999 10996 ] final   63.74 input  -57.11 | X-H torsion

> <Gold.Protein.ActiveResidues>
 VAL166  LYS551  ARG553  GLY616  TRP617  ASP618  TYR619  PRO620  LYS621  CYS622 
 ASP623  PHE694  ASN695  SER759  ASP760  ASP761  ALA762  ILE779  LEU786  VAL792 
 PHE793  MET794  SER795  GLU796  ALA797  LYS798  CYS799  TRP800  GLU811  SER814 

> <Gold.Protein.RotatedAtoms>
  152.1453  133.4488  159.4786 H   0  0  0  0  0  0  0  0  0  0  0  0  # atno 6907 bound_to 6896
  150.6890  134.2256  159.4423 H   0  0  0  0  0  0  0  0  0  0  0  0  # atno 6908 bound_to 6896
  152.0149  134.9855  160.0620 H   0  0  0  0  0  0  0  0  0  0  0  0  # atno 6909 bound_to 6896
  145.8516  139.3257  143.0872 H   0  0  0  0  0  0  0  0  0  0  0  0  # atno 7974 bound_to 7965
  155.3226  140.3398  155.4241 H   0  0  0  0  0  0  0  0  0  0  0  0  # atno 8008 bound_to 7997
  156.1902  140.1695  156.8145 H   0  0  0  0  0  0  0  0  0  0  0  0  # atno 8009 bound_to 7997
  154.5432  140.0720  156.8529 H   0  0  0  0  0  0  0  0  0  0  0  0  # atno 8010 bound_to 7997
  139.5179  144.6463  151.5430 H   0  0  0  0  0  0  0  0  0  0  0  0  # atno 10167 bound_to 10162
  156.3252  130.7556  151.1662 H   0  0  0  0  0  0  0  0  0  0  0  0  # atno 10718 bound_to 10713
  153.8433  135.3088  155.3427 H   0  0  0  0  0  0  0  0  0  0  0  0  # atno 10763 bound_to 10752
  154.7923  135.4775  154.0084 H   0  0  0  0  0  0  0  0  0  0  0  0  # atno 10764 bound_to 10752
  153.1562  135.6852  153.8901 H   0  0  0  0  0  0  0  0  0  0  0  0  # atno 10765 bound_to 10752
  140.0004  134.6450  155.9939 H   0  0  0  0  0  0  0  0  0  0  0  0  # atno 11005 bound_to 11000
  145.9351  140.9020  143.0336 LP  0  0  0  0  0  0  0  0  0  0  0  0  # atno 17320 bound_to 7965
  144.6729  140.1472  143.7433 LP  0  0  0  0  0  0  0  0  0  0  0  0  # atno 17321 bound_to 7965
  140.6249  143.9187  150.6556 LP  0  0  0  0  0  0  0  0  0  0  0  0  # atno 17342 bound_to 10162
  140.2473  143.3619  152.1436 LP  0  0  0  0  0  0  0  0  0  0  0  0  # atno 17343 bound_to 10162
  157.7420  131.0496  150.5058 LP  0  0  0  0  0  0  0  0  0  0  0  0  # atno 17370 bound_to 10713
  156.5216  130.4163  149.6247 LP  0  0  0  0  0  0  0  0  0  0  0  0  # atno 17371 bound_to 10713
  141.1638  133.6537  156.4408 LP  0  0  0  0  0  0  0  0  0  0  0  0  # atno 17394 bound_to 11000
  140.4738  134.6728  157.5141 LP  0  0  0  0  0  0  0  0  0  0  0  0  # atno 17395 bound_to 11000

$$$$
