#       Name:                AV-unprocessed.smi:1145
#       Creating user name   scv26
#       Creation time:       Fri Mar 27 03:45:39 2020


#       File generated by GOLD software.
#

@<TRIPOS>MOLECULE
AV-unprocessed.smi:1145
    41    42     1
SMALL
NO_CHARGES


@<TRIPOS>ATOM
      1 ****         0.7657  -3.0434  -2.2237 C.3            1 S1                 0.0000
      2 ****         0.7788  -2.3003  -0.8809 C.3            1 S1                 0.0000
      3 ****         2.2189  -2.1147  -0.3561 C.3            1 S1                 0.0000
      4 ****         2.2634  -1.5457   0.9794 N.pl3          1 S1                 0.0000
      5 ****         2.5864  -0.2576   1.3517 C.2            1 S1                 0.0000
      6 ****         2.4728  -0.1868   2.7103 C.2            1 S1                 0.0000
      7 ****         2.0750  -1.5008   3.0846 C.2            1 S1                 0.0000
      8 ****         1.9547  -2.3131   2.0469 N.2            1 S1                 0.0000
      9 ****         0.1172  -1.0066  -1.0481 N.am           1 S1                 0.0000
     10 ****        -0.7259  -0.4371  -0.1717 C.2            1 S1                 0.0000
     11 ****        -1.0693  -0.9714   0.8833 O.2            1 S1                 0.0000
     12 ****        -1.2428   0.9611  -0.5339 C.3            1 S1                 0.0000
     13 ****        -0.7465   2.0041   0.4805 C.3            1 S1                 0.0000
     14 ****        -1.2087   3.4171   0.0902 C.3            1 S1                 0.0000
     15 ****        -2.6911   3.4872  -0.3060 C.2            1 S1                 0.0000
     16 ****        -3.2599   4.5763  -0.3273 O.2            1 S1                 0.0000
     17 ****        -3.3266   2.3557  -0.6581 N.am           1 S1                 0.0000
     18 ****        -2.7851   0.9981  -0.5900 C.3            1 S1                 0.0000
     19 ****         1.2251  -4.0280  -2.1313 H              1 S1                 0.0000
     20 ****         1.3127  -2.4922  -2.9895 H              1 S1                 0.0000
     21 ****        -0.2539  -3.1896  -2.5816 H              1 S1                 0.0000
     22 ****         0.2218  -2.9135  -0.1700 H              1 S1                 0.0000
     23 ****         2.7356  -3.0753  -0.3296 H              1 S1                 0.0000
     24 ****         2.7911  -1.4734  -1.0280 H              1 S1                 0.0000
     25 ****         2.8586   0.4946   0.6260 H              1 S1                 0.0000
     26 ****         2.6457   0.6726   3.3410 H              1 S1                 0.0000
     27 ****         1.8717  -1.8862   4.0729 H              1 S1                 0.0000
     28 ****         0.3393  -0.4915  -1.8877 H              1 S1                 0.0000
     29 ****        -0.8557   1.2328  -1.5180 H              1 S1                 0.0000
     30 ****        -1.1162   1.7653   1.4792 H              1 S1                 0.0000
     31 ****         0.3424   1.9834   0.5438 H              1 S1                 0.0000
     32 ****        -1.0168   4.1121   0.9083 H              1 S1                 0.0000
     33 ****        -0.6245   3.7683  -0.7608 H              1 S1                 0.0000
     34 ****        -4.2918   2.4387  -0.9434 H              1 S1                 0.0000
     35 ****        -3.1433   0.4370  -1.4536 H              1 S1                 0.0000
     36 ****        -3.2171   0.5224   0.2918 H              1 S1                 0.0000
     37 ****         1.6937  -3.2784   2.0520 LP             1 S1                 0.0000
     38 ****        -0.7168  -1.8758   1.1237 LP             1 S1                 0.0000
     39 ****        -1.7008  -0.5009   1.4996 LP             1 S1                 0.0000
     40 ****        -2.7579   5.4074  -0.0879 LP             1 S1                 0.0000
     41 ****        -4.2249   4.6315  -0.5840 LP             1 S1                 0.0000
@<TRIPOS>BOND
    1    1    2 1     
    2    1   19 1     
    3    1   20 1     
    4    1   21 1     
    5    2    3 1     
    6    2    9 1     
    7    2   22 1     
    8    3    4 1     
    9    3   23 1     
   10    3   24 1     
   11    4    8 1     
   12    4    5 1     
   13    5    6 2     
   14    5   25 1     
   15    6    7 1     
   16    6   26 1     
   17    7    8 2     
   18    7   27 1     
   19    9   10 am    
   20    9   28 1     
   21   10   11 2     
   22   10   12 1     
   23   12   18 1     
   24   12   13 1     
   25   12   29 1     
   26   13   14 1     
   27   13   30 1     
   28   13   31 1     
   29   14   15 1     
   30   14   32 1     
   31   14   33 1     
   32   15   16 2     
   33   15   17 am    
   34   17   18 1     
   35   17   34 1     
   36   18   35 1     
   37   18   36 1     
   38    8   37 1     
   39   11   38 1     
   40   11   39 1     
   41   16   40 1     
   42   16   41 1     
@<TRIPOS>SUBSTRUCTURE
      1 S1             1
@<TRIPOS>SET
LONE_PAIRS      STATIC     ATOMS    <user>   **** ""
5 37 38 39 40 41
DONOR_HYDROGENS      STATIC     ATOMS    <user>   **** ""
2 28 34
ATOM$BLUE        STATIC     ATOMS    COLORGROUP SYSTEM
5 37 38 39 40 41
ATOM$RED        STATIC     ATOMS    COLORGROUP SYSTEM
2 28 34
