AV-unprocessed.smi:2930|AV-procd|sdf|11240|dock8
  -GOLD-   2272016133D 1   1.00000     0.00000
 Structure written by MMmdl.
 40 41  0  0  0  0  0  0  0  0  1 V2000
  148.4106  141.2610  153.9063 C   0  0  0  0  0  0  0  0  0  0  0  0
  147.0842  141.1033  154.6624 C   0  0  2  0  0  0  0  0  0  0  0  0
  146.2269  140.1692  153.9369 N   0  0  0  0  0  0  0  0  0  0  0  0
  146.5255  138.8939  153.6500 C   0  0  0  0  0  0  0  0  0  0  0  0
  147.5861  138.3544  153.9642 O   0  0  0  0  0  0  0  0  0  0  0  0
  145.5270  138.3050  152.9704 N   0  0  0  0  0  0  0  0  0  0  0  0
  145.4424  136.9636  152.5107 C   0  0  0  0  0  0  0  0  0  0  0  0
  146.4196  135.9622  152.7247 C   0  0  0  0  0  0  0  0  0  0  0  0
  146.2538  134.7021  152.2695 N   0  0  0  0  0  0  0  0  0  0  0  0
  145.1251  134.4206  151.6053 C   0  0  0  0  0  0  0  0  0  0  0  0
  144.9628  133.1139  151.1362 N   0  0  0  0  0  0  0  0  0  0  0  0
  145.8481  132.0381  151.5731 C   0  0  0  0  0  0  0  0  0  0  0  0
  143.9097  132.7787  150.1820 C   0  0  0  0  0  0  0  0  0  0  0  0
  144.1374  135.2916  151.3593 N   0  0  0  0  0  0  0  0  0  0  0  0
  144.2902  136.5542  151.8106 C   0  0  0  0  0  0  0  0  0  0  0  0
  146.3659  142.4416  154.8471 C   0  0  0  0  0  0  0  0  0  0  0  0
  144.9103  142.4697  155.3386 C   0  0  0  0  0  0  0  0  0  0  0  0
  144.6820  143.6966  154.4514 C   0  0  0  0  0  0  0  0  0  0  0  0
  145.8866  143.2405  153.6245 C   0  0  0  0  0  0  0  0  0  0  0  0
  149.0908  141.9255  154.4397 H   0  0  0  0  0  0  0  0  0  0  0  0
  148.2537  141.6765  152.9102 H   0  0  0  0  0  0  0  0  0  0  0  0
  148.9139  140.3004  153.7922 H   0  0  0  0  0  0  0  0  0  0  0  0
  147.3222  140.6858  155.6424 H   0  0  0  0  0  0  0  0  0  0  0  0
  145.3318  140.5235  153.6334 H   0  0  0  0  0  0  0  0  0  0  0  0
  144.7490  138.8981  152.7216 H   0  0  0  0  0  0  0  0  0  0  0  0
  147.3309  136.1400  153.2736 H   0  0  0  0  0  0  0  0  0  0  0  0
  145.7862  131.9104  152.6542 H   0  0  0  0  0  0  0  0  0  0  0  0
  146.8817  132.2669  151.3117 H   0  0  0  0  0  0  0  0  0  0  0  0
  145.5919  131.0850  151.1106 H   0  0  0  0  0  0  0  0  0  0  0  0
  144.0448  133.3396  149.2567 H   0  0  0  0  0  0  0  0  0  0  0  0
  142.9303  133.0245  150.5935 H   0  0  0  0  0  0  0  0  0  0  0  0
  143.9077  131.7179  149.9315 H   0  0  0  0  0  0  0  0  0  0  0  0
  143.4837  137.2437  151.6075 H   0  0  0  0  0  0  0  0  0  0  0  0
  146.9531  143.1071  155.4840 H   0  0  0  0  0  0  0  0  0  0  0  0
  144.3354  141.6016  155.0117 H   0  0  0  0  0  0  0  0  0  0  0  0
  144.7930  142.6497  156.4077 H   0  0  0  0  0  0  0  0  0  0  0  0
  143.7343  143.7021  153.9126 H   0  0  0  0  0  0  0  0  0  0  0  0
  144.8592  144.6375  154.9747 H   0  0  0  0  0  0  0  0  0  0  0  0
  146.5582  144.0407  153.3116 H   0  0  0  0  0  0  0  0  0  0  0  0
  145.6023  142.6035  152.7852 H   0  0  0  0  0  0  0  0  0  0  0  0
  1  2  1  0  0  0  0
  1 20  1  0  0  0  0
  1 21  1  0  0  0  0
  1 22  1  0  0  0  0
  2  3  1  0  0  0  0
  2 16  1  0  0  0  0
  2 23  1  0  0  0  0
  3  4  1  0  0  0  0
  3 24  1  0  0  0  0
  4  5  2  0  0  0  0
  4  6  1  0  0  0  0
  6  7  1  0  0  0  0
  6 25  1  0  0  0  0
  7 15  1  0  0  0  0
  7  8  2  0  0  0  0
  8  9  1  0  0  0  0
  8 26  1  0  0  0  0
  9 10  2  0  0  0  0
 10 11  1  0  0  0  0
 10 14  1  0  0  0  0
 11 12  1  0  0  0  0
 11 13  1  0  0  0  0
 12 27  1  0  0  0  0
 12 28  1  0  0  0  0
 12 29  1  0  0  0  0
 13 30  1  0  0  0  0
 13 31  1  0  0  0  0
 13 32  1  0  0  0  0
 14 15  2  0  0  0  0
 15 33  1  0  0  0  0
 16 19  1  0  0  0  0
 16 17  1  0  0  0  0
 16 34  1  0  0  0  0
 17 18  1  0  0  0  0
 17 35  1  0  0  0  0
 17 36  1  0  0  0  0
 18 19  1  0  0  0  0
 18 37  1  0  0  0  0
 18 38  1  0  0  0  0
 19 39  1  0  0  0  0
 19 40  1  0  0  0  0
M  END
> <s_m_source_file>
AV-unprocessed.smi

> <i_m_source_file_index>
2930

> <i_lp_mmshare_version>
43012

> <i_f3d_flags>
0

> <s_epik_input>
W0NIMl0xW0NIMl1bQ0gyXVtDSF0xW0NASF0oW0NIM10pW05IXUMoPU8pW05IXWMyW2NIXW5jKE4oW0NIM10pW0NIM10pbltjSF0y

> <s_epik_cmdline>
J2VwaWtfcHl0aG9uJywgJy1waCcsICc3LjAnLCAnLXRuJywgJzgnLCAnLW1hJywgJzIwMCcsICctbWV0YWxfYmluZGluZycsICctaW1hZScsICc8aW5maWxlLm1hZT4nLCAnLW9tYWUnLCAnPG91dGZpbGUubWFlPic=

> <r_lp_tautomer_probability>
1

> <r_epik_Ionization_Penalty>
0.000323856

> <r_epik_Ionization_Penalty_Charging>
0

> <r_epik_Ionization_Penalty_Neutral>
0.000323856

> <r_epik_State_Penalty>
-0

> <r_epik_Charging_Adjusted_Penalty>
0

> <i_epik_Tot_Q>
0

> <i_epik_Tot_abs_Q>
0

> <r_epik_Metal_State_Penalty>
-0

> <b_epik_Metal_Only>
0

> <s_lp_Force_Field>
OPLS_2005

> <r_lp_Energy>
8.18879

> <b_lp_Chiralities_Consistent>
1

> <s_lp_Variant>
AV-unprocessed.smi:2930-1

> <Gold.Version>
5.8.1

> <Gold.Id.Protein>
6NUR|6NUR_protein|mol2

> <Gold.PLP.Fitness>
38.0715

> <Gold.PLP.PLP>
-28.5581

> <Gold.PLP.part.hbond>
-2.0000

> <Gold.PLP.part.metal>
0.0000

> <Gold.PLP.part.buried>
-0.3607

> <Gold.PLP.part.nonpolar>
-26.5916

> <Gold.PLP.part.repulsive>
0.4463

> <Gold.PLP.ligand.clash>
0.0000

> <Gold.PLP.ligand.torsion>
0.1504

> <Gold.PLP.Chemscore.Hbond>
2.0000

> <Gold.PLP.Chemscore.CHOScore>
1.2331

> <Gold.PLP.Chemscore.Metal>
0.0000

> <Gold.Chemscore.Hbonds>
donor molecule, donor type, donor heavy atom, donor atom, acceptor molecule, acceptor atom, score
      L1  H     3    24       P1 10175  1.00
      L1  H     6    25       P1 10175  1.00
      L1  C     8    26       P1  7948  0.55
      L1  C    15    33       P1 10171  0.69

> <Gold.PLP.Chemscore.Internal.Correction>
0.1148

> <Gold.Rescore>
     Score         DG    S(hbond)    S(metal)    S(lipo)     H(rot)  DE(clash)    DE(int)     intcor
     13.04     -16.35       1.89        0.00      65.03       1.19       1.82       1.49       ----

> <Gold.Chemscore.Fitness>
13.0376

> <Gold.Chemscore.DG>
-16.3456

> <Gold.Chemscore.ZeroCoef>
-5.4800

> <Gold.Chemscore.Hbond>
1.8910

> <Gold.Chemscore.Metal>
0.0000

> <Gold.Chemscore.Lipo>
65.0294

> <Gold.Chemscore.Internal_Hbond>
0.0000

> <Gold.Chemscore.DEClash>
1.8204

> <Gold.Chemscore.DEInternal>
1.4875

> <Gold.Chemscore.Rot>
1.1949

> <Gold.Chemscore.Internal.Correction>
   9.000000E+99

> <Gold.Chemscore.Hbonds>
donor molecule, donor type, donor heavy atom, donor atom, acceptor molecule, acceptor atom, score
      L1  H     3    24       P1 10175  0.91
      L1  H     6    25       P1 10175  1.00

> <Gold.Chemscore.Hbond.Weighted>
-6.3161

> <Gold.Chemscore.Metal.Weighted>
-0.0000

> <Gold.Chemscore.Lipo.Weighted>
-7.6084

> <Gold.Chemscore.Internal_Hbond.Weighted>
0.0000

> <Gold.Chemscore.DEClash.Weighted>
1.8204

> <Gold.Chemscore.DEInternal.Weighted>
1.4875

> <Gold.Chemscore.Rot.Weighted>
3.0590

> <Gold.Chemscore.Internal.Correction.Weighted>
   9.000000E+99

> <Gold.Protein.RotatedTorsions>
[ 6907 6896 6895 6894 ] final   99.98 input  -60.11 | X-H torsion
[ 7974 7965 7964 7962 ] final   76.86 input  175.53 | X-H torsion
[ 8008 7997 7996 7995 ] final    8.49 input   59.86 | X-H torsion
[ 10167 10162 10161 10158 ] final -107.33 input  -65.29 | X-H torsion
[ 10718 10713 10712 10709 ] final   75.54 input   66.30 | X-H torsion
[ 10763 10752 10751 10750 ] final  128.53 input  -60.55 | X-H torsion
[ 11005 11000 10999 10996 ] final  117.66 input  -57.11 | X-H torsion

> <Gold.Protein.ActiveResidues>
 VAL166  LYS551  ARG553  GLY616  TRP617  ASP618  TYR619  PRO620  LYS621  CYS622 
 ASP623  PHE694  ASN695  SER759  ASP760  ASP761  ALA762  ILE779  LEU786  VAL792 
 PHE793  MET794  SER795  GLU796  ALA797  LYS798  CYS799  TRP800  GLU811  SER814 

> <Gold.Protein.RotatedAtoms>
  152.5381  134.0346  159.8039 H   0  0  0  0  0  0  0  0  0  0  0  0  # atno 6907 bound_to 6896
  151.0512  133.5615  159.2649 H   0  0  0  0  0  0  0  0  0  0  0  0  # atno 6908 bound_to 6896
  151.2549  135.0642  159.9130 H   0  0  0  0  0  0  0  0  0  0  0  0  # atno 6909 bound_to 6896
  145.6974  139.2572  143.1724 H   0  0  0  0  0  0  0  0  0  0  0  0  # atno 7974 bound_to 7965
  154.7676  140.2796  155.6164 H   0  0  0  0  0  0  0  0  0  0  0  0  # atno 8008 bound_to 7997
  156.2927  140.2648  156.2397 H   0  0  0  0  0  0  0  0  0  0  0  0  # atno 8009 bound_to 7997
  154.9940  140.0373  157.2321 H   0  0  0  0  0  0  0  0  0  0  0  0  # atno 8010 bound_to 7997
  140.1782  143.3988  152.1302 H   0  0  0  0  0  0  0  0  0  0  0  0  # atno 10167 bound_to 10162
  157.6638  130.9731  150.1368 H   0  0  0  0  0  0  0  0  0  0  0  0  # atno 10718 bound_to 10713
  153.7270  135.3244  155.3278 H   0  0  0  0  0  0  0  0  0  0  0  0  # atno 10763 bound_to 10752
  154.8338  135.4513  154.1160 H   0  0  0  0  0  0  0  0  0  0  0  0  # atno 10764 bound_to 10752
  153.2296  135.6958  153.7985 H   0  0  0  0  0  0  0  0  0  0  0  0  # atno 10765 bound_to 10752
  139.9082  134.9612  156.7385 H   0  0  0  0  0  0  0  0  0  0  0  0  # atno 11005 bound_to 11000
  146.0828  140.7745  142.9633 LP  0  0  0  0  0  0  0  0  0  0  0  0  # atno 17320 bound_to 7965
  144.6978  140.3515  143.7181 LP  0  0  0  0  0  0  0  0  0  0  0  0  # atno 17321 bound_to 7965
  139.5308  144.7156  151.5064 LP  0  0  0  0  0  0  0  0  0  0  0  0  # atno 17342 bound_to 10162
  140.6537  143.8643  150.6813 LP  0  0  0  0  0  0  0  0  0  0  0  0  # atno 17343 bound_to 10162
  156.2201  130.3673  149.8566 LP  0  0  0  0  0  0  0  0  0  0  0  0  # atno 17370 bound_to 10713
  156.6422  130.8709  151.3516 LP  0  0  0  0  0  0  0  0  0  0  0  0  # atno 17371 bound_to 10713
  140.6868  133.9425  155.7943 LP  0  0  0  0  0  0  0  0  0  0  0  0  # atno 17394 bound_to 11000
  141.0470  134.0539  157.3831 LP  0  0  0  0  0  0  0  0  0  0  0  0  # atno 17395 bound_to 11000

$$$$
