AV-unprocessed.smi:37|AV-procd|sdf|313|dock8
  -GOLD-   2262016133D 1   1.00000     0.00000
 Structure written by MMmdl.
 44 45  0  0  0  0  0  0  0  0  1 V2000
  146.9772  134.6564  162.5419 C   0  0  0  0  0  0  0  0  0  0  0  0
  147.3735  136.1233  162.3180 C   0  0  0  0  0  0  0  0  0  0  0  0
  147.3952  136.5321  160.8438 C   0  0  0  0  0  0  0  0  0  0  0  0
  146.6645  137.4166  160.3943 O   0  0  0  0  0  0  0  0  0  0  0  0
  148.2849  135.8150  160.1387 O   0  0  0  0  0  0  0  0  0  0  0  0
  148.3611  135.9568  158.7277 C   0  0  0  0  0  0  0  0  0  0  0  0
  149.4539  136.9804  158.3844 C   0  0  2  0  0  0  0  0  0  0  0  0
  148.8947  138.2372  158.0017 O   0  0  0  0  0  0  0  0  0  0  0  0
  149.6458  138.8217  156.9748 C   0  0  2  0  0  0  0  0  0  0  0  0
  148.8145  138.8818  155.7070 N   0  0  0  0  0  0  0  0  0  0  0  0
  147.4759  138.5057  155.6706 C   0  0  0  0  0  0  0  0  0  0  0  0
  146.7339  138.5276  154.5385 C   0  0  0  0  0  0  0  0  0  0  0  0
  145.4479  138.1401  154.5806 F   0  0  0  0  0  0  0  0  0  0  0  0
  147.3168  138.9648  153.2738 C   0  0  0  0  0  0  0  0  0  0  0  0
  146.7266  139.0164  152.1968 O   0  0  0  0  0  0  0  0  0  0  0  0
  148.6596  139.3429  153.3580 N   0  0  0  0  0  0  0  0  0  0  0  0
  149.4363  139.3221  154.5174 C   0  0  0  0  0  0  0  0  0  0  0  0
  150.6154  139.6712  154.4752 O   0  0  0  0  0  0  0  0  0  0  0  0
  150.8818  137.9356  156.7567 C   0  0  1  0  0  0  0  0  0  0  0  0
  152.3690  138.5700  157.9206 Br  0  0  0  0  0  0  0  0  0  0  0  0
  150.4014  136.5818  157.2467 C   0  0  2  0  0  0  0  0  0  0  0  0
  149.6823  135.9049  156.2214 O   0  0  0  0  0  0  0  0  0  0  0  0
  149.5031  134.5750  156.2664 C   0  0  0  0  0  0  0  0  0  0  0  0
  149.8809  133.8250  157.1661 O   0  0  0  0  0  0  0  0  0  0  0  0
  148.7800  134.0409  155.0319 C   0  0  0  0  0  0  0  0  0  0  0  0
  149.5779  132.9424  154.3154 C   0  0  0  0  0  0  0  0  0  0  0  0
  149.1055  139.6549  152.5074 H   0  0  0  0  0  0  0  0  0  0  0  0
  146.9920  134.4133  163.6043 H   0  0  0  0  0  0  0  0  0  0  0  0
  147.6663  133.9768  162.0391 H   0  0  0  0  0  0  0  0  0  0  0  0
  145.9714  134.4545  162.1718 H   0  0  0  0  0  0  0  0  0  0  0  0
  146.6807  136.7767  162.8487 H   0  0  0  0  0  0  0  0  0  0  0  0
  148.3626  136.3024  162.7404 H   0  0  0  0  0  0  0  0  0  0  0  0
  148.5826  135.0049  158.2438 H   0  0  0  0  0  0  0  0  0  0  0  0
  147.3951  136.2914  158.3492 H   0  0  0  0  0  0  0  0  0  0  0  0
  150.0526  137.1668  159.2771 H   0  0  0  0  0  0  0  0  0  0  0  0
  149.8755  139.8608  157.2179 H   0  0  0  0  0  0  0  0  0  0  0  0
  146.9828  138.1685  156.5690 H   0  0  0  0  0  0  0  0  0  0  0  0
  151.2373  137.9413  155.7259 H   0  0  0  0  0  0  0  0  0  0  0  0
  151.2180  135.9576  157.6128 H   0  0  0  0  0  0  0  0  0  0  0  0
  147.8051  133.6576  155.3338 H   0  0  0  0  0  0  0  0  0  0  0  0
  148.5964  134.8690  154.3470 H   0  0  0  0  0  0  0  0  0  0  0  0
  149.0682  132.6303  153.4041 H   0  0  0  0  0  0  0  0  0  0  0  0
  149.6941  132.0587  154.9439 H   0  0  0  0  0  0  0  0  0  0  0  0
  150.5724  133.2915  154.0353 H   0  0  0  0  0  0  0  0  0  0  0  0
  1  2  1  0  0  0  0
  1 28  1  0  0  0  0
  1 29  1  0  0  0  0
  1 30  1  0  0  0  0
  2  3  1  0  0  0  0
  2 31  1  0  0  0  0
  2 32  1  0  0  0  0
  3  4  2  0  0  0  0
  3  5  1  0  0  0  0
  5  6  1  0  0  0  0
  6  7  1  0  0  0  0
  6 33  1  0  0  0  0
  6 34  1  0  0  0  0
  7 21  1  0  0  0  0
  7  8  1  0  0  0  0
  7 35  1  0  0  0  0
  8  9  1  0  0  0  0
  9 10  1  0  0  0  0
  9 19  1  0  0  0  0
  9 36  1  0  0  0  0
 10 17  1  0  0  0  0
 10 11  1  0  0  0  0
 11 12  2  0  0  0  0
 11 37  1  0  0  0  0
 12 13  1  0  0  0  0
 12 14  1  0  0  0  0
 14 15  2  0  0  0  0
 14 16  1  0  0  0  0
 16 27  1  0  0  0  0
 16 17  1  0  0  0  0
 17 18  2  0  0  0  0
 19 20  1  0  0  0  0
 19 21  1  0  0  0  0
 19 38  1  0  0  0  0
 21 22  1  0  0  0  0
 21 39  1  0  0  0  0
 22 23  1  0  0  0  0
 23 24  2  0  0  0  0
 23 25  1  0  0  0  0
 25 26  1  0  0  0  0
 25 40  1  0  0  0  0
 25 41  1  0  0  0  0
 26 42  1  0  0  0  0
 26 43  1  0  0  0  0
 26 44  1  0  0  0  0
M  END
> <s_m_source_file>
AV-unprocessed.smi

> <i_m_source_file_index>
37

> <i_lp_mmshare_version>
43012

> <i_f3d_flags>
0

> <s_epik_input>
W0NIM11bQ0gyXUMoPU8pT1tDSDJdW0NAQEhdMU9bQ0BASF0objJbY0hdYyhGKWMoPU8pW25IXWMyPU8pW0NAQEhdKEJyKVtDQEhdMU9DKD1PKVtDSDJdW0NIM10=

> <s_epik_cmdline>
J2VwaWtfcHl0aG9uJywgJy1waCcsICc3LjAnLCAnLXRuJywgJzgnLCAnLW1hJywgJzIwMCcsICctbWV0YWxfYmluZGluZycsICctaW1hZScsICc8aW5maWxlLm1hZT4nLCAnLW9tYWUnLCAnPG91dGZpbGUubWFlPic=

> <r_lp_tautomer_probability>
0.999537

> <r_epik_Ionization_Penalty>
0.104106

> <r_epik_Ionization_Penalty_Charging>
0.104106

> <r_epik_Ionization_Penalty_Neutral>
3.94675e-16

> <r_epik_State_Penalty>
0.0940182

> <r_epik_Charging_Adjusted_Penalty>
0.198124

> <i_epik_Tot_Q>
0

> <i_epik_Tot_abs_Q>
0

> <r_epik_Metal_State_Penalty>
3.05314

> <b_epik_Metal_Only>
0

> <s_epik_Chemistry_Notes>
This compound has an ester and may undergo hydrolysis at high or low pH. This compound contains an acetal/aminal-like group ( X-CH(R)-Y where X, Y are N, S, or O) that may be acid/base labile, releasing an aldehyde.

> <s_lp_Force_Field>
OPLS_2005

> <r_lp_Energy>
21.1206

> <b_lp_Chiralities_Consistent>
1

> <s_lp_Variant>
AV-unprocessed.smi:37-11

> <Gold.Version>
5.8.1

> <Gold.Id.Protein>
6NUR|6NUR_protein|mol2

> <Gold.PLP.Fitness>
42.2484

> <Gold.PLP.PLP>
-32.7500

> <Gold.PLP.part.hbond>
-4.0277

> <Gold.PLP.part.metal>
0.0000

> <Gold.PLP.part.buried>
-7.7267

> <Gold.PLP.part.nonpolar>
-22.3720

> <Gold.PLP.part.repulsive>
0.5569

> <Gold.PLP.ligand.clash>
0.0000

> <Gold.PLP.ligand.torsion>
1.2334

> <Gold.PLP.Chemscore.Hbond>
3.9280

> <Gold.PLP.Chemscore.CHOScore>
0.0000

> <Gold.PLP.Chemscore.Metal>
0.0000

> <Gold.Chemscore.Hbonds>
donor molecule, donor type, donor heavy atom, donor atom, acceptor molecule, acceptor atom, score
      L1  H    16    27       P1  7957  0.89
      P1  H  6896  6907       L1    24  0.33
      P1  H  6934  6947       L1     4  1.00
      P1  H  7989  7998       L1    18  1.00

> <Gold.PLP.Chemscore.Internal.Correction>
0.1813

> <Gold.Rescore>
     Score         DG    S(hbond)    S(metal)    S(lipo)     H(rot)  DE(clash)    DE(int)     intcor
     13.30     -15.99       3.92        0.00      50.90       3.33       0.01       2.68       ----

> <Gold.Chemscore.Fitness>
13.3016

> <Gold.Chemscore.DG>
-15.9877

> <Gold.Chemscore.ZeroCoef>
-5.4800

> <Gold.Chemscore.Hbond>
3.9155

> <Gold.Chemscore.Metal>
0.0000

> <Gold.Chemscore.Lipo>
50.9018

> <Gold.Chemscore.Internal_Hbond>
0.0000

> <Gold.Chemscore.DEClash>
0.0106

> <Gold.Chemscore.DEInternal>
2.6755

> <Gold.Chemscore.Rot>
3.3303

> <Gold.Chemscore.Internal.Correction>
   9.000000E+99

> <Gold.Chemscore.Hbonds>
donor molecule, donor type, donor heavy atom, donor atom, acceptor molecule, acceptor atom, score
      L1  H    16    27       P1  7957  0.86
      P1  H  6896  6907       L1    24  0.33
      P1  H  6934  6947       L1     4  0.82
      P1  H  7989  7998       L1    18  1.00

> <Gold.Chemscore.Hbond.Weighted>
-13.0777

> <Gold.Chemscore.Metal.Weighted>
-0.0000

> <Gold.Chemscore.Lipo.Weighted>
-5.9555

> <Gold.Chemscore.Internal_Hbond.Weighted>
0.0000

> <Gold.Chemscore.DEClash.Weighted>
0.0106

> <Gold.Chemscore.DEInternal.Weighted>
2.6755

> <Gold.Chemscore.Rot.Weighted>
8.5256

> <Gold.Chemscore.Internal.Correction.Weighted>
   9.000000E+99

> <Gold.Protein.RotatedTorsions>
[ 6907 6896 6895 6894 ] final -128.17 input  -60.11 | X-H torsion
[ 7974 7965 7964 7962 ] final -125.47 input  175.53 | X-H torsion
[ 8008 7997 7996 7995 ] final  -43.16 input   59.86 | X-H torsion
[ 10167 10162 10161 10158 ] final  -31.85 input  -65.29 | X-H torsion
[ 10718 10713 10712 10709 ] final  171.54 input   66.30 | X-H torsion
[ 10763 10752 10751 10750 ] final   74.81 input  -60.55 | X-H torsion
[ 11005 11000 10999 10996 ] final  -25.22 input  -57.11 | X-H torsion

> <Gold.Protein.ActiveResidues>
 VAL166  LYS551  ARG553  GLY616  TRP617  ASP618  TYR619  PRO620  LYS621  CYS622 
 ASP623  PHE694  ASN695  SER759  ASP760  ASP761  ALA762  ILE779  LEU786  VAL792 
 PHE793  MET794  SER795  GLU796  ALA797  LYS798  CYS799  TRP800  GLU811  SER814 

> <Gold.Protein.RotatedAtoms>
  150.9151  133.6949  159.2845 H   0  0  0  0  0  0  0  0  0  0  0  0  # atno 6907 bound_to 6896
  151.4423  135.1020  159.9683 H   0  0  0  0  0  0  0  0  0  0  0  0  # atno 6908 bound_to 6896
  152.4950  133.8556  159.7279 H   0  0  0  0  0  0  0  0  0  0  0  0  # atno 6909 bound_to 6896
  144.9973  140.7787  143.4518 H   0  0  0  0  0  0  0  0  0  0  0  0  # atno 7974 bound_to 7965
  154.3997  140.1455  156.3474 H   0  0  0  0  0  0  0  0  0  0  0  0  # atno 8008 bound_to 7997
  155.8301  140.3466  155.5546 H   0  0  0  0  0  0  0  0  0  0  0  0  # atno 8009 bound_to 7997
  155.8197  140.0896  157.1846 H   0  0  0  0  0  0  0  0  0  0  0  0  # atno 8010 bound_to 7997
  140.7230  143.3739  151.1726 H   0  0  0  0  0  0  0  0  0  0  0  0  # atno 10167 bound_to 10162
  156.9920  131.0150  151.2854 H   0  0  0  0  0  0  0  0  0  0  0  0  # atno 10718 bound_to 10713
  153.0612  135.5012  154.8097 H   0  0  0  0  0  0  0  0  0  0  0  0  # atno 10763 bound_to 10752
  154.6885  135.2980  154.9516 H   0  0  0  0  0  0  0  0  0  0  0  0  # atno 10764 bound_to 10752
  154.0278  135.6733  153.4831 H   0  0  0  0  0  0  0  0  0  0  0  0  # atno 10765 bound_to 10752
  140.8918  133.7583  156.0430 H   0  0  0  0  0  0  0  0  0  0  0  0  # atno 11005 bound_to 11000
  145.2202  139.2162  143.5097 LP  0  0  0  0  0  0  0  0  0  0  0  0  # atno 17320 bound_to 7965
  146.3444  140.2059  142.8589 LP  0  0  0  0  0  0  0  0  0  0  0  0  # atno 17321 bound_to 7965
  139.7316  143.9064  152.3021 LP  0  0  0  0  0  0  0  0  0  0  0  0  # atno 17342 bound_to 10162
  139.8855  144.6994  150.8829 LP  0  0  0  0  0  0  0  0  0  0  0  0  # atno 17343 bound_to 10162
  157.5451  130.8145  149.8076 LP  0  0  0  0  0  0  0  0  0  0  0  0  # atno 17370 bound_to 10713
  156.0203  130.3798  150.1982 LP  0  0  0  0  0  0  0  0  0  0  0  0  # atno 17371 bound_to 10713
  140.8338  134.3147  157.5339 LP  0  0  0  0  0  0  0  0  0  0  0  0  # atno 17394 bound_to 11000
  139.8730  134.9378  156.3697 LP  0  0  0  0  0  0  0  0  0  0  0  0  # atno 17395 bound_to 11000

$$$$
