AV-unprocessed.smi:1196|AV-procd|sdf|5006|dock8
  -GOLD-   22720 4 23D 1   1.00000     0.00000
 Structure written by MMmdl.
 36 37  0  0  0  0  0  0  0  0  2 V2000
  144.7746  137.2360  153.0638 C   0  0  0  0  0  0  0  0  0  0  0  0
  145.2758  135.9429  152.4071 C   0  0  2  0  0  0  0  0  0  0  0  0
  144.1995  134.8369  152.4511 C   0  0  0  0  0  0  0  0  0  0  0  0
  144.5195  133.7089  151.5933 N   0  0  0  0  0  0  0  0  0  0  0  0
  143.7048  133.0630  150.6874 C   0  0  0  0  0  0  0  0  0  0  0  0
  144.4485  132.0786  150.1022 C   0  0  0  0  0  0  0  0  0  0  0  0
  145.7220  132.2018  150.7249 C   0  0  0  0  0  0  0  0  0  0  0  0
  145.7594  133.1737  151.6217 N   0  0  0  0  0  0  0  0  0  0  0  0
  146.4978  135.5100  153.0841 N   0  0  0  0  0  0  0  0  0  0  0  0
  146.5600  134.9274  154.2923 C   0  0  0  0  0  0  0  0  0  0  0  0
  145.5672  134.6544  154.9673 O   0  0  0  0  0  0  0  0  0  0  0  0
  147.9583  134.6105  154.8235 C   0  0  0  0  0  0  0  0  0  0  0  0
  148.2923  133.1119  154.7082 C   0  0  0  0  0  0  0  0  0  0  0  0
  149.4505  132.6826  155.6303 C   0  0  1  0  0  0  0  0  0  0  0  0
  150.6420  133.4636  155.3757 N   0  0  0  0  0  0  0  0  0  0  0  0
  151.0579  134.0872  156.4761 C   0  0  0  0  0  0  0  0  0  0  0  0
  152.0710  134.7830  156.4807 O   0  0  0  0  0  0  0  0  0  0  0  0
  150.2193  133.8324  157.4991 N   0  5  0  0  0  0  0  0  0  0  0  0
  149.2187  133.0158  157.1039 C   0  0  0  0  0  0  0  0  0  0  0  0
  148.2650  132.5631  157.7352 O   0  0  0  0  0  0  0  0  0  0  0  0
  143.8813  137.6095  152.5627 H   0  0  0  0  0  0  0  0  0  0  0  0
  145.5303  138.0206  153.0150 H   0  0  0  0  0  0  0  0  0  0  0  0
  144.5252  137.0780  154.1138 H   0  0  0  0  0  0  0  0  0  0  0  0
  145.4926  136.1757  151.3630 H   0  0  0  0  0  0  0  0  0  0  0  0
  144.0556  134.4813  153.4729 H   0  0  0  0  0  0  0  0  0  0  0  0
  143.2393  135.2388  152.1253 H   0  0  0  0  0  0  0  0  0  0  0  0
  142.6780  133.3594  150.5315 H   0  0  0  0  0  0  0  0  0  0  0  0
  144.1325  131.3796  149.3423 H   0  0  0  0  0  0  0  0  0  0  0  0
  146.6138  131.6167  150.5548 H   0  0  0  0  0  0  0  0  0  0  0  0
  147.3690  135.6983  152.6098 H   0  0  0  0  0  0  0  0  0  0  0  0
  148.6815  135.1970  154.2560 H   0  0  0  0  0  0  0  0  0  0  0  0
  148.0401  134.9351  155.8618 H   0  0  0  0  0  0  0  0  0  0  0  0
  147.4032  132.5161  154.9240 H   0  0  0  0  0  0  0  0  0  0  0  0
  148.5639  132.8851  153.6760 H   0  0  0  0  0  0  0  0  0  0  0  0
  149.6687  131.6189  155.5248 H   0  0  0  0  0  0  0  0  0  0  0  0
  151.1054  133.4996  154.4799 H   0  0  0  0  0  0  0  0  0  0  0  0
  1  2  1  0  0  0  0
  1 21  1  0  0  0  0
  1 22  1  0  0  0  0
  1 23  1  0  0  0  0
  2  3  1  0  0  0  0
  2  9  1  0  0  0  0
  2 24  1  0  0  0  0
  3  4  1  0  0  0  0
  3 25  1  0  0  0  0
  3 26  1  0  0  0  0
  4  8  1  0  0  0  0
  4  5  1  0  0  0  0
  5  6  2  0  0  0  0
  5 27  1  0  0  0  0
  6  7  1  0  0  0  0
  6 28  1  0  0  0  0
  7  8  2  0  0  0  0
  7 29  1  0  0  0  0
  9 10  1  0  0  0  0
  9 30  1  0  0  0  0
 10 11  2  0  0  0  0
 10 12  1  0  0  0  0
 12 13  1  0  0  0  0
 12 31  1  0  0  0  0
 12 32  1  0  0  0  0
 13 14  1  0  0  0  0
 13 33  1  0  0  0  0
 13 34  1  0  0  0  0
 14 19  1  0  0  0  0
 14 15  1  0  0  0  0
 14 35  1  0  0  0  0
 15 16  1  0  0  0  0
 15 36  1  0  0  0  0
 16 17  2  0  0  0  0
 16 18  1  0  0  0  0
 18 19  1  0  0  0  0
 19 20  2  0  0  0  0
M  CHG  1  18  -1
M  END
> <s_m_source_file>
AV-unprocessed.smi

> <i_m_source_file_index>
1196

> <i_lp_mmshare_version>
43012

> <i_f3d_flags>
0

> <s_epik_input>
bjFbY0hdW2NIXVtjSF1uMVtDSDJdW0NAQEhdKFtDSDNdKVtOSF1DKD1PKVtDSDJdW0NIMl1bQ0BASF0yW05IXUMoPU8pW05IXUMyPU8=

> <s_epik_cmdline>
J2VwaWtfcHl0aG9uJywgJy1waCcsICc3LjAnLCAnLXRuJywgJzgnLCAnLW1hJywgJzIwMCcsICctbWV0YWxfYmluZGluZycsICctaW1hZScsICc8aW5maWxlLm1hZT4nLCAnLW9tYWUnLCAnPG91dGZpbGUubWFlPic=

> <r_lp_tautomer_probability>
1

> <r_epik_Ionization_Penalty>
2.57056

> <r_epik_Ionization_Penalty_Charging>
2.57023

> <r_epik_Ionization_Penalty_Neutral>
0.000331301

> <r_epik_State_Penalty>
2.56828

> <r_epik_Charging_Adjusted_Penalty>
5.13851

> <i_epik_Tot_Q>
-1

> <i_epik_Tot_abs_Q>
1

> <r_epik_Metal_State_Penalty>
0.444883

> <b_epik_Metal_Only>
1

> <s_lp_Force_Field>
OPLS_2005

> <r_lp_Energy>
7.37265

> <b_lp_Chiralities_Consistent>
1

> <s_lp_Variant>
AV-unprocessed.smi:1196-11

> <Gold.Version>
5.8.1

> <Gold.Id.Protein>
6NUR|6NUR_protein|mol2

> <Gold.PLP.Fitness>
43.0102

> <Gold.PLP.PLP>
-26.3296

> <Gold.PLP.part.hbond>
-3.0000

> <Gold.PLP.part.metal>
0.0000

> <Gold.PLP.part.buried>
-3.2199

> <Gold.PLP.part.nonpolar>
-20.7355

> <Gold.PLP.part.repulsive>
0.3205

> <Gold.PLP.ligand.clash>
0.0000

> <Gold.PLP.ligand.torsion>
0.6927

> <Gold.PLP.Chemscore.Hbond>
3.9840

> <Gold.PLP.Chemscore.CHOScore>
2.0000

> <Gold.PLP.Chemscore.Metal>
0.0000

> <Gold.Chemscore.Hbonds>
donor molecule, donor type, donor heavy atom, donor atom, acceptor molecule, acceptor atom, score
      L1  H     9    30       P1  7948  1.00
      P1  H  6896  6907       L1    18  1.86
      P1  H 10752 10764       L1    17  0.93
      L1  C     5    27       P1 10186  1.00
      L1  C     7    29       P1 10747  1.00

> <Gold.PLP.Chemscore.Internal.Correction>
0.1140

> <Gold.Rescore>
     Score         DG    S(hbond)    S(metal)    S(lipo)     H(rot)  DE(clash)    DE(int)     intcor
     11.03     -13.71       2.70        0.00      56.48       2.89       0.27       2.41       ----

> <Gold.Chemscore.Fitness>
11.0328

> <Gold.Chemscore.DG>
-13.7061

> <Gold.Chemscore.ZeroCoef>
-5.4800

> <Gold.Chemscore.Hbond>
2.7029

> <Gold.Chemscore.Metal>
0.0000

> <Gold.Chemscore.Lipo>
56.4832

> <Gold.Chemscore.Internal_Hbond>
0.0000

> <Gold.Chemscore.DEClash>
0.2666

> <Gold.Chemscore.DEInternal>
2.4067

> <Gold.Chemscore.Rot>
2.8946

> <Gold.Chemscore.Internal.Correction>
   9.000000E+99

> <Gold.Chemscore.Hbonds>
donor molecule, donor type, donor heavy atom, donor atom, acceptor molecule, acceptor atom, score
      L1  H     9    30       P1  7948  1.00
      P1  H  6896  6907       L1    18  0.89
      P1  H 10752 10764       L1    17  0.90

> <Gold.Chemscore.Hbond.Weighted>
-9.0277

> <Gold.Chemscore.Metal.Weighted>
-0.0000

> <Gold.Chemscore.Lipo.Weighted>
-6.6085

> <Gold.Chemscore.Internal_Hbond.Weighted>
0.0000

> <Gold.Chemscore.DEClash.Weighted>
0.2666

> <Gold.Chemscore.DEInternal.Weighted>
2.4067

> <Gold.Chemscore.Rot.Weighted>
7.4101

> <Gold.Chemscore.Internal.Correction.Weighted>
   9.000000E+99

> <Gold.Protein.RotatedTorsions>
[ 6907 6896 6895 6894 ] final -117.62 input  -60.11 | X-H torsion
[ 7974 7965 7964 7962 ] final   74.64 input  175.53 | X-H torsion
[ 8008 7997 7996 7995 ] final  -91.55 input   59.86 | X-H torsion
[ 10167 10162 10161 10158 ] final -140.16 input  -65.29 | X-H torsion
[ 10718 10713 10712 10709 ] final -159.51 input   66.30 | X-H torsion
[ 10763 10752 10751 10750 ] final  -18.73 input  -60.55 | X-H torsion
[ 11005 11000 10999 10996 ] final -114.91 input  -57.11 | X-H torsion

> <Gold.Protein.ActiveResidues>
 VAL166  LYS551  ARG553  GLY616  TRP617  ASP618  TYR619  PRO620  LYS621  CYS622 
 ASP623  PHE694  ASN695  SER759  ASP760  ASP761  ALA762  ILE779  LEU786  VAL792 
 PHE793  MET794  SER795  GLU796  ALA797  LYS798  CYS799  TRP800  GLU811  SER814 

> <Gold.Protein.RotatedAtoms>
  150.8152  133.8351  159.3163 H   0  0  0  0  0  0  0  0  0  0  0  0  # atno 6907 bound_to 6896
  151.6125  135.1037  160.0093 H   0  0  0  0  0  0  0  0  0  0  0  0  # atno 6908 bound_to 6896
  152.4243  133.7128  159.6545 H   0  0  0  0  0  0  0  0  0  0  0  0  # atno 6909 bound_to 6896
  145.7257  139.2665  143.1570 H   0  0  0  0  0  0  0  0  0  0  0  0  # atno 7974 bound_to 7965
  154.7122  140.0518  157.0560 H   0  0  0  0  0  0  0  0  0  0  0  0  # atno 8008 bound_to 7997
  155.0540  140.3182  155.4663 H   0  0  0  0  0  0  0  0  0  0  0  0  # atno 8009 bound_to 7997
  156.2792  140.2110  156.5666 H   0  0  0  0  0  0  0  0  0  0  0  0  # atno 8010 bound_to 7997
  139.8309  143.7449  152.2666 H   0  0  0  0  0  0  0  0  0  0  0  0  # atno 10167 bound_to 10162
  156.5690  130.8680  151.2832 H   0  0  0  0  0  0  0  0  0  0  0  0  # atno 10718 bound_to 10713
  153.5938  135.7001  153.5412 H   0  0  0  0  0  0  0  0  0  0  0  0  # atno 10763 bound_to 10752
  153.3156  135.4089  155.1373 H   0  0  0  0  0  0  0  0  0  0  0  0  # atno 10764 bound_to 10752
  154.8595  135.3683  154.5470 H   0  0  0  0  0  0  0  0  0  0  0  0  # atno 10765 bound_to 10752
  141.0522  133.9670  157.2817 H   0  0  0  0  0  0  0  0  0  0  0  0  # atno 11005 bound_to 11000
  146.0585  140.7996  142.9746 LP  0  0  0  0  0  0  0  0  0  0  0  0  # atno 17320 bound_to 7965
  144.6905  140.3160  143.7240 LP  0  0  0  0  0  0  0  0  0  0  0  0  # atno 17321 bound_to 7965
  139.7656  144.7493  151.0300 LP  0  0  0  0  0  0  0  0  0  0  0  0  # atno 17342 bound_to 10162
  140.7806  143.4702  151.0156 LP  0  0  0  0  0  0  0  0  0  0  0  0  # atno 17343 bound_to 10162
  157.7352  130.9758  150.2070 LP  0  0  0  0  0  0  0  0  0  0  0  0  # atno 17370 bound_to 10713
  156.2731  130.3724  149.8011 LP  0  0  0  0  0  0  0  0  0  0  0  0  # atno 17371 bound_to 10713
  139.9359  135.0196  156.8555 LP  0  0  0  0  0  0  0  0  0  0  0  0  # atno 17394 bound_to 11000
  140.6034  134.0150  155.7546 LP  0  0  0  0  0  0  0  0  0  0  0  0  # atno 17395 bound_to 11000

$$$$
