AV-unprocessed.smi:1292|AV-procd|sdf|5397|dock2
  -GOLD-   22720 4553D 1   1.00000     0.00000
 Structure written by MMmdl.
 39 40  0  0  0  0  0  0  0  0  2 V2000
  151.4247  144.2647  158.5697 C   0  0  0  0  0  0  0  0  0  0  0  0
  151.6637  142.9477  159.3212 C   0  0  2  0  0  0  0  0  0  0  0  0
  152.7482  143.1013  160.3965 C   0  0  0  0  0  0  0  0  0  0  0  0
  152.9370  141.7693  161.1275 C   0  0  0  0  0  0  0  0  0  0  0  0
  153.2873  140.6406  160.1458 C   0  0  0  0  0  0  0  0  0  0  0  0
  152.2887  140.5388  159.0615 N   0  0  0  0  0  0  0  0  0  0  0  0
  152.2392  139.0686  158.1357 S   0  0  0  0  0  0  0  0  0  0  0  0
  152.4848  139.4444  156.7338 O   0  0  0  0  0  0  0  0  0  0  0  0
  153.1907  138.1455  158.7767 O   0  0  0  0  0  0  0  0  0  0  0  0
  150.6884  138.7124  158.4380 N   0  5  0  0  0  0  0  0  0  0  0  0
  150.3400  137.4041  158.9622 C   0  0  0  0  0  0  0  0  0  0  0  0
  148.8278  137.1338  158.7793 C   0  0  0  0  0  0  0  0  0  0  0  0
  148.1766  136.2965  159.8797 C   0  0  0  0  0  0  0  0  0  0  0  0
  147.8987  134.9253  159.6745 C   0  0  0  0  0  0  0  0  0  0  0  0
  147.2999  134.1942  160.7187 C   0  0  0  0  0  0  0  0  0  0  0  0
  146.9949  134.8557  161.9235 C   0  0  0  0  0  0  0  0  0  0  0  0
  147.3009  136.2268  162.0299 C   0  0  0  0  0  0  0  0  0  0  0  0
  147.8709  136.9377  161.0345 N   0  0  0  0  0  0  0  0  0  0  0  0
  152.0273  141.8084  158.3496 C   0  0  0  0  0  0  0  0  0  0  0  0
  152.3237  144.5902  158.0452 H   0  0  0  0  0  0  0  0  0  0  0  0
  151.1308  145.0605  159.2545 H   0  0  0  0  0  0  0  0  0  0  0  0
  150.6300  144.1554  157.8312 H   0  0  0  0  0  0  0  0  0  0  0  0
  150.7299  142.6797  159.8180 H   0  0  0  0  0  0  0  0  0  0  0  0
  153.6897  143.4109  159.9403 H   0  0  0  0  0  0  0  0  0  0  0  0
  152.4709  143.8792  161.1084 H   0  0  0  0  0  0  0  0  0  0  0  0
  153.7230  141.8639  161.8771 H   0  0  0  0  0  0  0  0  0  0  0  0
  152.0242  141.5135  161.6672 H   0  0  0  0  0  0  0  0  0  0  0  0
  154.2709  140.8138  159.7069 H   0  0  0  0  0  0  0  0  0  0  0  0
  153.3447  139.6960  160.6859 H   0  0  0  0  0  0  0  0  0  0  0  0
  150.8998  136.6180  158.4546 H   0  0  0  0  0  0  0  0  0  0  0  0
  150.5903  137.3093  160.0194 H   0  0  0  0  0  0  0  0  0  0  0  0
  148.2932  138.0807  158.6886 H   0  0  0  0  0  0  0  0  0  0  0  0
  148.6747  136.6201  157.8297 H   0  0  0  0  0  0  0  0  0  0  0  0
  148.1477  134.4435  158.7406 H   0  0  0  0  0  0  0  0  0  0  0  0
  147.0800  133.1437  160.5979 H   0  0  0  0  0  0  0  0  0  0  0  0
  146.5374  134.3264  162.7460 H   0  0  0  0  0  0  0  0  0  0  0  0
  147.0797  136.7678  162.9379 H   0  0  0  0  0  0  0  0  0  0  0  0
  151.2138  141.6669  157.6385 H   0  0  0  0  0  0  0  0  0  0  0  0
  152.9101  142.0733  157.7658 H   0  0  0  0  0  0  0  0  0  0  0  0
  1  2  1  0  0  0  0
  1 20  1  0  0  0  0
  1 21  1  0  0  0  0
  1 22  1  0  0  0  0
  2 19  1  0  0  0  0
  2  3  1  0  0  0  0
  2 23  1  0  0  0  0
  3  4  1  0  0  0  0
  3 24  1  0  0  0  0
  3 25  1  0  0  0  0
  4  5  1  0  0  0  0
  4 26  1  0  0  0  0
  4 27  1  0  0  0  0
  5  6  1  0  0  0  0
  5 28  1  0  0  0  0
  5 29  1  0  0  0  0
  6  7  1  0  0  0  0
  6 19  1  0  0  0  0
  7  8  2  0  0  0  0
  7  9  2  0  0  0  0
  7 10  1  0  0  0  0
 10 11  1  0  0  0  0
 11 12  1  0  0  0  0
 11 30  1  0  0  0  0
 11 31  1  0  0  0  0
 12 13  1  0  0  0  0
 12 32  1  0  0  0  0
 12 33  1  0  0  0  0
 13 18  1  0  0  0  0
 13 14  2  0  0  0  0
 14 15  1  0  0  0  0
 14 34  1  0  0  0  0
 15 16  2  0  0  0  0
 15 35  1  0  0  0  0
 16 17  1  0  0  0  0
 16 36  1  0  0  0  0
 17 18  2  0  0  0  0
 17 37  1  0  0  0  0
 19 38  1  0  0  0  0
 19 39  1  0  0  0  0
M  CHG  1  10  -1
M  END
> <s_m_source_file>
AV-unprocessed.smi

> <i_m_source_file_index>
1292

> <i_lp_mmshare_version>
43012

> <i_f3d_flags>
0

> <s_epik_input>
W0NIM11bQ0BASF0xW0NIMl1bQ0gyXVtDSDJdTihbQ0gyXTEpUyg9TykoPU8pW05IXVtDSDJdW0NIMl1jMltjSF1bY0hdW2NIXVtjSF1uMg==

> <s_epik_cmdline>
J2VwaWtfcHl0aG9uJywgJy1waCcsICc3LjAnLCAnLXRuJywgJzgnLCAnLW1hJywgJzIwMCcsICctbWV0YWxfYmluZGluZycsICctaW1hZScsICc8aW5maWxlLm1hZT4nLCAnLW9tYWUnLCAnPG91dGZpbGUubWFlPic=

> <r_epik_Ionization_Penalty>
2.02944

> <r_epik_Ionization_Penalty_Charging>
1.95606

> <r_epik_Ionization_Penalty_Neutral>
0.0733799

> <r_epik_State_Penalty>
2.47711

> <r_epik_Charging_Adjusted_Penalty>
4.43317

> <i_epik_Tot_Q>
-1

> <i_epik_Tot_abs_Q>
1

> <r_epik_Metal_State_Penalty>
0.729901

> <b_epik_Metal_Only>
0

> <s_lp_Force_Field>
OPLS_2005

> <r_lp_Energy>
8.05256

> <b_lp_Chiralities_Consistent>
1

> <s_lp_Variant>
AV-unprocessed.smi:1292-3

> <Gold.Version>
5.8.1

> <Gold.Id.Protein>
6NUR|6NUR_protein|mol2

> <Gold.PLP.Fitness>
50.3240

> <Gold.PLP.PLP>
-43.6275

> <Gold.PLP.part.hbond>
-2.9238

> <Gold.PLP.part.metal>
0.0000

> <Gold.PLP.part.buried>
-3.9605

> <Gold.PLP.part.nonpolar>
-36.7161

> <Gold.PLP.part.repulsive>
0.0000

> <Gold.PLP.ligand.clash>
0.0000

> <Gold.PLP.ligand.torsion>
2.1997

> <Gold.PLP.Chemscore.Hbond>
2.6661

> <Gold.PLP.Chemscore.CHOScore>
0.0000

> <Gold.PLP.Chemscore.Metal>
0.0000

> <Gold.Chemscore.Hbonds>
donor molecule, donor type, donor heavy atom, donor atom, acceptor molecule, acceptor atom, score
      P1  H  6931  6943       L1    18  1.00
      P1  H  6934  6947       L1    18  0.49
      P1  H  7997  8008       L1     8  1.00

> <Gold.PLP.Chemscore.Internal.Correction>
3.0976

> <Gold.Rescore>
     Score         DG    S(hbond)    S(metal)    S(lipo)     H(rot)  DE(clash)    DE(int)     intcor
     20.57     -22.82       2.40        0.00     107.61       1.27       0.03       2.21       ----

> <Gold.Chemscore.Fitness>
20.5741

> <Gold.Chemscore.DG>
-22.8169

> <Gold.Chemscore.ZeroCoef>
-5.4800

> <Gold.Chemscore.Hbond>
2.3973

> <Gold.Chemscore.Metal>
0.0000

> <Gold.Chemscore.Lipo>
107.6134

> <Gold.Chemscore.Internal_Hbond>
0.0000

> <Gold.Chemscore.DEClash>
0.0310

> <Gold.Chemscore.DEInternal>
2.2118

> <Gold.Chemscore.Rot>
1.2738

> <Gold.Chemscore.Internal.Correction>
   9.000000E+99

> <Gold.Chemscore.Hbonds>
donor molecule, donor type, donor heavy atom, donor atom, acceptor molecule, acceptor atom, score
      P1  H  6931  6943       L1    18  0.52
      P1  H  6934  6947       L1    18  0.41
      P1  H  7997  8008       L1     8  0.58

> <Gold.Chemscore.Hbond.Weighted>
-8.0071

> <Gold.Chemscore.Metal.Weighted>
-0.0000

> <Gold.Chemscore.Lipo.Weighted>
-12.5908

> <Gold.Chemscore.Internal_Hbond.Weighted>
0.0000

> <Gold.Chemscore.DEClash.Weighted>
0.0310

> <Gold.Chemscore.DEInternal.Weighted>
2.2118

> <Gold.Chemscore.Rot.Weighted>
3.2610

> <Gold.Chemscore.Internal.Correction.Weighted>
   9.000000E+99

> <Gold.Protein.RotatedTorsions>
[ 6907 6896 6895 6894 ] final   89.30 input  -60.11 | X-H torsion
[ 7974 7965 7964 7962 ] final  123.84 input  175.53 | X-H torsion
[ 8008 7997 7996 7995 ] final  -58.96 input   59.86 | X-H torsion
[ 10167 10162 10161 10158 ] final  148.10 input  -65.29 | X-H torsion
[ 10718 10713 10712 10709 ] final   89.71 input   66.30 | X-H torsion
[ 10763 10752 10751 10750 ] final -137.95 input  -60.55 | X-H torsion
[ 11005 11000 10999 10996 ] final -144.80 input  -57.11 | X-H torsion

> <Gold.Protein.ActiveResidues>
 VAL166  LYS551  ARG553  GLY616  TRP617  ASP618  TYR619  PRO620  LYS621  CYS622 
 ASP623  PHE694  ASN695  SER759  ASP760  ASP761  ALA762  ILE779  LEU786  VAL792 
 PHE793  MET794  SER795  GLU796  ALA797  LYS798  CYS799  TRP800  GLU811  SER814 

> <Gold.Protein.RotatedAtoms>
  152.5435  134.1988  159.8703 H   0  0  0  0  0  0  0  0  0  0  0  0  # atno 6907 bound_to 6896
  151.1978  133.4622  159.2603 H   0  0  0  0  0  0  0  0  0  0  0  0  # atno 6908 bound_to 6896
  151.1019  134.9989  159.8508 H   0  0  0  0  0  0  0  0  0  0  0  0  # atno 6909 bound_to 6896
  145.0913  139.3585  143.4859 H   0  0  0  0  0  0  0  0  0  0  0  0  # atno 7974 bound_to 7965
  154.4331  140.1072  156.6039 H   0  0  0  0  0  0  0  0  0  0  0  0  # atno 8008 bound_to 7997
  155.5881  140.3491  155.4540 H   0  0  0  0  0  0  0  0  0  0  0  0  # atno 8009 bound_to 7997
  156.0267  140.1251  157.0290 H   0  0  0  0  0  0  0  0  0  0  0  0  # atno 8010 bound_to 7997
  139.4880  144.5705  151.7064 H   0  0  0  0  0  0  0  0  0  0  0  0  # atno 10167 bound_to 10162
  157.6956  131.0343  150.3467 H   0  0  0  0  0  0  0  0  0  0  0  0  # atno 10718 bound_to 10713
  154.8649  135.3626  154.5306 H   0  0  0  0  0  0  0  0  0  0  0  0  # atno 10763 bound_to 10752
  153.5932  135.7015  153.5419 H   0  0  0  0  0  0  0  0  0  0  0  0  # atno 10764 bound_to 10752
  153.3355  135.4112  155.1491 H   0  0  0  0  0  0  0  0  0  0  0  0  # atno 10765 bound_to 10752
  140.7987  134.2882  157.4986 H   0  0  0  0  0  0  0  0  0  0  0  0  # atno 11005 bound_to 11000
  146.3531  140.0748  142.8621 LP  0  0  0  0  0  0  0  0  0  0  0  0  # atno 17320 bound_to 7965
  145.1063  140.9377  143.4683 LP  0  0  0  0  0  0  0  0  0  0  0  0  # atno 17321 bound_to 7965
  140.5291  144.0758  150.6047 LP  0  0  0  0  0  0  0  0  0  0  0  0  # atno 17342 bound_to 10162
  140.3742  143.2838  152.0244 LP  0  0  0  0  0  0  0  0  0  0  0  0  # atno 17343 bound_to 10162
  156.3921  130.3900  149.7022 LP  0  0  0  0  0  0  0  0  0  0  0  0  # atno 17370 bound_to 10713
  156.4369  130.7842  151.2863 LP  0  0  0  0  0  0  0  0  0  0  0  0  # atno 17371 bound_to 10713
  139.8724  134.9417  156.3804 LP  0  0  0  0  0  0  0  0  0  0  0  0  # atno 17394 bound_to 11000
  140.9316  133.7575  156.0032 LP  0  0  0  0  0  0  0  0  0  0  0  0  # atno 17395 bound_to 11000

$$$$
