#       Name:                AV-unprocessed.smi:2198
#       Creating user name   scv26
#       Creation time:       Fri Mar 27 12:13:35 2020


#       File generated by GOLD software.
#

@<TRIPOS>MOLECULE
AV-unprocessed.smi:2198
    48    49     1
SMALL
NO_CHARGES


@<TRIPOS>ATOM
      1 ****        -6.4058  -1.7202  -0.3320 C.3            1 S1                 0.0000
      2 ****        -4.8967  -1.8213  -0.3841 C.2            1 S1                 0.0000
      3 ****        -4.2695  -0.6336  -0.7225 N.pl3          1 S1                 0.0000
      4 ****        -2.8885  -0.6330  -0.8120 C.2            1 S1                 0.0000
      5 ****        -2.2833   0.7035  -1.2049 C.3            1 S1                 0.0000
      6 ****        -2.1682  -1.7566  -0.5644 C.2            1 S1                 0.0000
      7 ****        -0.6447  -1.8005  -0.6591 C.3            1 S1                 0.0000
      8 ****         0.1023  -1.2894   0.5736 C.2            1 S1                 0.0000
      9 ****        -0.0687  -1.8309   1.6653 O.2            1 S1                 0.0000
     10 ****         0.9248  -0.2465   0.3848 N.am           1 S1                 0.0000
     11 ****         1.7398   0.3944   1.4147 C.3            1 S1                 0.0000
     12 ****         3.0583  -0.3739   1.6435 C.3            1 S1                 0.0000
     13 ****         4.0171  -0.2457   0.4475 C.3            1 S1                 0.0000
     14 ****         4.2870   1.2272   0.1024 C.3            1 S1                 0.0000
     15 ****         2.9788   1.9964  -0.1640 C.3            1 S1                 0.0000
     16 ****         3.2527   3.4689  -0.5001 C.3            1 S1                 0.0000
     17 ****         2.0167   1.8630   1.0358 C.3            1 S1                 0.0000
     18 ****        -2.8946  -2.9921  -0.1874 C.2            1 S1                 0.0000
     19 ****        -2.2984  -4.0369   0.0705 O.2            1 S1                 0.0000
     20 ****        -4.2967  -2.9433  -0.1259 N.2            1 S1                 0.0000
     21 ****        -4.7667   0.2239  -0.9153 H              1 S1                 0.0000
     22 ****        -6.8587  -2.7067  -0.2247 H              1 S1                 0.0000
     23 ****        -6.7913  -1.2683  -1.2467 H              1 S1                 0.0000
     24 ****        -6.7154  -1.1082   0.5157 H              1 S1                 0.0000
     25 ****        -1.7271   0.6113  -2.1380 H              1 S1                 0.0000
     26 ****        -1.6033   1.0575  -0.4300 H              1 S1                 0.0000
     27 ****        -3.0503   1.4657  -1.3479 H              1 S1                 0.0000
     28 ****        -0.3351  -1.2231  -1.5311 H              1 S1                 0.0000
     29 ****        -0.3009  -2.8139  -0.8687 H              1 S1                 0.0000
     30 ****         0.9984   0.1315  -0.5484 H              1 S1                 0.0000
     31 ****         1.1718   0.3940   2.3470 H              1 S1                 0.0000
     32 ****         3.5490   0.0192   2.5348 H              1 S1                 0.0000
     33 ****         2.8574  -1.4258   1.8506 H              1 S1                 0.0000
     34 ****         4.9566  -0.7513   0.6717 H              1 S1                 0.0000
     35 ****         3.5950  -0.7543  -0.4201 H              1 S1                 0.0000
     36 ****         4.8320   1.6979   0.9217 H              1 S1                 0.0000
     37 ****         4.9369   1.2828  -0.7717 H              1 S1                 0.0000
     38 ****         2.4995   1.5499  -1.0362 H              1 S1                 0.0000
     39 ****         3.7355   3.9829   0.3317 H              1 S1                 0.0000
     40 ****         2.3269   3.9985  -0.7265 H              1 S1                 0.0000
     41 ****         3.9043   3.5583  -1.3698 H              1 S1                 0.0000
     42 ****         1.0767   2.3738   0.8224 H              1 S1                 0.0000
     43 ****         2.4475   2.3741   1.8980 H              1 S1                 0.0000
     44 ****        -0.6962  -2.6053   1.7465 LP             1 S1                 0.0000
     45 ****         0.4198  -1.4966   2.4712 LP             1 S1                 0.0000
     46 ****        -1.2997  -4.0662   0.0283 LP             1 S1                 0.0000
     47 ****        -2.8125  -4.8568   0.3223 LP             1 S1                 0.0000
     48 ****        -4.8240  -3.7588   0.1127 LP             1 S1                 0.0000
@<TRIPOS>BOND
    1    1   22 1     
    2    1   23 1     
    3    1   24 1     
    4    1    2 1     
    5    2    3 1     
    6    2   20 2     
    7    3    4 1     
    8    3   21 1     
    9    4    6 2     
   10    4    5 1     
   11    5   25 1     
   12    5   26 1     
   13    5   27 1     
   14    6   18 1     
   15    6    7 1     
   16    7    8 1     
   17    7   28 1     
   18    7   29 1     
   19    8    9 2     
   20    8   10 am    
   21   10   11 1     
   22   10   30 1     
   23   11   17 1     
   24   11   12 1     
   25   11   31 1     
   26   12   13 1     
   27   12   32 1     
   28   12   33 1     
   29   13   14 1     
   30   13   34 1     
   31   13   35 1     
   32   14   15 1     
   33   14   36 1     
   34   14   37 1     
   35   15   16 1     
   36   15   17 1     
   37   15   38 1     
   38   16   39 1     
   39   16   40 1     
   40   16   41 1     
   41   17   42 1     
   42   17   43 1     
   43   18   19 2     
   44   18   20 1     
   45    9   44 1     
   46    9   45 1     
   47   19   46 1     
   48   19   47 1     
   49   20   48 1     
@<TRIPOS>SUBSTRUCTURE
      1 S1             1
@<TRIPOS>SET
LONE_PAIRS      STATIC     ATOMS    <user>   **** ""
5 44 45 46 47 48
DONOR_HYDROGENS      STATIC     ATOMS    <user>   **** ""
2 21 30
ATOM$BLUE        STATIC     ATOMS    COLORGROUP SYSTEM
5 44 45 46 47 48
ATOM$RED        STATIC     ATOMS    COLORGROUP SYSTEM
2 21 30
