AV-unprocessed.smi:3028|AV-procd|sdf|11523|dock10
  -GOLD-   2272016463D 1   1.00000     0.00000
 Structure written by MMmdl.
 47 48  0  0  0  0  0  0  0  0  1 V2000
  142.4824  135.8527  153.4228 C   0  0  0  0  0  0  0  0  0  0  0  0
  143.8345  135.4555  152.9043 C   0  0  0  0  0  0  0  0  0  0  0  0
  144.6965  136.2010  152.0518 C   0  0  0  0  0  0  0  0  0  0  0  0
  145.8226  135.5645  151.7779 N   0  0  0  0  0  0  0  0  0  0  0  0
  145.7280  134.3936  152.4486 N   0  0  0  0  0  0  0  0  0  0  0  0
  146.7958  133.3994  152.3674 C   0  0  2  0  0  0  0  0  0  0  0  0
  146.2885  132.0542  151.8137 C   0  0  0  0  0  0  0  0  0  0  0  0
  147.6258  133.2757  153.6783 C   0  0  1  0  0  0  0  0  0  0  0  0
  148.6218  132.1045  153.6289 C   0  0  0  0  0  0  0  0  0  0  0  0
  148.4076  134.4789  153.9501 N   0  0  0  0  0  0  0  0  0  0  0  0
  149.2912  134.3516  155.1165 C   0  0  0  0  0  0  0  0  0  0  0  0
  150.2294  135.5571  155.2849 C   0  0  0  0  0  0  0  0  0  0  0  0
  151.1199  135.5386  156.1340 O   0  0  0  0  0  0  0  0  0  0  0  0
  150.0686  136.6278  154.4892 N   0  0  0  0  0  0  0  0  0  0  0  0
  150.8453  137.8656  154.4846 C   0  0  0  0  0  0  0  0  0  0  0  0
  152.3430  137.5330  154.5567 C   0  0  0  0  0  0  0  0  0  0  0  0
  153.1780  138.8143  154.7128 C   0  0  0  0  0  0  0  0  0  0  0  0
  152.7538  139.5339  155.8655 O   0  0  0  0  0  0  0  0  0  0  0  0
  151.3993  139.9646  155.7835 C   0  0  0  0  0  0  0  0  0  0  0  0
  150.4637  138.7488  155.6844 C   0  0  0  0  0  0  0  0  0  0  0  0
  144.5316  134.3026  153.1302 C   0  0  0  0  0  0  0  0  0  0  0  0
  142.0027  136.5897  152.7783 H   0  0  0  0  0  0  0  0  0  0  0  0
  142.5478  136.2906  154.4190 H   0  0  0  0  0  0  0  0  0  0  0  0
  141.8084  134.9986  153.4897 H   0  0  0  0  0  0  0  0  0  0  0  0
  144.5372  137.1801  151.6244 H   0  0  0  0  0  0  0  0  0  0  0  0
  147.4886  133.7716  151.6112 H   0  0  0  0  0  0  0  0  0  0  0  0
  147.1039  131.3370  151.7183 H   0  0  0  0  0  0  0  0  0  0  0  0
  145.8493  132.1841  150.8243 H   0  0  0  0  0  0  0  0  0  0  0  0
  145.5246  131.6088  152.4507 H   0  0  0  0  0  0  0  0  0  0  0  0
  146.9459  133.0767  154.5086 H   0  0  0  0  0  0  0  0  0  0  0  0
  148.1113  131.1643  153.4194 H   0  0  0  0  0  0  0  0  0  0  0  0
  149.1377  131.9888  154.5828 H   0  0  0  0  0  0  0  0  0  0  0  0
  149.3826  132.2469  152.8606 H   0  0  0  0  0  0  0  0  0  0  0  0
  147.7805  135.2671  154.0374 H   0  0  0  0  0  0  0  0  0  0  0  0
  148.6938  134.2466  156.0203 H   0  0  0  0  0  0  0  0  0  0  0  0
  149.8912  133.4468  155.0127 H   0  0  0  0  0  0  0  0  0  0  0  0
  149.3252  136.5739  153.8079 H   0  0  0  0  0  0  0  0  0  0  0  0
  150.6753  138.4235  153.5633 H   0  0  0  0  0  0  0  0  0  0  0  0
  152.5375  136.8744  155.4046 H   0  0  0  0  0  0  0  0  0  0  0  0
  152.6535  136.9911  153.6627 H   0  0  0  0  0  0  0  0  0  0  0  0
  154.2326  138.5619  154.8238 H   0  0  0  0  0  0  0  0  0  0  0  0
  153.0935  139.4445  153.8259 H   0  0  0  0  0  0  0  0  0  0  0  0
  151.1616  140.5475  156.6736 H   0  0  0  0  0  0  0  0  0  0  0  0
  151.2684  140.6264  154.9259 H   0  0  0  0  0  0  0  0  0  0  0  0
  149.4289  139.0819  155.6024 H   0  0  0  0  0  0  0  0  0  0  0  0
  150.5323  138.1702  156.6069 H   0  0  0  0  0  0  0  0  0  0  0  0
  144.2764  133.4307  153.7145 H   0  0  0  0  0  0  0  0  0  0  0  0
  1  2  1  0  0  0  0
  1 22  1  0  0  0  0
  1 23  1  0  0  0  0
  1 24  1  0  0  0  0
  2 21  2  0  0  0  0
  2  3  1  0  0  0  0
  3  4  2  0  0  0  0
  3 25  1  0  0  0  0
  4  5  1  0  0  0  0
  5  6  1  0  0  0  0
  5 21  1  0  0  0  0
  6  7  1  0  0  0  0
  6  8  1  0  0  0  0
  6 26  1  0  0  0  0
  7 27  1  0  0  0  0
  7 28  1  0  0  0  0
  7 29  1  0  0  0  0
  8  9  1  0  0  0  0
  8 10  1  0  0  0  0
  8 30  1  0  0  0  0
  9 31  1  0  0  0  0
  9 32  1  0  0  0  0
  9 33  1  0  0  0  0
 10 11  1  0  0  0  0
 10 34  1  0  0  0  0
 11 12  1  0  0  0  0
 11 35  1  0  0  0  0
 11 36  1  0  0  0  0
 12 13  2  0  0  0  0
 12 14  1  0  0  0  0
 14 15  1  0  0  0  0
 14 37  1  0  0  0  0
 15 20  1  0  0  0  0
 15 16  1  0  0  0  0
 15 38  1  0  0  0  0
 16 17  1  0  0  0  0
 16 39  1  0  0  0  0
 16 40  1  0  0  0  0
 17 18  1  0  0  0  0
 17 41  1  0  0  0  0
 17 42  1  0  0  0  0
 18 19  1  0  0  0  0
 19 20  1  0  0  0  0
 19 43  1  0  0  0  0
 19 44  1  0  0  0  0
 20 45  1  0  0  0  0
 20 46  1  0  0  0  0
 21 47  1  0  0  0  0
M  END
> <s_m_source_file>
AV-unprocessed.smi

> <i_m_source_file_index>
3028

> <i_lp_mmshare_version>
43012

> <i_f3d_flags>
0

> <s_epik_input>
W0NIM11jMVtjSF1ubihbY0hdMSlbQ0BIXShbQ0gzXSlbQ0BIXShbQ0gzXSlbTkhdW0NIMl1DKD1PKVtOSF1bQ0hdMltDSDJdW0NIMl1PW0NIMl1bQ0gyXTI=

> <s_epik_cmdline>
J2VwaWtfcHl0aG9uJywgJy1waCcsICc3LjAnLCAnLXRuJywgJzgnLCAnLW1hJywgJzIwMCcsICctbWV0YWxfYmluZGluZycsICctaW1hZScsICc8aW5maWxlLm1hZT4nLCAnLW9tYWUnLCAnPG91dGZpbGUubWFlPic=

> <r_lp_tautomer_probability>
1

> <r_epik_Ionization_Penalty>
0.88617

> <r_epik_Ionization_Penalty_Charging>
0

> <r_epik_Ionization_Penalty_Neutral>
0.88617

> <r_epik_State_Penalty>
0.921066

> <r_epik_Charging_Adjusted_Penalty>
0.921066

> <i_epik_Tot_Q>
0

> <i_epik_Tot_abs_Q>
0

> <r_epik_Metal_State_Penalty>
0.917309

> <b_epik_Metal_Only>
0

> <s_lp_Force_Field>
OPLS_2005

> <r_lp_Energy>
19.7658

> <b_lp_Chiralities_Consistent>
1

> <s_lp_Variant>
AV-unprocessed.smi:3028-7

> <Gold.Version>
5.8.1

> <Gold.Id.Protein>
6NUR|6NUR_protein|mol2

> <Gold.PLP.Fitness>
47.8402

> <Gold.PLP.PLP>
-34.3135

> <Gold.PLP.part.hbond>
-4.8902

> <Gold.PLP.part.metal>
0.0000

> <Gold.PLP.part.buried>
-0.3128

> <Gold.PLP.part.nonpolar>
-29.6923

> <Gold.PLP.part.repulsive>
0.2798

> <Gold.PLP.ligand.clash>
0.0000

> <Gold.PLP.ligand.torsion>
0.5824

> <Gold.PLP.Chemscore.Hbond>
2.8480

> <Gold.PLP.Chemscore.CHOScore>
1.9688

> <Gold.PLP.Chemscore.Metal>
0.0000

> <Gold.Chemscore.Hbonds>
donor molecule, donor type, donor heavy atom, donor atom, acceptor molecule, acceptor atom, score
      L1  H    14    37       P1  7948  0.83
      P1  H  7997  8010       L1    18  0.75
      P1  H 10752 10763       L1    13  0.39
      L1  C     3    25       P1 10171  1.00
      L1  C    21    47       P1 10957  0.95

> <Gold.PLP.Chemscore.Internal.Correction>
0.2410

> <Gold.Rescore>
     Score         DG    S(hbond)    S(metal)    S(lipo)     H(rot)  DE(clash)    DE(int)     intcor
     15.58     -18.76       2.53        0.00      83.23       1.92       1.43       1.76       ----

> <Gold.Chemscore.Fitness>
15.5785

> <Gold.Chemscore.DG>
-18.7595

> <Gold.Chemscore.ZeroCoef>
-5.4800

> <Gold.Chemscore.Hbond>
2.5347

> <Gold.Chemscore.Metal>
0.0000

> <Gold.Chemscore.Lipo>
83.2252

> <Gold.Chemscore.Internal_Hbond>
0.0000

> <Gold.Chemscore.DEClash>
1.4257

> <Gold.Chemscore.DEInternal>
1.7554

> <Gold.Chemscore.Rot>
1.9233

> <Gold.Chemscore.Internal.Correction>
   9.000000E+99

> <Gold.Chemscore.Hbonds>
donor molecule, donor type, donor heavy atom, donor atom, acceptor molecule, acceptor atom, score
      L1  H    14    37       P1  7948  0.75
      P1  H  7997  8010       L1    18  0.09
      P1  H 10752 10763       L1    13  0.18

> <Gold.Chemscore.Hbond.Weighted>
-8.4657

> <Gold.Chemscore.Metal.Weighted>
-0.0000

> <Gold.Chemscore.Lipo.Weighted>
-9.7373

> <Gold.Chemscore.Internal_Hbond.Weighted>
0.0000

> <Gold.Chemscore.DEClash.Weighted>
1.4257

> <Gold.Chemscore.DEInternal.Weighted>
1.7554

> <Gold.Chemscore.Rot.Weighted>
4.9235

> <Gold.Chemscore.Internal.Correction.Weighted>
   9.000000E+99

> <Gold.Protein.RotatedTorsions>
[ 6907 6896 6895 6894 ] final  -17.60 input  -60.11 | X-H torsion
[ 7974 7965 7964 7962 ] final  140.36 input  175.53 | X-H torsion
[ 8008 7997 7996 7995 ] final   80.84 input   59.86 | X-H torsion
[ 10167 10162 10161 10158 ] final  -59.36 input  -65.29 | X-H torsion
[ 10718 10713 10712 10709 ] final   20.18 input   66.30 | X-H torsion
[ 10763 10752 10751 10750 ] final   80.70 input  -60.55 | X-H torsion
[ 11005 11000 10999 10996 ] final -141.74 input  -57.11 | X-H torsion

> <Gold.Protein.ActiveResidues>
 VAL166  LYS551  ARG553  GLY616  TRP617  ASP618  TYR619  PRO620  LYS621  CYS622 
 ASP623  PHE694  ASN695  SER759  ASP760  ASP761  ALA762  ILE779  LEU786  VAL792 
 PHE793  MET794  SER795  GLU796  ALA797  LYS798  CYS799  TRP800  GLU811  SER814 

> <Gold.Protein.RotatedAtoms>
  151.2909  135.0741  159.9203 H   0  0  0  0  0  0  0  0  0  0  0  0  # atno 6907 bound_to 6896
  152.5316  133.9933  159.7871 H   0  0  0  0  0  0  0  0  0  0  0  0  # atno 6908 bound_to 6896
  151.0203  133.5832  159.2702 H   0  0  0  0  0  0  0  0  0  0  0  0  # atno 6909 bound_to 6896
  144.9193  139.5188  143.5671 H   0  0  0  0  0  0  0  0  0  0  0  0  # atno 7974 bound_to 7965
  155.8889  140.3440  155.5942 H   0  0  0  0  0  0  0  0  0  0  0  0  # atno 8008 bound_to 7997
  155.7633  140.0835  157.2163 H   0  0  0  0  0  0  0  0  0  0  0  0  # atno 8009 bound_to 7997
  154.4031  140.1532  156.2845 H   0  0  0  0  0  0  0  0  0  0  0  0  # atno 8010 bound_to 7997
  140.6140  143.2396  151.5643 H   0  0  0  0  0  0  0  0  0  0  0  0  # atno 10167 bound_to 10162
  157.1209  130.6549  149.5924 H   0  0  0  0  0  0  0  0  0  0  0  0  # atno 10718 bound_to 10713
  153.1055  135.4793  154.8943 H   0  0  0  0  0  0  0  0  0  0  0  0  # atno 10763 bound_to 10752
  154.7425  135.3086  154.8705 H   0  0  0  0  0  0  0  0  0  0  0  0  # atno 10764 bound_to 10752
  153.9309  135.6844  153.4799 H   0  0  0  0  0  0  0  0  0  0  0  0  # atno 10765 bound_to 10752
  140.8295  134.2534  157.4863 H   0  0  0  0  0  0  0  0  0  0  0  0  # atno 11005 bound_to 11000
  146.3197  139.8061  142.8955 LP  0  0  0  0  0  0  0  0  0  0  0  0  # atno 17320 bound_to 7965
  145.3322  141.0269  143.3440 LP  0  0  0  0  0  0  0  0  0  0  0  0  # atno 17321 bound_to 7965
  139.5383  144.2718  152.1298 LP  0  0  0  0  0  0  0  0  0  0  0  0  # atno 17342 bound_to 10162
  140.1923  144.4739  150.6473 LP  0  0  0  0  0  0  0  0  0  0  0  0  # atno 17343 bound_to 10162
  155.9829  130.4845  150.6903 LP  0  0  0  0  0  0  0  0  0  0  0  0  # atno 17370 bound_to 10713
  157.4477  131.0869  151.0878 LP  0  0  0  0  0  0  0  0  0  0  0  0  # atno 17371 bound_to 10713
  139.8705  134.9578  156.4281 LP  0  0  0  0  0  0  0  0  0  0  0  0  # atno 17394 bound_to 11000
  140.9014  133.7777  155.9684 LP  0  0  0  0  0  0  0  0  0  0  0  0  # atno 17395 bound_to 11000

$$$$
