#       Name:                AV-unprocessed.smi:969
#       Creating user name   scv26
#       Creation time:       Fri Mar 27 02:19:42 2020


#       File generated by GOLD software.
#

@<TRIPOS>MOLECULE
AV-unprocessed.smi:969
    43    44     1
SMALL
NO_CHARGES


@<TRIPOS>ATOM
      1 ****        -5.3139  -1.5112   0.6503 C.3            1 S1                 0.0000
      2 ****        -4.7929  -0.2224   0.0004 C.3            1 S1                 0.0000
      3 ****        -5.3034  -0.0664  -1.4406 C.3            1 S1                 0.0000
      4 ****        -3.3332  -0.2212   0.0280 N.am           1 S1                 0.0000
      5 ****        -2.5551   0.8739   0.0448 C.2            1 S1                 0.0000
      6 ****        -2.9958   2.0229   0.0096 O.2            1 S1                 0.0000
      7 ****        -1.0757   0.6175   0.0404 C.ar           1 S1                 0.0000
      8 ****        -0.5155  -0.5188   0.6639 C.ar           1 S1                 0.0000
      9 ****         0.8816  -0.6929   0.6453 C.ar           1 S1                 0.0000
     10 ****         1.6915   0.2799   0.0128 C.ar           1 S1                 0.0000
     11 ****         3.0948   0.1270  -0.0162 N.3            1 S1                 0.0000
     12 ****         3.7325  -0.1116   1.2764 C.3            1 S1                 0.0000
     13 ****         5.1907  -0.5611   1.0800 C.3            1 S1                 0.0000
     14 ****         5.8877   0.3943   0.2876 O.3            1 S1                 0.0000
     15 ****         5.3147   0.5247  -1.0089 C.3            1 S1                 0.0000
     16 ****         3.8630   1.0170  -0.8853 C.3            1 S1                 0.0000
     17 ****         1.1513   1.3725  -0.5809 N.ar           1 S1                 0.0000
     18 ****        -0.1885   1.5362  -0.5598 C.ar           1 S1                 0.0000
     19 ****        -6.4040  -1.5265   0.6707 H              1 S1                 0.0000
     20 ****        -4.9654  -1.6008   1.6800 H              1 S1                 0.0000
     21 ****        -4.9792  -2.3953   0.1061 H              1 S1                 0.0000
     22 ****        -5.1600   0.6187   0.5914 H              1 S1                 0.0000
     23 ****        -6.3932  -0.0599  -1.4703 H              1 S1                 0.0000
     24 ****        -4.9578  -0.8834  -2.0750 H              1 S1                 0.0000
     25 ****        -4.9590   0.8684  -1.8844 H              1 S1                 0.0000
     26 ****        -2.8790  -1.1229   0.0327 H              1 S1                 0.0000
     27 ****        -1.1377  -1.2548   1.1522 H              1 S1                 0.0000
     28 ****         1.3112  -1.5715   1.1029 H              1 S1                 0.0000
     29 ****         3.7022   0.8105   1.8580 H              1 S1                 0.0000
     30 ****         3.2046  -0.8682   1.8552 H              1 S1                 0.0000
     31 ****         5.6883  -0.6516   2.0455 H              1 S1                 0.0000
     32 ****         5.2340  -1.5435   0.6069 H              1 S1                 0.0000
     33 ****         5.9042   1.2358  -1.5880 H              1 S1                 0.0000
     34 ****         5.3589  -0.4297  -1.5362 H              1 S1                 0.0000
     35 ****         3.4111   1.0596  -1.8772 H              1 S1                 0.0000
     36 ****         3.8458   2.0273  -0.4741 H              1 S1                 0.0000
     37 ****        -0.5572   2.4284  -1.0446 H              1 S1                 0.0000
     38 ****        -3.9826   2.1788  -0.0341 LP             1 S1                 0.0000
     39 ****        -2.3670   2.8003   0.0248 LP             1 S1                 0.0000
     40 ****         3.1451  -0.7439  -0.5051 LP             1 S1                 0.0000
     41 ****         6.8397   0.1035   0.1930 LP             1 S1                 0.0000
     42 ****         5.8543   1.2819   0.7470 LP             1 S1                 0.0000
     43 ****         1.7374   2.0479  -1.0284 LP             1 S1                 0.0000
@<TRIPOS>BOND
    1    1    2 1     
    2    1   19 1     
    3    1   20 1     
    4    1   21 1     
    5    2    3 1     
    6    2    4 1     
    7    2   22 1     
    8    3   23 1     
    9    3   24 1     
   10    3   25 1     
   11    4    5 am    
   12    4   26 1     
   13    5    6 2     
   14    5    7 1     
   15    7   18 ar    
   16    7    8 ar    
   17    8    9 ar    
   18    8   27 1     
   19    9   10 ar    
   20    9   28 1     
   21   10   11 1     
   22   10   17 ar    
   23   11   16 1     
   24   11   12 1     
   25   12   13 1     
   26   12   29 1     
   27   12   30 1     
   28   13   14 1     
   29   13   31 1     
   30   13   32 1     
   31   14   15 1     
   32   15   16 1     
   33   15   33 1     
   34   15   34 1     
   35   16   35 1     
   36   16   36 1     
   37   17   18 ar    
   38   18   37 1     
   39    6   38 1     
   40    6   39 1     
   41   11   40 1     
   42   14   41 1     
   43   14   42 1     
   44   17   43 1     
@<TRIPOS>SUBSTRUCTURE
      1 S1             1
@<TRIPOS>SET
LONE_PAIRS      STATIC     ATOMS    <user>   **** ""
6 38 39 40 41 42 43
DONOR_HYDROGENS      STATIC     ATOMS    <user>   **** ""
1 26
ATOM$BLUE        STATIC     ATOMS    COLORGROUP SYSTEM
6 38 39 40 41 42 43
ATOM$RED        STATIC     ATOMS    COLORGROUP SYSTEM
1 26
