AV-unprocessed.smi:2222|AV-procd|sdf|8988|dock2
  -GOLD-   2272012203D 1   1.00000     0.00000
 Structure written by MMmdl.
 34 35  0  0  0  0  0  0  0  0  1 V2000
  151.8003  145.6904  159.8515 C   0  0  0  0  0  0  0  0  0  0  0  0
  151.5054  144.5312  159.0860 O   0  0  0  0  0  0  0  0  0  0  0  0
  152.1718  143.3599  159.3898 C   0  0  0  0  0  0  0  0  0  0  0  0
  153.1123  143.2430  160.4448 C   0  0  0  0  0  0  0  0  0  0  0  0
  153.7412  142.0074  160.6761 C   0  0  0  0  0  0  0  0  0  0  0  0
  153.4065  140.9253  159.8429 C   0  0  0  0  0  0  0  0  0  0  0  0
  154.0443  139.5653  160.0336 C   0  0  0  0  0  0  0  0  0  0  0  0
  152.5146  141.0242  158.8369 N   0  0  0  0  0  0  0  0  0  0  0  0
  151.9012  142.2107  158.6029 C   0  0  0  0  0  0  0  0  0  0  0  0
  150.9521  142.3967  157.5609 N   0  0  0  0  0  0  0  0  0  0  0  0
  150.6269  141.5601  156.5555 C   0  0  0  0  0  0  0  0  0  0  0  0
  151.0943  140.4327  156.4034 O   0  0  0  0  0  0  0  0  0  0  0  0
  149.6912  142.0414  155.7173 N   0  0  0  0  0  0  0  0  0  0  0  0
  149.1345  141.4041  154.5616 C   0  0  1  0  0  0  0  0  0  0  0  0
  148.9099  139.9109  154.6566 C   0  0  0  0  0  0  0  0  0  0  0  0
  147.7297  140.8451  154.6554 C   0  0  2  0  0  0  0  0  0  0  0  0
  146.7972  140.8829  153.4644 C   0  0  0  0  0  0  0  0  0  0  0  0
  151.1991  146.5234  159.4874 H   0  0  0  0  0  0  0  0  0  0  0  0
  152.8491  145.9750  159.7567 H   0  0  0  0  0  0  0  0  0  0  0  0
  151.5583  145.5453  160.9052 H   0  0  0  0  0  0  0  0  0  0  0  0
  153.3652  144.0763  161.0823 H   0  0  0  0  0  0  0  0  0  0  0  0
  154.4613  141.8975  161.4736 H   0  0  0  0  0  0  0  0  0  0  0  0
  154.6613  139.5402  160.9320 H   0  0  0  0  0  0  0  0  0  0  0  0
  154.6748  139.3209  159.1784 H   0  0  0  0  0  0  0  0  0  0  0  0
  153.2777  138.7953  160.1272 H   0  0  0  0  0  0  0  0  0  0  0  0
  150.4674  143.2821  157.5770 H   0  0  0  0  0  0  0  0  0  0  0  0
  149.2854  142.9326  155.9638 H   0  0  0  0  0  0  0  0  0  0  0  0
  149.4627  141.7531  153.5836 H   0  0  0  0  0  0  0  0  0  0  0  0
  149.0911  139.3204  153.7607 H   0  0  0  0  0  0  0  0  0  0  0  0
  149.1535  139.4154  155.5945 H   0  0  0  0  0  0  0  0  0  0  0  0
  147.2228  140.9742  155.6099 H   0  0  0  0  0  0  0  0  0  0  0  0
  147.3503  140.7507  152.5340 H   0  0  0  0  0  0  0  0  0  0  0  0
  146.2786  141.8407  153.4267 H   0  0  0  0  0  0  0  0  0  0  0  0
  146.0556  140.0880  153.5443 H   0  0  0  0  0  0  0  0  0  0  0  0
  1  2  1  0  0  0  0
  1 18  1  0  0  0  0
  1 19  1  0  0  0  0
  1 20  1  0  0  0  0
  2  3  1  0  0  0  0
  3  9  1  0  0  0  0
  3  4  2  0  0  0  0
  4  5  1  0  0  0  0
  4 21  1  0  0  0  0
  5  6  2  0  0  0  0
  5 22  1  0  0  0  0
  6  7  1  0  0  0  0
  6  8  1  0  0  0  0
  7 23  1  0  0  0  0
  7 24  1  0  0  0  0
  7 25  1  0  0  0  0
  8  9  2  0  0  0  0
  9 10  1  0  0  0  0
 10 11  1  0  0  0  0
 10 26  1  0  0  0  0
 11 12  2  0  0  0  0
 11 13  1  0  0  0  0
 13 14  1  0  0  0  0
 13 27  1  0  0  0  0
 14 16  1  0  0  0  0
 14 15  1  0  0  0  0
 14 28  1  0  0  0  0
 15 16  1  0  0  0  0
 15 29  1  0  0  0  0
 15 30  1  0  0  0  0
 16 17  1  0  0  0  0
 16 31  1  0  0  0  0
 17 32  1  0  0  0  0
 17 33  1  0  0  0  0
 17 34  1  0  0  0  0
M  END
> <s_m_source_file>
AV-unprocessed.smi

> <i_m_source_file_index>
2222

> <i_lp_mmshare_version>
43012

> <i_f3d_flags>
0

> <s_epik_input>
W0NIM11PYzFbY0hdW2NIXWMoW0NIM10pbmMxW05IXUMoPU8pW05IXVtDQEBIXTJbQ0gyXVtDQEhdMltDSDNd

> <s_epik_cmdline>
J2VwaWtfcHl0aG9uJywgJy1waCcsICc3LjAnLCAnLXRuJywgJzgnLCAnLW1hJywgJzIwMCcsICctbWV0YWxfYmluZGluZycsICctaW1hZScsICc8aW5maWxlLm1hZT4nLCAnLW9tYWUnLCAnPG91dGZpbGUubWFlPic=

> <r_lp_tautomer_probability>
1

> <r_epik_Ionization_Penalty>
6.59103e-05

> <r_epik_Ionization_Penalty_Charging>
0

> <r_epik_Ionization_Penalty_Neutral>
6.59103e-05

> <r_epik_State_Penalty>
-0

> <r_epik_Charging_Adjusted_Penalty>
0

> <i_epik_Tot_Q>
0

> <i_epik_Tot_abs_Q>
0

> <r_epik_Metal_State_Penalty>
-0

> <b_epik_Metal_Only>
0

> <s_lp_Force_Field>
OPLS_2005

> <r_lp_Energy>
33.3795

> <b_lp_Chiralities_Consistent>
1

> <s_lp_Variant>
AV-unprocessed.smi:2222-4

> <Gold.Version>
5.8.1

> <Gold.Id.Protein>
6NUR|6NUR_protein|mol2

> <Gold.PLP.Fitness>
40.7476

> <Gold.PLP.PLP>
-38.2706

> <Gold.PLP.part.hbond>
-1.0000

> <Gold.PLP.part.metal>
0.0000

> <Gold.PLP.part.buried>
-4.2929

> <Gold.PLP.part.nonpolar>
-32.2950

> <Gold.PLP.part.repulsive>
0.2787

> <Gold.PLP.ligand.clash>
0.0000

> <Gold.PLP.ligand.torsion>
0.2783

> <Gold.PLP.Chemscore.Hbond>
1.0000

> <Gold.PLP.Chemscore.CHOScore>
0.0000

> <Gold.PLP.Chemscore.Metal>
0.0000

> <Gold.Chemscore.Hbonds>
donor molecule, donor type, donor heavy atom, donor atom, acceptor molecule, acceptor atom, score
      L1  H    13    27       P1  8028  1.00

> <Gold.PLP.Chemscore.Internal.Correction>
0.0336

> <Gold.Rescore>
     Score         DG    S(hbond)    S(metal)    S(lipo)     H(rot)  DE(clash)    DE(int)     intcor
     13.71     -16.43       1.00        0.00      91.76       1.22       0.03       2.69       ----

> <Gold.Chemscore.Fitness>
13.7056

> <Gold.Chemscore.DG>
-16.4262

> <Gold.Chemscore.ZeroCoef>
-5.4800

> <Gold.Chemscore.Hbond>
0.9955

> <Gold.Chemscore.Metal>
0.0000

> <Gold.Chemscore.Lipo>
91.7631

> <Gold.Chemscore.Internal_Hbond>
0.0000

> <Gold.Chemscore.DEClash>
0.0343

> <Gold.Chemscore.DEInternal>
2.6863

> <Gold.Chemscore.Rot>
1.2168

> <Gold.Chemscore.Internal.Correction>
   9.000000E+99

> <Gold.Chemscore.Hbonds>
donor molecule, donor type, donor heavy atom, donor atom, acceptor molecule, acceptor atom, score
      L1  H    13    27       P1  8028  0.98

> <Gold.Chemscore.Hbond.Weighted>
-3.3249

> <Gold.Chemscore.Metal.Weighted>
-0.0000

> <Gold.Chemscore.Lipo.Weighted>
-10.7363

> <Gold.Chemscore.Internal_Hbond.Weighted>
0.0000

> <Gold.Chemscore.DEClash.Weighted>
0.0343

> <Gold.Chemscore.DEInternal.Weighted>
2.6863

> <Gold.Chemscore.Rot.Weighted>
3.1150

> <Gold.Chemscore.Internal.Correction.Weighted>
   9.000000E+99

> <Gold.Protein.RotatedTorsions>
[ 6907 6896 6895 6894 ] final  -53.08 input  -60.11 | X-H torsion
[ 7974 7965 7964 7962 ] final -144.74 input  175.53 | X-H torsion
[ 8008 7997 7996 7995 ] final -162.39 input   59.86 | X-H torsion
[ 10167 10162 10161 10158 ] final  164.56 input  -65.29 | X-H torsion
[ 10718 10713 10712 10709 ] final  129.54 input   66.30 | X-H torsion
[ 10763 10752 10751 10750 ] final  148.11 input  -60.55 | X-H torsion
[ 11005 11000 10999 10996 ] final  125.80 input  -57.11 | X-H torsion

> <Gold.Protein.ActiveResidues>
 VAL166  LYS551  ARG553  GLY616  TRP617  ASP618  TYR619  PRO620  LYS621  CYS622 
 ASP623  PHE694  ASN695  SER759  ASP760  ASP761  ALA762  ILE779  LEU786  VAL792 
 PHE793  MET794  SER795  GLU796  ALA797  LYS798  CYS799  TRP800  GLU811  SER814 

> <Gold.Protein.RotatedAtoms>
  150.8459  134.7767  159.6969 H   0  0  0  0  0  0  0  0  0  0  0  0  # atno 6907 bound_to 6896
  152.4536  134.5338  159.9828 H   0  0  0  0  0  0  0  0  0  0  0  0  # atno 6908 bound_to 6896
  151.5468  133.3386  159.2981 H   0  0  0  0  0  0  0  0  0  0  0  0  # atno 6909 bound_to 6896
  144.8276  140.5672  143.5536 H   0  0  0  0  0  0  0  0  0  0  0  0  # atno 7974 bound_to 7965
  155.8061  140.0899  157.1930 H   0  0  0  0  0  0  0  0  0  0  0  0  # atno 8008 bound_to 7997
  154.3981  140.1463  156.3390 H   0  0  0  0  0  0  0  0  0  0  0  0  # atno 8009 bound_to 7997
  155.8413  140.3438  155.5636 H   0  0  0  0  0  0  0  0  0  0  0  0  # atno 8010 bound_to 7997
  139.4891  144.4222  151.9172 H   0  0  0  0  0  0  0  0  0  0  0  0  # atno 10167 bound_to 10162
  157.5145  131.1097  150.9245 H   0  0  0  0  0  0  0  0  0  0  0  0  # atno 10718 bound_to 10713
  154.0494  135.2883  155.3343 H   0  0  0  0  0  0  0  0  0  0  0  0  # atno 10763 bound_to 10752
  154.6878  135.5238  153.8354 H   0  0  0  0  0  0  0  0  0  0  0  0  # atno 10764 bound_to 10752
  153.0567  135.6598  154.0692 H   0  0  0  0  0  0  0  0  0  0  0  0  # atno 10765 bound_to 10752
  139.9424  134.9634  156.8612 H   0  0  0  0  0  0  0  0  0  0  0  0  # atno 11005 bound_to 11000
  145.4966  139.1485  143.3680 LP  0  0  0  0  0  0  0  0  0  0  0  0  # atno 17320 bound_to 7965
  146.2581  140.5105  142.8865 LP  0  0  0  0  0  0  0  0  0  0  0  0  # atno 17321 bound_to 7965
  140.3667  144.2906  150.5925 LP  0  0  0  0  0  0  0  0  0  0  0  0  # atno 17342 bound_to 10162
  140.5355  143.2234  151.8169 LP  0  0  0  0  0  0  0  0  0  0  0  0  # atno 17343 bound_to 10162
  156.9875  130.5550  149.5301 LP  0  0  0  0  0  0  0  0  0  0  0  0  # atno 17370 bound_to 10713
  156.0311  130.5402  150.8535 LP  0  0  0  0  0  0  0  0  0  0  0  0  # atno 17371 bound_to 10713
  140.5918  134.0255  155.7502 LP  0  0  0  0  0  0  0  0  0  0  0  0  # atno 17394 bound_to 11000
  141.1064  133.9687  157.2990 LP  0  0  0  0  0  0  0  0  0  0  0  0  # atno 17395 bound_to 11000

$$$$
