AV-unprocessed.smi:1139|AV-procd|sdf|4870|dock2
  -GOLD-   22720 3443D 1   1.00000     0.00000
 Structure written by MMmdl.
 43 44  0  0  0  0  0  0  0  0  2 V2000
  149.0936  139.5006  154.4332 C   0  0  0  0  0  0  0  0  0  0  0  0
  150.5573  139.3205  154.7171 C   0  0  0  0  0  0  0  0  0  0  0  0
  151.2989  140.3803  154.9908 N   0  0  0  0  0  0  0  0  0  0  0  0
  152.5958  139.8991  155.1936 O   0  0  0  0  0  0  0  0  0  0  0  0
  152.5841  138.5519  155.0285 C   0  0  0  0  0  0  0  0  0  0  0  0
  153.8852  137.8429  155.1974 C   0  0  0  0  0  0  0  0  0  0  0  0
  151.3229  138.1184  154.7253 C   0  0  0  0  0  0  0  0  0  0  0  0
  150.8570  136.7107  154.4575 C   0  0  0  0  0  0  0  0  0  0  0  0
  149.4791  136.5009  155.0846 C   0  0  0  0  0  0  0  0  0  0  0  0
  149.3492  136.5164  156.3084 O   0  0  0  0  0  0  0  0  0  0  0  0
  148.4603  136.2912  154.2387 N   0  0  0  0  0  0  0  0  0  0  0  0
  147.0900  136.0188  154.6539 C   0  0  0  0  0  0  0  0  0  0  0  0
  146.5220  134.7415  153.9878 C   0  0  1  0  0  0  0  0  0  0  0  0
  145.2140  134.2947  154.6797 C   0  0  0  0  0  0  0  0  0  0  0  0
  146.3000  134.9422  152.5260 N   0  3  0  0  0  0  0  0  0  0  0  0
  145.8427  133.7541  151.7722 C   0  0  0  0  0  0  0  0  0  0  0  0
  145.2361  134.3093  150.4891 C   0  0  0  0  0  0  0  0  0  0  0  0
  144.5555  135.5899  150.9575 C   0  0  0  0  0  0  0  0  0  0  0  0
  145.3747  136.0491  152.1717 C   0  0  0  0  0  0  0  0  0  0  0  0
  148.9245  139.6728  153.3703 H   0  0  0  0  0  0  0  0  0  0  0  0
  148.6821  140.3514  154.9779 H   0  0  0  0  0  0  0  0  0  0  0  0
  148.5224  138.6185  154.7225 H   0  0  0  0  0  0  0  0  0  0  0  0
  154.0780  137.1852  154.3498 H   0  0  0  0  0  0  0  0  0  0  0  0
  153.8776  137.2351  156.1021 H   0  0  0  0  0  0  0  0  0  0  0  0
  154.7125  138.5490  155.2711 H   0  0  0  0  0  0  0  0  0  0  0  0
  150.7846  136.5133  153.3872 H   0  0  0  0  0  0  0  0  0  0  0  0
  151.5607  135.9763  154.8511 H   0  0  0  0  0  0  0  0  0  0  0  0
  148.6534  136.2971  153.2476 H   0  0  0  0  0  0  0  0  0  0  0  0
  147.0593  135.9186  155.7403 H   0  0  0  0  0  0  0  0  0  0  0  0
  146.4898  136.8920  154.3954 H   0  0  0  0  0  0  0  0  0  0  0  0
  147.2589  133.9446  154.1035 H   0  0  0  0  0  0  0  0  0  0  0  0
  145.3688  134.0867  155.7382 H   0  0  0  0  0  0  0  0  0  0  0  0
  144.8089  133.3802  154.2476 H   0  0  0  0  0  0  0  0  0  0  0  0
  144.4453  135.0646  154.6040 H   0  0  0  0  0  0  0  0  0  0  0  0
  146.6582  133.0597  151.5677 H   0  0  0  0  0  0  0  0  0  0  0  0
  145.0768  133.2262  152.3432 H   0  0  0  0  0  0  0  0  0  0  0  0
  146.0278  134.5484  149.7775 H   0  0  0  0  0  0  0  0  0  0  0  0
  144.5485  133.6134  150.0078 H   0  0  0  0  0  0  0  0  0  0  0  0
  144.5076  136.3460  150.1733 H   0  0  0  0  0  0  0  0  0  0  0  0
  143.5329  135.3695  151.2668 H   0  0  0  0  0  0  0  0  0  0  0  0
  144.7012  136.2920  152.9951 H   0  0  0  0  0  0  0  0  0  0  0  0
  145.9559  136.9430  151.9430 H   0  0  0  0  0  0  0  0  0  0  0  0
  147.1934  135.1895  152.1246 H   0  0  0  0  0  0  0  0  0  0  0  0
  1  2  1  0  0  0  0
  1 20  1  0  0  0  0
  1 21  1  0  0  0  0
  1 22  1  0  0  0  0
  2  7  1  0  0  0  0
  2  3  2  0  0  0  0
  3  4  1  0  0  0  0
  4  5  1  0  0  0  0
  5  6  1  0  0  0  0
  5  7  2  0  0  0  0
  6 23  1  0  0  0  0
  6 24  1  0  0  0  0
  6 25  1  0  0  0  0
  7  8  1  0  0  0  0
  8  9  1  0  0  0  0
  8 26  1  0  0  0  0
  8 27  1  0  0  0  0
  9 10  2  0  0  0  0
  9 11  1  0  0  0  0
 11 12  1  0  0  0  0
 11 28  1  0  0  0  0
 12 13  1  0  0  0  0
 12 29  1  0  0  0  0
 12 30  1  0  0  0  0
 13 14  1  0  0  0  0
 13 15  1  0  0  0  0
 13 31  1  0  0  0  0
 14 32  1  0  0  0  0
 14 33  1  0  0  0  0
 14 34  1  0  0  0  0
 15 19  1  0  0  0  0
 15 16  1  0  0  0  0
 15 43  1  0  0  0  0
 16 17  1  0  0  0  0
 16 35  1  0  0  0  0
 16 36  1  0  0  0  0
 17 18  1  0  0  0  0
 17 37  1  0  0  0  0
 17 38  1  0  0  0  0
 18 19  1  0  0  0  0
 18 39  1  0  0  0  0
 18 40  1  0  0  0  0
 19 41  1  0  0  0  0
 19 42  1  0  0  0  0
M  CHG  1  15   1
M  END
> <s_m_source_file>
AV-unprocessed.smi

> <i_m_source_file_index>
1139

> <i_lp_mmshare_version>
43012

> <i_f3d_flags>
0

> <s_epik_input>
W0NIM11jMW5vYyhbQ0gzXSljMVtDSDJdQyg9TylbTkhdW0NIMl1bQ0BIXShbQ0gzXSlOMltDSDJdW0NIMl1bQ0gyXVtDSDJdMg==

> <s_epik_cmdline>
J2VwaWtfcHl0aG9uJywgJy1waCcsICc3LjAnLCAnLXRuJywgJzgnLCAnLW1hJywgJzIwMCcsICctbWV0YWxfYmluZGluZycsICctaW1hZScsICc8aW5maWxlLm1hZT4nLCAnLW9tYWUnLCAnPG91dGZpbGUubWFlPic=

> <r_epik_Ionization_Penalty>
0.0050436

> <r_epik_Ionization_Penalty_Charging>
0.0050435

> <r_epik_Ionization_Penalty_Neutral>
9.69799e-08

> <r_epik_State_Penalty>
0.00366867

> <r_epik_Charging_Adjusted_Penalty>
0.00871217

> <i_epik_Tot_Q>
1

> <i_epik_Tot_abs_Q>
1

> <r_epik_Metal_State_Penalty>
-0

> <b_epik_Metal_Only>
0

> <s_lp_Force_Field>
OPLS_2005

> <r_lp_Energy>
24.7849

> <b_lp_Chiralities_Consistent>
1

> <s_lp_Variant>
AV-unprocessed.smi:1139-2

> <Gold.Version>
5.8.1

> <Gold.Id.Protein>
6NUR|6NUR_protein|mol2

> <Gold.PLP.Fitness>
40.5973

> <Gold.PLP.PLP>
-26.4189

> <Gold.PLP.part.hbond>
-5.0000

> <Gold.PLP.part.metal>
0.0000

> <Gold.PLP.part.buried>
1.9541

> <Gold.PLP.part.nonpolar>
-23.8250

> <Gold.PLP.part.repulsive>
0.0701

> <Gold.PLP.ligand.clash>
0.0000

> <Gold.PLP.ligand.torsion>
0.4452

> <Gold.PLP.Chemscore.Hbond>
5.0000

> <Gold.PLP.Chemscore.CHOScore>
0.0000

> <Gold.PLP.Chemscore.Metal>
0.0000

> <Gold.Chemscore.Hbonds>
donor molecule, donor type, donor heavy atom, donor atom, acceptor molecule, acceptor atom, score
      L1  H    11    28       P1  7948  0.70
      L1  H    15    43       P1  7948  2.00
      P1  H  7989  7998       L1     3  0.60
      P1  H  7997  8008       L1     4  1.00

> <Gold.PLP.Chemscore.Internal.Correction>
0.0688

> <Gold.Rescore>
     Score         DG    S(hbond)    S(metal)    S(lipo)     H(rot)  DE(clash)    DE(int)     intcor
     17.80     -19.76       3.23        0.00      67.59       1.72       1.50       0.46       ----

> <Gold.Chemscore.Fitness>
17.7977

> <Gold.Chemscore.DG>
-19.7608

> <Gold.Chemscore.ZeroCoef>
-5.4800

> <Gold.Chemscore.Hbond>
3.2258

> <Gold.Chemscore.Metal>
0.0000

> <Gold.Chemscore.Lipo>
67.5940

> <Gold.Chemscore.Internal_Hbond>
0.0000

> <Gold.Chemscore.DEClash>
1.5038

> <Gold.Chemscore.DEInternal>
0.4593

> <Gold.Chemscore.Rot>
1.7195

> <Gold.Chemscore.Internal.Correction>
   9.000000E+99

> <Gold.Chemscore.Hbonds>
donor molecule, donor type, donor heavy atom, donor atom, acceptor molecule, acceptor atom, score
      L1  H    11    28       P1  7948  0.71
      L1  H    15    43       P1  7948  0.93
      P1  H  7989  7998       L1     3  0.01
      P1  H  7997  8008       L1     4  0.28

> <Gold.Chemscore.Hbond.Weighted>
-10.7741

> <Gold.Chemscore.Metal.Weighted>
-0.0000

> <Gold.Chemscore.Lipo.Weighted>
-7.9085

> <Gold.Chemscore.Internal_Hbond.Weighted>
0.0000

> <Gold.Chemscore.DEClash.Weighted>
1.5038

> <Gold.Chemscore.DEInternal.Weighted>
0.4593

> <Gold.Chemscore.Rot.Weighted>
4.4018

> <Gold.Chemscore.Internal.Correction.Weighted>
   9.000000E+99

> <Gold.Protein.RotatedTorsions>
[ 6907 6896 6895 6894 ] final -132.58 input  -60.11 | X-H torsion
[ 7974 7965 7964 7962 ] final    7.23 input  175.53 | X-H torsion
[ 8008 7997 7996 7995 ] final  -34.09 input   59.86 | X-H torsion
[ 10167 10162 10161 10158 ] final  -39.56 input  -65.29 | X-H torsion
[ 10718 10713 10712 10709 ] final  142.38 input   66.30 | X-H torsion
[ 10763 10752 10751 10750 ] final  175.05 input  -60.55 | X-H torsion
[ 11005 11000 10999 10996 ] final   40.84 input  -57.11 | X-H torsion

> <Gold.Protein.ActiveResidues>
 VAL166  LYS551  ARG553  GLY616  TRP617  ASP618  TYR619  PRO620  LYS621  CYS622 
 ASP623  PHE694  ASN695  SER759  ASP760  ASP761  ALA762  ILE779  LEU786  VAL792 
 PHE793  MET794  SER795  GLU796  ALA797  LYS798  CYS799  TRP800  GLU811  SER814 

> <Gold.Protein.RotatedAtoms>
  150.9641  133.6414  159.2749 H   0  0  0  0  0  0  0  0  0  0  0  0  # atno 6907 bound_to 6896
  151.3726  135.0924  159.9480 H   0  0  0  0  0  0  0  0  0  0  0  0  # atno 6908 bound_to 6896
  152.5159  133.9192  159.7580 H   0  0  0  0  0  0  0  0  0  0  0  0  # atno 6909 bound_to 6896
  146.2428  140.0114  142.8406 H   0  0  0  0  0  0  0  0  0  0  0  0  # atno 7974 bound_to 7965
  154.4130  140.1693  156.1993 H   0  0  0  0  0  0  0  0  0  0  0  0  # atno 8008 bound_to 7997
  155.9538  140.3399  155.6407 H   0  0  0  0  0  0  0  0  0  0  0  0  # atno 8009 bound_to 7997
  155.6836  140.0725  157.2466 H   0  0  0  0  0  0  0  0  0  0  0  0  # atno 8010 bound_to 7997
  140.7060  143.3207  151.2799 H   0  0  0  0  0  0  0  0  0  0  0  0  # atno 10167 bound_to 10162
  157.3812  131.0992  151.0737 H   0  0  0  0  0  0  0  0  0  0  0  0  # atno 10718 bound_to 10713
  154.4623  135.2768  155.1703 H   0  0  0  0  0  0  0  0  0  0  0  0  # atno 10763 bound_to 10752
  154.3486  135.6155  153.5635 H   0  0  0  0  0  0  0  0  0  0  0  0  # atno 10764 bound_to 10752
  152.9856  135.5806  154.4988 H   0  0  0  0  0  0  0  0  0  0  0  0  # atno 10765 bound_to 10752
  140.1892  134.4007  155.8156 H   0  0  0  0  0  0  0  0  0  0  0  0  # atno 11005 bound_to 11000
  145.1324  140.9525  143.4537 LP  0  0  0  0  0  0  0  0  0  0  0  0  # atno 17320 bound_to 7965
  145.0375  139.3288  143.5993 LP  0  0  0  0  0  0  0  0  0  0  0  0  # atno 17321 bound_to 7965
  139.6660  144.0104  152.2723 LP  0  0  0  0  0  0  0  0  0  0  0  0  # atno 17342 bound_to 10162
  139.9687  144.6508  150.8009 LP  0  0  0  0  0  0  0  0  0  0  0  0  # atno 17343 bound_to 10162
  157.1805  130.6307  149.5670 LP  0  0  0  0  0  0  0  0  0  0  0  0  # atno 17370 bound_to 10713
  155.9776  130.4755  150.6604 LP  0  0  0  0  0  0  0  0  0  0  0  0  # atno 17371 bound_to 10713
  141.2226  133.7038  156.8066 LP  0  0  0  0  0  0  0  0  0  0  0  0  # atno 17394 bound_to 11000
  140.2179  134.8779  157.3345 LP  0  0  0  0  0  0  0  0  0  0  0  0  # atno 17395 bound_to 11000

$$$$
