AV-unprocessed.smi:3261|AV-procd|sdf|12482|dock5
  -GOLD-   2272018383D 1   1.00000     0.00000
 Structure written by MMmdl.
 30 31  0  0  0  0  0  0  0  0  3 V2000
  147.1571  131.8367  153.2222 O   0  0  0  0  0  0  0  0  0  0  0  0
  147.8658  132.8028  152.9444 C   0  0  0  0  0  0  0  0  0  0  0  0
  147.3725  133.7628  152.1231 N   0  0  0  0  0  0  0  0  0  0  0  0
  146.1250  133.8099  151.4454 C   0  0  0  0  0  0  0  0  0  0  0  0
  145.6277  135.0784  151.0744 C   0  0  0  0  0  0  0  0  0  0  0  0
  144.4040  135.1686  150.3803 C   0  0  0  0  0  0  0  0  0  0  0  0
  143.7250  134.0447  150.0649 N   0  3  0  0  0  0  0  0  0  0  0  0
  144.1705  132.8097  150.3816 C   0  0  0  0  0  0  0  0  0  0  0  0
  145.3881  132.6569  151.0752 C   0  0  0  0  0  0  0  0  0  0  0  0
  149.1234  132.9341  153.4667 N   0  5  0  0  0  0  0  0  0  0  0  0
  149.5369  133.0410  154.8749 C   0  0  2  0  0  0  0  0  0  0  0  0
  150.4366  134.2733  155.1033 C   0  0  0  0  0  0  0  0  0  0  0  0
  151.1201  134.1357  156.4712 C   0  0  0  0  0  0  0  0  0  0  0  0
  151.3517  132.3347  156.7352 S   0  0  0  0  0  0  0  0  0  0  0  0
  152.7570  131.9778  156.4869 O   0  0  0  0  0  0  0  0  0  0  0  0
  150.6872  131.9474  157.9897 O   0  0  0  0  0  0  0  0  0  0  0  0
  150.3333  131.8009  155.3040 C   0  0  0  0  0  0  0  0  0  0  0  0
  147.9500  134.5855  152.0289 H   0  0  0  0  0  0  0  0  0  0  0  0
  146.1743  135.9760  151.3253 H   0  0  0  0  0  0  0  0  0  0  0  0
  143.9533  136.0994  150.0684 H   0  0  0  0  0  0  0  0  0  0  0  0
  143.5477  131.9851  150.0671 H   0  0  0  0  0  0  0  0  0  0  0  0
  145.7422  131.6623  151.3011 H   0  0  0  0  0  0  0  0  0  0  0  0
  148.6794  133.1278  155.5442 H   0  0  0  0  0  0  0  0  0  0  0  0
  151.2073  134.3077  154.3315 H   0  0  0  0  0  0  0  0  0  0  0  0
  149.8747  135.2050  155.0326 H   0  0  0  0  0  0  0  0  0  0  0  0
  152.0811  134.6477  156.5148 H   0  0  0  0  0  0  0  0  0  0  0  0
  150.4868  134.5190  157.2728 H   0  0  0  0  0  0  0  0  0  0  0  0
  149.6970  130.9617  155.5845 H   0  0  0  0  0  0  0  0  0  0  0  0
  151.0135  131.4740  154.5164 H   0  0  0  0  0  0  0  0  0  0  0  0
  142.8419  134.1318  149.5613 H   0  0  0  0  0  0  0  0  0  0  0  0
  1  2  2  0  0  0  0
  2  3  1  0  0  0  0
  2 10  1  0  0  0  0
  3  4  1  0  0  0  0
  3 18  1  0  0  0  0
  4  9  1  0  0  0  0
  4  5  2  0  0  0  0
  5  6  1  0  0  0  0
  5 19  1  0  0  0  0
  6  7  2  0  0  0  0
  6 20  1  0  0  0  0
  7  8  1  0  0  0  0
  7 30  1  0  0  0  0
  8  9  2  0  0  0  0
  8 21  1  0  0  0  0
  9 22  1  0  0  0  0
 10 11  1  0  0  0  0
 11 17  1  0  0  0  0
 11 12  1  0  0  0  0
 11 23  1  0  0  0  0
 12 13  1  0  0  0  0
 12 24  1  0  0  0  0
 12 25  1  0  0  0  0
 13 14  1  0  0  0  0
 13 26  1  0  0  0  0
 13 27  1  0  0  0  0
 14 15  2  0  0  0  0
 14 16  2  0  0  0  0
 14 17  1  0  0  0  0
 17 28  1  0  0  0  0
 17 29  1  0  0  0  0
M  CHG  1   7   1
M  CHG  1  10  -1
M  END
> <s_m_source_file>
AV-unprocessed.smi

> <i_m_source_file_index>
3261

> <i_lp_mmshare_version>
43012

> <i_f3d_flags>
0

> <s_epik_input>
Tz1TMSg9TylbQ0gyXVtDSDJdW0NASF0oW0NIMl0xKVtOSF1DKD1PKVtOSF1jMltjSF1bY0hdbltjSF1bY0hdMg==

> <s_epik_cmdline>
J2VwaWtfcHl0aG9uJywgJy1waCcsICc3LjAnLCAnLXRuJywgJzgnLCAnLW1hJywgJzIwMCcsICctbWV0YWxfYmluZGluZycsICctaW1hZScsICc8aW5maWxlLm1hZT4nLCAnLW9tYWUnLCAnPG91dGZpbGUubWFlPic=

> <r_epik_Ionization_Penalty>
8.1176

> <r_epik_Ionization_Penalty_Charging>
8.1176

> <r_epik_Ionization_Penalty_Neutral>
3.03687e-06

> <r_epik_State_Penalty>
7.79629

> <r_epik_Charging_Adjusted_Penalty>
15.9139

> <i_epik_Tot_Q>
0

> <i_epik_Tot_abs_Q>
2

> <r_epik_Metal_State_Penalty>
3.7997

> <b_epik_Metal_Only>
1

> <s_lp_Force_Field>
OPLS_2005

> <r_lp_Energy>
18.9878

> <b_lp_Chiralities_Consistent>
1

> <s_lp_Variant>
AV-unprocessed.smi:3261-5

> <Gold.Version>
5.8.1

> <Gold.Id.Protein>
6NUR|6NUR_protein|mol2

> <Gold.PLP.Fitness>
40.1032

> <Gold.PLP.PLP>
-29.6304

> <Gold.PLP.part.hbond>
-3.0000

> <Gold.PLP.part.metal>
0.0000

> <Gold.PLP.part.buried>
-4.6440

> <Gold.PLP.part.nonpolar>
-22.1326

> <Gold.PLP.part.repulsive>
0.3370

> <Gold.PLP.ligand.clash>
0.0000

> <Gold.PLP.ligand.torsion>
0.7642

> <Gold.PLP.Chemscore.Hbond>
4.0000

> <Gold.PLP.Chemscore.CHOScore>
0.0000

> <Gold.PLP.Chemscore.Metal>
0.0000

> <Gold.Chemscore.Hbonds>
donor molecule, donor type, donor heavy atom, donor atom, acceptor molecule, acceptor atom, score
      L1  H     3    18       P1  7948  1.00
      L1  H     7    30       P1 10186  2.00
      P1  H  6896  6908       L1    16  1.00

> <Gold.PLP.Chemscore.Internal.Correction>
0.0013

> <Gold.Rescore>
     Score         DG    S(hbond)    S(metal)    S(lipo)     H(rot)  DE(clash)    DE(int)     intcor
     14.87     -18.43       2.78        0.00      53.15       1.00       1.45       2.12       ----

> <Gold.Chemscore.Fitness>
14.8671

> <Gold.Chemscore.DG>
-18.4343

> <Gold.Chemscore.ZeroCoef>
-5.4800

> <Gold.Chemscore.Hbond>
2.7833

> <Gold.Chemscore.Metal>
0.0000

> <Gold.Chemscore.Lipo>
53.1451

> <Gold.Chemscore.Internal_Hbond>
0.0000

> <Gold.Chemscore.DEClash>
1.4494

> <Gold.Chemscore.DEInternal>
2.1178

> <Gold.Chemscore.Rot>
1.0000

> <Gold.Chemscore.Internal.Correction>
   9.000000E+99

> <Gold.Chemscore.Hbonds>
donor molecule, donor type, donor heavy atom, donor atom, acceptor molecule, acceptor atom, score
      L1  H     3    18       P1  7948  0.26
      L1  H     7    30       P1 10186  0.95
      P1  H  6896  6908       L1    16  0.34

> <Gold.Chemscore.Hbond.Weighted>
-9.2964

> <Gold.Chemscore.Metal.Weighted>
-0.0000

> <Gold.Chemscore.Lipo.Weighted>
-6.2180

> <Gold.Chemscore.Internal_Hbond.Weighted>
0.0000

> <Gold.Chemscore.DEClash.Weighted>
1.4494

> <Gold.Chemscore.DEInternal.Weighted>
2.1178

> <Gold.Chemscore.Rot.Weighted>
2.5600

> <Gold.Chemscore.Internal.Correction.Weighted>
   9.000000E+99

> <Gold.Protein.RotatedTorsions>
[ 6907 6896 6895 6894 ] final   82.49 input  -60.11 | X-H torsion
[ 7974 7965 7964 7962 ] final  -99.38 input  175.53 | X-H torsion
[ 8008 7997 7996 7995 ] final -173.55 input   59.86 | X-H torsion
[ 10167 10162 10161 10158 ] final -160.32 input  -65.29 | X-H torsion
[ 10718 10713 10712 10709 ] final  114.48 input   66.30 | X-H torsion
[ 10763 10752 10751 10750 ] final  131.01 input  -60.55 | X-H torsion
[ 11005 11000 10999 10996 ] final  140.86 input  -57.11 | X-H torsion

> <Gold.Protein.ActiveResidues>
 VAL166  LYS551  ARG553  GLY616  TRP617  ASP618  TYR619  PRO620  LYS621  CYS622 
 ASP623  PHE694  ASN695  SER759  ASP760  ASP761  ALA762  ILE779  LEU786  VAL792 
 PHE793  MET794  SER795  GLU796  ALA797  LYS798  CYS799  TRP800  GLU811  SER814 

> <Gold.Protein.RotatedAtoms>
  152.5300  134.3042  159.9089 H   0  0  0  0  0  0  0  0  0  0  0  0  # atno 6907 bound_to 6896
  151.2992  133.4123  159.2646 H   0  0  0  0  0  0  0  0  0  0  0  0  # atno 6908 bound_to 6896
  151.0134  134.9430  159.8076 H   0  0  0  0  0  0  0  0  0  0  0  0  # atno 6909 bound_to 6896
  145.3083  140.9394  143.2784 H   0  0  0  0  0  0  0  0  0  0  0  0  # atno 7974 bound_to 7965
  155.9588  140.1140  157.0913 H   0  0  0  0  0  0  0  0  0  0  0  0  # atno 8008 bound_to 7997
  154.4127  140.1186  156.5218 H   0  0  0  0  0  0  0  0  0  0  0  0  # atno 8009 bound_to 7997
  155.6747  140.3473  155.4834 H   0  0  0  0  0  0  0  0  0  0  0  0  # atno 8010 bound_to 7997
  139.6548  144.0019  152.2186 H   0  0  0  0  0  0  0  0  0  0  0  0  # atno 10167 bound_to 10162
  157.6279  131.0999  150.7191 H   0  0  0  0  0  0  0  0  0  0  0  0  # atno 10718 bound_to 10713
  153.7673  135.3187  155.3346 H   0  0  0  0  0  0  0  0  0  0  0  0  # atno 10763 bound_to 10752
  154.8209  135.4604  154.0778 H   0  0  0  0  0  0  0  0  0  0  0  0  # atno 10764 bound_to 10752
  153.2027  135.6925  153.8295 H   0  0  0  0  0  0  0  0  0  0  0  0  # atno 10765 bound_to 10752
  140.0359  134.9329  157.0751 H   0  0  0  0  0  0  0  0  0  0  0  0  # atno 11005 bound_to 11000
  144.9036  139.4617  143.6620 LP  0  0  0  0  0  0  0  0  0  0  0  0  # atno 17320 bound_to 7965
  146.3127  139.7805  142.9007 LP  0  0  0  0  0  0  0  0  0  0  0  0  # atno 17321 bound_to 7965
  139.9742  144.6473  150.7960 LP  0  0  0  0  0  0  0  0  0  0  0  0  # atno 17342 bound_to 10162
  140.7554  143.3046  151.2995 LP  0  0  0  0  0  0  0  0  0  0  0  0  # atno 17343 bound_to 10162
  156.7536  130.4776  149.5451 LP  0  0  0  0  0  0  0  0  0  0  0  0  # atno 17370 bound_to 10713
  156.1462  130.6279  151.0535 LP  0  0  0  0  0  0  0  0  0  0  0  0  # atno 17371 bound_to 10713
  140.4149  134.1942  155.7163 LP  0  0  0  0  0  0  0  0  0  0  0  0  # atno 17394 bound_to 11000
  141.1857  133.8318  157.1096 LP  0  0  0  0  0  0  0  0  0  0  0  0  # atno 17395 bound_to 11000

$$$$
