AV-unprocessed.smi:2173|AV-procd|sdf|8838|dock8
  -GOLD-   2272012 33D 1   1.00000     0.00000
 Structure written by MMmdl.
 35 36  0  0  0  0  0  0  0  0  1 V2000
  153.2412  140.0470  158.5362 O   0  0  0  0  0  0  0  0  0  0  0  0
  152.2580  140.6319  158.0799 C   0  0  0  0  0  0  0  0  0  0  0  0
  151.5216  140.1551  157.0634 N   0  0  0  0  0  0  0  0  0  0  0  0
  151.7938  138.9272  156.3203 C   0  0  0  0  0  0  0  0  0  0  0  0
  151.3618  139.0178  154.8425 C   0  0  0  0  0  0  0  0  0  0  0  0
  150.0518  139.7576  154.6260 C   0  0  0  0  0  0  0  0  0  0  0  0
  148.9362  139.0913  154.0760 C   0  0  0  0  0  0  0  0  0  0  0  0
  147.7572  139.8284  153.8530 C   0  0  0  0  0  0  0  0  0  0  0  0
  147.7385  141.1962  154.1875 C   0  0  0  0  0  0  0  0  0  0  0  0
  148.9048  141.7683  154.7329 C   0  0  0  0  0  0  0  0  0  0  0  0
  150.0399  141.0706  154.9517 N   0  0  0  0  0  0  0  0  0  0  0  0
  151.8300  141.9883  158.6537 C   0  0  2  0  0  0  0  0  0  0  0  0
  151.7028  143.0436  157.5314 C   0  0  0  0  0  0  0  0  0  0  0  0
  151.5265  144.4474  158.0825 C   0  0  0  0  0  0  0  0  0  0  0  0
  151.7893  144.7784  159.3584 C   0  0  0  0  0  0  0  0  0  0  0  0
  152.2982  143.7880  160.3913 C   0  0  0  0  0  0  0  0  0  0  0  0
  152.7980  142.4801  159.7486 C   0  0  0  0  0  0  0  0  0  0  0  0
  150.7338  140.7065  156.7555 H   0  0  0  0  0  0  0  0  0  0  0  0
  152.8514  138.6657  156.3843 H   0  0  0  0  0  0  0  0  0  0  0  0
  151.2531  138.1145  156.8056 H   0  0  0  0  0  0  0  0  0  0  0  0
  152.1428  139.5133  154.2649 H   0  0  0  0  0  0  0  0  0  0  0  0
  151.2745  138.0130  154.4261 H   0  0  0  0  0  0  0  0  0  0  0  0
  148.9863  138.0434  153.8193 H   0  0  0  0  0  0  0  0  0  0  0  0
  146.8844  139.3543  153.4290 H   0  0  0  0  0  0  0  0  0  0  0  0
  146.8529  141.7930  154.0282 H   0  0  0  0  0  0  0  0  0  0  0  0
  148.9282  142.8148  154.9980 H   0  0  0  0  0  0  0  0  0  0  0  0
  150.8486  141.8659  159.1164 H   0  0  0  0  0  0  0  0  0  0  0  0
  152.5809  143.0424  156.8839 H   0  0  0  0  0  0  0  0  0  0  0  0
  150.8448  142.8082  156.9006 H   0  0  0  0  0  0  0  0  0  0  0  0
  151.1812  145.2022  157.3912 H   0  0  0  0  0  0  0  0  0  0  0  0
  151.6289  145.7927  159.6933 H   0  0  0  0  0  0  0  0  0  0  0  0
  153.1001  144.2492  160.9682 H   0  0  0  0  0  0  0  0  0  0  0  0
  151.4849  143.5785  161.0869 H   0  0  0  0  0  0  0  0  0  0  0  0
  152.9317  141.7197  160.5192 H   0  0  0  0  0  0  0  0  0  0  0  0
  153.7840  142.6528  159.3133 H   0  0  0  0  0  0  0  0  0  0  0  0
  1  2  2  0  0  0  0
  2  3  1  0  0  0  0
  2 12  1  0  0  0  0
  3  4  1  0  0  0  0
  3 18  1  0  0  0  0
  4  5  1  0  0  0  0
  4 19  1  0  0  0  0
  4 20  1  0  0  0  0
  5  6  1  0  0  0  0
  5 21  1  0  0  0  0
  5 22  1  0  0  0  0
  6 11  1  0  0  0  0
  6  7  2  0  0  0  0
  7  8  1  0  0  0  0
  7 23  1  0  0  0  0
  8  9  2  0  0  0  0
  8 24  1  0  0  0  0
  9 10  1  0  0  0  0
  9 25  1  0  0  0  0
 10 11  2  0  0  0  0
 10 26  1  0  0  0  0
 12 17  1  0  0  0  0
 12 13  1  0  0  0  0
 12 27  1  0  0  0  0
 13 14  1  0  0  0  0
 13 28  1  0  0  0  0
 13 29  1  0  0  0  0
 14 15  2  0  0  0  0
 14 30  1  0  0  0  0
 15 16  1  0  0  0  0
 15 31  1  0  0  0  0
 16 17  1  0  0  0  0
 16 32  1  0  0  0  0
 16 33  1  0  0  0  0
 17 34  1  0  0  0  0
 17 35  1  0  0  0  0
M  END
> <s_m_source_file>
AV-unprocessed.smi

> <i_m_source_file_index>
2173

> <i_lp_mmshare_version>
43012

> <i_f3d_flags>
0

> <s_epik_input>
W0NIMl0xW0NIMl1bQ0hdPVtDSF1bQ0gyXVtDQEhdMUMoPU8pW05IXVtDSDJdW0NIMl1jMltjSF1bY0hdW2NIXVtjSF1uMg==

> <s_epik_cmdline>
J2VwaWtfcHl0aG9uJywgJy1waCcsICc3LjAnLCAnLXRuJywgJzgnLCAnLW1hJywgJzIwMCcsICctbWV0YWxfYmluZGluZycsICctaW1hZScsICc8aW5maWxlLm1hZT4nLCAnLW9tYWUnLCAnPG91dGZpbGUubWFlPic=

> <r_epik_Ionization_Penalty>
0.0268825

> <r_epik_Ionization_Penalty_Charging>
0

> <r_epik_Ionization_Penalty_Neutral>
0.0268825

> <r_epik_State_Penalty>
0.0219706

> <r_epik_Charging_Adjusted_Penalty>
0.0219706

> <i_epik_Tot_Q>
0

> <i_epik_Tot_abs_Q>
0

> <r_epik_Metal_State_Penalty>
0.0210138

> <b_epik_Metal_Only>
0

> <s_lp_Force_Field>
OPLS_2005

> <r_lp_Energy>
7.98713

> <b_lp_Chiralities_Consistent>
1

> <s_lp_Variant>
AV-unprocessed.smi:2173-1

> <Gold.Version>
5.8.1

> <Gold.Id.Protein>
6NUR|6NUR_protein|mol2

> <Gold.PLP.Fitness>
45.3295

> <Gold.PLP.PLP>
-40.0182

> <Gold.PLP.part.hbond>
-2.0000

> <Gold.PLP.part.metal>
0.0000

> <Gold.PLP.part.buried>
-0.6981

> <Gold.PLP.part.nonpolar>
-35.9364

> <Gold.PLP.part.repulsive>
0.1982

> <Gold.PLP.ligand.clash>
0.0000

> <Gold.PLP.ligand.torsion>
0.3569

> <Gold.PLP.Chemscore.Hbond>
1.0000

> <Gold.PLP.Chemscore.CHOScore>
1.0000

> <Gold.PLP.Chemscore.Metal>
0.0000

> <Gold.Chemscore.Hbonds>
donor molecule, donor type, donor heavy atom, donor atom, acceptor molecule, acceptor atom, score
      P1  H  7997  8010       L1     1  1.00
      L1  C    10    26       P1  8028  0.93

> <Gold.PLP.Chemscore.Internal.Correction>
0.0251

> <Gold.Rescore>
     Score         DG    S(hbond)    S(metal)    S(lipo)     H(rot)  DE(clash)    DE(int)     intcor
     15.30     -17.90       0.69        0.00     116.79       1.39       0.72       1.88       ----

> <Gold.Chemscore.Fitness>
15.2983

> <Gold.Chemscore.DG>
-17.8997

> <Gold.Chemscore.ZeroCoef>
-5.4800

> <Gold.Chemscore.Hbond>
0.6933

> <Gold.Chemscore.Metal>
0.0000

> <Gold.Chemscore.Lipo>
116.7872

> <Gold.Chemscore.Internal_Hbond>
0.0000

> <Gold.Chemscore.DEClash>
0.7212

> <Gold.Chemscore.DEInternal>
1.8802

> <Gold.Chemscore.Rot>
1.3907

> <Gold.Chemscore.Internal.Correction>
   9.000000E+99

> <Gold.Chemscore.Hbonds>
donor molecule, donor type, donor heavy atom, donor atom, acceptor molecule, acceptor atom, score
      P1  H  7997  8010       L1     1  0.59

> <Gold.Chemscore.Hbond.Weighted>
-2.3157

> <Gold.Chemscore.Metal.Weighted>
-0.0000

> <Gold.Chemscore.Lipo.Weighted>
-13.6641

> <Gold.Chemscore.Internal_Hbond.Weighted>
0.0000

> <Gold.Chemscore.DEClash.Weighted>
0.7212

> <Gold.Chemscore.DEInternal.Weighted>
1.8802

> <Gold.Chemscore.Rot.Weighted>
3.5601

> <Gold.Chemscore.Internal.Correction.Weighted>
   9.000000E+99

> <Gold.Protein.RotatedTorsions>
[ 6907 6896 6895 6894 ] final  -36.24 input  -60.11 | X-H torsion
[ 7974 7965 7964 7962 ] final   89.13 input  175.53 | X-H torsion
[ 8008 7997 7996 7995 ] final   27.73 input   59.86 | X-H torsion
[ 10167 10162 10161 10158 ] final -105.09 input  -65.29 | X-H torsion
[ 10718 10713 10712 10709 ] final -126.17 input   66.30 | X-H torsion
[ 10763 10752 10751 10750 ] final   34.23 input  -60.55 | X-H torsion
[ 11005 11000 10999 10996 ] final -142.50 input  -57.11 | X-H torsion

> <Gold.Protein.ActiveResidues>
 VAL166  LYS551  ARG553  GLY616  TRP617  ASP618  TYR619  PRO620  LYS621  CYS622 
 ASP623  PHE694  ASN695  SER759  ASP760  ASP761  ALA762  ILE779  LEU786  VAL792 
 PHE793  MET794  SER795  GLU796  ALA797  LYS798  CYS799  TRP800  GLU811  SER814 

> <Gold.Protein.RotatedAtoms>
  151.0297  134.9530  159.8103 H   0  0  0  0  0  0  0  0  0  0  0  0  # atno 6907 bound_to 6896
  152.5343  134.2796  159.9012 H   0  0  0  0  0  0  0  0  0  0  0  0  # atno 6908 bound_to 6896
  151.2806  133.4169  159.2660 H   0  0  0  0  0  0  0  0  0  0  0  0  # atno 6909 bound_to 6896
  145.5364  139.2286  143.2590 H   0  0  0  0  0  0  0  0  0  0  0  0  # atno 7974 bound_to 7965
  155.0475  140.3176  155.4703 H   0  0  0  0  0  0  0  0  0  0  0  0  # atno 8008 bound_to 7997
  156.2841  140.2152  156.5544 H   0  0  0  0  0  0  0  0  0  0  0  0  # atno 8009 bound_to 7997
  154.7238  140.0487  157.0652 H   0  0  0  0  0  0  0  0  0  0  0  0  # atno 8010 bound_to 7997
  140.2023  143.3809  152.1119 H   0  0  0  0  0  0  0  0  0  0  0  0  # atno 10167 bound_to 10162
  156.1741  130.6687  151.0219 H   0  0  0  0  0  0  0  0  0  0  0  0  # atno 10718 bound_to 10713
  153.0174  135.6366  154.1636 H   0  0  0  0  0  0  0  0  0  0  0  0  # atno 10763 bound_to 10752
  154.1374  135.2837  155.3171 H   0  0  0  0  0  0  0  0  0  0  0  0  # atno 10764 bound_to 10752
  154.6150  135.5544  153.7575 H   0  0  0  0  0  0  0  0  0  0  0  0  # atno 10765 bound_to 10752
  140.8219  134.2620  157.4896 H   0  0  0  0  0  0  0  0  0  0  0  0  # atno 11005 bound_to 11000
  146.2010  140.6182  142.9102 LP  0  0  0  0  0  0  0  0  0  0  0  0  # atno 17320 bound_to 7965
  144.7599  140.5397  143.6743 LP  0  0  0  0  0  0  0  0  0  0  0  0  # atno 17321 bound_to 7965
  139.5212  144.7043  151.5400 LP  0  0  0  0  0  0  0  0  0  0  0  0  # atno 17342 bound_to 10162
  140.6382  143.8942  150.6667 LP  0  0  0  0  0  0  0  0  0  0  0  0  # atno 17343 bound_to 10162
  157.6823  131.0834  150.7336 LP  0  0  0  0  0  0  0  0  0  0  0  0  # atno 17370 bound_to 10713
  156.7394  130.4734  149.5481 LP  0  0  0  0  0  0  0  0  0  0  0  0  # atno 17371 bound_to 10713
  139.8708  134.9540  156.4162 LP  0  0  0  0  0  0  0  0  0  0  0  0  # atno 17394 bound_to 11000
  140.9089  133.7725  155.9768 LP  0  0  0  0  0  0  0  0  0  0  0  0  # atno 17395 bound_to 11000

$$$$
