AV-unprocessed.smi:2573|AV-procd|sdf|10113|dock1
  -GOLD-   2272014133D 1   1.00000     0.00000
 Structure written by MMmdl.
 38 39  0  0  0  0  0  0  0  0  1 V2000
  150.7454  135.9909  156.3003 C   0  0  0  0  0  0  0  0  0  0  0  0
  150.3524  136.7128  155.0073 C   0  0  0  0  0  0  0  0  0  0  0  0
  151.3547  137.8113  154.6201 C   0  0  0  0  0  0  0  0  0  0  0  0
  150.8656  139.1332  155.0039 N   0  0  0  0  0  0  0  0  0  0  0  0
  151.4979  140.0300  155.7966 C   0  0  0  0  0  0  0  0  0  0  0  0
  152.5944  139.8738  156.3335 O   0  0  0  0  0  0  0  0  0  0  0  0
  150.7165  141.1319  155.8925 N   0  0  0  0  0  0  0  0  0  0  0  0
  151.0227  142.3487  156.6450 C   0  0  0  0  0  0  0  0  0  0  0  0
  150.3432  142.3728  158.0298 C   0  0  1  0  0  0  0  0  0  0  0  0
  150.9798  141.3933  158.8248 O   0  0  0  0  0  0  0  0  0  0  0  0
  150.4271  143.7474  158.7301 C   0  0  0  0  0  0  0  0  0  0  0  0
  151.8529  144.1946  159.0993 C   0  0  0  0  0  0  0  0  0  0  0  0
  151.7794  145.2250  159.9411 F   0  0  0  0  0  0  0  0  0  0  0  0
  152.5083  143.2018  159.7004 F   0  0  0  0  0  0  0  0  0  0  0  0
  152.5336  144.5802  158.0201 F   0  0  0  0  0  0  0  0  0  0  0  0
  149.5551  140.9382  155.1288 C   0  0  0  0  0  0  0  0  0  0  0  0
  148.4437  141.7695  154.9029 C   0  0  0  0  0  0  0  0  0  0  0  0
  147.4190  141.2674  154.0670 C   0  0  0  0  0  0  0  0  0  0  0  0
  147.5215  139.9769  153.4859 C   0  0  0  0  0  0  0  0  0  0  0  0
  148.6494  139.1596  153.7316 C   0  0  0  0  0  0  0  0  0  0  0  0
  149.6509  139.6813  154.5689 C   0  0  0  0  0  0  0  0  0  0  0  0
  150.0174  135.2192  156.5512 H   0  0  0  0  0  0  0  0  0  0  0  0
  150.7954  136.6860  157.1387 H   0  0  0  0  0  0  0  0  0  0  0  0
  151.7194  135.5110  156.2030 H   0  0  0  0  0  0  0  0  0  0  0  0
  150.2746  135.9845  154.1990 H   0  0  0  0  0  0  0  0  0  0  0  0
  149.3591  137.1470  155.1280 H   0  0  0  0  0  0  0  0  0  0  0  0
  152.3178  137.6290  155.0977 H   0  0  0  0  0  0  0  0  0  0  0  0
  151.5422  137.7846  153.5454 H   0  0  0  0  0  0  0  0  0  0  0  0
  152.1057  142.4100  156.7658 H   0  0  0  0  0  0  0  0  0  0  0  0
  150.7413  143.2307  156.0694 H   0  0  0  0  0  0  0  0  0  0  0  0
  149.2981  142.0813  157.9209 H   0  0  0  0  0  0  0  0  0  0  0  0
  150.3776  141.1132  159.4976 H   0  0  0  0  0  0  0  0  0  0  0  0
  149.9509  144.5068  158.1081 H   0  0  0  0  0  0  0  0  0  0  0  0
  149.8486  143.7135  159.6534 H   0  0  0  0  0  0  0  0  0  0  0  0
  148.3668  142.7503  155.3478 H   0  0  0  0  0  0  0  0  0  0  0  0
  146.5479  141.8741  153.8683 H   0  0  0  0  0  0  0  0  0  0  0  0
  146.7284  139.6135  152.8493 H   0  0  0  0  0  0  0  0  0  0  0  0
  148.7328  138.1767  153.2922 H   0  0  0  0  0  0  0  0  0  0  0  0
  1  2  1  0  0  0  0
  1 22  1  0  0  0  0
  1 23  1  0  0  0  0
  1 24  1  0  0  0  0
  2  3  1  0  0  0  0
  2 25  1  0  0  0  0
  2 26  1  0  0  0  0
  3  4  1  0  0  0  0
  3 27  1  0  0  0  0
  3 28  1  0  0  0  0
  4 21  1  0  0  0  0
  4  5  1  0  0  0  0
  5  6  2  0  0  0  0
  5  7  1  0  0  0  0
  7  8  1  0  0  0  0
  7 16  1  0  0  0  0
  8  9  1  0  0  0  0
  8 29  1  0  0  0  0
  8 30  1  0  0  0  0
  9 10  1  0  0  0  0
  9 11  1  0  0  0  0
  9 31  1  0  0  0  0
 10 32  1  0  0  0  0
 11 12  1  0  0  0  0
 11 33  1  0  0  0  0
 11 34  1  0  0  0  0
 12 13  1  0  0  0  0
 12 14  1  0  0  0  0
 12 15  1  0  0  0  0
 16 21  2  0  0  0  0
 16 17  1  0  0  0  0
 17 18  2  0  0  0  0
 17 35  1  0  0  0  0
 18 19  1  0  0  0  0
 18 36  1  0  0  0  0
 19 20  2  0  0  0  0
 19 37  1  0  0  0  0
 20 21  1  0  0  0  0
 20 38  1  0  0  0  0
M  END
> <s_m_source_file>
AV-unprocessed.smi

> <i_m_source_file_index>
2573

> <i_lp_mmshare_version>
43012

> <i_f3d_flags>
0

> <s_epik_input>
W2NIXTFbY0hdW2NIXVtjSF1jKGMxMiluKFtDSDJdW0NIMl1bQ0gzXSljKD1PKW4yW0NIMl1bQ0BIXShbT0hdKVtDSDJdQyhGKShGKUY=

> <s_epik_cmdline>
J2VwaWtfcHl0aG9uJywgJy1waCcsICc3LjAnLCAnLXRuJywgJzgnLCAnLW1hJywgJzIwMCcsICctbWV0YWxfYmluZGluZycsICctaW1hZScsICc8aW5maWxlLm1hZT4nLCAnLW9tYWUnLCAnPG91dGZpbGUubWFlPic=

> <r_lp_tautomer_probability>
1

> <r_epik_Ionization_Penalty>
2.4024e-06

> <r_epik_Ionization_Penalty_Charging>
3.10219e-09

> <r_epik_Ionization_Penalty_Neutral>
2.3993e-06

> <r_epik_State_Penalty>
-0

> <r_epik_Charging_Adjusted_Penalty>
3.10219e-09

> <i_epik_Tot_Q>
0

> <i_epik_Tot_abs_Q>
0

> <r_epik_Metal_State_Penalty>
-0

> <b_epik_Metal_Only>
0

> <s_lp_Force_Field>
OPLS_2005

> <r_lp_Energy>
39.6684

> <b_lp_Chiralities_Consistent>
1

> <s_lp_Variant>
AV-unprocessed.smi:2573-2

> <Gold.Version>
5.8.1

> <Gold.Id.Protein>
6NUR|6NUR_protein|mol2

> <Gold.PLP.Fitness>
53.8624

> <Gold.PLP.PLP>
-52.2456

> <Gold.PLP.part.hbond>
-1.0000

> <Gold.PLP.part.metal>
0.0000

> <Gold.PLP.part.buried>
-1.9746

> <Gold.PLP.part.nonpolar>
-49.7902

> <Gold.PLP.part.repulsive>
0.0000

> <Gold.PLP.ligand.clash>
0.0000

> <Gold.PLP.ligand.torsion>
0.8095

> <Gold.PLP.Chemscore.Hbond>
1.0000

> <Gold.PLP.Chemscore.CHOScore>
0.0000

> <Gold.PLP.Chemscore.Metal>
0.0000

> <Gold.Chemscore.Hbonds>
donor molecule, donor type, donor heavy atom, donor atom, acceptor molecule, acceptor atom, score
      P1  H  7997  8009       L1     6  1.00

> <Gold.PLP.Chemscore.Internal.Correction>
0.2358

> <Gold.Rescore>
     Score         DG    S(hbond)    S(metal)    S(lipo)     H(rot)  DE(clash)    DE(int)     intcor
      9.95     -12.85       0.97        0.00      89.59       2.48       0.18       2.71       ----

> <Gold.Chemscore.Fitness>
9.9503

> <Gold.Chemscore.DG>
-12.8454

> <Gold.Chemscore.ZeroCoef>
-5.4800

> <Gold.Chemscore.Hbond>
0.9685

> <Gold.Chemscore.Metal>
0.0000

> <Gold.Chemscore.Lipo>
89.5923

> <Gold.Chemscore.Internal_Hbond>
0.0000

> <Gold.Chemscore.DEClash>
0.1837

> <Gold.Chemscore.DEInternal>
2.7113

> <Gold.Chemscore.Rot>
2.4812

> <Gold.Chemscore.Internal.Correction>
   9.000000E+99

> <Gold.Chemscore.Hbonds>
donor molecule, donor type, donor heavy atom, donor atom, acceptor molecule, acceptor atom, score
      P1  H  7997  8009       L1     6  0.96

> <Gold.Chemscore.Hbond.Weighted>
-3.2349

> <Gold.Chemscore.Metal.Weighted>
-0.0000

> <Gold.Chemscore.Lipo.Weighted>
-10.4823

> <Gold.Chemscore.Internal_Hbond.Weighted>
0.0000

> <Gold.Chemscore.DEClash.Weighted>
0.1837

> <Gold.Chemscore.DEInternal.Weighted>
2.7113

> <Gold.Chemscore.Rot.Weighted>
6.3518

> <Gold.Chemscore.Internal.Correction.Weighted>
   9.000000E+99

> <Gold.Protein.RotatedTorsions>
[ 6907 6896 6895 6894 ] final  128.01 input  -60.11 | X-H torsion
[ 7974 7965 7964 7962 ] final   25.97 input  175.53 | X-H torsion
[ 8008 7997 7996 7995 ] final  179.48 input   59.86 | X-H torsion
[ 10167 10162 10161 10158 ] final -148.63 input  -65.29 | X-H torsion
[ 10718 10713 10712 10709 ] final   64.53 input   66.30 | X-H torsion
[ 10763 10752 10751 10750 ] final -151.32 input  -60.55 | X-H torsion
[ 11005 11000 10999 10996 ] final  -40.81 input  -57.11 | X-H torsion

> <Gold.Protein.ActiveResidues>
 VAL166  LYS551  ARG553  GLY616  TRP617  ASP618  TYR619  PRO620  LYS621  CYS622 
 ASP623  PHE694  ASN695  SER759  ASP760  ASP761  ALA762  ILE779  LEU786  VAL792 
 PHE793  MET794  SER795  GLU796  ALA797  LYS798  CYS799  TRP800  GLU811  SER814 

> <Gold.Protein.RotatedAtoms>
  152.3760  133.6481  159.6123 H   0  0  0  0  0  0  0  0  0  0  0  0  # atno 6907 bound_to 6896
  150.7704  133.9193  159.3402 H   0  0  0  0  0  0  0  0  0  0  0  0  # atno 6908 bound_to 6896
  151.7007  135.0932  160.0301 H   0  0  0  0  0  0  0  0  0  0  0  0  # atno 6909 bound_to 6896
  146.1861  139.7392  142.8865 H   0  0  0  0  0  0  0  0  0  0  0  0  # atno 7974 bound_to 7965
  156.0429  140.1307  157.0136 H   0  0  0  0  0  0  0  0  0  0  0  0  # atno 8008 bound_to 7997
  154.4399  140.1026  156.6334 H   0  0  0  0  0  0  0  0  0  0  0  0  # atno 8009 bound_to 7997
  155.5639  140.3465  155.4500 H   0  0  0  0  0  0  0  0  0  0  0  0  # atno 8010 bound_to 7997
  139.7514  143.8513  152.2587 H   0  0  0  0  0  0  0  0  0  0  0  0  # atno 10167 bound_to 10162
  157.6045  130.9165  149.9858 H   0  0  0  0  0  0  0  0  0  0  0  0  # atno 10718 bound_to 10713
  154.8065  135.3263  154.7417 H   0  0  0  0  0  0  0  0  0  0  0  0  # atno 10763 bound_to 10752
  153.8074  135.6898  153.4850 H   0  0  0  0  0  0  0  0  0  0  0  0  # atno 10764 bound_to 10752
  153.1814  135.4585  154.9978 H   0  0  0  0  0  0  0  0  0  0  0  0  # atno 10765 bound_to 10752
  141.0201  133.6867  156.2372 H   0  0  0  0  0  0  0  0  0  0  0  0  # atno 11005 bound_to 11000
  145.3933  141.0375  143.3111 LP  0  0  0  0  0  0  0  0  0  0  0  0  # atno 17320 bound_to 7965
  144.8400  139.5487  143.6904 LP  0  0  0  0  0  0  0  0  0  0  0  0  # atno 17321 bound_to 7965
  139.8492  144.7173  150.9235 LP  0  0  0  0  0  0  0  0  0  0  0  0  # atno 17342 bound_to 10162
  140.7798  143.3914  151.1303 LP  0  0  0  0  0  0  0  0  0  0  0  0  # atno 17343 bound_to 10162
  156.1128  130.3649  150.0020 LP  0  0  0  0  0  0  0  0  0  0  0  0  # atno 17370 bound_to 10713
  156.8115  130.9326  151.3644 LP  0  0  0  0  0  0  0  0  0  0  0  0  # atno 17371 bound_to 10713
  140.6587  134.4990  157.5582 LP  0  0  0  0  0  0  0  0  0  0  0  0  # atno 17394 bound_to 11000
  139.9141  134.8283  156.1427 LP  0  0  0  0  0  0  0  0  0  0  0  0  # atno 17395 bound_to 11000

$$$$
