AV-unprocessed.smi:2106|AV-procd|sdf|8593|dock10
  -GOLD-   2272011323D 1   1.00000     0.00000
 Structure written by MMmdl.
 47 48  0  0  0  0  0  0  0  0  1 V2000
  148.9259  134.7537  162.2482 C   0  0  0  0  0  0  0  0  0  0  0  0
  148.9383  134.5460  160.7625 C   0  0  0  0  0  0  0  0  0  0  0  0
  148.9133  133.3180  160.0446 C   0  0  0  0  0  0  0  0  0  0  0  0
  148.9428  133.6935  158.7311 C   0  0  0  0  0  0  0  0  0  0  0  0
  148.9379  132.8599  157.4920 C   0  0  0  0  0  0  0  0  0  0  0  0
  148.9820  135.0767  158.7100 N   0  0  0  0  0  0  0  0  0  0  0  0
  149.0333  135.9770  157.5687 C   0  0  0  0  0  0  0  0  0  0  0  0
  150.2111  136.9458  157.6834 C   0  0  0  0  0  0  0  0  0  0  0  0
  151.1557  136.6826  158.4271 O   0  0  0  0  0  0  0  0  0  0  0  0
  150.1386  138.0633  156.9442 N   0  0  0  0  0  0  0  0  0  0  0  0
  151.1399  139.1216  156.9208 C   0  0  0  0  0  0  0  0  0  0  0  0
  150.6435  140.3729  157.6684 C   0  0  0  0  0  0  0  0  0  0  0  0
  151.6971  141.2108  158.2390 N   0  0  0  0  0  0  0  0  0  0  0  0
  151.1831  142.4665  158.7813 C   0  0  0  0  0  0  0  0  0  0  0  0
  152.2981  143.3258  159.4083 C   0  0  1  0  0  0  0  0  0  0  0  0
  151.7500  144.6018  160.0559 C   0  0  0  0  0  0  0  0  0  0  0  0
  152.9662  142.5664  160.4116 O   0  0  0  0  0  0  0  0  0  0  0  0
  153.5308  141.3557  159.9162 C   0  0  1  0  0  0  0  0  0  0  0  0
  154.2293  140.6415  161.0781 C   0  0  0  0  0  0  0  0  0  0  0  0
  152.4120  140.4992  159.2930 C   0  0  0  0  0  0  0  0  0  0  0  0
  148.9783  135.5954  159.9581 N   0  0  0  0  0  0  0  0  0  0  0  0
  148.8614  133.8028  162.7775 H   0  0  0  0  0  0  0  0  0  0  0  0
  148.0737  135.3612  162.5534 H   0  0  0  0  0  0  0  0  0  0  0  0
  149.8333  135.2577  162.5817 H   0  0  0  0  0  0  0  0  0  0  0  0
  148.8801  132.3120  160.4358 H   0  0  0  0  0  0  0  0  0  0  0  0
  148.9109  131.7979  157.7374 H   0  0  0  0  0  0  0  0  0  0  0  0
  149.8319  133.0423  156.8956 H   0  0  0  0  0  0  0  0  0  0  0  0
  148.0666  133.0831  156.8764 H   0  0  0  0  0  0  0  0  0  0  0  0
  149.1195  135.3924  156.6524 H   0  0  0  0  0  0  0  0  0  0  0  0
  148.0953  136.5307  157.5011 H   0  0  0  0  0  0  0  0  0  0  0  0
  149.3202  138.1963  156.3679 H   0  0  0  0  0  0  0  0  0  0  0  0
  152.0777  138.7652  157.3503 H   0  0  0  0  0  0  0  0  0  0  0  0
  151.3407  139.3492  155.8747 H   0  0  0  0  0  0  0  0  0  0  0  0
  150.0182  140.9706  157.0035 H   0  0  0  0  0  0  0  0  0  0  0  0
  149.9883  140.0412  158.4751 H   0  0  0  0  0  0  0  0  0  0  0  0
  150.7003  143.0470  157.9960 H   0  0  0  0  0  0  0  0  0  0  0  0
  150.4188  142.2576  159.5316 H   0  0  0  0  0  0  0  0  0  0  0  0
  153.0194  143.6060  158.6386 H   0  0  0  0  0  0  0  0  0  0  0  0
  151.2398  145.2260  159.3219 H   0  0  0  0  0  0  0  0  0  0  0  0
  152.5545  145.1934  160.4935 H   0  0  0  0  0  0  0  0  0  0  0  0
  151.0394  144.3679  160.8491 H   0  0  0  0  0  0  0  0  0  0  0  0
  154.2748  141.5973  159.1551 H   0  0  0  0  0  0  0  0  0  0  0  0
  154.6927  139.7125  160.7455 H   0  0  0  0  0  0  0  0  0  0  0  0
  153.5239  140.3988  161.8734 H   0  0  0  0  0  0  0  0  0  0  0  0
  155.0116  141.2683  161.5067 H   0  0  0  0  0  0  0  0  0  0  0  0
  151.7114  140.1959  160.0727 H   0  0  0  0  0  0  0  0  0  0  0  0
  152.8439  139.5826  158.8897 H   0  0  0  0  0  0  0  0  0  0  0  0
  1  2  1  0  0  0  0
  1 22  1  0  0  0  0
  1 23  1  0  0  0  0
  1 24  1  0  0  0  0
  2 21  2  0  0  0  0
  2  3  1  0  0  0  0
  3  4  2  0  0  0  0
  3 25  1  0  0  0  0
  4  5  1  0  0  0  0
  4  6  1  0  0  0  0
  5 26  1  0  0  0  0
  5 27  1  0  0  0  0
  5 28  1  0  0  0  0
  6  7  1  0  0  0  0
  6 21  1  0  0  0  0
  7  8  1  0  0  0  0
  7 29  1  0  0  0  0
  7 30  1  0  0  0  0
  8  9  2  0  0  0  0
  8 10  1  0  0  0  0
 10 11  1  0  0  0  0
 10 31  1  0  0  0  0
 11 12  1  0  0  0  0
 11 32  1  0  0  0  0
 11 33  1  0  0  0  0
 12 13  1  0  0  0  0
 12 34  1  0  0  0  0
 12 35  1  0  0  0  0
 13 20  1  0  0  0  0
 13 14  1  0  0  0  0
 14 15  1  0  0  0  0
 14 36  1  0  0  0  0
 14 37  1  0  0  0  0
 15 16  1  0  0  0  0
 15 17  1  0  0  0  0
 15 38  1  0  0  0  0
 16 39  1  0  0  0  0
 16 40  1  0  0  0  0
 16 41  1  0  0  0  0
 17 18  1  0  0  0  0
 18 19  1  0  0  0  0
 18 20  1  0  0  0  0
 18 42  1  0  0  0  0
 19 43  1  0  0  0  0
 19 44  1  0  0  0  0
 19 45  1  0  0  0  0
 20 46  1  0  0  0  0
 20 47  1  0  0  0  0
M  END
> <s_m_source_file>
AV-unprocessed.smi

> <i_m_source_file_index>
2106

> <i_lp_mmshare_version>
43012

> <i_f3d_flags>
0

> <s_epik_input>
W0NIM11jMVtjSF1jKFtDSDNdKW4objEpW0NIMl1DKD1PKVtOSF1bQ0gyXVtDSDJdTjJbQ0gyXVtDQEBIXShbQ0gzXSlPW0NAQEhdKFtDSDNdKVtDSDJdMg==

> <s_epik_cmdline>
J2VwaWtfcHl0aG9uJywgJy1waCcsICc3LjAnLCAnLXRuJywgJzgnLCAnLW1hJywgJzIwMCcsICctbWV0YWxfYmluZGluZycsICctaW1hZScsICc8aW5maWxlLm1hZT4nLCAnLW9tYWUnLCAnPG91dGZpbGUubWFlPic=

> <r_lp_tautomer_probability>
1

> <r_epik_Ionization_Penalty>
0.197284

> <r_epik_Ionization_Penalty_Charging>
0

> <r_epik_Ionization_Penalty_Neutral>
0.197284

> <r_epik_State_Penalty>
0.186684

> <r_epik_Charging_Adjusted_Penalty>
0.186684

> <i_epik_Tot_Q>
0

> <i_epik_Tot_abs_Q>
0

> <r_epik_Metal_State_Penalty>
0.186634

> <b_epik_Metal_Only>
0

> <s_lp_Force_Field>
OPLS_2005

> <r_lp_Energy>
17.5566

> <b_lp_Chiralities_Consistent>
1

> <s_lp_Variant>
AV-unprocessed.smi:2106-1

> <Gold.Version>
5.8.1

> <Gold.Id.Protein>
6NUR|6NUR_protein|mol2

> <Gold.PLP.Fitness>
50.7756

> <Gold.PLP.PLP>
-45.7394

> <Gold.PLP.part.hbond>
-3.1340

> <Gold.PLP.part.metal>
0.0000

> <Gold.PLP.part.buried>
-7.3944

> <Gold.PLP.part.nonpolar>
-36.6705

> <Gold.PLP.part.repulsive>
0.0675

> <Gold.PLP.ligand.clash>
0.0000

> <Gold.PLP.ligand.torsion>
0.5769

> <Gold.PLP.Chemscore.Hbond>
2.0586

> <Gold.PLP.Chemscore.CHOScore>
0.0000

> <Gold.PLP.Chemscore.Metal>
0.0000

> <Gold.Chemscore.Hbonds>
donor molecule, donor type, donor heavy atom, donor atom, acceptor molecule, acceptor atom, score
      P1  H  6896  6907       L1     9  0.55

> <Gold.PLP.Chemscore.Internal.Correction>
0.0142

> <Gold.Rescore>
     Score         DG    S(hbond)    S(metal)    S(lipo)     H(rot)  DE(clash)    DE(int)     intcor
     14.96     -17.57       1.03        0.00     110.43       1.67       0.36       2.26       ----

> <Gold.Chemscore.Fitness>
14.9563

> <Gold.Chemscore.DG>
-17.5727

> <Gold.Chemscore.ZeroCoef>
-5.4800

> <Gold.Chemscore.Hbond>
1.0289

> <Gold.Chemscore.Metal>
0.0000

> <Gold.Chemscore.Lipo>
110.4306

> <Gold.Chemscore.Internal_Hbond>
0.0000

> <Gold.Chemscore.DEClash>
0.3570

> <Gold.Chemscore.DEInternal>
2.2594

> <Gold.Chemscore.Rot>
1.6657

> <Gold.Chemscore.Internal.Correction>
   9.000000E+99

> <Gold.Chemscore.Hbonds>
donor molecule, donor type, donor heavy atom, donor atom, acceptor molecule, acceptor atom, score
      P1  H  6896  6907       L1     9  0.54

> <Gold.Chemscore.Hbond.Weighted>
-3.4364

> <Gold.Chemscore.Metal.Weighted>
-0.0000

> <Gold.Chemscore.Lipo.Weighted>
-12.9204

> <Gold.Chemscore.Internal_Hbond.Weighted>
0.0000

> <Gold.Chemscore.DEClash.Weighted>
0.3570

> <Gold.Chemscore.DEInternal.Weighted>
2.2594

> <Gold.Chemscore.Rot.Weighted>
4.2641

> <Gold.Chemscore.Internal.Correction.Weighted>
   9.000000E+99

> <Gold.Protein.RotatedTorsions>
[ 6907 6896 6895 6894 ] final  -33.66 input  -60.11 | X-H torsion
[ 7974 7965 7964 7962 ] final   79.56 input  175.53 | X-H torsion
[ 8008 7997 7996 7995 ] final  113.49 input   59.86 | X-H torsion
[ 10167 10162 10161 10158 ] final    0.30 input  -65.29 | X-H torsion
[ 10718 10713 10712 10709 ] final   44.63 input   66.30 | X-H torsion
[ 10763 10752 10751 10750 ] final  138.32 input  -60.55 | X-H torsion
[ 11005 11000 10999 10996 ] final   51.70 input  -57.11 | X-H torsion

> <Gold.Protein.ActiveResidues>
 VAL166  LYS551  ARG553  GLY616  TRP617  ASP618  TYR619  PRO620  LYS621  CYS622 
 ASP623  PHE694  ASN695  SER759  ASP760  ASP761  ALA762  ILE779  LEU786  VAL792 
 PHE793  MET794  SER795  GLU796  ALA797  LYS798  CYS799  TRP800  GLU811  SER814 

> <Gold.Protein.RotatedAtoms>
  151.0627  134.9747  159.8268 H   0  0  0  0  0  0  0  0  0  0  0  0  # atno 6907 bound_to 6896
  152.5397  134.2398  159.8867 H   0  0  0  0  0  0  0  0  0  0  0  0  # atno 6908 bound_to 6896
  151.2418  133.4352  159.2641 H   0  0  0  0  0  0  0  0  0  0  0  0  # atno 6909 bound_to 6896
  145.6626  139.2475  143.1914 H   0  0  0  0  0  0  0  0  0  0  0  0  # atno 7974 bound_to 7965
  156.2261  140.2978  156.0072 H   0  0  0  0  0  0  0  0  0  0  0  0  # atno 8008 bound_to 7997
  155.2351  140.0420  157.2984 H   0  0  0  0  0  0  0  0  0  0  0  0  # atno 8009 bound_to 7997
  154.5918  140.2403  155.7917 H   0  0  0  0  0  0  0  0  0  0  0  0  # atno 8010 bound_to 7997
  140.6734  143.6983  150.7972 H   0  0  0  0  0  0  0  0  0  0  0  0  # atno 10167 bound_to 10162
  157.4289  130.8013  149.7584 H   0  0  0  0  0  0  0  0  0  0  0  0  # atno 10718 bound_to 10713
  153.8877  135.3037  155.3447 H   0  0  0  0  0  0  0  0  0  0  0  0  # atno 10763 bound_to 10752
  154.7731  135.4875  153.9693 H   0  0  0  0  0  0  0  0  0  0  0  0  # atno 10764 bound_to 10752
  153.1315  135.6805  153.9268 H   0  0  0  0  0  0  0  0  0  0  0  0  # atno 10765 bound_to 10752
  140.0911  134.5208  155.8851 H   0  0  0  0  0  0  0  0  0  0  0  0  # atno 11005 bound_to 11000
  146.1113  140.7425  142.9502 LP  0  0  0  0  0  0  0  0  0  0  0  0  # atno 17320 bound_to 7965
  144.7084  140.3943  143.7100 LP  0  0  0  0  0  0  0  0  0  0  0  0  # atno 17321 bound_to 7965
  140.0673  143.5096  152.2598 LP  0  0  0  0  0  0  0  0  0  0  0  0  # atno 17342 bound_to 10162
  139.6014  144.7583  151.3162 LP  0  0  0  0  0  0  0  0  0  0  0  0  # atno 17343 bound_to 10162
  155.9906  130.3943  150.3021 LP  0  0  0  0  0  0  0  0  0  0  0  0  # atno 17370 bound_to 10713
  157.1176  131.0238  151.3022 LP  0  0  0  0  0  0  0  0  0  0  0  0  # atno 17371 bound_to 10713
  141.2078  133.6667  156.6329 LP  0  0  0  0  0  0  0  0  0  0  0  0  # atno 17394 bound_to 11000
  140.3351  134.7896  157.4356 LP  0  0  0  0  0  0  0  0  0  0  0  0  # atno 17395 bound_to 11000

$$$$
