AV-unprocessed.smi:1718|AV-procd|sdf|6929|dock1
  -GOLD-   22720 8143D 1   1.00000     0.00000
 Structure written by MMmdl.
 39 40  0  0  0  0  0  0  0  0  2 V2000
  149.5411  134.4274  154.7081 C   0  0  0  0  0  0  0  0  0  0  0  0
  150.4509  135.4742  155.3683 C   0  0  1  0  0  0  0  0  0  0  0  0
  150.0921  136.7490  154.8431 O   0  0  0  0  0  0  0  0  0  0  0  0
  150.9876  137.8101  155.1551 C   0  0  0  0  0  0  0  0  0  0  0  0
  150.3177  139.1414  154.7965 C   0  0  1  0  0  0  0  0  0  0  0  0
  148.9839  139.3777  155.5047 C   0  0  0  0  0  0  0  0  0  0  0  0
  148.9074  140.8870  155.5146 C   0  0  0  0  0  0  0  0  0  0  0  0
  150.3620  141.2670  155.7726 C   0  0  0  0  0  0  0  0  0  0  0  0
  151.1471  140.2360  155.1791 O   0  0  0  0  0  0  0  0  0  0  0  0
  150.2937  135.4691  156.8975 C   0  0  0  0  0  0  0  0  0  0  0  0
  151.2630  135.1931  157.6043 O   0  0  0  0  0  0  0  0  0  0  0  0
  149.0634  135.7786  157.3512 N   0  0  0  0  0  0  0  0  0  0  0  0
  148.5804  135.8080  158.6701 C   0  0  0  0  0  0  0  0  0  0  0  0
  148.0735  134.7329  159.3346 C   0  0  0  0  0  0  0  0  0  0  0  0
  147.5697  134.8258  160.6990 C   0  0  0  0  0  0  0  0  0  0  0  0
  147.0958  133.6300  161.5061 C   0  0  0  0  0  0  0  0  0  0  0  0
  146.0743  133.0199  160.9042 F   0  0  0  0  0  0  0  0  0  0  0  0
  148.0867  132.7494  161.6372 F   0  0  0  0  0  0  0  0  0  0  0  0
  146.7049  134.0008  162.7255 F   0  0  0  0  0  0  0  0  0  0  0  0
  147.6757  136.1045  161.2108 C   0  0  0  0  0  0  0  0  0  0  0  0
  148.1344  137.2255  160.6120 N   0  5  0  0  0  0  0  0  0  0  0  0
  148.6043  137.1265  159.3363 C   0  0  0  0  0  0  0  0  0  0  0  0
  149.0437  138.1065  158.7336 O   0  0  0  0  0  0  0  0  0  0  0  0
  149.7508  133.4260  155.0853 H   0  0  0  0  0  0  0  0  0  0  0  0
  149.6926  134.4104  153.6287 H   0  0  0  0  0  0  0  0  0  0  0  0
  148.4868  134.6405  154.8882 H   0  0  0  0  0  0  0  0  0  0  0  0
  151.4844  135.2482  155.0979 H   0  0  0  0  0  0  0  0  0  0  0  0
  151.2687  137.8099  156.2087 H   0  0  0  0  0  0  0  0  0  0  0  0
  151.9035  137.6902  154.5747 H   0  0  0  0  0  0  0  0  0  0  0  0
  150.1726  139.2076  153.7171 H   0  0  0  0  0  0  0  0  0  0  0  0
  148.1426  138.9081  154.9943 H   0  0  0  0  0  0  0  0  0  0  0  0
  149.0161  139.0002  156.5279 H   0  0  0  0  0  0  0  0  0  0  0  0
  148.5890  141.2527  154.5372 H   0  0  0  0  0  0  0  0  0  0  0  0
  148.2235  141.2789  156.2678 H   0  0  0  0  0  0  0  0  0  0  0  0
  150.6150  142.2461  155.3653 H   0  0  0  0  0  0  0  0  0  0  0  0
  150.5658  141.2824  156.8440 H   0  0  0  0  0  0  0  0  0  0  0  0
  148.3883  136.0612  156.6552 H   0  0  0  0  0  0  0  0  0  0  0  0
  148.0065  133.7693  158.8566 H   0  0  0  0  0  0  0  0  0  0  0  0
  147.3475  136.2473  162.2625 H   0  0  0  0  0  0  0  0  0  0  0  0
  1  2  1  0  0  0  0
  1 24  1  0  0  0  0
  1 25  1  0  0  0  0
  1 26  1  0  0  0  0
  2  3  1  0  0  0  0
  2 10  1  0  0  0  0
  2 27  1  0  0  0  0
  3  4  1  0  0  0  0
  4  5  1  0  0  0  0
  4 28  1  0  0  0  0
  4 29  1  0  0  0  0
  5  9  1  0  0  0  0
  5  6  1  0  0  0  0
  5 30  1  0  0  0  0
  6  7  1  0  0  0  0
  6 31  1  0  0  0  0
  6 32  1  0  0  0  0
  7  8  1  0  0  0  0
  7 33  1  0  0  0  0
  7 34  1  0  0  0  0
  8  9  1  0  0  0  0
  8 35  1  0  0  0  0
  8 36  1  0  0  0  0
 10 11  2  0  0  0  0
 10 12  1  0  0  0  0
 12 13  1  0  0  0  0
 12 37  1  0  0  0  0
 13 22  1  0  0  0  0
 13 14  2  0  0  0  0
 14 15  1  0  0  0  0
 14 38  1  0  0  0  0
 15 16  1  0  0  0  0
 15 20  2  0  0  0  0
 16 17  1  0  0  0  0
 16 18  1  0  0  0  0
 16 19  1  0  0  0  0
 20 21  1  0  0  0  0
 20 39  1  0  0  0  0
 21 22  1  0  0  0  0
 22 23  2  0  0  0  0
M  CHG  1  21  -1
M  END
> <s_m_source_file>
AV-unprocessed.smi

> <i_m_source_file_index>
1718

> <i_lp_mmshare_version>
43012

> <i_f3d_flags>
0

> <s_epik_input>
TzFbQ0gyXVtDSDJdW0NIMl1bQ0BIXTFbQ0gyXU9bQ0BASF0oW0NIM10pQyg9TylbTkhdYzJbY0hdYyhDKEYpKEYpRilbY0hdW25IXWMyPU8=

> <s_epik_cmdline>
J2VwaWtfcHl0aG9uJywgJy1waCcsICc3LjAnLCAnLXRuJywgJzgnLCAnLW1hJywgJzIwMCcsICctbWV0YWxfYmluZGluZycsICctaW1hZScsICc8aW5maWxlLm1hZT4nLCAnLW9tYWUnLCAnPG91dGZpbGUubWFlPic=

> <r_epik_Ionization_Penalty>
2.5466

> <r_epik_Ionization_Penalty_Charging>
0.0575837

> <r_epik_Ionization_Penalty_Neutral>
2.48901

> <r_epik_State_Penalty>
2.6532

> <r_epik_Charging_Adjusted_Penalty>
2.71078

> <i_epik_Tot_Q>
-1

> <i_epik_Tot_abs_Q>
1

> <r_epik_Metal_State_Penalty>
0.516196

> <b_epik_Metal_Only>
0

> <s_lp_Force_Field>
OPLS_2005

> <r_lp_Energy>
35.9934

> <b_lp_Chiralities_Consistent>
1

> <s_lp_Variant>
AV-unprocessed.smi:1718-8

> <Gold.Version>
5.8.1

> <Gold.Id.Protein>
6NUR|6NUR_protein|mol2

> <Gold.PLP.Fitness>
46.6691

> <Gold.PLP.PLP>
-36.4802

> <Gold.PLP.part.hbond>
-4.0000

> <Gold.PLP.part.metal>
0.0000

> <Gold.PLP.part.buried>
-5.4186

> <Gold.PLP.part.nonpolar>
-27.8915

> <Gold.PLP.part.repulsive>
0.3633

> <Gold.PLP.ligand.clash>
0.0000

> <Gold.PLP.ligand.torsion>
0.8920

> <Gold.PLP.Chemscore.Hbond>
3.9457

> <Gold.PLP.Chemscore.CHOScore>
0.0000

> <Gold.PLP.Chemscore.Metal>
0.0000

> <Gold.Chemscore.Hbonds>
donor molecule, donor type, donor heavy atom, donor atom, acceptor molecule, acceptor atom, score
      P1  H  6896  6909       L1    11  0.08
      P1  H  6931  6943       L1    21  1.57
      P1  H  6934  6947       L1    21  1.32
      P1  H  7989  7998       L1     9  1.00

> <Gold.PLP.Chemscore.Internal.Correction>
0.1360

> <Gold.Rescore>
     Score         DG    S(hbond)    S(metal)    S(lipo)     H(rot)  DE(clash)    DE(int)     intcor
     13.73     -14.53       1.94        0.00      62.25       1.85       0.00       0.80       ----

> <Gold.Chemscore.Fitness>
13.7349

> <Gold.Chemscore.DG>
-14.5343

> <Gold.Chemscore.ZeroCoef>
-5.4800

> <Gold.Chemscore.Hbond>
1.9449

> <Gold.Chemscore.Metal>
0.0000

> <Gold.Chemscore.Lipo>
62.2456

> <Gold.Chemscore.Internal_Hbond>
0.0000

> <Gold.Chemscore.DEClash>
0.0015

> <Gold.Chemscore.DEInternal>
0.7980

> <Gold.Chemscore.Rot>
1.8455

> <Gold.Chemscore.Internal.Correction>
   9.000000E+99

> <Gold.Chemscore.Hbonds>
donor molecule, donor type, donor heavy atom, donor atom, acceptor molecule, acceptor atom, score
      P1  H  6896  6909       L1    11  0.08
      P1  H  6931  6943       L1    21  0.53
      P1  H  6934  6947       L1    21  0.47
      P1  H  7989  7998       L1     9  0.14

> <Gold.Chemscore.Hbond.Weighted>
-6.4961

> <Gold.Chemscore.Metal.Weighted>
-0.0000

> <Gold.Chemscore.Lipo.Weighted>
-7.2827

> <Gold.Chemscore.Internal_Hbond.Weighted>
0.0000

> <Gold.Chemscore.DEClash.Weighted>
0.0015

> <Gold.Chemscore.DEInternal.Weighted>
0.7980

> <Gold.Chemscore.Rot.Weighted>
4.7245

> <Gold.Chemscore.Internal.Correction.Weighted>
   9.000000E+99

> <Gold.Protein.RotatedTorsions>
[ 6907 6896 6895 6894 ] final   23.74 input  -60.11 | X-H torsion
[ 7974 7965 7964 7962 ] final  132.38 input  175.53 | X-H torsion
[ 8008 7997 7996 7995 ] final  -14.49 input   59.86 | X-H torsion
[ 10167 10162 10161 10158 ] final   78.19 input  -65.29 | X-H torsion
[ 10718 10713 10712 10709 ] final -139.54 input   66.30 | X-H torsion
[ 10763 10752 10751 10750 ] final  -17.77 input  -60.55 | X-H torsion
[ 11005 11000 10999 10996 ] final   36.16 input  -57.11 | X-H torsion

> <Gold.Protein.ActiveResidues>
 VAL166  LYS551  ARG553  GLY616  TRP617  ASP618  TYR619  PRO620  LYS621  CYS622 
 ASP623  PHE694  ASN695  SER759  ASP760  ASP761  ALA762  ILE779  LEU786  VAL792 
 PHE793  MET794  SER795  GLU796  ALA797  LYS798  CYS799  TRP800  GLU811  SER814 

> <Gold.Protein.RotatedAtoms>
  151.9470  135.0187  160.0539 H   0  0  0  0  0  0  0  0  0  0  0  0  # atno 6907 bound_to 6896
  152.1987  133.4820  159.5055 H   0  0  0  0  0  0  0  0  0  0  0  0  # atno 6908 bound_to 6896
  150.6950  134.1536  159.4192 H   0  0  0  0  0  0  0  0  0  0  0  0  # atno 6909 bound_to 6896
  144.9974  139.4346  143.5309 H   0  0  0  0  0  0  0  0  0  0  0  0  # atno 7974 bound_to 7965
  154.5206  140.2221  155.8983 H   0  0  0  0  0  0  0  0  0  0  0  0  # atno 8008 bound_to 7997
  156.1657  140.3132  155.8850 H   0  0  0  0  0  0  0  0  0  0  0  0  # atno 8009 bound_to 7997
  155.3660  140.0464  157.3036 H   0  0  0  0  0  0  0  0  0  0  0  0  # atno 8010 bound_to 7997
  139.9736  144.5877  150.7963 H   0  0  0  0  0  0  0  0  0  0  0  0  # atno 10167 bound_to 10162
  156.3119  130.7486  151.1564 H   0  0  0  0  0  0  0  0  0  0  0  0  # atno 10718 bound_to 10713
  153.5790  135.7005  153.5472 H   0  0  0  0  0  0  0  0  0  0  0  0  # atno 10763 bound_to 10752
  153.3278  135.4056  155.1470 H   0  0  0  0  0  0  0  0  0  0  0  0  # atno 10764 bound_to 10752
  154.8620  135.3711  154.5316 H   0  0  0  0  0  0  0  0  0  0  0  0  # atno 10765 bound_to 10752
  140.2353  134.3479  155.7947 H   0  0  0  0  0  0  0  0  0  0  0  0  # atno 11005 bound_to 11000
  146.3445  139.9342  142.8749 LP  0  0  0  0  0  0  0  0  0  0  0  0  # atno 17320 bound_to 7965
  145.2201  140.9931  143.4051 LP  0  0  0  0  0  0  0  0  0  0  0  0  # atno 17321 bound_to 7965
  140.7513  143.2971  151.3176 LP  0  0  0  0  0  0  0  0  0  0  0  0  # atno 17342 bound_to 10162
  139.6462  144.0446  152.2593 LP  0  0  0  0  0  0  0  0  0  0  0  0  # atno 17343 bound_to 10162
  157.7393  131.0531  150.5241 LP  0  0  0  0  0  0  0  0  0  0  0  0  # atno 17370 bound_to 10713
  156.5382  130.4201  149.6167 LP  0  0  0  0  0  0  0  0  0  0  0  0  # atno 17371 bound_to 10713
  141.2215  133.7268  156.8798 LP  0  0  0  0  0  0  0  0  0  0  0  0  # atno 17394 bound_to 11000
  140.1708  134.9101  157.2831 LP  0  0  0  0  0  0  0  0  0  0  0  0  # atno 17395 bound_to 11000

$$$$
