#       Name:                AV-unprocessed.smi:13
#       Creating user name   scv26
#       Creation time:       Thu Mar 26 15:20:06 2020


#       File generated by GOLD software.
#

@<TRIPOS>MOLECULE
AV-unprocessed.smi:13
    64    68     1
SMALL
NO_CHARGES


@<TRIPOS>ATOM
      1 ****        -3.9090   1.7379  -3.3862 C.3            1 S1                 0.0000
      2 ****        -3.5781   0.7112  -2.3033 C.3            1 S1                 0.0000
      3 ****        -4.9075   0.3302  -1.6376 C.3            1 S1                 0.0000
      4 ****        -2.6955  -0.4657  -2.7447 C.3            1 S1                 0.0000
      5 ****        -1.9991  -0.3242  -1.4742 N.3            1 S1                 0.0000
      6 ****        -0.5952  -0.5420  -1.5125 C.ar           1 S1                 0.0000
      7 ****         0.1844   0.0043  -2.4852 N.ar           1 S1                 0.0000
      8 ****         1.5048  -0.1999  -2.4993 C.ar           1 S1                 0.0000
      9 ****         2.2481  -0.9046  -1.6451 N.ar           1 S1                 0.0000
     10 ****         1.4785  -1.4531  -0.6626 C.ar           1 S1                 0.0000
     11 ****         0.0673  -1.3248  -0.5296 C.ar           1 S1                 0.0000
     12 ****        -0.3700  -2.0236   0.5882 N.2            1 S1                 0.0000
     13 ****         0.7203  -2.5395   1.0863 C.2            1 S1                 0.0000
     14 ****         1.8789  -2.2358   0.4067 N.pl3          1 S1                 0.0000
     15 ****         3.2262  -2.6705   0.7445 C.3            1 S1                 0.0000
     16 ****         3.8920  -1.8204   1.8524 C.3            1 S1                 0.0000
     17 ****         3.1374  -1.9447   3.0461 O.3            1 S1                 0.0000
     18 ****         5.3241  -2.2482   2.1476 C.3            1 S1                 0.0000
     19 ****         5.9668  -0.9562   2.6329 C.3            1 S1                 0.0000
     20 ****         5.4021   0.0194   1.7734 O.3            1 S1                 0.0000
     21 ****         4.0414  -0.3202   1.5219 C.3            1 S1                 0.0000
     22 ****        -2.3977   1.0751  -1.3773 C.3            1 S1                 0.0000
     23 ****        -2.6209   1.5064   0.0735 C.3            1 S1                 0.0000
     24 ****        -1.3390   1.8141   0.8450 C.3            1 S1                 0.0000
     25 ****        -1.8152   2.7463   1.9453 C.3            1 S1                 0.0000
     26 ****        -3.1353   3.3071   1.4077 C.3            1 S1                 0.0000
     27 ****        -3.2782   2.7632   0.1019 O.3            1 S1                 0.0000
     28 ****        -4.5819   1.3246  -4.1383 H              1 S1                 0.0000
     29 ****        -3.0111   2.0725  -3.9065 H              1 S1                 0.0000
     30 ****        -4.3854   2.6237  -2.9646 H              1 S1                 0.0000
     31 ****        -4.7705  -0.4265  -0.8646 H              1 S1                 0.0000
     32 ****        -5.6139  -0.0787  -2.3606 H              1 S1                 0.0000
     33 ****        -5.3811   1.1916  -1.1654 H              1 S1                 0.0000
     34 ****        -3.2262  -1.4125  -2.8483 H              1 S1                 0.0000
     35 ****        -2.0879  -0.2410  -3.6228 H              1 S1                 0.0000
     36 ****         2.0423   0.2710  -3.3092 H              1 S1                 0.0000
     37 ****         0.7097  -3.1561   1.9735 H              1 S1                 0.0000
     38 ****         3.1800  -3.7168   1.0493 H              1 S1                 0.0000
     39 ****         3.8313  -2.6450  -0.1627 H              1 S1                 0.0000
     40 ****         2.2810  -1.5737   2.8980 H              1 S1                 0.0000
     41 ****         5.4003  -3.0632   2.8686 H              1 S1                 0.0000
     42 ****         5.8213  -2.5682   1.2307 H              1 S1                 0.0000
     43 ****         5.6875  -0.7424   3.6659 H              1 S1                 0.0000
     44 ****         7.0545  -0.9728   2.5643 H              1 S1                 0.0000
     45 ****         3.8306  -0.1027   0.4757 H              1 S1                 0.0000
     46 ****         3.3800   0.3045   2.1241 H              1 S1                 0.0000
     47 ****        -1.6995   1.7284  -1.9047 H              1 S1                 0.0000
     48 ****        -3.2248   0.7816   0.6229 H              1 S1                 0.0000
     49 ****        -0.8515   0.9193   1.2323 H              1 S1                 0.0000
     50 ****        -0.6276   2.3350   0.2028 H              1 S1                 0.0000
     51 ****        -1.9887   2.1971   2.8713 H              1 S1                 0.0000
     52 ****        -1.0854   3.5299   2.1504 H              1 S1                 0.0000
     53 ****        -3.9718   2.9832   2.0281 H              1 S1                 0.0000
     54 ****        -3.1410   4.3967   1.3718 H              1 S1                 0.0000
     55 ****        -2.2102  -0.9578  -0.7298 LP             1 S1                 0.0000
     56 ****        -0.2362   0.5654  -3.1981 LP             1 S1                 0.0000
     57 ****         3.2393  -1.0160  -1.7160 LP             1 S1                 0.0000
     58 ****        -1.3049  -2.1112   0.9321 LP             1 S1                 0.0000
     59 ****         3.5946  -1.4533   3.7874 LP             1 S1                 0.0000
     60 ****         3.0493  -2.9103   3.2909 LP             1 S1                 0.0000
     61 ****         5.9079   0.0403   0.9110 LP             1 S1                 0.0000
     62 ****         5.4488   0.9182   2.2092 LP             1 S1                 0.0000
     63 ****        -4.2479   2.6434  -0.1111 LP             1 S1                 0.0000
     64 ****        -2.8631   3.3780  -0.5686 LP             1 S1                 0.0000
@<TRIPOS>BOND
    1    1    2 1     
    2    1   28 1     
    3    1   29 1     
    4    1   30 1     
    5    2   22 1     
    6    2    3 1     
    7    2    4 1     
    8    3   31 1     
    9    3   32 1     
   10    3   33 1     
   11    4    5 1     
   12    4   34 1     
   13    4   35 1     
   14    5    6 1     
   15    5   22 1     
   16    6   11 ar    
   17    6    7 ar    
   18    7    8 ar    
   19    8    9 ar    
   20    8   36 1     
   21    9   10 ar    
   22   10   14 1     
   23   10   11 ar    
   24   11   12 1     
   25   12   13 2     
   26   13   14 1     
   27   13   37 1     
   28   14   15 1     
   29   15   16 1     
   30   15   38 1     
   31   15   39 1     
   32   16   21 1     
   33   16   17 1     
   34   16   18 1     
   35   17   40 1     
   36   18   19 1     
   37   18   41 1     
   38   18   42 1     
   39   19   20 1     
   40   19   43 1     
   41   19   44 1     
   42   20   21 1     
   43   21   45 1     
   44   21   46 1     
   45   22   23 1     
   46   22   47 1     
   47   23   27 1     
   48   23   24 1     
   49   23   48 1     
   50   24   25 1     
   51   24   49 1     
   52   24   50 1     
   53   25   26 1     
   54   25   51 1     
   55   25   52 1     
   56   26   27 1     
   57   26   53 1     
   58   26   54 1     
   59    5   55 1     
   60    7   56 1     
   61    9   57 1     
   62   12   58 1     
   63   17   59 1     
   64   17   60 1     
   65   20   61 1     
   66   20   62 1     
   67   27   63 1     
   68   27   64 1     
@<TRIPOS>SUBSTRUCTURE
      1 S1             1
@<TRIPOS>SET
LONE_PAIRS      STATIC     ATOMS    <user>   **** ""
10 55 56 57 58 59 60 61 62 63 64
DONOR_HYDROGENS      STATIC     ATOMS    <user>   **** ""
1 40
ATOM$BLUE        STATIC     ATOMS    COLORGROUP SYSTEM
10 55 56 57 58 59 60 61 62 63 64
ATOM$RED        STATIC     ATOMS    COLORGROUP SYSTEM
1 40
