AV-unprocessed.smi:37|AV-procd|sdf|321|dock10
  -GOLD-   2262016143D 1   1.00000     0.00000
 Structure written by MMmdl.
 43 44  0  0  0  0  0  0  0  0  2 V2000
  146.8333  134.5195  162.3928 C   0  0  0  0  0  0  0  0  0  0  0  0
  147.5199  135.8869  162.2719 C   0  0  0  0  0  0  0  0  0  0  0  0
  147.5870  136.3822  160.8286 C   0  0  0  0  0  0  0  0  0  0  0  0
  148.0885  137.4703  160.5458 O   0  0  0  0  0  0  0  0  0  0  0  0
  147.0327  135.5223  159.9615 O   0  0  0  0  0  0  0  0  0  0  0  0
  146.9931  135.8360  158.5800 C   0  0  0  0  0  0  0  0  0  0  0  0
  147.9798  134.9324  157.8289 C   0  0  2  0  0  0  0  0  0  0  0  0
  149.2967  135.4870  157.8558 O   0  0  0  0  0  0  0  0  0  0  0  0
  149.9096  135.3716  156.6015 C   0  0  2  0  0  0  0  0  0  0  0  0
  149.9973  136.7366  155.9438 N   0  0  0  0  0  0  0  0  0  0  0  0
  148.8626  137.4536  155.5984 C   0  0  0  0  0  0  0  0  0  0  0  0
  148.9502  138.6633  155.0088 C   0  0  0  0  0  0  0  0  0  0  0  0
  147.8301  139.3321  154.6854 F   0  0  0  0  0  0  0  0  0  0  0  0
  150.2639  139.2383  154.7284 C   0  0  0  0  0  0  0  0  0  0  0  0
  150.3376  140.3381  154.1826 O   0  0  0  0  0  0  0  0  0  0  0  0
  151.3646  138.5187  155.0911 N   0  5  0  0  0  0  0  0  0  0  0  0
  151.2810  137.2946  155.6896 C   0  0  0  0  0  0  0  0  0  0  0  0
  152.2695  136.6397  156.0204 O   0  0  0  0  0  0  0  0  0  0  0  0
  149.0288  134.4355  155.7678 C   0  0  1  0  0  0  0  0  0  0  0  0
  149.5794  132.5489  156.1187 Br  0  0  0  0  0  0  0  0  0  0  0  0
  147.6550  134.7198  156.3463 C   0  0  1  0  0  0  0  0  0  0  0  0
  146.7675  133.6323  156.1117 O   0  0  0  0  0  0  0  0  0  0  0  0
  146.4961  133.2266  154.8590 C   0  0  0  0  0  0  0  0  0  0  0  0
  147.0096  133.6701  153.8302 O   0  0  0  0  0  0  0  0  0  0  0  0
  145.4367  132.1235  154.8340 C   0  0  0  0  0  0  0  0  0  0  0  0
  145.1332  131.5960  153.4239 C   0  0  0  0  0  0  0  0  0  0  0  0
  146.8536  134.1712  163.4255 H   0  0  0  0  0  0  0  0  0  0  0  0
  147.3331  133.7683  161.7805 H   0  0  0  0  0  0  0  0  0  0  0  0
  145.7885  134.5675  162.0838 H   0  0  0  0  0  0  0  0  0  0  0  0
  146.9891  136.6260  162.8724 H   0  0  0  0  0  0  0  0  0  0  0  0
  148.5334  135.8263  162.6692 H   0  0  0  0  0  0  0  0  0  0  0  0
  145.9829  135.7147  158.1874 H   0  0  0  0  0  0  0  0  0  0  0  0
  147.2747  136.8816  158.4500 H   0  0  0  0  0  0  0  0  0  0  0  0
  148.0487  133.9671  158.3331 H   0  0  0  0  0  0  0  0  0  0  0  0
  150.9439  135.0408  156.7094 H   0  0  0  0  0  0  0  0  0  0  0  0
  147.8808  137.0563  155.7986 H   0  0  0  0  0  0  0  0  0  0  0  0
  149.1032  134.6195  154.6960 H   0  0  0  0  0  0  0  0  0  0  0  0
  147.2875  135.6511  155.9119 H   0  0  0  0  0  0  0  0  0  0  0  0
  145.7772  131.3046  155.4679 H   0  0  0  0  0  0  0  0  0  0  0  0
  144.5226  132.5117  155.2839 H   0  0  0  0  0  0  0  0  0  0  0  0
  144.3801  130.8092  153.4626 H   0  0  0  0  0  0  0  0  0  0  0  0
  146.0233  131.1765  152.9538 H   0  0  0  0  0  0  0  0  0  0  0  0
  144.7498  132.3873  152.7787 H   0  0  0  0  0  0  0  0  0  0  0  0
  1  2  1  0  0  0  0
  1 27  1  0  0  0  0
  1 28  1  0  0  0  0
  1 29  1  0  0  0  0
  2  3  1  0  0  0  0
  2 30  1  0  0  0  0
  2 31  1  0  0  0  0
  3  4  2  0  0  0  0
  3  5  1  0  0  0  0
  5  6  1  0  0  0  0
  6  7  1  0  0  0  0
  6 32  1  0  0  0  0
  6 33  1  0  0  0  0
  7 21  1  0  0  0  0
  7  8  1  0  0  0  0
  7 34  1  0  0  0  0
  8  9  1  0  0  0  0
  9 10  1  0  0  0  0
  9 19  1  0  0  0  0
  9 35  1  0  0  0  0
 10 17  1  0  0  0  0
 10 11  1  0  0  0  0
 11 12  2  0  0  0  0
 11 36  1  0  0  0  0
 12 13  1  0  0  0  0
 12 14  1  0  0  0  0
 14 15  2  0  0  0  0
 14 16  1  0  0  0  0
 16 17  1  0  0  0  0
 17 18  2  0  0  0  0
 19 20  1  0  0  0  0
 19 21  1  0  0  0  0
 19 37  1  0  0  0  0
 21 22  1  0  0  0  0
 21 38  1  0  0  0  0
 22 23  1  0  0  0  0
 23 24  2  0  0  0  0
 23 25  1  0  0  0  0
 25 26  1  0  0  0  0
 25 39  1  0  0  0  0
 25 40  1  0  0  0  0
 26 41  1  0  0  0  0
 26 42  1  0  0  0  0
 26 43  1  0  0  0  0
M  CHG  1  16  -1
M  END
> <s_m_source_file>
AV-unprocessed.smi

> <i_m_source_file_index>
37

> <i_lp_mmshare_version>
43012

> <i_f3d_flags>
0

> <s_epik_input>
W0NIM11bQ0gyXUMoPU8pT1tDSDJdW0NAQEhdMU9bQ0BASF0objJbY0hdYyhGKWMoPU8pW25IXWMyPU8pW0NAQEhdKEJyKVtDQEhdMU9DKD1PKVtDSDJdW0NIM10=

> <s_epik_cmdline>
J2VwaWtfcHl0aG9uJywgJy1waCcsICc3LjAnLCAnLXRuJywgJzgnLCAnLW1hJywgJzIwMCcsICctbWV0YWxfYmluZGluZycsICctaW1hZScsICc8aW5maWxlLm1hZT4nLCAnLW9tYWUnLCAnPG91dGZpbGUubWFlPic=

> <r_epik_Ionization_Penalty>
1.08158

> <r_epik_Ionization_Penalty_Charging>
9.05154e-09

> <r_epik_Ionization_Penalty_Neutral>
1.08158

> <r_epik_State_Penalty>
1.13706

> <r_epik_Charging_Adjusted_Penalty>
1.13706

> <i_epik_Tot_Q>
-1

> <i_epik_Tot_abs_Q>
1

> <r_epik_Metal_State_Penalty>
0.00343535

> <b_epik_Metal_Only>
0

> <s_epik_Chemistry_Notes>
This compound has an ester and may undergo hydrolysis at high or low pH. This compound contains an acetal/aminal-like group ( X-CH(R)-Y where X, Y are N, S, or O) that may be acid/base labile, releasing an aldehyde.

> <s_lp_Force_Field>
OPLS_2005

> <r_lp_Energy>
31.9514

> <b_lp_Chiralities_Consistent>
1

> <s_lp_Variant>
AV-unprocessed.smi:37-19

> <Gold.Version>
5.8.1

> <Gold.Id.Protein>
6NUR|6NUR_protein|mol2

> <Gold.PLP.Fitness>
43.7368

> <Gold.PLP.PLP>
-31.8056

> <Gold.PLP.part.hbond>
-5.0000

> <Gold.PLP.part.metal>
0.0000

> <Gold.PLP.part.buried>
-7.0717

> <Gold.PLP.part.nonpolar>
-21.0873

> <Gold.PLP.part.repulsive>
0.4100

> <Gold.PLP.ligand.clash>
0.0000

> <Gold.PLP.ligand.torsion>
0.7156

> <Gold.PLP.Chemscore.Hbond>
4.4217

> <Gold.PLP.Chemscore.CHOScore>
0.0000

> <Gold.PLP.Chemscore.Metal>
0.0000

> <Gold.Chemscore.Hbonds>
donor molecule, donor type, donor heavy atom, donor atom, acceptor molecule, acceptor atom, score
      P1  H  6896  6909       L1     8  0.19
      P1  H  6931  6943       L1     4  0.64
      P1  H  6934  6947       L1     4  0.64
      P1  H  7989  7998       L1    15  0.98
      P1  H 10752 10765       L1    18  1.00

> <Gold.PLP.Chemscore.Internal.Correction>
0.0974

> <Gold.Rescore>
     Score         DG    S(hbond)    S(metal)    S(lipo)     H(rot)  DE(clash)    DE(int)     intcor
     15.55     -17.31       4.50        0.00      44.05       3.27       0.00       1.76       ----

> <Gold.Chemscore.Fitness>
15.5516

> <Gold.Chemscore.DG>
-17.3145

> <Gold.Chemscore.ZeroCoef>
-5.4800

> <Gold.Chemscore.Hbond>
4.5043

> <Gold.Chemscore.Metal>
0.0000

> <Gold.Chemscore.Lipo>
44.0473

> <Gold.Chemscore.Internal_Hbond>
0.0000

> <Gold.Chemscore.DEClash>
0.0029

> <Gold.Chemscore.DEInternal>
1.7600

> <Gold.Chemscore.Rot>
3.2669

> <Gold.Chemscore.Internal.Correction>
   9.000000E+99

> <Gold.Chemscore.Hbonds>
donor molecule, donor type, donor heavy atom, donor atom, acceptor molecule, acceptor atom, score
      P1  H  6896  6909       L1     8  0.13
      P1  H  6931  6943       L1     4  0.59
      P1  H  6934  6947       L1     4  0.63
      P1  H  7989  7998       L1    15  0.87
      P1  H 10752 10765       L1    18  0.95

> <Gold.Chemscore.Hbond.Weighted>
-15.0443

> <Gold.Chemscore.Metal.Weighted>
-0.0000

> <Gold.Chemscore.Lipo.Weighted>
-5.1535

> <Gold.Chemscore.Internal_Hbond.Weighted>
0.0000

> <Gold.Chemscore.DEClash.Weighted>
0.0029

> <Gold.Chemscore.DEInternal.Weighted>
1.7600

> <Gold.Chemscore.Rot.Weighted>
8.3634

> <Gold.Chemscore.Internal.Correction.Weighted>
   9.000000E+99

> <Gold.Protein.RotatedTorsions>
[ 6907 6896 6895 6894 ] final   44.40 input  -60.11 | X-H torsion
[ 7974 7965 7964 7962 ] final   37.61 input  175.53 | X-H torsion
[ 8008 7997 7996 7995 ] final  125.76 input   59.86 | X-H torsion
[ 10167 10162 10161 10158 ] final   92.04 input  -65.29 | X-H torsion
[ 10718 10713 10712 10709 ] final  121.79 input   66.30 | X-H torsion
[ 10763 10752 10751 10750 ] final -140.35 input  -60.55 | X-H torsion
[ 11005 11000 10999 10996 ] final   19.54 input  -57.11 | X-H torsion

> <Gold.Protein.ActiveResidues>
 VAL166  LYS551  ARG553  GLY616  TRP617  ASP618  TYR619  PRO620  LYS621  CYS622 
 ASP623  PHE694  ASN695  SER759  ASP760  ASP761  ALA762  ILE779  LEU786  VAL792 
 PHE793  MET794  SER795  GLU796  ALA797  LYS798  CYS799  TRP800  GLU811  SER814 

> <Gold.Protein.RotatedAtoms>
  152.2320  134.8312  160.0472 H   0  0  0  0  0  0  0  0  0  0  0  0  # atno 6907 bound_to 6896
  151.9058  133.3544  159.3854 H   0  0  0  0  0  0  0  0  0  0  0  0  # atno 6908 bound_to 6896
  150.7028  134.4708  159.5468 H   0  0  0  0  0  0  0  0  0  0  0  0  # atno 6909 bound_to 6896
  146.1125  139.5873  142.9343 H   0  0  0  0  0  0  0  0  0  0  0  0  # atno 7974 bound_to 7965
  156.2844  140.2708  156.2002 H   0  0  0  0  0  0  0  0  0  0  0  0  # atno 8008 bound_to 7997
  155.0369  140.0386  157.2513 H   0  0  0  0  0  0  0  0  0  0  0  0  # atno 8009 bound_to 7997
  154.7307  140.2706  155.6464 H   0  0  0  0  0  0  0  0  0  0  0  0  # atno 8010 bound_to 7997
  139.8316  144.6684  150.9393 H   0  0  0  0  0  0  0  0  0  0  0  0  # atno 10167 bound_to 10162
  157.5791  131.1076  150.8222 H   0  0  0  0  0  0  0  0  0  0  0  0  # atno 10718 bound_to 10713
  154.8581  135.3556  154.5693 H   0  0  0  0  0  0  0  0  0  0  0  0  # atno 10763 bound_to 10752
  153.6306  135.7002  153.5281 H   0  0  0  0  0  0  0  0  0  0  0  0  # atno 10764 bound_to 10752
  153.3052  135.4194  155.1247 H   0  0  0  0  0  0  0  0  0  0  0  0  # atno 10765 bound_to 10752
  140.4126  134.1602  155.7668 H   0  0  0  0  0  0  0  0  0  0  0  0  # atno 11005 bound_to 11000
  145.5635  141.0402  143.2213 LP  0  0  0  0  0  0  0  0  0  0  0  0  # atno 17320 bound_to 7965
  144.7524  139.7161  143.7268 LP  0  0  0  0  0  0  0  0  0  0  0  0  # atno 17321 bound_to 7965
  140.7806  143.3996  151.1172 LP  0  0  0  0  0  0  0  0  0  0  0  0  # atno 17342 bound_to 10162
  139.7649  143.8580  152.3108 LP  0  0  0  0  0  0  0  0  0  0  0  0  # atno 17343 bound_to 10162
  156.8673  130.5134  149.5299 LP  0  0  0  0  0  0  0  0  0  0  0  0  # atno 17370 bound_to 10713
  156.0836  130.5840  150.9608 LP  0  0  0  0  0  0  0  0  0  0  0  0  # atno 17371 bound_to 10713
  141.1815  133.8403  157.1240 LP  0  0  0  0  0  0  0  0  0  0  0  0  # atno 17394 bound_to 11000
  140.0257  134.9925  157.0681 LP  0  0  0  0  0  0  0  0  0  0  0  0  # atno 17395 bound_to 11000

$$$$
