#       Name:                AV-unprocessed.smi:3162
#       Creating user name   scv26
#       Creation time:       Fri Mar 27 17:49:51 2020


#       File generated by GOLD software.
#

@<TRIPOS>MOLECULE
AV-unprocessed.smi:3162
    40    40     1
SMALL
NO_CHARGES


@<TRIPOS>ATOM
      1 ****        -2.4723   2.8261  -0.9587 C.3            1 S1                 0.0000
      2 ****        -1.9424   1.4353  -1.3417 C.3            1 S1                 0.0000
      3 ****        -0.4217   1.2562  -1.1405 C.3            1 S1                 0.0000
      4 ****        -0.0746  -0.1688  -1.3205 N.3            1 S1                 0.0000
      5 ****         1.3297  -0.5506  -1.1464 C.3            1 S1                 0.0000
      6 ****         1.4598  -2.0137  -1.6009 C.3            1 S1                 0.0000
      7 ****         1.8346  -0.3269   0.3020 C.3            1 S1                 0.0000
      8 ****         1.1641  -1.1539   1.2935 N.pl3          1 S1                 0.0000
      9 ****        -0.0375  -0.9256   1.9310 C.2            1 S1                 0.0000
     10 ****        -0.2635  -1.9764   2.7743 C.2            1 S1                 0.0000
     11 ****        -1.4308  -2.2161   3.6874 C.3            1 S1                 0.0000
     12 ****         0.8791  -2.8043   2.5839 C.2            1 S1                 0.0000
     13 ****         1.7323  -2.3088   1.7027 N.2            1 S1                 0.0000
     14 ****         0.3863   2.1928  -2.0568 C.2            1 S1                 0.0000
     15 ****         1.2502   3.0246  -1.4691 N.am           1 S1                 0.0000
     16 ****         0.2465   2.1495  -3.2776 O.2            1 S1                 0.0000
     17 ****        -3.5567   2.8668  -1.0622 H              1 S1                 0.0000
     18 ****        -2.0542   3.6073  -1.5937 H              1 S1                 0.0000
     19 ****        -2.2297   3.0674   0.0763 H              1 S1                 0.0000
     20 ****        -2.4685   0.6970  -0.7347 H              1 S1                 0.0000
     21 ****        -2.2139   1.2164  -2.3754 H              1 S1                 0.0000
     22 ****        -0.2094   1.5268  -0.1062 H              1 S1                 0.0000
     23 ****        -0.3957  -0.5052  -2.2173 H              1 S1                 0.0000
     24 ****         1.9523   0.0384  -1.8196 H              1 S1                 0.0000
     25 ****         2.4847  -2.3674  -1.4858 H              1 S1                 0.0000
     26 ****         1.1924  -2.1237  -2.6524 H              1 S1                 0.0000
     27 ****         0.8131  -2.6777  -1.0260 H              1 S1                 0.0000
     28 ****         2.9031  -0.5444   0.3430 H              1 S1                 0.0000
     29 ****         1.7435   0.7166   0.6017 H              1 S1                 0.0000
     30 ****        -0.6299  -0.0452   1.7295 H              1 S1                 0.0000
     31 ****        -1.8463  -3.2150   3.5545 H              1 S1                 0.0000
     32 ****        -2.2391  -1.5063   3.5093 H              1 S1                 0.0000
     33 ****        -1.1460  -2.1228   4.7355 H              1 S1                 0.0000
     34 ****         1.1120  -3.7463   3.0583 H              1 S1                 0.0000
     35 ****         1.8029   3.6561  -2.0300 H              1 S1                 0.0000
     36 ****         1.3478   3.0171  -0.4642 H              1 S1                 0.0000
     37 ****        -0.5522  -0.6056  -0.5582 LP             1 S1                 0.0000
     38 ****         2.6028  -2.7013   1.4061 LP             1 S1                 0.0000
     39 ****        -0.3972   1.5013  -3.6845 LP             1 S1                 0.0000
     40 ****         0.7764   2.7625  -3.8636 LP             1 S1                 0.0000
@<TRIPOS>BOND
    1    1    2 1     
    2    1   17 1     
    3    1   18 1     
    4    1   19 1     
    5    2    3 1     
    6    2   20 1     
    7    2   21 1     
    8    3    4 1     
    9    3   14 1     
   10    3   22 1     
   11    4    5 1     
   12    4   23 1     
   13    5    6 1     
   14    5    7 1     
   15    5   24 1     
   16    6   25 1     
   17    6   26 1     
   18    6   27 1     
   19    7    8 1     
   20    7   28 1     
   21    7   29 1     
   22    8   13 1     
   23    8    9 1     
   24    9   10 2     
   25    9   30 1     
   26   10   11 1     
   27   10   12 1     
   28   11   31 1     
   29   11   32 1     
   30   11   33 1     
   31   12   13 2     
   32   12   34 1     
   33   14   15 am    
   34   14   16 2     
   35   15   35 1     
   36   15   36 1     
   37    4   37 1     
   38   13   38 1     
   39   16   39 1     
   40   16   40 1     
@<TRIPOS>SUBSTRUCTURE
      1 S1             1
@<TRIPOS>SET
LONE_PAIRS      STATIC     ATOMS    <user>   **** ""
4 37 38 39 40
DONOR_HYDROGENS      STATIC     ATOMS    <user>   **** ""
3 23 35 36
ATOM$BLUE        STATIC     ATOMS    COLORGROUP SYSTEM
4 37 38 39 40
ATOM$RED        STATIC     ATOMS    COLORGROUP SYSTEM
3 23 35 36
