#       Name:                AV-unprocessed.smi:1792
#       Creating user name   scv26
#       Creation time:       Fri Mar 27 08:46:42 2020


#       File generated by GOLD software.
#

@<TRIPOS>MOLECULE
AV-unprocessed.smi:1792
    48    49     1
SMALL
NO_CHARGES


@<TRIPOS>ATOM
      1 ****        -1.5707   1.5726   1.3213 C.3            1 S1                 0.0000
      2 ****        -0.8686   2.0643   0.0313 C.3            1 S1                 0.0000
      3 ****        -1.2384   3.5526  -0.1664 C.3            1 S1                 0.0000
      4 ****         0.6697   1.9686   0.2621 C.3            1 S1                 0.0000
      5 ****         1.1926   0.6019   0.2184 N.am           1 S1                 0.0000
      6 ****         1.4038  -0.1861   1.2827 C.2            1 S1                 0.0000
      7 ****         1.1513   0.1547   2.4382 O.2            1 S1                 0.0000
      8 ****         1.9162  -1.3741   0.9158 N.am           1 S1                 0.0000
      9 ****         2.2643  -2.4726   1.7466 C.ar           1 S1                 0.0000
     10 ****         2.8189  -3.5829   1.0705 C.ar           1 S1                 0.0000
     11 ****         3.1999  -4.7222   1.8057 C.ar           1 S1                 0.0000
     12 ****         3.0146  -4.7224   3.1997 C.ar           1 S1                 0.0000
     13 ****         2.4525  -3.5778   3.7941 C.ar           1 S1                 0.0000
     14 ****         2.0869  -2.4848   3.0914 N.ar           1 S1                 0.0000
     15 ****        -1.2882   1.2240  -1.1483 N.4            1 S1                 1.0000
     16 ****        -2.7565   1.0593  -1.3438 C.3            1 S1                 0.0000
     17 ****        -3.0435   0.0501  -2.4688 C.3            1 S1                 0.0000
     18 ****        -2.4130   0.4714  -3.6700 O.3            1 S1                 0.0000
     19 ****        -1.0021   0.5450  -3.5243 C.3            1 S1                 0.0000
     20 ****        -0.6513   1.5834  -2.4466 C.3            1 S1                 0.0000
     21 ****        -1.1372   2.0338   2.2094 H              1 S1                 0.0000
     22 ****        -1.4874   0.4922   1.4421 H              1 S1                 0.0000
     23 ****        -2.6305   1.8266   1.3380 H              1 S1                 0.0000
     24 ****        -0.9569   4.1409   0.7077 H              1 S1                 0.0000
     25 ****        -2.3093   3.6948  -0.3112 H              1 S1                 0.0000
     26 ****        -0.7263   3.9963  -1.0198 H              1 S1                 0.0000
     27 ****         1.2038   2.5374  -0.4988 H              1 S1                 0.0000
     28 ****         0.9457   2.4505   1.2019 H              1 S1                 0.0000
     29 ****         1.4438   0.2420  -0.6907 H              1 S1                 0.0000
     30 ****         2.0835  -1.5083  -0.0703 H              1 S1                 0.0000
     31 ****         2.9560  -3.5662  -0.0010 H              1 S1                 0.0000
     32 ****         3.6271  -5.5803   1.3082 H              1 S1                 0.0000
     33 ****         3.2955  -5.5770   3.7972 H              1 S1                 0.0000
     34 ****         2.2918  -3.5381   4.8614 H              1 S1                 0.0000
     35 ****        -3.2427   0.6903  -0.4427 H              1 S1                 0.0000
     36 ****        -3.2133   2.0186  -1.5883 H              1 S1                 0.0000
     37 ****        -2.6994  -0.9482  -2.1932 H              1 S1                 0.0000
     38 ****        -4.1173  -0.0219  -2.6422 H              1 S1                 0.0000
     39 ****        -0.5947  -0.4351  -3.2704 H              1 S1                 0.0000
     40 ****        -0.5642   0.8336  -4.4801 H              1 S1                 0.0000
     41 ****        -0.9902   2.5670  -2.7731 H              1 S1                 0.0000
     42 ****         0.4326   1.6298  -2.3609 H              1 S1                 0.0000
     43 ****        -0.9486   0.2980  -0.9311 H              1 S1                 0.0000
     44 ****         0.7684   1.0604   2.6200 LP             1 S1                 0.0000
     45 ****         1.3291  -0.4742   3.1951 LP             1 S1                 0.0000
     46 ****         1.6900  -1.6936   3.5566 LP             1 S1                 0.0000
     47 ****        -2.7608   1.3753  -3.9189 LP             1 S1                 0.0000
     48 ****        -2.6303  -0.1809  -4.3962 LP             1 S1                 0.0000
@<TRIPOS>BOND
    1    1    2 1     
    2    1   21 1     
    3    1   22 1     
    4    1   23 1     
    5    2    3 1     
    6    2    4 1     
    7    2   15 1     
    8    3   24 1     
    9    3   25 1     
   10    3   26 1     
   11    4    5 1     
   12    4   27 1     
   13    4   28 1     
   14    5    6 am    
   15    5   29 1     
   16    6    7 2     
   17    6    8 am    
   18    8    9 1     
   19    8   30 1     
   20    9   14 ar    
   21    9   10 ar    
   22   10   11 ar    
   23   10   31 1     
   24   11   12 ar    
   25   11   32 1     
   26   12   13 ar    
   27   12   33 1     
   28   13   14 ar    
   29   13   34 1     
   30   15   20 1     
   31   15   16 1     
   32   15   43 1     
   33   16   17 1     
   34   16   35 1     
   35   16   36 1     
   36   17   18 1     
   37   17   37 1     
   38   17   38 1     
   39   18   19 1     
   40   19   20 1     
   41   19   39 1     
   42   19   40 1     
   43   20   41 1     
   44   20   42 1     
   45    7   44 1     
   46    7   45 1     
   47   14   46 1     
   48   18   47 1     
   49   18   48 1     
@<TRIPOS>SUBSTRUCTURE
      1 S1             1
@<TRIPOS>SET
LONE_PAIRS      STATIC     ATOMS    <user>   **** ""
5 44 45 46 47 48
DONOR_HYDROGENS      STATIC     ATOMS    <user>   **** ""
3 29 30 43
ATOM$BLUE        STATIC     ATOMS    COLORGROUP SYSTEM
5 44 45 46 47 48
ATOM$RED        STATIC     ATOMS    COLORGROUP SYSTEM
3 29 30 43
