#       Name:                AV-unprocessed.smi:167
#       Creating user name   scv26
#       Creation time:       Thu Mar 26 19:13:14 2020


#       File generated by GOLD software.
#

@<TRIPOS>MOLECULE
AV-unprocessed.smi:167
    61    65     1
SMALL
NO_CHARGES


@<TRIPOS>ATOM
      1 ****        -6.3534   1.9983   1.8472 O.3            1 S1                 0.0000
      2 ****        -5.8856   0.6731   1.7092 C.3            1 S1                 0.0000
      3 ****        -5.3209   0.4494   0.2943 C.3            1 S1                 0.0000
      4 ****        -4.8822  -1.0076   0.0472 C.3            1 S1                 0.0000
      5 ****        -3.4042  -0.8300  -0.3391 C.3            1 S1                 0.0000
      6 ****        -3.3173  -0.2278  -1.7555 C.3            1 S1                 0.0000
      7 ****        -3.7340   1.2273  -1.4878 C.3            1 S1                 0.0000
      8 ****        -3.9920   1.1927   0.0343 C.3            1 S1                 0.0000
      9 ****        -2.9898   0.2577   0.5323 N.3            1 S1                 0.0000
     10 ****        -1.6831   0.6359   0.6116 C.ar           1 S1                 0.0000
     11 ****        -1.4020   1.9537   0.7960 N.ar           1 S1                 0.0000
     12 ****        -0.1380   2.3754   0.8831 C.ar           1 S1                 0.0000
     13 ****         0.9851   1.6603   0.8170 N.ar           1 S1                 0.0000
     14 ****         0.7163   0.3349   0.6453 C.ar           1 S1                 0.0000
     15 ****        -0.5749  -0.2607   0.5444 C.ar           1 S1                 0.0000
     16 ****        -0.4385  -1.6382   0.4100 N.2            1 S1                 0.0000
     17 ****         0.8499  -1.8417   0.4211 C.2            1 S1                 0.0000
     18 ****         1.6197  -0.7070   0.5292 N.pl3          1 S1                 0.0000
     19 ****         3.0498  -0.6393   0.6028 C.3            1 S1                 0.0000
     20 ****         3.8322   0.3843  -0.2254 C.3            1 S1                 0.0000
     21 ****         5.0010  -0.6217  -0.3425 C.3            1 S1                 0.0000
     22 ****         5.7254  -0.7122  -1.7005 C.3            1 S1                 0.0000
     23 ****         4.8305  -0.8638  -2.7843 O.3            1 S1                 0.0000
     24 ****         6.0861  -0.5037   0.7447 C.3            1 S1                 0.0000
     25 ****         6.7730   0.7287   0.6617 O.3            1 S1                 0.0000
     26 ****         3.9344  -1.7038  -0.0554 C.3            1 S1                 0.0000
     27 ****        -6.6952   2.1072   2.7216 H              1 S1                 0.0000
     28 ****        -5.1305   0.4748   2.4707 H              1 S1                 0.0000
     29 ****        -6.7184  -0.0058   1.8949 H              1 S1                 0.0000
     30 ****        -6.0782   0.7436  -0.4341 H              1 S1                 0.0000
     31 ****        -4.9675  -1.6078   0.9543 H              1 S1                 0.0000
     32 ****        -5.4649  -1.4981  -0.7332 H              1 S1                 0.0000
     33 ****        -2.8518  -1.7612  -0.2318 H              1 S1                 0.0000
     34 ****        -2.2970  -0.2719  -2.1390 H              1 S1                 0.0000
     35 ****        -3.9698  -0.7336  -2.4681 H              1 S1                 0.0000
     36 ****        -2.9203   1.9107  -1.7339 H              1 S1                 0.0000
     37 ****        -4.6109   1.5307  -2.0606 H              1 S1                 0.0000
     38 ****        -3.9681   2.1824   0.4921 H              1 S1                 0.0000
     39 ****        -0.0082   3.4381   1.0252 H              1 S1                 0.0000
     40 ****         1.2739  -2.8324   0.3445 H              1 S1                 0.0000
     41 ****         3.2902  -0.5397   1.6625 H              1 S1                 0.0000
     42 ****         3.3447   0.6024  -1.1771 H              1 S1                 0.0000
     43 ****         4.0646   1.3067   0.3076 H              1 S1                 0.0000
     44 ****         6.3190   0.1823  -1.8902 H              1 S1                 0.0000
     45 ****         6.4153  -1.5565  -1.7166 H              1 S1                 0.0000
     46 ****         5.3319  -0.9010  -3.5845 H              1 S1                 0.0000
     47 ****         5.6577  -0.5791   1.7443 H              1 S1                 0.0000
     48 ****         6.8116  -1.3139   0.6639 H              1 S1                 0.0000
     49 ****         6.1488   1.4283   0.7813 H              1 S1                 0.0000
     50 ****         4.2568  -2.4983   0.6182 H              1 S1                 0.0000
     51 ****         3.4797  -2.1215  -0.9549 H              1 S1                 0.0000
     52 ****        -7.0765   2.1718   1.1786 LP             1 S1                 0.0000
     53 ****        -5.6003   2.6389   1.6975 LP             1 S1                 0.0000
     54 ****        -2.9750   0.0679   1.5141 LP             1 S1                 0.0000
     55 ****        -2.1498   2.6138   0.8671 LP             1 S1                 0.0000
     56 ****         1.9052   2.0460   0.8846 LP             1 S1                 0.0000
     57 ****        -1.1652  -2.3198   0.3242 LP             1 S1                 0.0000
     58 ****         4.2033  -0.0856  -2.8151 LP             1 S1                 0.0000
     59 ****         4.3077  -1.7091  -2.6742 LP             1 S1                 0.0000
     60 ****         7.2069   0.8134  -0.2352 LP             1 S1                 0.0000
     61 ****         7.4717   0.7742   1.3757 LP             1 S1                 0.0000
@<TRIPOS>BOND
    1    1    2 1     
    2    1   27 1     
    3    2    3 1     
    4    2   28 1     
    5    2   29 1     
    6    3    8 1     
    7    3    4 1     
    8    3   30 1     
    9    4    5 1     
   10    4   31 1     
   11    4   32 1     
   12    5    9 1     
   13    5    6 1     
   14    5   33 1     
   15    6    7 1     
   16    6   34 1     
   17    6   35 1     
   18    7    8 1     
   19    7   36 1     
   20    7   37 1     
   21    8    9 1     
   22    8   38 1     
   23    9   10 1     
   24   10   15 ar    
   25   10   11 ar    
   26   11   12 ar    
   27   12   13 ar    
   28   12   39 1     
   29   13   14 ar    
   30   14   18 1     
   31   14   15 ar    
   32   15   16 1     
   33   16   17 2     
   34   17   18 1     
   35   17   40 1     
   36   18   19 1     
   37   19   26 1     
   38   19   20 1     
   39   19   41 1     
   40   20   21 1     
   41   20   42 1     
   42   20   43 1     
   43   21   22 1     
   44   21   24 1     
   45   21   26 1     
   46   22   23 1     
   47   22   44 1     
   48   22   45 1     
   49   23   46 1     
   50   24   25 1     
   51   24   47 1     
   52   24   48 1     
   53   25   49 1     
   54   26   50 1     
   55   26   51 1     
   56    1   52 1     
   57    1   53 1     
   58    9   54 1     
   59   11   55 1     
   60   13   56 1     
   61   16   57 1     
   62   23   58 1     
   63   23   59 1     
   64   25   60 1     
   65   25   61 1     
@<TRIPOS>SUBSTRUCTURE
      1 S1             1
@<TRIPOS>SET
LONE_PAIRS      STATIC     ATOMS    <user>   **** ""
10 52 53 54 55 56 57 58 59 60 61
DONOR_HYDROGENS      STATIC     ATOMS    <user>   **** ""
3 27 46 49
ATOM$BLUE        STATIC     ATOMS    COLORGROUP SYSTEM
10 52 53 54 55 56 57 58 59 60 61
ATOM$RED        STATIC     ATOMS    COLORGROUP SYSTEM
3 27 46 49
