AV-unprocessed.smi:3209|AV-procd|sdf|12268|dock6
  -GOLD-   2272018103D 1   1.00000     0.00000
 Structure written by MMmdl.
 37 39  0  0  0  0  0  0  0  0  2 V2000
  154.8170  141.1110  160.4932 C   0  0  0  0  0  0  0  0  0  0  0  0
  153.8070  142.1840  160.7141 C   0  0  0  0  0  0  0  0  0  0  0  0
  153.2535  142.8905  159.7250 N   0  0  0  0  0  0  0  0  0  0  0  0
  152.3370  143.8394  160.1885 C   0  0  0  0  0  0  0  0  0  0  0  0
  151.6211  144.7229  159.2128 C   0  0  0  0  0  0  0  0  0  0  0  0
  150.4249  144.0163  158.5610 C   0  0  0  0  0  0  0  0  0  0  0  0
  150.7698  143.5249  157.2116 N   0  3  0  0  0  0  0  0  0  0  0  0
  150.9485  142.0595  157.1167 C   0  0  2  0  0  0  0  0  0  0  0  0
  151.2864  141.5532  155.6972 C   0  0  0  0  0  0  0  0  0  0  0  0
  150.2346  140.4491  155.4732 C   0  0  2  0  0  0  0  0  0  0  0  0
  148.8731  141.1083  155.1912 C   0  0  0  0  0  0  0  0  0  0  0  0
  148.4830  141.6737  156.5689 C   0  0  0  0  0  0  0  0  0  0  0  0
  149.6727  141.2617  157.4639 C   0  0  1  0  0  0  0  0  0  0  0  0
  150.0265  139.8973  156.8806 C   0  0  0  0  0  0  0  0  0  0  0  0
  152.2047  143.8418  161.5548 C   0  0  0  0  0  0  0  0  0  0  0  0
  153.2287  142.6508  162.3088 S   0  0  0  0  0  0  0  0  0  0  0  0
  154.6700  140.6439  159.5189 H   0  0  0  0  0  0  0  0  0  0  0  0
  154.7258  140.3450  161.2633 H   0  0  0  0  0  0  0  0  0  0  0  0
  155.8219  141.5317  160.5338 H   0  0  0  0  0  0  0  0  0  0  0  0
  151.2797  145.6283  159.7167 H   0  0  0  0  0  0  0  0  0  0  0  0
  152.3128  145.0550  158.4373 H   0  0  0  0  0  0  0  0  0  0  0  0
  150.1045  143.1807  159.1846 H   0  0  0  0  0  0  0  0  0  0  0  0
  149.5816  144.7040  158.4855 H   0  0  0  0  0  0  0  0  0  0  0  0
  150.0209  143.7886  156.5871 H   0  0  0  0  0  0  0  0  0  0  0  0
  151.7398  141.7637  157.8080 H   0  0  0  0  0  0  0  0  0  0  0  0
  151.2242  142.3299  154.9336 H   0  0  0  0  0  0  0  0  0  0  0  0
  152.2965  141.1426  155.6707 H   0  0  0  0  0  0  0  0  0  0  0  0
  150.5253  139.7111  154.7249 H   0  0  0  0  0  0  0  0  0  0  0  0
  148.9350  141.8811  154.4239 H   0  0  0  0  0  0  0  0  0  0  0  0
  148.1436  140.3677  154.8606 H   0  0  0  0  0  0  0  0  0  0  0  0
  148.3152  142.7504  156.5462 H   0  0  0  0  0  0  0  0  0  0  0  0
  147.5612  141.2081  156.9201 H   0  0  0  0  0  0  0  0  0  0  0  0
  149.4376  141.2550  158.5288 H   0  0  0  0  0  0  0  0  0  0  0  0
  149.2123  139.1731  156.9452 H   0  0  0  0  0  0  0  0  0  0  0  0
  150.9288  139.4589  157.3111 H   0  0  0  0  0  0  0  0  0  0  0  0
  151.5698  144.4687  162.1632 H   0  0  0  0  0  0  0  0  0  0  0  0
  151.6198  143.9745  156.9027 H   0  0  0  0  0  0  0  0  0  0  0  0
  1  2  1  0  0  0  0
  1 17  1  0  0  0  0
  1 18  1  0  0  0  0
  1 19  1  0  0  0  0
  2 16  1  0  0  0  0
  2  3  2  0  0  0  0
  3  4  1  0  0  0  0
  4  5  1  0  0  0  0
  4 15  2  0  0  0  0
  5  6  1  0  0  0  0
  5 20  1  0  0  0  0
  5 21  1  0  0  0  0
  6  7  1  0  0  0  0
  6 22  1  0  0  0  0
  6 23  1  0  0  0  0
  7  8  1  0  0  0  0
  7 24  1  0  0  0  0
  7 37  1  0  0  0  0
  8 13  1  0  0  0  0
  8  9  1  0  0  0  0
  8 25  1  0  0  0  0
  9 10  1  0  0  0  0
  9 26  1  0  0  0  0
  9 27  1  0  0  0  0
 10 14  1  0  0  0  0
 10 11  1  0  0  0  0
 10 28  1  0  0  0  0
 11 12  1  0  0  0  0
 11 29  1  0  0  0  0
 11 30  1  0  0  0  0
 12 13  1  0  0  0  0
 12 31  1  0  0  0  0
 12 32  1  0  0  0  0
 13 14  1  0  0  0  0
 13 33  1  0  0  0  0
 14 34  1  0  0  0  0
 14 35  1  0  0  0  0
 15 16  1  0  0  0  0
 15 36  1  0  0  0  0
M  CHG  1   7   1
M  END
> <s_m_source_file>
AV-unprocessed.smi

> <i_m_source_file_index>
3209

> <i_lp_mmshare_version>
43012

> <i_f3d_flags>
0

> <s_epik_input>
W0NIM11jMW5jKFtjSF1zMSlbQ0gyXVtDSDJdW05IXVtDQEhdKFtDSDJdW0NASF0yMylbQ0BIXShbQ0gyXTMpW0NIMl1bQ0gyXTI=

> <s_epik_cmdline>
J2VwaWtfcHl0aG9uJywgJy1waCcsICc3LjAnLCAnLXRuJywgJzgnLCAnLW1hJywgJzIwMCcsICctbWV0YWxfYmluZGluZycsICctaW1hZScsICc8aW5maWxlLm1hZT4nLCAnLW9tYWUnLCAnPG91dGZpbGUubWFlPic=

> <r_lp_tautomer_probability>
1

> <r_epik_Ionization_Penalty>
0.000342479

> <r_epik_Ionization_Penalty_Charging>
0.000317129

> <r_epik_Ionization_Penalty_Neutral>
2.535e-05

> <r_epik_State_Penalty>
-0

> <r_epik_Charging_Adjusted_Penalty>
0.000317129

> <i_epik_Tot_Q>
1

> <i_epik_Tot_abs_Q>
1

> <r_epik_Metal_State_Penalty>
-0

> <b_epik_Metal_Only>
0

> <s_lp_Force_Field>
OPLS_2005

> <r_lp_Energy>
49.3093

> <b_lp_Chiralities_Consistent>
1

> <s_lp_Variant>
AV-unprocessed.smi:3209-1

> <Gold.Version>
5.8.1

> <Gold.Id.Protein>
6NUR|6NUR_protein|mol2

> <Gold.PLP.Fitness>
43.8395

> <Gold.PLP.PLP>
-39.6307

> <Gold.PLP.part.hbond>
-1.0000

> <Gold.PLP.part.metal>
0.0000

> <Gold.PLP.part.buried>
-5.4706

> <Gold.PLP.part.nonpolar>
-32.2249

> <Gold.PLP.part.repulsive>
0.0000

> <Gold.PLP.ligand.clash>
0.0000

> <Gold.PLP.ligand.torsion>
0.9040

> <Gold.PLP.Chemscore.Hbond>
2.0000

> <Gold.PLP.Chemscore.CHOScore>
0.0000

> <Gold.PLP.Chemscore.Metal>
0.0000

> <Gold.Chemscore.Hbonds>
donor molecule, donor type, donor heavy atom, donor atom, acceptor molecule, acceptor atom, score
      L1  H     7    24       P1  8028  2.00

> <Gold.PLP.Chemscore.Internal.Correction>
0.0168

> <Gold.Rescore>
     Score         DG    S(hbond)    S(metal)    S(lipo)     H(rot)  DE(clash)    DE(int)     intcor
     18.01     -18.85       0.99        0.00     114.73       1.31       0.02       0.82       ----

> <Gold.Chemscore.Fitness>
18.0140

> <Gold.Chemscore.DG>
-18.8493

> <Gold.Chemscore.ZeroCoef>
-5.4800

> <Gold.Chemscore.Hbond>
0.9886

> <Gold.Chemscore.Metal>
0.0000

> <Gold.Chemscore.Lipo>
114.7278

> <Gold.Chemscore.Internal_Hbond>
0.0000

> <Gold.Chemscore.DEClash>
0.0193

> <Gold.Chemscore.DEInternal>
0.8159

> <Gold.Chemscore.Rot>
1.3108

> <Gold.Chemscore.Internal.Correction>
   9.000000E+99

> <Gold.Chemscore.Hbonds>
donor molecule, donor type, donor heavy atom, donor atom, acceptor molecule, acceptor atom, score
      L1  H     7    24       P1  8028  1.00

> <Gold.Chemscore.Hbond.Weighted>
-3.3019

> <Gold.Chemscore.Metal.Weighted>
-0.0000

> <Gold.Chemscore.Lipo.Weighted>
-13.4231

> <Gold.Chemscore.Internal_Hbond.Weighted>
0.0000

> <Gold.Chemscore.DEClash.Weighted>
0.0193

> <Gold.Chemscore.DEInternal.Weighted>
0.8159

> <Gold.Chemscore.Rot.Weighted>
3.3558

> <Gold.Chemscore.Internal.Correction.Weighted>
   9.000000E+99

> <Gold.Protein.RotatedTorsions>
[ 6907 6896 6895 6894 ] final  164.79 input  -60.11 | X-H torsion
[ 7974 7965 7964 7962 ] final   44.56 input  175.53 | X-H torsion
[ 8008 7997 7996 7995 ] final   11.32 input   59.86 | X-H torsion
[ 10167 10162 10161 10158 ] final -148.08 input  -65.29 | X-H torsion
[ 10718 10713 10712 10709 ] final    6.27 input   66.30 | X-H torsion
[ 10763 10752 10751 10750 ] final  -37.03 input  -60.55 | X-H torsion
[ 11005 11000 10999 10996 ] final   70.56 input  -57.11 | X-H torsion

> <Gold.Protein.ActiveResidues>
 VAL166  LYS551  ARG553  GLY616  TRP617  ASP618  TYR619  PRO620  LYS621  CYS622 
 ASP623  PHE694  ASN695  SER759  ASP760  ASP761  ALA762  ILE779  LEU786  VAL792 
 PHE793  MET794  SER795  GLU796  ALA797  LYS798  CYS799  TRP800  GLU811  SER814 

> <Gold.Protein.RotatedAtoms>
  151.9045  133.3546  159.3841 H   0  0  0  0  0  0  0  0  0  0  0  0  # atno 6907 bound_to 6896
  150.7072  134.4795  159.5473 H   0  0  0  0  0  0  0  0  0  0  0  0  # atno 6908 bound_to 6896
  152.2389  134.8248  160.0514 H   0  0  0  0  0  0  0  0  0  0  0  0  # atno 6909 bound_to 6896
  146.0558  139.5061  142.9689 H   0  0  0  0  0  0  0  0  0  0  0  0  # atno 7974 bound_to 7965
  154.8053  140.2859  155.5892 H   0  0  0  0  0  0  0  0  0  0  0  0  # atno 8008 bound_to 7997
  156.2982  140.2578  156.2859 H   0  0  0  0  0  0  0  0  0  0  0  0  # atno 8009 bound_to 7997
  154.9511  140.0379  157.2134 H   0  0  0  0  0  0  0  0  0  0  0  0  # atno 8010 bound_to 7997
  139.7564  143.8442  152.2598 H   0  0  0  0  0  0  0  0  0  0  0  0  # atno 10167 bound_to 10162
  156.9197  130.5786  149.5647 H   0  0  0  0  0  0  0  0  0  0  0  0  # atno 10718 bound_to 10713
  153.8896  135.6813  153.4761 H   0  0  0  0  0  0  0  0  0  0  0  0  # atno 10763 bound_to 10752
  153.1188  135.4749  154.9159 H   0  0  0  0  0  0  0  0  0  0  0  0  # atno 10764 bound_to 10752
  154.7629  135.3216  154.8296 H   0  0  0  0  0  0  0  0  0  0  0  0  # atno 10765 bound_to 10752
  139.9591  134.7093  156.0687 H   0  0  0  0  0  0  0  0  0  0  0  0  # atno 11005 bound_to 11000
  145.6646  141.0232  143.1690 LP  0  0  0  0  0  0  0  0  0  0  0  0  # atno 17320 bound_to 7965
  144.7147  139.8240  143.7403 LP  0  0  0  0  0  0  0  0  0  0  0  0  # atno 17321 bound_to 7965
  139.8435  144.7198  150.9301 LP  0  0  0  0  0  0  0  0  0  0  0  0  # atno 17342 bound_to 10162
  140.7803  143.3962  151.1226 LP  0  0  0  0  0  0  0  0  0  0  0  0  # atno 17343 bound_to 10162
  156.0496  130.5568  150.8960 LP  0  0  0  0  0  0  0  0  0  0  0  0  # atno 17370 bound_to 10713
  157.5915  131.0944  150.9111 LP  0  0  0  0  0  0  0  0  0  0  0  0  # atno 17371 bound_to 10713
  141.1266  133.6597  156.3353 LP  0  0  0  0  0  0  0  0  0  0  0  0  # atno 17394 bound_to 11000
  140.5542  134.5998  157.5416 LP  0  0  0  0  0  0  0  0  0  0  0  0  # atno 17395 bound_to 11000

$$$$
