AV-unprocessed.smi:2775|AV-procd|sdf|10692|dock10
  -GOLD-   2272015133D 1   1.00000     0.00000
 Structure written by MMmdl.
 42 45  0  0  0  0  0  0  0  0  1 V2000
  151.6596  140.1407  155.8615 C   0  0  0  0  0  0  0  0  0  0  0  0
  150.3133  140.2254  155.1671 C   0  0  0  0  0  0  0  0  0  0  0  0
  149.7214  141.4399  155.1844 N   0  0  0  0  0  0  0  0  0  0  0  0
  148.5188  141.5692  154.5871 C   0  0  0  0  0  0  0  0  0  0  0  0
  147.8549  140.5072  153.9441 C   0  0  0  0  0  0  0  0  0  0  0  0
  148.4809  139.2389  153.9097 C   0  0  0  0  0  0  0  0  0  0  0  0
  147.8946  138.0962  153.3026 N   0  0  0  0  0  0  0  0  0  0  0  0
  146.5903  137.8204  153.1123 C   0  0  0  0  0  0  0  0  0  0  0  0
  145.6583  138.5054  153.5283 O   0  0  0  0  0  0  0  0  0  0  0  0
  146.3738  136.7266  152.3614 N   0  0  0  0  0  0  0  0  0  0  0  0
  145.0793  136.1575  151.9698 C   0  0  2  0  0  0  0  0  0  0  0  0
  144.1625  135.7784  153.1635 C   0  0  2  0  0  0  0  0  0  0  0  0
  144.4344  136.1873  154.5923 C   0  0  0  0  0  0  0  0  0  0  0  0
  145.0750  134.9322  155.1903 C   0  0  0  0  0  0  0  0  0  0  0  0
  145.5782  134.2127  154.0672 O   0  0  0  0  0  0  0  0  0  0  0  0
  144.6264  134.3344  153.0147 C   0  0  2  0  0  0  0  0  0  0  0  0
  145.2033  134.6621  151.6311 C   0  0  0  0  0  0  0  0  0  0  0  0
  146.5012  134.0078  151.1291 C   0  0  0  0  0  0  0  0  0  0  0  0
  145.6386  133.0527  150.2998 C   0  0  0  0  0  0  0  0  0  0  0  0
  144.5112  134.0860  150.3863 C   0  0  0  0  0  0  0  0  0  0  0  0
  149.7340  139.0926  154.5487 C   0  0  0  0  0  0  0  0  0  0  0  0
  150.5460  137.5618  154.5626 Cl  0  0  0  0  0  0  0  0  0  0  0  0
  152.4251  139.7975  155.1651 H   0  0  0  0  0  0  0  0  0  0  0  0
  151.6118  139.4406  156.6959 H   0  0  0  0  0  0  0  0  0  0  0  0
  151.9716  141.1105  156.2519 H   0  0  0  0  0  0  0  0  0  0  0  0
  148.0676  142.5494  154.6281 H   0  0  0  0  0  0  0  0  0  0  0  0
  146.8848  140.6799  153.5042 H   0  0  0  0  0  0  0  0  0  0  0  0
  148.5430  137.4786  152.8362 H   0  0  0  0  0  0  0  0  0  0  0  0
  147.1878  136.2809  151.9629 H   0  0  0  0  0  0  0  0  0  0  0  0
  144.5615  136.7162  151.1885 H   0  0  0  0  0  0  0  0  0  0  0  0
  143.1136  135.8749  152.8792 H   0  0  0  0  0  0  0  0  0  0  0  0
  145.1071  137.0400  154.6628 H   0  0  0  0  0  0  0  0  0  0  0  0
  143.5214  136.4544  155.1251 H   0  0  0  0  0  0  0  0  0  0  0  0
  145.8641  135.1620  155.9065 H   0  0  0  0  0  0  0  0  0  0  0  0
  144.3236  134.3222  155.6938 H   0  0  0  0  0  0  0  0  0  0  0  0
  143.8223  133.5978  153.0485 H   0  0  0  0  0  0  0  0  0  0  0  0
  147.1003  134.6743  150.5066 H   0  0  0  0  0  0  0  0  0  0  0  0
  147.1040  133.5270  151.8999 H   0  0  0  0  0  0  0  0  0  0  0  0
  146.0077  132.8608  149.2919 H   0  0  0  0  0  0  0  0  0  0  0  0
  145.4054  132.1280  150.8303 H   0  0  0  0  0  0  0  0  0  0  0  0
  143.5202  133.6661  150.5614 H   0  0  0  0  0  0  0  0  0  0  0  0
  144.5112  134.7781  149.5426 H   0  0  0  0  0  0  0  0  0  0  0  0
  1  2  1  0  0  0  0
  1 23  1  0  0  0  0
  1 24  1  0  0  0  0
  1 25  1  0  0  0  0
  2 21  1  0  0  0  0
  2  3  2  0  0  0  0
  3  4  1  0  0  0  0
  4  5  2  0  0  0  0
  4 26  1  0  0  0  0
  5  6  1  0  0  0  0
  5 27  1  0  0  0  0
  6  7  1  0  0  0  0
  6 21  2  0  0  0  0
  7  8  1  0  0  0  0
  7 28  1  0  0  0  0
  8  9  2  0  0  0  0
  8 10  1  0  0  0  0
 10 11  1  0  0  0  0
 10 29  1  0  0  0  0
 11 17  1  0  0  0  0
 11 12  1  0  0  0  0
 11 30  1  0  0  0  0
 12 16  1  0  0  0  0
 12 13  1  0  0  0  0
 12 31  1  0  0  0  0
 13 14  1  0  0  0  0
 13 32  1  0  0  0  0
 13 33  1  0  0  0  0
 14 15  1  0  0  0  0
 14 34  1  0  0  0  0
 14 35  1  0  0  0  0
 15 16  1  0  0  0  0
 16 17  1  0  0  0  0
 16 36  1  0  0  0  0
 17 20  1  0  0  0  0
 17 18  1  0  0  0  0
 18 19  1  0  0  0  0
 18 37  1  0  0  0  0
 18 38  1  0  0  0  0
 19 20  1  0  0  0  0
 19 39  1  0  0  0  0
 19 40  1  0  0  0  0
 20 41  1  0  0  0  0
 20 42  1  0  0  0  0
 21 22  1  0  0  0  0
M  END
> <s_m_source_file>
AV-unprocessed.smi

> <i_m_source_file_index>
2775

> <i_lp_mmshare_version>
43012

> <i_f3d_flags>
0

> <s_epik_input>
W0NIM11jMW5bY0hdW2NIXWMoYzFDbClbTkhdQyg9TylbTkhdW0NAQEhdMltDQEhdKFtDSDJdW0NIMl1PMylbQ0BASF0zQzI0W0NIMl1bQ0gyXVtDSDJdNA==

> <s_epik_cmdline>
J2VwaWtfcHl0aG9uJywgJy1waCcsICc3LjAnLCAnLXRuJywgJzgnLCAnLW1hJywgJzIwMCcsICctbWV0YWxfYmluZGluZycsICctaW1hZScsICc8aW5maWxlLm1hZT4nLCAnLW9tYWUnLCAnPG91dGZpbGUubWFlPic=

> <r_epik_Ionization_Penalty>
0.01026

> <r_epik_Ionization_Penalty_Charging>
0

> <r_epik_Ionization_Penalty_Neutral>
0.01026

> <r_epik_State_Penalty>
0.00780685

> <r_epik_Charging_Adjusted_Penalty>
0.00780685

> <i_epik_Tot_Q>
0

> <i_epik_Tot_abs_Q>
0

> <r_epik_Metal_State_Penalty>
0.00767411

> <b_epik_Metal_Only>
0

> <s_lp_Force_Field>
OPLS_2005

> <r_lp_Energy>
58.5604

> <b_lp_Chiralities_Consistent>
1

> <s_lp_Variant>
AV-unprocessed.smi:2775-5

> <Gold.Version>
5.8.1

> <Gold.Id.Protein>
6NUR|6NUR_protein|mol2

> <Gold.PLP.Fitness>
40.6964

> <Gold.PLP.PLP>
-32.2133

> <Gold.PLP.part.hbond>
-2.5231

> <Gold.PLP.part.metal>
0.0000

> <Gold.PLP.part.buried>
-1.1542

> <Gold.PLP.part.nonpolar>
-30.1454

> <Gold.PLP.part.repulsive>
2.1847

> <Gold.PLP.ligand.clash>
0.0000

> <Gold.PLP.ligand.torsion>
0.3272

> <Gold.PLP.Chemscore.Hbond>
1.9760

> <Gold.PLP.Chemscore.CHOScore>
1.0000

> <Gold.PLP.Chemscore.Metal>
0.0000

> <Gold.Chemscore.Hbonds>
donor molecule, donor type, donor heavy atom, donor atom, acceptor molecule, acceptor atom, score
      L1  H     7    28       P1  7948  1.00
      L1  H    10    29       P1  7948  0.98
      L1  C     4    26       P1  8028  1.00

> <Gold.PLP.Chemscore.Internal.Correction>
0.2095

> <Gold.Rescore>
     Score         DG    S(hbond)    S(metal)    S(lipo)     H(rot)  DE(clash)    DE(int)     intcor
     15.74     -19.22       1.95        0.00      83.62       1.00       0.15       3.33       ----

> <Gold.Chemscore.Fitness>
15.7393

> <Gold.Chemscore.DG>
-19.2201

> <Gold.Chemscore.ZeroCoef>
-5.4800

> <Gold.Chemscore.Hbond>
1.9510

> <Gold.Chemscore.Metal>
0.0000

> <Gold.Chemscore.Lipo>
83.6228

> <Gold.Chemscore.Internal_Hbond>
0.0000

> <Gold.Chemscore.DEClash>
0.1535

> <Gold.Chemscore.DEInternal>
3.3273

> <Gold.Chemscore.Rot>
1.0000

> <Gold.Chemscore.Internal.Correction>
   9.000000E+99

> <Gold.Chemscore.Hbonds>
donor molecule, donor type, donor heavy atom, donor atom, acceptor molecule, acceptor atom, score
      L1  H     7    28       P1  7948  0.98
      L1  H    10    29       P1  7948  0.92

> <Gold.Chemscore.Hbond.Weighted>
-6.5162

> <Gold.Chemscore.Metal.Weighted>
-0.0000

> <Gold.Chemscore.Lipo.Weighted>
-9.7839

> <Gold.Chemscore.Internal_Hbond.Weighted>
0.0000

> <Gold.Chemscore.DEClash.Weighted>
0.1535

> <Gold.Chemscore.DEInternal.Weighted>
3.3273

> <Gold.Chemscore.Rot.Weighted>
2.5600

> <Gold.Chemscore.Internal.Correction.Weighted>
   9.000000E+99

> <Gold.Protein.RotatedTorsions>
[ 6907 6896 6895 6894 ] final  -42.07 input  -60.11 | X-H torsion
[ 7974 7965 7964 7962 ] final -109.40 input  175.53 | X-H torsion
[ 8008 7997 7996 7995 ] final -108.96 input   59.86 | X-H torsion
[ 10167 10162 10161 10158 ] final   40.80 input  -65.29 | X-H torsion
[ 10718 10713 10712 10709 ] final   20.62 input   66.30 | X-H torsion
[ 10763 10752 10751 10750 ] final -153.99 input  -60.55 | X-H torsion
[ 11005 11000 10999 10996 ] final  -63.90 input  -57.11 | X-H torsion

> <Gold.Protein.ActiveResidues>
 VAL166  LYS551  ARG553  GLY616  TRP617  ASP618  TYR619  PRO620  LYS621  CYS622 
 ASP623  PHE694  ASN695  SER759  ASP760  ASP761  ALA762  ILE779  LEU786  VAL792 
 PHE793  MET794  SER795  GLU796  ALA797  LYS798  CYS799  TRP800  GLU811  SER814 

> <Gold.Protein.RotatedAtoms>
  150.9595  134.8984  159.7721 H   0  0  0  0  0  0  0  0  0  0  0  0  # atno 6907 bound_to 6896
  152.5150  134.3693  159.9322 H   0  0  0  0  0  0  0  0  0  0  0  0  # atno 6908 bound_to 6896
  151.3706  133.3816  159.2734 H   0  0  0  0  0  0  0  0  0  0  0  0  # atno 6909 bound_to 6896
  145.1809  140.8971  143.3480 H   0  0  0  0  0  0  0  0  0  0  0  0  # atno 7974 bound_to 7965
  154.9521  140.0400  157.2149 H   0  0  0  0  0  0  0  0  0  0  0  0  # atno 8008 bound_to 7997
  154.7969  140.2845  155.5928 H   0  0  0  0  0  0  0  0  0  0  0  0  # atno 8009 bound_to 7997
  156.2956  140.2562  156.2828 H   0  0  0  0  0  0  0  0  0  0  0  0  # atno 8010 bound_to 7997
  140.3706  144.2110  150.6133 H   0  0  0  0  0  0  0  0  0  0  0  0  # atno 10167 bound_to 10162
  157.1270  130.6574  149.5940 H   0  0  0  0  0  0  0  0  0  0  0  0  # atno 10718 bound_to 10713
  154.7890  135.3200  154.7821 H   0  0  0  0  0  0  0  0  0  0  0  0  # atno 10763 bound_to 10752
  153.8515  135.6862  153.4796 H   0  0  0  0  0  0  0  0  0  0  0  0  # atno 10764 bound_to 10752
  153.1552  135.4683  154.9634 H   0  0  0  0  0  0  0  0  0  0  0  0  # atno 10765 bound_to 10752
  141.1408  133.6658  156.5751 H   0  0  0  0  0  0  0  0  0  0  0  0  # atno 11005 bound_to 11000
  145.0137  139.3487  143.6107 LP  0  0  0  0  0  0  0  0  0  0  0  0  # atno 17320 bound_to 7965
  146.3453  139.9409  142.8741 LP  0  0  0  0  0  0  0  0  0  0  0  0  # atno 17321 bound_to 7965
  140.5037  143.2310  151.8640 LP  0  0  0  0  0  0  0  0  0  0  0  0  # atno 17342 bound_to 10162
  139.4804  144.5030  151.9035 LP  0  0  0  0  0  0  0  0  0  0  0  0  # atno 17343 bound_to 10162
  155.9816  130.4824  150.6836 LP  0  0  0  0  0  0  0  0  0  0  0  0  # atno 17370 bound_to 10713
  157.4426  131.0863  151.0928 LP  0  0  0  0  0  0  0  0  0  0  0  0  # atno 17371 bound_to 10713
  140.3882  134.7463  157.4705 LP  0  0  0  0  0  0  0  0  0  0  0  0  # atno 17394 bound_to 11000
  140.0586  134.6028  155.8775 LP  0  0  0  0  0  0  0  0  0  0  0  0  # atno 17395 bound_to 11000

$$$$
