AV-unprocessed.smi:528|AV-procd|sdf|2836|dock6
  -GOLD-   2262023323D 1   1.00000     0.00000
 Structure written by MMmdl.
 45 47  0  0  0  0  0  0  0  0  1 V2000
  153.9762  136.5697  158.1582 C   0  0  0  0  0  0  0  0  0  0  0  0
  155.2551  136.1289  158.8896 C   0  0  1  0  0  0  0  0  0  0  0  0
  156.4063  136.5839  158.1111 N   0  0  0  0  0  0  0  0  0  0  0  0
  156.6238  136.3463  156.8082 C   0  0  0  0  0  0  0  0  0  0  0  0
  155.8299  135.7460  156.0829 O   0  0  0  0  0  0  0  0  0  0  0  0
  157.9458  136.8777  156.2395 C   0  0  0  0  0  0  0  0  0  0  0  0
  157.9994  136.8069  154.7697 N   0  0  0  0  0  0  0  0  0  0  0  0
  158.8682  135.8547  154.2006 C   0  0  0  0  0  0  0  0  0  0  0  0
  159.0189  135.7027  152.8707 C   0  0  0  0  0  0  0  0  0  0  0  0
  159.9235  134.6299  152.2842 C   0  0  0  0  0  0  0  0  0  0  0  0
  159.2101  133.6811  151.6775 F   0  0  0  0  0  0  0  0  0  0  0  0
  160.7433  135.1714  151.3843 F   0  0  0  0  0  0  0  0  0  0  0  0
  160.6666  134.0545  153.2303 F   0  0  0  0  0  0  0  0  0  0  0  0
  158.2066  136.5575  152.0273 C   0  0  0  0  0  0  0  0  0  0  0  0
  157.3659  137.4686  152.5551 C   0  0  0  0  0  0  0  0  0  0  0  0
  157.2297  137.6377  154.0036 C   0  0  0  0  0  0  0  0  0  0  0  0
  156.4707  138.4725  154.4976 O   0  0  0  0  0  0  0  0  0  0  0  0
  155.3502  136.6894  160.3316 C   0  0  2  0  0  0  0  0  0  0  0  0
  154.2459  136.1633  161.2850 C   0  0  0  0  0  0  0  0  0  0  0  0
  153.6339  137.4494  161.8656 C   0  0  1  0  0  0  0  0  0  0  0  0
  154.6493  138.1290  162.8019 C   0  0  0  0  0  0  0  0  0  0  0  0
  155.6915  138.6912  161.8173 C   0  0  0  0  0  0  0  0  0  0  0  0
  155.1565  138.2227  160.4500 C   0  0  2  0  0  0  0  0  0  0  0  0
  153.6512  138.3673  160.6512 C   0  0  0  0  0  0  0  0  0  0  0  0
  153.0788  136.1851  158.6411 H   0  0  0  0  0  0  0  0  0  0  0  0
  153.9678  136.2003  157.1320 H   0  0  0  0  0  0  0  0  0  0  0  0
  153.8943  137.6564  158.1193 H   0  0  0  0  0  0  0  0  0  0  0  0
  155.2466  135.0391  158.9412 H   0  0  0  0  0  0  0  0  0  0  0  0
  157.1165  137.0925  158.6173 H   0  0  0  0  0  0  0  0  0  0  0  0
  158.0751  137.9033  156.5870 H   0  0  0  0  0  0  0  0  0  0  0  0
  158.7842  136.3232  156.6659 H   0  0  0  0  0  0  0  0  0  0  0  0
  159.4102  135.2545  154.9170 H   0  0  0  0  0  0  0  0  0  0  0  0
  158.2777  136.4706  150.9531 H   0  0  0  0  0  0  0  0  0  0  0  0
  156.7788  138.0916  151.8963 H   0  0  0  0  0  0  0  0  0  0  0  0
  156.3289  136.4165  160.7301 H   0  0  0  0  0  0  0  0  0  0  0  0
  153.4767  135.6088  160.7461 H   0  0  0  0  0  0  0  0  0  0  0  0
  154.6440  135.5047  162.0577 H   0  0  0  0  0  0  0  0  0  0  0  0
  152.6529  137.3003  162.3175 H   0  0  0  0  0  0  0  0  0  0  0  0
  154.1802  138.9355  163.3668 H   0  0  0  0  0  0  0  0  0  0  0  0
  155.0852  137.4283  163.5150 H   0  0  0  0  0  0  0  0  0  0  0  0
  155.7167  139.7804  161.8691 H   0  0  0  0  0  0  0  0  0  0  0  0
  156.6989  138.3264  162.0214 H   0  0  0  0  0  0  0  0  0  0  0  0
  155.5611  138.8011  159.6206 H   0  0  0  0  0  0  0  0  0  0  0  0
  153.0598  137.9915  159.8146 H   0  0  0  0  0  0  0  0  0  0  0  0
  153.3406  139.3889  160.8771 H   0  0  0  0  0  0  0  0  0  0  0  0
  1  2  1  0  0  0  0
  1 25  1  0  0  0  0
  1 26  1  0  0  0  0
  1 27  1  0  0  0  0
  2  3  1  0  0  0  0
  2 18  1  0  0  0  0
  2 28  1  0  0  0  0
  3  4  1  0  0  0  0
  3 29  1  0  0  0  0
  4  5  2  0  0  0  0
  4  6  1  0  0  0  0
  6  7  1  0  0  0  0
  6 30  1  0  0  0  0
  6 31  1  0  0  0  0
  7 16  1  0  0  0  0
  7  8  1  0  0  0  0
  8  9  2  0  0  0  0
  8 32  1  0  0  0  0
  9 10  1  0  0  0  0
  9 14  1  0  0  0  0
 10 11  1  0  0  0  0
 10 12  1  0  0  0  0
 10 13  1  0  0  0  0
 14 15  2  0  0  0  0
 14 33  1  0  0  0  0
 15 16  1  0  0  0  0
 15 34  1  0  0  0  0
 16 17  2  0  0  0  0
 18 23  1  0  0  0  0
 18 19  1  0  0  0  0
 18 35  1  0  0  0  0
 19 20  1  0  0  0  0
 19 36  1  0  0  0  0
 19 37  1  0  0  0  0
 20 24  1  0  0  0  0
 20 21  1  0  0  0  0
 20 38  1  0  0  0  0
 21 22  1  0  0  0  0
 21 39  1  0  0  0  0
 21 40  1  0  0  0  0
 22 23  1  0  0  0  0
 22 41  1  0  0  0  0
 22 42  1  0  0  0  0
 23 24  1  0  0  0  0
 23 43  1  0  0  0  0
 24 44  1  0  0  0  0
 24 45  1  0  0  0  0
M  END
> <s_m_source_file>
AV-unprocessed.smi

> <i_m_source_file_index>
528

> <i_lp_mmshare_version>
43012

> <i_f3d_flags>
0

> <s_epik_input>
W0NIMl0xW0NIMl1bQ0BASF0oW0NIMl0yKVtDQEBIXShbQ0gyXVtDQEhdMTIpW0NASF0oW0NIM10pW05IXUMoPU8pW0NIMl1uM1tjSF1jKEMoRikoRilGKVtjSF1bY0hdYzM9Tw==

> <s_epik_cmdline>
J2VwaWtfcHl0aG9uJywgJy1waCcsICc3LjAnLCAnLXRuJywgJzgnLCAnLW1hJywgJzIwMCcsICctbWV0YWxfYmluZGluZycsICctaW1hZScsICc8aW5maWxlLm1hZT4nLCAnLW9tYWUnLCAnPG91dGZpbGUubWFlPic=

> <r_lp_tautomer_probability>
1

> <r_epik_Ionization_Penalty>
4.09479e-08

> <r_epik_Ionization_Penalty_Charging>
1.9321e-08

> <r_epik_Ionization_Penalty_Neutral>
2.16269e-08

> <r_epik_State_Penalty>
-0

> <r_epik_Charging_Adjusted_Penalty>
1.9321e-08

> <i_epik_Tot_Q>
0

> <i_epik_Tot_abs_Q>
0

> <r_epik_Metal_State_Penalty>
-0

> <b_epik_Metal_Only>
0

> <s_lp_Force_Field>
OPLS_2005

> <r_lp_Energy>
62.8614

> <b_lp_Chiralities_Consistent>
1

> <s_lp_Variant>
AV-unprocessed.smi:528-6

> <Gold.Version>
5.8.1

> <Gold.Id.Protein>
6NUR|6NUR_protein|mol2

> <Gold.PLP.Fitness>
40.4951

> <Gold.PLP.PLP>
-37.4504

> <Gold.PLP.part.hbond>
-2.0000

> <Gold.PLP.part.metal>
0.0000

> <Gold.PLP.part.buried>
-2.5369

> <Gold.PLP.part.nonpolar>
-33.4708

> <Gold.PLP.part.repulsive>
0.0589

> <Gold.PLP.ligand.clash>
0.9659

> <Gold.PLP.ligand.torsion>
0.4714

> <Gold.PLP.Chemscore.Hbond>
1.6240

> <Gold.PLP.Chemscore.CHOScore>
0.0000

> <Gold.PLP.Chemscore.Metal>
0.0000

> <Gold.Chemscore.Hbonds>
donor molecule, donor type, donor heavy atom, donor atom, acceptor molecule, acceptor atom, score
      P1  H  7997  8008       L1    17  0.43
      P1  H 10752 10764       L1     5  1.00

> <Gold.PLP.Chemscore.Internal.Correction>
0.0816

> <Gold.Rescore>
     Score         DG    S(hbond)    S(metal)    S(lipo)     H(rot)  DE(clash)    DE(int)     intcor
     17.30     -17.85       1.71        0.00      94.45       1.71       0.12       0.43       ----

> <Gold.Chemscore.Fitness>
17.3016

> <Gold.Chemscore.DG>
-17.8493

> <Gold.Chemscore.ZeroCoef>
-5.4800

> <Gold.Chemscore.Hbond>
1.7074

> <Gold.Chemscore.Metal>
0.0000

> <Gold.Chemscore.Lipo>
94.4498

> <Gold.Chemscore.Internal_Hbond>
0.0000

> <Gold.Chemscore.DEClash>
0.1199

> <Gold.Chemscore.DEInternal>
0.4278

> <Gold.Chemscore.Rot>
1.7125

> <Gold.Chemscore.Internal.Correction>
   9.000000E+99

> <Gold.Chemscore.Hbonds>
donor molecule, donor type, donor heavy atom, donor atom, acceptor molecule, acceptor atom, score
      P1  H  7997  8008       L1    17  0.43
      P1  H 10752 10764       L1     5  0.94

> <Gold.Chemscore.Hbond.Weighted>
-5.7026

> <Gold.Chemscore.Metal.Weighted>
-0.0000

> <Gold.Chemscore.Lipo.Weighted>
-11.0506

> <Gold.Chemscore.Internal_Hbond.Weighted>
0.0000

> <Gold.Chemscore.DEClash.Weighted>
0.1199

> <Gold.Chemscore.DEInternal.Weighted>
0.4278

> <Gold.Chemscore.Rot.Weighted>
4.3840

> <Gold.Chemscore.Internal.Correction.Weighted>
   9.000000E+99

> <Gold.Protein.RotatedTorsions>
[ 6907 6896 6895 6894 ] final -175.45 input  -60.11 | X-H torsion
[ 7974 7965 7964 7962 ] final  -83.96 input  175.53 | X-H torsion
[ 8008 7997 7996 7995 ] final   80.80 input   59.86 | X-H torsion
[ 10167 10162 10161 10158 ] final  173.53 input  -65.29 | X-H torsion
[ 10718 10713 10712 10709 ] final   -4.05 input   66.30 | X-H torsion
[ 10763 10752 10751 10750 ] final   50.74 input  -60.55 | X-H torsion
[ 11005 11000 10999 10996 ] final  -38.63 input  -57.11 | X-H torsion

> <Gold.Protein.ActiveResidues>
 VAL166  LYS551  ARG553  GLY616  TRP617  ASP618  TYR619  PRO620  LYS621  CYS622 
 ASP623  PHE694  ASN695  SER759  ASP760  ASP761  ALA762  ILE779  LEU786  VAL792 
 PHE793  MET794  SER795  GLU796  ALA797  LYS798  CYS799  TRP800  GLU811  SER814 

> <Gold.Protein.RotatedAtoms>
  151.5888  133.3369  159.3023 H   0  0  0  0  0  0  0  0  0  0  0  0  # atno 6907 bound_to 6896
  150.8272  134.7511  159.6834 H   0  0  0  0  0  0  0  0  0  0  0  0  # atno 6908 bound_to 6896
  152.4360  134.5692  159.9968 H   0  0  0  0  0  0  0  0  0  0  0  0  # atno 6909 bound_to 6896
  145.5129  140.9538  143.1697 H   0  0  0  0  0  0  0  0  0  0  0  0  # atno 7974 bound_to 7965
  155.8885  140.3440  155.5939 H   0  0  0  0  0  0  0  0  0  0  0  0  # atno 8008 bound_to 7997
  155.7638  140.0836  157.2161 H   0  0  0  0  0  0  0  0  0  0  0  0  # atno 8009 bound_to 7997
  154.4031  140.1531  156.2851 H   0  0  0  0  0  0  0  0  0  0  0  0  # atno 8010 bound_to 7997
  139.5111  144.3250  152.0166 H   0  0  0  0  0  0  0  0  0  0  0  0  # atno 10167 bound_to 10162
  156.7670  130.5287  149.5774 H   0  0  0  0  0  0  0  0  0  0  0  0  # atno 10718 bound_to 10713
  152.9784  135.5869  154.4302 H   0  0  0  0  0  0  0  0  0  0  0  0  # atno 10763 bound_to 10752
  154.3916  135.2768  155.2153 H   0  0  0  0  0  0  0  0  0  0  0  0  # atno 10764 bound_to 10752
  154.4023  135.6101  153.5958 H   0  0  0  0  0  0  0  0  0  0  0  0  # atno 10765 bound_to 10752
  141.0042  133.6940  156.2079 H   0  0  0  0  0  0  0  0  0  0  0  0  # atno 11005 bound_to 11000
  144.7717  139.6719  143.7192 LP  0  0  0  0  0  0  0  0  0  0  0  0  # atno 17320 bound_to 7965
  146.2155  139.5541  142.9653 LP  0  0  0  0  0  0  0  0  0  0  0  0  # atno 17321 bound_to 7965
  140.2691  144.3984  150.6158 LP  0  0  0  0  0  0  0  0  0  0  0  0  # atno 17342 bound_to 10162
  140.6101  143.2169  151.6902 LP  0  0  0  0  0  0  0  0  0  0  0  0  # atno 17343 bound_to 10162
  156.1302  130.6173  151.0323 LP  0  0  0  0  0  0  0  0  0  0  0  0  # atno 17370 bound_to 10713
  157.6709  131.0861  150.7615 LP  0  0  0  0  0  0  0  0  0  0  0  0  # atno 17371 bound_to 10713
  140.6840  134.4737  157.5589 LP  0  0  0  0  0  0  0  0  0  0  0  0  # atno 17394 bound_to 11000
  139.9054  134.8460  156.1726 LP  0  0  0  0  0  0  0  0  0  0  0  0  # atno 17395 bound_to 11000

$$$$
