AV-unprocessed.smi:1176|AV-procd|sdf|4953|dock1
  -GOLD-   22720 3543D 1   1.00000     0.00000
 Structure written by MMmdl.
 50 51  0  0  0  0  0  0  0  0  2 V2000
  144.1504  132.3330  150.9303 C   0  0  0  0  0  0  0  0  0  0  0  0
  145.5114  132.8290  150.4187 C   0  0  0  0  0  0  0  0  0  0  0  0
  146.1885  131.7476  149.5601 C   0  0  0  0  0  0  0  0  0  0  0  0
  146.4056  133.2709  151.5975 C   0  0  0  0  0  0  0  0  0  0  0  0
  145.8136  134.3775  152.3932 N   0  3  2  0  0  0  0  0  0  0  0  0
  145.4819  135.5597  151.5561 C   0  0  0  0  0  0  0  0  0  0  0  0
  144.7445  136.6384  152.3732 C   0  0  0  0  0  0  0  0  0  0  0  0
  145.5415  137.0626  153.6187 C   0  0  2  0  0  0  0  0  0  0  0  0
  146.7212  137.8294  153.2217 N   0  0  0  0  0  0  0  0  0  0  0  0
  147.0069  139.0826  153.6056 C   0  0  0  0  0  0  0  0  0  0  0  0
  146.2708  139.7568  154.3249 O   0  0  0  0  0  0  0  0  0  0  0  0
  148.3294  139.6608  153.0952 C   0  0  0  0  0  0  0  0  0  0  0  0
  149.3017  139.8001  154.1854 N   0  0  0  0  0  0  0  0  0  0  0  0
  150.2099  138.7819  154.4131 C   0  0  0  0  0  0  0  0  0  0  0  0
  151.1214  138.8038  155.4094 C   0  0  0  0  0  0  0  0  0  0  0  0
  151.2014  139.9363  156.3227 C   0  0  0  0  0  0  0  0  0  0  0  0
  151.9993  139.9941  157.2591 O   0  0  0  0  0  0  0  0  0  0  0  0
  150.2750  140.9715  156.0591 N   0  0  0  0  0  0  0  0  0  0  0  0
  150.3052  142.1175  156.9445 C   0  0  0  0  0  0  0  0  0  0  0  0
  149.3121  140.9369  155.0236 C   0  0  0  0  0  0  0  0  0  0  0  0
  148.5002  141.8481  154.8489 O   0  0  0  0  0  0  0  0  0  0  0  0
  145.9116  135.8063  154.4347 C   0  0  0  0  0  0  0  0  0  0  0  0
  146.6341  134.7559  153.5741 C   0  0  0  0  0  0  0  0  0  0  0  0
  144.2616  131.4631  151.5786 H   0  0  0  0  0  0  0  0  0  0  0  0
  143.4986  132.0493  150.1034 H   0  0  0  0  0  0  0  0  0  0  0  0
  143.6371  133.1087  151.4994 H   0  0  0  0  0  0  0  0  0  0  0  0
  145.3111  133.6873  149.7782 H   0  0  0  0  0  0  0  0  0  0  0  0
  146.4186  130.8592  150.1493 H   0  0  0  0  0  0  0  0  0  0  0  0
  147.1197  132.1086  149.1227 H   0  0  0  0  0  0  0  0  0  0  0  0
  145.5431  131.4405  148.7365 H   0  0  0  0  0  0  0  0  0  0  0  0
  146.6183  132.4285  152.2579 H   0  0  0  0  0  0  0  0  0  0  0  0
  147.3684  133.5857  151.1917 H   0  0  0  0  0  0  0  0  0  0  0  0
  146.3963  135.9674  151.1227 H   0  0  0  0  0  0  0  0  0  0  0  0
  144.8482  135.2533  150.7229 H   0  0  0  0  0  0  0  0  0  0  0  0
  144.5335  137.5053  151.7455 H   0  0  0  0  0  0  0  0  0  0  0  0
  143.7747  136.2479  152.6844 H   0  0  0  0  0  0  0  0  0  0  0  0
  144.9112  137.7118  154.2291 H   0  0  0  0  0  0  0  0  0  0  0  0
  147.3806  137.3669  152.6128 H   0  0  0  0  0  0  0  0  0  0  0  0
  148.7361  139.0205  152.3104 H   0  0  0  0  0  0  0  0  0  0  0  0
  148.1404  140.6226  152.6156 H   0  0  0  0  0  0  0  0  0  0  0  0
  150.1871  137.9184  153.7644 H   0  0  0  0  0  0  0  0  0  0  0  0
  151.7984  137.9715  155.5344 H   0  0  0  0  0  0  0  0  0  0  0  0
  149.7936  142.9679  156.4941 H   0  0  0  0  0  0  0  0  0  0  0  0
  151.3476  142.3950  157.1107 H   0  0  0  0  0  0  0  0  0  0  0  0
  149.8195  141.8142  157.8732 H   0  0  0  0  0  0  0  0  0  0  0  0
  146.5258  136.0668  155.2970 H   0  0  0  0  0  0  0  0  0  0  0  0
  145.0012  135.3651  154.8425 H   0  0  0  0  0  0  0  0  0  0  0  0
  146.8396  133.8816  154.1900 H   0  0  0  0  0  0  0  0  0  0  0  0
  147.6011  135.1386  153.2433 H   0  0  0  0  0  0  0  0  0  0  0  0
  144.9326  134.0312  152.7456 H   0  0  0  0  0  0  0  0  0  0  0  0
  1  2  1  0  0  0  0
  1 24  1  0  0  0  0
  1 25  1  0  0  0  0
  1 26  1  0  0  0  0
  2  3  1  0  0  0  0
  2  4  1  0  0  0  0
  2 27  1  0  0  0  0
  3 28  1  0  0  0  0
  3 29  1  0  0  0  0
  3 30  1  0  0  0  0
  4  5  1  0  0  0  0
  4 31  1  0  0  0  0
  4 32  1  0  0  0  0
  5 23  1  0  0  0  0
  5  6  1  0  0  0  0
  5 50  1  0  0  0  0
  6  7  1  0  0  0  0
  6 33  1  0  0  0  0
  6 34  1  0  0  0  0
  7  8  1  0  0  0  0
  7 35  1  0  0  0  0
  7 36  1  0  0  0  0
  8  9  1  0  0  0  0
  8 22  1  0  0  0  0
  8 37  1  0  0  0  0
  9 10  1  0  0  0  0
  9 38  1  0  0  0  0
 10 11  2  0  0  0  0
 10 12  1  0  0  0  0
 12 13  1  0  0  0  0
 12 39  1  0  0  0  0
 12 40  1  0  0  0  0
 13 20  1  0  0  0  0
 13 14  1  0  0  0  0
 14 15  2  0  0  0  0
 14 41  1  0  0  0  0
 15 16  1  0  0  0  0
 15 42  1  0  0  0  0
 16 17  2  0  0  0  0
 16 18  1  0  0  0  0
 18 19  1  0  0  0  0
 18 20  1  0  0  0  0
 19 43  1  0  0  0  0
 19 44  1  0  0  0  0
 19 45  1  0  0  0  0
 20 21  2  0  0  0  0
 22 23  1  0  0  0  0
 22 46  1  0  0  0  0
 22 47  1  0  0  0  0
 23 48  1  0  0  0  0
 23 49  1  0  0  0  0
M  CHG  1   5   1
M  END
> <s_m_source_file>
AV-unprocessed.smi

> <i_m_source_file_index>
1176

> <i_lp_mmshare_version>
43012

> <i_f3d_flags>
0

> <s_epik_input>
W0NIM11bQ0hdKFtDSDNdKVtDSDJdTjFbQ0gyXVtDSDJdW0NIXShbQ0gyXVtDSDJdMSlbTkhdQyg9TylbQ0gyXW4yW2NIXVtjSF1jKD1PKW4oW0NIM10pYzI9Tw==

> <s_epik_cmdline>
J2VwaWtfcHl0aG9uJywgJy1waCcsICc3LjAnLCAnLXRuJywgJzgnLCAnLW1hJywgJzIwMCcsICctbWV0YWxfYmluZGluZycsICctaW1hZScsICc8aW5maWxlLm1hZT4nLCAnLW9tYWUnLCAnPG91dGZpbGUubWFlPic=

> <r_lp_tautomer_probability>
1

> <r_epik_Ionization_Penalty>
0.00401429

> <r_epik_Ionization_Penalty_Charging>
0.00401425

> <r_epik_Ionization_Penalty_Neutral>
4.29561e-08

> <r_epik_State_Penalty>
0.00287487

> <r_epik_Charging_Adjusted_Penalty>
0.00688912

> <i_epik_Tot_Q>
1

> <i_epik_Tot_abs_Q>
1

> <r_epik_Metal_State_Penalty>
-0

> <b_epik_Metal_Only>
0

> <s_lp_Force_Field>
OPLS_2005

> <r_lp_Energy>
29.2662

> <b_lp_Chiralities_Consistent>
1

> <s_lp_Variant>
AV-unprocessed.smi:1176-2

> <Gold.Version>
5.8.1

> <Gold.Id.Protein>
6NUR|6NUR_protein|mol2

> <Gold.PLP.Fitness>
45.5551

> <Gold.PLP.PLP>
-37.0692

> <Gold.PLP.part.hbond>
-2.0000

> <Gold.PLP.part.metal>
0.0000

> <Gold.PLP.part.buried>
0.6589

> <Gold.PLP.part.nonpolar>
-36.2022

> <Gold.PLP.part.repulsive>
0.2194

> <Gold.PLP.ligand.clash>
0.0000

> <Gold.PLP.ligand.torsion>
0.4670

> <Gold.PLP.Chemscore.Hbond>
2.0000

> <Gold.PLP.Chemscore.CHOScore>
1.1148

> <Gold.PLP.Chemscore.Metal>
0.0000

> <Gold.Chemscore.Hbonds>
donor molecule, donor type, donor heavy atom, donor atom, acceptor molecule, acceptor atom, score
      L1  H     9    38       P1  7948  0.89
      L1  C    14    41       P1  7948  0.37

> <Gold.PLP.Chemscore.Internal.Correction>
0.0754

> <Gold.Rescore>
     Score         DG    S(hbond)    S(metal)    S(lipo)     H(rot)  DE(clash)    DE(int)     intcor
     13.85     -16.33       2.00        0.00      77.70       1.92       0.48       2.00       ----

> <Gold.Chemscore.Fitness>
13.8486

> <Gold.Chemscore.DG>
-16.3316

> <Gold.Chemscore.ZeroCoef>
-5.4800

> <Gold.Chemscore.Hbond>
1.9988

> <Gold.Chemscore.Metal>
0.0000

> <Gold.Chemscore.Lipo>
77.6956

> <Gold.Chemscore.Internal_Hbond>
0.0000

> <Gold.Chemscore.DEClash>
0.4826

> <Gold.Chemscore.DEInternal>
2.0003

> <Gold.Chemscore.Rot>
1.9198

> <Gold.Chemscore.Internal.Correction>
   9.000000E+99

> <Gold.Chemscore.Hbonds>
donor molecule, donor type, donor heavy atom, donor atom, acceptor molecule, acceptor atom, score
      L1  H     9    38       P1  7948  0.87
      P1  H  7997  8009       L1    17  0.02

> <Gold.Chemscore.Hbond.Weighted>
-6.6759

> <Gold.Chemscore.Metal.Weighted>
-0.0000

> <Gold.Chemscore.Lipo.Weighted>
-9.0904

> <Gold.Chemscore.Internal_Hbond.Weighted>
0.0000

> <Gold.Chemscore.DEClash.Weighted>
0.4826

> <Gold.Chemscore.DEInternal.Weighted>
2.0003

> <Gold.Chemscore.Rot.Weighted>
4.9147

> <Gold.Chemscore.Internal.Correction.Weighted>
   9.000000E+99

> <Gold.Protein.RotatedTorsions>
[ 6907 6896 6895 6894 ] final  127.28 input  -60.11 | X-H torsion
[ 7974 7965 7964 7962 ] final  160.05 input  175.53 | X-H torsion
[ 8008 7997 7996 7995 ] final -166.01 input   59.86 | X-H torsion
[ 10167 10162 10161 10158 ] final   61.33 input  -65.29 | X-H torsion
[ 10718 10713 10712 10709 ] final -110.29 input   66.30 | X-H torsion
[ 10763 10752 10751 10750 ] final  -96.19 input  -60.55 | X-H torsion
[ 11005 11000 10999 10996 ] final  -68.27 input  -57.11 | X-H torsion

> <Gold.Protein.ActiveResidues>
 VAL166  LYS551  ARG553  GLY616  TRP617  ASP618  TYR619  PRO620  LYS621  CYS622 
 ASP623  PHE694  ASN695  SER759  ASP760  ASP761  ALA762  ILE779  LEU786  VAL792 
 PHE793  MET794  SER795  GLU796  ALA797  LYS798  CYS799  TRP800  GLU811  SER814 

> <Gold.Protein.RotatedAtoms>
  152.3827  133.6568  159.6173 H   0  0  0  0  0  0  0  0  0  0  0  0  # atno 6907 bound_to 6896
  150.7754  133.9087  159.3371 H   0  0  0  0  0  0  0  0  0  0  0  0  # atno 6908 bound_to 6896
  151.6889  135.0951  160.0281 H   0  0  0  0  0  0  0  0  0  0  0  0  # atno 6909 bound_to 6896
  144.7757  139.7703  143.6279 H   0  0  0  0  0  0  0  0  0  0  0  0  # atno 7974 bound_to 7965
  155.8578  140.0973  157.1633 H   0  0  0  0  0  0  0  0  0  0  0  0  # atno 8008 bound_to 7997
  154.3989  140.1371  156.3985 H   0  0  0  0  0  0  0  0  0  0  0  0  # atno 8009 bound_to 7997
  155.7890  140.3456  155.5341 H   0  0  0  0  0  0  0  0  0  0  0  0  # atno 8010 bound_to 7997
  140.1559  144.4417  150.6734 H   0  0  0  0  0  0  0  0  0  0  0  0  # atno 10167 bound_to 10162
  156.0583  130.5808  150.8217 H   0  0  0  0  0  0  0  0  0  0  0  0  # atno 10718 bound_to 10713
  154.7217  135.5093  153.8822 H   0  0  0  0  0  0  0  0  0  0  0  0  # atno 10763 bound_to 10752
  153.0868  135.6647  153.9942 H   0  0  0  0  0  0  0  0  0  0  0  0  # atno 10764 bound_to 10752
  153.9763  135.3033  155.3403 H   0  0  0  0  0  0  0  0  0  0  0  0  # atno 10765 bound_to 10752
  141.1528  133.6737  156.6421 H   0  0  0  0  0  0  0  0  0  0  0  0  # atno 11005 bound_to 11000
  146.1935  139.5188  142.9790 LP  0  0  0  0  0  0  0  0  0  0  0  0  # atno 17320 bound_to 7965
  145.6192  141.0325  143.1924 LP  0  0  0  0  0  0  0  0  0  0  0  0  # atno 17321 bound_to 7965
  140.6673  143.2272  151.5711 LP  0  0  0  0  0  0  0  0  0  0  0  0  # atno 17342 bound_to 10162
  139.5404  144.2665  152.1338 LP  0  0  0  0  0  0  0  0  0  0  0  0  # atno 17343 bound_to 10162
  157.5571  131.0945  150.9612 LP  0  0  0  0  0  0  0  0  0  0  0  0  # atno 17370 bound_to 10713
  156.9859  130.5544  149.5299 LP  0  0  0  0  0  0  0  0  0  0  0  0  # atno 17371 bound_to 10713
  140.3385  134.7869  157.4380 LP  0  0  0  0  0  0  0  0  0  0  0  0  # atno 17394 bound_to 11000
  140.0957  134.5540  155.8400 LP  0  0  0  0  0  0  0  0  0  0  0  0  # atno 17395 bound_to 11000

$$$$
