AV-unprocessed.smi:2193|AV-procd|sdf|8901|dock3
  -GOLD-   2272012113D 1   1.00000     0.00000
 Structure written by MMmdl.
 41 43  0  0  0  0  0  0  0  0  2 V2000
  148.9483  142.2794  154.1325 O   0  0  0  0  0  0  0  0  0  0  0  0
  149.6670  141.2083  154.7077 C   0  0  0  0  0  0  0  0  0  0  0  0
  150.4135  141.5959  155.9447 C   0  0  0  0  0  0  0  0  0  0  0  0
  150.3654  142.8064  156.5717 N   0  3  0  0  0  0  0  0  0  0  0  0
  151.1999  142.7956  157.6897 C   0  0  0  0  0  0  0  0  0  0  0  0
  151.4787  143.7828  158.6298 C   0  0  0  0  0  0  0  0  0  0  0  0
  152.3861  143.4423  159.6545 C   0  0  0  0  0  0  0  0  0  0  0  0
  152.9780  142.1638  159.7165 C   0  0  0  0  0  0  0  0  0  0  0  0
  152.6876  141.1712  158.7574 C   0  0  0  0  0  0  0  0  0  0  0  0
  151.7884  141.5160  157.7487 C   0  0  0  0  0  0  0  0  0  0  0  0
  151.2722  140.8099  156.6567 N   0  0  0  0  0  0  0  0  0  0  0  0
  151.6977  139.4186  156.4371 C   0  0  0  0  0  0  0  0  0  0  0  0
  152.2324  139.1696  155.0121 C   0  0  1  0  0  0  0  0  0  0  0  0
  153.5385  138.6351  155.1012 O   0  0  0  0  0  0  0  0  0  0  0  0
  151.3487  138.1833  154.2322 C   0  0  0  0  0  0  0  0  0  0  0  0
  151.6237  136.8640  154.6851 O   0  0  0  0  0  0  0  0  0  0  0  0
  150.7226  136.2645  155.5390 C   0  0  0  0  0  0  0  0  0  0  0  0
  150.9406  134.9055  155.8475 C   0  0  0  0  0  0  0  0  0  0  0  0
  150.0703  134.2128  156.7112 C   0  0  0  0  0  0  0  0  0  0  0  0
  148.9663  134.8764  157.2770 C   0  0  0  0  0  0  0  0  0  0  0  0
  148.1277  134.2123  158.1071 F   0  0  0  0  0  0  0  0  0  0  0  0
  148.7358  136.2319  156.9778 C   0  0  0  0  0  0  0  0  0  0  0  0
  149.6071  136.9249  156.1143 C   0  0  0  0  0  0  0  0  0  0  0  0
  148.9822  143.0159  154.7240 H   0  0  0  0  0  0  0  0  0  0  0  0
  148.9687  140.4049  154.9428 H   0  0  0  0  0  0  0  0  0  0  0  0
  150.3734  140.8202  153.9736 H   0  0  0  0  0  0  0  0  0  0  0  0
  151.0271  144.7631  158.5842 H   0  0  0  0  0  0  0  0  0  0  0  0
  152.6333  144.1764  160.4077 H   0  0  0  0  0  0  0  0  0  0  0  0
  153.6691  141.9398  160.5164 H   0  0  0  0  0  0  0  0  0  0  0  0
  153.1455  140.1946  158.8135 H   0  0  0  0  0  0  0  0  0  0  0  0
  152.4653  139.1843  157.1758 H   0  0  0  0  0  0  0  0  0  0  0  0
  150.8533  138.7642  156.6570 H   0  0  0  0  0  0  0  0  0  0  0  0
  152.2781  140.1177  154.4753 H   0  0  0  0  0  0  0  0  0  0  0  0
  153.7138  138.1403  154.3153 H   0  0  0  0  0  0  0  0  0  0  0  0
  150.2929  138.4379  154.3423 H   0  0  0  0  0  0  0  0  0  0  0  0
  151.5969  138.2393  153.1710 H   0  0  0  0  0  0  0  0  0  0  0  0
  151.7855  134.3880  155.4175 H   0  0  0  0  0  0  0  0  0  0  0  0
  150.2505  133.1725  156.9391 H   0  0  0  0  0  0  0  0  0  0  0  0
  147.8883  136.7422  157.4110 H   0  0  0  0  0  0  0  0  0  0  0  0
  149.3965  137.9634  155.9089 H   0  0  0  0  0  0  0  0  0  0  0  0
  149.7976  143.5807  156.2515 H   0  0  0  0  0  0  0  0  0  0  0  0
  1  2  1  0  0  0  0
  1 24  1  0  0  0  0
  2  3  1  0  0  0  0
  2 25  1  0  0  0  0
  2 26  1  0  0  0  0
  3 11  1  0  0  0  0
  3  4  2  0  0  0  0
  4  5  1  0  0  0  0
  4 41  1  0  0  0  0
  5 10  2  0  0  0  0
  5  6  1  0  0  0  0
  6  7  2  0  0  0  0
  6 27  1  0  0  0  0
  7  8  1  0  0  0  0
  7 28  1  0  0  0  0
  8  9  2  0  0  0  0
  8 29  1  0  0  0  0
  9 10  1  0  0  0  0
  9 30  1  0  0  0  0
 10 11  1  0  0  0  0
 11 12  1  0  0  0  0
 12 13  1  0  0  0  0
 12 31  1  0  0  0  0
 12 32  1  0  0  0  0
 13 14  1  0  0  0  0
 13 15  1  0  0  0  0
 13 33  1  0  0  0  0
 14 34  1  0  0  0  0
 15 16  1  0  0  0  0
 15 35  1  0  0  0  0
 15 36  1  0  0  0  0
 16 17  1  0  0  0  0
 17 23  1  0  0  0  0
 17 18  2  0  0  0  0
 18 19  1  0  0  0  0
 18 37  1  0  0  0  0
 19 20  2  0  0  0  0
 19 38  1  0  0  0  0
 20 21  1  0  0  0  0
 20 22  1  0  0  0  0
 22 23  2  0  0  0  0
 22 39  1  0  0  0  0
 23 40  1  0  0  0  0
M  CHG  1   4   1
M  END
> <s_m_source_file>
AV-unprocessed.smi

> <i_m_source_file_index>
2193

> <i_lp_mmshare_version>
43012

> <i_f3d_flags>
0

> <s_epik_input>
W2NIXTFbY0hdW2NIXVtjSF1jKGMxMiluKGMobjIpW0NIMl1bT0hdKVtDSDJdW0NASF0oW09IXSlbQ0gyXU9jM1tjSF1bY0hdYyhGKVtjSF1bY0hdMw==

> <s_epik_cmdline>
J2VwaWtfcHl0aG9uJywgJy1waCcsICc3LjAnLCAnLXRuJywgJzgnLCAnLW1hJywgJzIwMCcsICctbWV0YWxfYmluZGluZycsICctaW1hZScsICc8aW5maWxlLm1hZT4nLCAnLW9tYWUnLCAnPG91dGZpbGUubWFlPic=

> <r_lp_tautomer_probability>
1

> <r_epik_Ionization_Penalty>
1.43752

> <r_epik_Ionization_Penalty_Charging>
1.43666

> <r_epik_Ionization_Penalty_Neutral>
0.000858184

> <r_epik_State_Penalty>
1.52171

> <r_epik_Charging_Adjusted_Penalty>
2.95837

> <i_epik_Tot_Q>
1

> <i_epik_Tot_abs_Q>
1

> <r_epik_Metal_State_Penalty>
5.56725

> <b_epik_Metal_Only>
0

> <s_lp_Force_Field>
OPLS_2005

> <r_lp_Energy>
18.7626

> <b_lp_Chiralities_Consistent>
1

> <s_lp_Variant>
AV-unprocessed.smi:2193-4

> <Gold.Version>
5.8.1

> <Gold.Id.Protein>
6NUR|6NUR_protein|mol2

> <Gold.PLP.Fitness>
58.9053

> <Gold.PLP.PLP>
-45.9403

> <Gold.PLP.part.hbond>
-5.0000

> <Gold.PLP.part.metal>
0.0000

> <Gold.PLP.part.buried>
-5.2096

> <Gold.PLP.part.nonpolar>
-34.4761

> <Gold.PLP.part.repulsive>
0.2091

> <Gold.PLP.ligand.clash>
0.0000

> <Gold.PLP.ligand.torsion>
1.3134

> <Gold.PLP.Chemscore.Hbond>
5.1799

> <Gold.PLP.Chemscore.CHOScore>
0.0000

> <Gold.PLP.Chemscore.Metal>
0.0000

> <Gold.Chemscore.Hbonds>
donor molecule, donor type, donor heavy atom, donor atom, acceptor molecule, acceptor atom, score
      L1  H     1    24       P1  8028  1.00
      L1  H     4    41       P1  8028  2.00
      P1  H  7997  8010       L1    14  0.87
      P1  H  8011  8017       L1     1  0.26
      P1  H 10752 10765       L1    16  1.00

> <Gold.PLP.Chemscore.Internal.Correction>
0.0520

> <Gold.Rescore>
     Score         DG    S(hbond)    S(metal)    S(lipo)     H(rot)  DE(clash)    DE(int)     intcor
     19.19     -20.62       3.17        0.00     111.31       3.31       0.07       1.36       ----

> <Gold.Chemscore.Fitness>
19.1853

> <Gold.Chemscore.DG>
-20.6207

> <Gold.Chemscore.ZeroCoef>
-5.4800

> <Gold.Chemscore.Hbond>
3.1737

> <Gold.Chemscore.Metal>
0.0000

> <Gold.Chemscore.Lipo>
111.3062

> <Gold.Chemscore.Internal_Hbond>
0.0000

> <Gold.Chemscore.DEClash>
0.0727

> <Gold.Chemscore.DEInternal>
1.3627

> <Gold.Chemscore.Rot>
3.3134

> <Gold.Chemscore.Internal.Correction>
   9.000000E+99

> <Gold.Chemscore.Hbonds>
donor molecule, donor type, donor heavy atom, donor atom, acceptor molecule, acceptor atom, score
      L1  H     1    24       P1  8028  1.00
      L1  H     4    41       P1  8028  0.97
      P1  H  7997  8010       L1    14  0.19
      P1  H  8011  8017       L1     1  0.10
      P1  H 10752 10765       L1    16  0.45

> <Gold.Chemscore.Hbond.Weighted>
-10.6002

> <Gold.Chemscore.Metal.Weighted>
-0.0000

> <Gold.Chemscore.Lipo.Weighted>
-13.0228

> <Gold.Chemscore.Internal_Hbond.Weighted>
0.0000

> <Gold.Chemscore.DEClash.Weighted>
0.0727

> <Gold.Chemscore.DEInternal.Weighted>
1.3627

> <Gold.Chemscore.Rot.Weighted>
8.4823

> <Gold.Chemscore.Internal.Correction.Weighted>
   9.000000E+99

> <Gold.Protein.RotatedTorsions>
[ 6907 6896 6895 6894 ] final  -54.07 input  -60.11 | X-H torsion
[ 7974 7965 7964 7962 ] final    5.57 input  175.53 | X-H torsion
[ 8008 7997 7996 7995 ] final   98.79 input   59.86 | X-H torsion
[ 10167 10162 10161 10158 ] final  -33.90 input  -65.29 | X-H torsion
[ 10718 10713 10712 10709 ] final  -53.68 input   66.30 | X-H torsion
[ 10763 10752 10751 10750 ] final  175.01 input  -60.55 | X-H torsion
[ 11005 11000 10999 10996 ] final -137.35 input  -57.11 | X-H torsion

> <Gold.Protein.ActiveResidues>
 VAL166  LYS551  ARG553  GLY616  TRP617  ASP618  TYR619  PRO620  LYS621  CYS622 
 ASP623  PHE694  ASN695  SER759  ASP760  ASP761  ALA762  ILE779  LEU786  VAL792 
 PHE793  MET794  SER795  GLU796  ALA797  LYS798  CYS799  TRP800  GLU811  SER814 

> <Gold.Protein.RotatedAtoms>
  150.8370  134.7648  159.6901 H   0  0  0  0  0  0  0  0  0  0  0  0  # atno 6907 bound_to 6896
  152.4465  134.5480  159.9868 H   0  0  0  0  0  0  0  0  0  0  0  0  # atno 6908 bound_to 6896
  151.5628  133.3363  159.3010 H   0  0  0  0  0  0  0  0  0  0  0  0  # atno 6909 bound_to 6896
  146.2440  140.0364  142.8385 H   0  0  0  0  0  0  0  0  0  0  0  0  # atno 7974 bound_to 7965
  156.1040  140.3238  155.7980 H   0  0  0  0  0  0  0  0  0  0  0  0  # atno 8008 bound_to 7997
  155.4788  140.0552  157.2987 H   0  0  0  0  0  0  0  0  0  0  0  0  # atno 8009 bound_to 7997
  154.4715  140.2013  155.9998 H   0  0  0  0  0  0  0  0  0  0  0  0  # atno 8010 bound_to 7997
  140.7196  143.3586  151.2008 H   0  0  0  0  0  0  0  0  0  0  0  0  # atno 10167 bound_to 10162
  156.1514  130.4151  149.9938 H   0  0  0  0  0  0  0  0  0  0  0  0  # atno 10718 bound_to 10713
  154.4618  135.2768  155.1707 H   0  0  0  0  0  0  0  0  0  0  0  0  # atno 10763 bound_to 10752
  154.3492  135.6153  153.5638 H   0  0  0  0  0  0  0  0  0  0  0  0  # atno 10764 bound_to 10752
  152.9855  135.5807  154.4982 H   0  0  0  0  0  0  0  0  0  0  0  0  # atno 10765 bound_to 10752
  140.8719  134.2040  157.4645 H   0  0  0  0  0  0  0  0  0  0  0  0  # atno 11005 bound_to 11000
  145.1109  140.9404  143.4657 LP  0  0  0  0  0  0  0  0  0  0  0  0  # atno 17320 bound_to 7965
  145.0577  139.3130  143.5896 LP  0  0  0  0  0  0  0  0  0  0  0  0  # atno 17321 bound_to 7965
  139.7133  143.9340  152.2956 LP  0  0  0  0  0  0  0  0  0  0  0  0  # atno 17342 bound_to 10162
  139.9073  144.6877  150.8600 LP  0  0  0  0  0  0  0  0  0  0  0  0  # atno 17343 bound_to 10162
  156.7795  130.9216  151.3646 LP  0  0  0  0  0  0  0  0  0  0  0  0  # atno 17370 bound_to 10713
  157.6660  130.9008  149.9933 LP  0  0  0  0  0  0  0  0  0  0  0  0  # atno 17371 bound_to 10713
  139.8713  134.9778  156.4973 LP  0  0  0  0  0  0  0  0  0  0  0  0  # atno 17394 bound_to 11000
  140.8563  133.8093  155.9219 LP  0  0  0  0  0  0  0  0  0  0  0  0  # atno 17395 bound_to 11000

$$$$
