AV-unprocessed.smi:3297|AV-procd|sdf|12638|dock5
  -GOLD-   2272018573D 1   1.00000     0.00000
 Structure written by MMmdl.
 34 35  0  0  0  0  0  0  0  0  1 V2000
  149.2078  141.3268  153.2156 O   0  0  0  0  0  0  0  0  0  0  0  0
  149.0061  140.8137  154.5149 C   0  0  0  0  0  0  0  0  0  0  0  0
  149.7408  139.4774  154.6759 C   0  0  0  0  0  0  0  0  0  0  0  0
  151.1397  139.7069  154.5877 O   0  0  0  0  0  0  0  0  0  0  0  0
  151.8038  139.7979  155.8412 C   0  0  2  0  0  0  0  0  0  0  0  0
  151.4994  138.5676  156.7195 C   0  0  0  0  0  0  0  0  0  0  0  0
  152.0906  138.7580  158.1250 C   0  0  0  0  0  0  0  0  0  0  0  0
  151.5995  140.0701  158.7594 C   0  0  0  0  0  0  0  0  0  0  0  0
  151.8661  141.2069  157.8791 N   0  0  0  0  0  0  0  0  0  0  0  0
  151.7583  142.4650  158.5061 C   0  0  0  0  0  0  0  0  0  0  0  0
  150.7981  143.3179  158.0687 N   0  0  0  0  0  0  0  0  0  0  0  0
  150.6749  144.5221  158.6664 C   0  0  0  0  0  0  0  0  0  0  0  0
  151.4971  144.9445  159.7278 C   0  0  0  0  0  0  0  0  0  0  0  0
  152.4986  144.0675  160.1828 C   0  0  0  0  0  0  0  0  0  0  0  0
  152.6350  142.8092  159.5646 C   0  0  0  0  0  0  0  0  0  0  0  0
  153.6084  141.9601  159.9749 F   0  0  0  0  0  0  0  0  0  0  0  0
  151.3095  141.0822  156.5308 C   0  0  0  0  0  0  0  0  0  0  0  0
  149.2119  140.6055  152.6052 H   0  0  0  0  0  0  0  0  0  0  0  0
  149.4050  141.5419  155.2214 H   0  0  0  0  0  0  0  0  0  0  0  0
  147.9412  140.7100  154.7247 H   0  0  0  0  0  0  0  0  0  0  0  0
  149.4590  138.9886  155.6089 H   0  0  0  0  0  0  0  0  0  0  0  0
  149.4481  138.8122  153.8624 H   0  0  0  0  0  0  0  0  0  0  0  0
  152.8812  139.8857  155.6883 H   0  0  0  0  0  0  0  0  0  0  0  0
  150.4205  138.4252  156.7924 H   0  0  0  0  0  0  0  0  0  0  0  0
  151.9052  137.6596  156.2742 H   0  0  0  0  0  0  0  0  0  0  0  0
  151.8235  137.9135  158.7607 H   0  0  0  0  0  0  0  0  0  0  0  0
  153.1796  138.7681  158.0641 H   0  0  0  0  0  0  0  0  0  0  0  0
  150.5253  140.0143  158.9408 H   0  0  0  0  0  0  0  0  0  0  0  0
  152.0725  140.2009  159.7322 H   0  0  0  0  0  0  0  0  0  0  0  0
  149.8971  145.1682  158.2873 H   0  0  0  0  0  0  0  0  0  0  0  0
  151.3646  145.9170  160.1782 H   0  0  0  0  0  0  0  0  0  0  0  0
  153.1544  144.3561  160.9908 H   0  0  0  0  0  0  0  0  0  0  0  0
  151.5939  141.9479  155.9311 H   0  0  0  0  0  0  0  0  0  0  0  0
  150.2201  141.0758  156.5921 H   0  0  0  0  0  0  0  0  0  0  0  0
  1  2  1  0  0  0  0
  1 18  1  0  0  0  0
  2  3  1  0  0  0  0
  2 19  1  0  0  0  0
  2 20  1  0  0  0  0
  3  4  1  0  0  0  0
  3 21  1  0  0  0  0
  3 22  1  0  0  0  0
  4  5  1  0  0  0  0
  5 17  1  0  0  0  0
  5  6  1  0  0  0  0
  5 23  1  0  0  0  0
  6  7  1  0  0  0  0
  6 24  1  0  0  0  0
  6 25  1  0  0  0  0
  7  8  1  0  0  0  0
  7 26  1  0  0  0  0
  7 27  1  0  0  0  0
  8  9  1  0  0  0  0
  8 28  1  0  0  0  0
  8 29  1  0  0  0  0
  9 10  1  0  0  0  0
  9 17  1  0  0  0  0
 10 15  1  0  0  0  0
 10 11  2  0  0  0  0
 11 12  1  0  0  0  0
 12 13  2  0  0  0  0
 12 30  1  0  0  0  0
 13 14  1  0  0  0  0
 13 31  1  0  0  0  0
 14 15  2  0  0  0  0
 14 32  1  0  0  0  0
 15 16  1  0  0  0  0
 17 33  1  0  0  0  0
 17 34  1  0  0  0  0
M  END
> <s_m_source_file>
AV-unprocessed.smi

> <i_m_source_file_index>
3297

> <i_lp_mmshare_version>
43012

> <i_f3d_flags>
0

> <s_epik_input>
W09IXVtDSDJdW0NIMl1PW0NAQEhdMVtDSDJdW0NIMl1bQ0gyXU4oW0NIMl0xKWMybltjSF1bY0hdW2NIXWMyRg==

> <s_epik_cmdline>
J2VwaWtfcHl0aG9uJywgJy1waCcsICc3LjAnLCAnLXRuJywgJzgnLCAnLW1hJywgJzIwMCcsICctbWV0YWxfYmluZGluZycsICctaW1hZScsICc8aW5maWxlLm1hZT4nLCAnLW9tYWUnLCAnPG91dGZpbGUubWFlPic=

> <r_lp_tautomer_probability>
1

> <r_epik_Ionization_Penalty>
0.00104501

> <r_epik_Ionization_Penalty_Charging>
0

> <r_epik_Ionization_Penalty_Neutral>
0.00104501

> <r_epik_State_Penalty>
0.000654582

> <r_epik_Charging_Adjusted_Penalty>
0.000654582

> <i_epik_Tot_Q>
0

> <i_epik_Tot_abs_Q>
0

> <r_epik_Metal_State_Penalty>
-0

> <b_epik_Metal_Only>
0

> <s_lp_Force_Field>
OPLS_2005

> <r_lp_Energy>
21.0324

> <b_lp_Chiralities_Consistent>
1

> <s_lp_Variant>
AV-unprocessed.smi:3297-1

> <Gold.Version>
5.8.1

> <Gold.Id.Protein>
6NUR|6NUR_protein|mol2

> <Gold.PLP.Fitness>
50.3549

> <Gold.PLP.PLP>
-39.3566

> <Gold.PLP.part.hbond>
-3.5477

> <Gold.PLP.part.metal>
0.0000

> <Gold.PLP.part.buried>
-5.9116

> <Gold.PLP.part.nonpolar>
-30.1147

> <Gold.PLP.part.repulsive>
0.2279

> <Gold.PLP.ligand.clash>
0.0000

> <Gold.PLP.ligand.torsion>
0.6200

> <Gold.PLP.Chemscore.Hbond>
2.9440

> <Gold.PLP.Chemscore.CHOScore>
1.0201

> <Gold.PLP.Chemscore.Metal>
0.0000

> <Gold.Chemscore.Hbonds>
donor molecule, donor type, donor heavy atom, donor atom, acceptor molecule, acceptor atom, score
      L1  H     1    18       P1  7957  0.96
      P1  H  7989  7998       L1     4  1.00
      P1  H  8011  8017       L1     1  0.93
      L1  C    12    30       P1  8028  0.02
      L1  C    12    30       P1  8029  1.00

> <Gold.PLP.Chemscore.Internal.Correction>
0.3462

> <Gold.Rescore>
     Score         DG    S(hbond)    S(metal)    S(lipo)     H(rot)  DE(clash)    DE(int)     intcor
     16.09     -17.74       2.35        0.00      87.06       2.25       0.01       1.65       ----

> <Gold.Chemscore.Fitness>
16.0896

> <Gold.Chemscore.DG>
-17.7432

> <Gold.Chemscore.ZeroCoef>
-5.4800

> <Gold.Chemscore.Hbond>
2.3483

> <Gold.Chemscore.Metal>
0.0000

> <Gold.Chemscore.Lipo>
87.0591

> <Gold.Chemscore.Internal_Hbond>
0.0000

> <Gold.Chemscore.DEClash>
0.0064

> <Gold.Chemscore.DEInternal>
1.6472

> <Gold.Chemscore.Rot>
2.2524

> <Gold.Chemscore.Internal.Correction>
   9.000000E+99

> <Gold.Chemscore.Hbonds>
donor molecule, donor type, donor heavy atom, donor atom, acceptor molecule, acceptor atom, score
      L1  H     1    18       P1  7957  0.91
      P1  H  7989  7998       L1     4  0.80
      P1  H  8011  8017       L1     1  0.19

> <Gold.Chemscore.Hbond.Weighted>
-7.8434

> <Gold.Chemscore.Metal.Weighted>
-0.0000

> <Gold.Chemscore.Lipo.Weighted>
-10.1859

> <Gold.Chemscore.Internal_Hbond.Weighted>
0.0000

> <Gold.Chemscore.DEClash.Weighted>
0.0064

> <Gold.Chemscore.DEInternal.Weighted>
1.6472

> <Gold.Chemscore.Rot.Weighted>
5.7661

> <Gold.Chemscore.Internal.Correction.Weighted>
   9.000000E+99

> <Gold.Protein.RotatedTorsions>
[ 6907 6896 6895 6894 ] final  -27.80 input  -60.11 | X-H torsion
[ 7974 7965 7964 7962 ] final -118.54 input  175.53 | X-H torsion
[ 8008 7997 7996 7995 ] final   51.11 input   59.86 | X-H torsion
[ 10167 10162 10161 10158 ] final  -77.26 input  -65.29 | X-H torsion
[ 10718 10713 10712 10709 ] final  141.76 input   66.30 | X-H torsion
[ 10763 10752 10751 10750 ] final  171.81 input  -60.55 | X-H torsion
[ 11005 11000 10999 10996 ] final -144.96 input  -57.11 | X-H torsion

> <Gold.Protein.ActiveResidues>
 VAL166  LYS551  ARG553  GLY616  TRP617  ASP618  TYR619  PRO620  LYS621  CYS622 
 ASP623  PHE694  ASN695  SER759  ASP760  ASP761  ALA762  ILE779  LEU786  VAL792 
 PHE793  MET794  SER795  GLU796  ALA797  LYS798  CYS799  TRP800  GLU811  SER814 

> <Gold.Protein.RotatedAtoms>
  151.1418  135.0183  159.8628 H   0  0  0  0  0  0  0  0  0  0  0  0  # atno 6907 bound_to 6896
  152.5452  134.1490  159.8520 H   0  0  0  0  0  0  0  0  0  0  0  0  # atno 6908 bound_to 6896
  151.1566  133.4827  159.2627 H   0  0  0  0  0  0  0  0  0  0  0  0  # atno 6909 bound_to 6896
  145.0726  140.8370  143.4086 H   0  0  0  0  0  0  0  0  0  0  0  0  # atno 7974 bound_to 7965
  155.4300  140.3450  155.4279 H   0  0  0  0  0  0  0  0  0  0  0  0  # atno 8008 bound_to 7997
  156.1342  140.1523  156.9050 H   0  0  0  0  0  0  0  0  0  0  0  0  # atno 8009 bound_to 7997
  154.4919  140.0839  156.7592 H   0  0  0  0  0  0  0  0  0  0  0  0  # atno 8010 bound_to 7997
  140.4786  143.2408  151.8094 H   0  0  0  0  0  0  0  0  0  0  0  0  # atno 10167 bound_to 10162
  157.3883  131.1001  151.0671 H   0  0  0  0  0  0  0  0  0  0  0  0  # atno 10718 bound_to 10713
  154.4172  135.2757  155.1999 H   0  0  0  0  0  0  0  0  0  0  0  0  # atno 10763 bound_to 10752
  154.3960  135.6055  153.5873 H   0  0  0  0  0  0  0  0  0  0  0  0  # atno 10764 bound_to 10752
  152.9832  135.5915  154.4462 H   0  0  0  0  0  0  0  0  0  0  0  0  # atno 10765 bound_to 10752
  140.7972  134.2900  157.4992 H   0  0  0  0  0  0  0  0  0  0  0  0  # atno 11005 bound_to 11000
  145.1274  139.2654  143.5557 LP  0  0  0  0  0  0  0  0  0  0  0  0  # atno 17320 bound_to 7965
  146.3529  140.0915  142.8612 LP  0  0  0  0  0  0  0  0  0  0  0  0  # atno 17321 bound_to 7965
  139.4829  144.4802  151.9316 LP  0  0  0  0  0  0  0  0  0  0  0  0  # atno 17342 bound_to 10162
  140.3887  144.2643  150.5901 LP  0  0  0  0  0  0  0  0  0  0  0  0  # atno 17343 bound_to 10162
  157.1715  130.6269  149.5642 LP  0  0  0  0  0  0  0  0  0  0  0  0  # atno 17370 bound_to 10713
  155.9792  130.4784  150.6701 LP  0  0  0  0  0  0  0  0  0  0  0  0  # atno 17371 bound_to 10713
  139.8725  134.9408  156.3780 LP  0  0  0  0  0  0  0  0  0  0  0  0  # atno 17394 bound_to 11000
  140.9331  133.7565  156.0050 LP  0  0  0  0  0  0  0  0  0  0  0  0  # atno 17395 bound_to 11000

$$$$
