AV-unprocessed.smi:876|AV-procd|sdf|4023|dock10
  -GOLD-   22720 1513D 1   1.00000     0.00000
 Structure written by MMmdl.
 40 41  0  0  0  0  0  0  0  0  1 V2000
  152.0255  141.0234  158.1992 C   0  0  0  0  0  0  0  0  0  0  0  0
  151.2593  141.7386  157.1860 N   0  0  0  0  0  0  0  0  0  0  0  0
  151.2409  143.1978  157.1832 C   0  0  0  0  0  0  0  0  0  0  0  0
  150.5081  141.0231  156.2256 C   0  0  0  0  0  0  0  0  0  0  0  0
  149.4856  141.6486  155.4700 C   0  0  0  0  0  0  0  0  0  0  0  0
  148.7642  140.8942  154.5247 C   0  0  0  0  0  0  0  0  0  0  0  0
  149.0840  139.5284  154.3475 C   0  0  0  0  0  0  0  0  0  0  0  0
  148.4206  138.6547  153.4432 N   0  0  0  0  0  0  0  0  0  0  0  0
  147.1186  138.6155  153.1116 C   0  0  0  0  0  0  0  0  0  0  0  0
  146.2523  139.3856  153.5250 O   0  0  0  0  0  0  0  0  0  0  0  0
  146.8709  137.6262  152.2417 N   0  0  0  0  0  0  0  0  0  0  0  0
  145.5592  137.3181  151.6826 C   0  0  2  0  0  0  0  0  0  0  0  0
  144.6295  136.8218  152.7559 C   0  0  0  0  0  0  0  0  0  0  0  0
  144.0863  135.6433  152.4600 C   0  0  0  0  0  0  0  0  0  0  0  0
  144.5468  135.1047  151.1294 C   0  0  2  0  0  0  0  0  0  0  0  0
  145.1093  133.6757  151.2213 C   0  0  0  0  0  0  0  0  0  0  0  0
  145.5062  133.2145  149.9465 O   0  0  0  0  0  0  0  0  0  0  0  0
  145.5965  136.1469  150.6657 C   0  0  0  0  0  0  0  0  0  0  0  0
  150.1074  138.9912  155.1522 C   0  0  0  0  0  0  0  0  0  0  0  0
  150.8011  139.7102  156.0587 N   0  0  0  0  0  0  0  0  0  0  0  0
  145.1182  138.2103  151.2347 H   0  0  0  0  0  0  0  0  0  0  0  0
  143.6939  135.1212  150.4494 H   0  0  0  0  0  0  0  0  0  0  0  0
  152.7922  140.4041  157.7325 H   0  0  0  0  0  0  0  0  0  0  0  0
  151.3727  140.3837  158.7939 H   0  0  0  0  0  0  0  0  0  0  0  0
  152.5247  141.7127  158.8805 H   0  0  0  0  0  0  0  0  0  0  0  0
  150.2292  143.5684  157.3522 H   0  0  0  0  0  0  0  0  0  0  0  0
  151.5964  143.5839  156.2270 H   0  0  0  0  0  0  0  0  0  0  0  0
  151.8814  143.6057  157.9653 H   0  0  0  0  0  0  0  0  0  0  0  0
  149.2345  142.6904  155.5994 H   0  0  0  0  0  0  0  0  0  0  0  0
  147.9752  141.3777  153.9706 H   0  0  0  0  0  0  0  0  0  0  0  0
  149.0196  138.0024  152.9586 H   0  0  0  0  0  0  0  0  0  0  0  0
  147.6408  137.0435  151.9469 H   0  0  0  0  0  0  0  0  0  0  0  0
  144.4288  137.3901  153.6523 H   0  0  0  0  0  0  0  0  0  0  0  0
  143.3800  135.1126  153.0814 H   0  0  0  0  0  0  0  0  0  0  0  0
  145.9766  133.6530  151.8816 H   0  0  0  0  0  0  0  0  0  0  0  0
  144.3683  132.9917  151.6366 H   0  0  0  0  0  0  0  0  0  0  0  0
  145.6931  133.9632  149.4009 H   0  0  0  0  0  0  0  0  0  0  0  0
  145.3814  136.4991  149.6561 H   0  0  0  0  0  0  0  0  0  0  0  0
  146.5897  135.6959  150.6319 H   0  0  0  0  0  0  0  0  0  0  0  0
  150.3834  137.9503  155.0664 H   0  0  0  0  0  0  0  0  0  0  0  0
  1  2  1  0  0  0  0
  1 23  1  0  0  0  0
  1 24  1  0  0  0  0
  1 25  1  0  0  0  0
  2  3  1  0  0  0  0
  2  4  1  0  0  0  0
  3 26  1  0  0  0  0
  3 27  1  0  0  0  0
  3 28  1  0  0  0  0
  4 20  1  0  0  0  0
  4  5  2  0  0  0  0
  5  6  1  0  0  0  0
  5 29  1  0  0  0  0
  6  7  2  0  0  0  0
  6 30  1  0  0  0  0
  7  8  1  0  0  0  0
  7 19  1  0  0  0  0
  8  9  1  0  0  0  0
  8 31  1  0  0  0  0
  9 10  2  0  0  0  0
  9 11  1  0  0  0  0
 11 12  1  0  0  0  0
 11 32  1  0  0  0  0
 12 21  1  0  0  0  0
 12 18  1  0  0  0  0
 12 13  1  0  0  0  0
 13 14  2  0  0  0  0
 13 33  1  0  0  0  0
 14 15  1  0  0  0  0
 14 34  1  0  0  0  0
 15 22  1  0  0  0  0
 15 16  1  0  0  0  0
 15 18  1  0  0  0  0
 16 17  1  0  0  0  0
 16 35  1  0  0  0  0
 16 36  1  0  0  0  0
 17 37  1  0  0  0  0
 18 38  1  0  0  0  0
 18 39  1  0  0  0  0
 19 20  2  0  0  0  0
 19 40  1  0  0  0  0
M  END
> <s_m_source_file>
AV-unprocessed.smi

> <i_m_source_file_index>
876

> <i_lp_mmshare_version>
43012

> <i_f3d_flags>
0

> <s_epik_input>
W0NIM11OKFtDSDNdKWMxW2NIXVtjSF1jKFtjSF1uMSlbTkhdQyg9TylbTkhdW0NAQEhdMltDSF09W0NIXVtDQEBIXShbQ0gyXTIpW0NIMl1bT0hd

> <s_epik_cmdline>
J2VwaWtfcHl0aG9uJywgJy1waCcsICc3LjAnLCAnLXRuJywgJzgnLCAnLW1hJywgJzIwMCcsICctbWV0YWxfYmluZGluZycsICctaW1hZScsICc8aW5maWxlLm1hZT4nLCAnLW9tYWUnLCAnPG91dGZpbGUubWFlPic=

> <r_lp_tautomer_probability>
1

> <r_epik_Ionization_Penalty>
0.617998

> <r_epik_Ionization_Penalty_Charging>
0

> <r_epik_Ionization_Penalty_Neutral>
0.617998

> <r_epik_State_Penalty>
0.632637

> <r_epik_Charging_Adjusted_Penalty>
0.632637

> <i_epik_Tot_Q>
0

> <i_epik_Tot_abs_Q>
0

> <r_epik_Metal_State_Penalty>
0.305596

> <b_epik_Metal_Only>
0

> <s_lp_Force_Field>
OPLS_2005

> <r_lp_Energy>
21.6673

> <b_lp_Chiralities_Consistent>
1

> <s_lp_Variant>
AV-unprocessed.smi:876-5

> <Gold.Version>
5.8.1

> <Gold.Id.Protein>
6NUR|6NUR_protein|mol2

> <Gold.PLP.Fitness>
40.7826

> <Gold.PLP.PLP>
-33.2686

> <Gold.PLP.part.hbond>
-3.9383

> <Gold.PLP.part.metal>
0.0000

> <Gold.PLP.part.buried>
-0.6765

> <Gold.PLP.part.nonpolar>
-29.9551

> <Gold.PLP.part.repulsive>
0.9325

> <Gold.PLP.ligand.clash>
0.0000

> <Gold.PLP.ligand.torsion>
0.4221

> <Gold.PLP.Chemscore.Hbond>
2.7809

> <Gold.PLP.Chemscore.CHOScore>
0.0000

> <Gold.PLP.Chemscore.Metal>
0.0000

> <Gold.Chemscore.Hbonds>
donor molecule, donor type, donor heavy atom, donor atom, acceptor molecule, acceptor atom, score
      L1  H     8    31       P1  7948  0.80
      L1  H    11    32       P1  7948  0.99
      L1  H    17    37       P1  7921  1.00

> <Gold.PLP.Chemscore.Internal.Correction>
0.0154

> <Gold.Rescore>
     Score         DG    S(hbond)    S(metal)    S(lipo)     H(rot)  DE(clash)    DE(int)     intcor
     15.33     -17.67       2.33        0.00      76.92       1.80       1.82       0.53       ----

> <Gold.Chemscore.Fitness>
15.3291

> <Gold.Chemscore.DG>
-17.6744

> <Gold.Chemscore.ZeroCoef>
-5.4800

> <Gold.Chemscore.Hbond>
2.3347

> <Gold.Chemscore.Metal>
0.0000

> <Gold.Chemscore.Lipo>
76.9175

> <Gold.Chemscore.Internal_Hbond>
0.0000

> <Gold.Chemscore.DEClash>
1.8192

> <Gold.Chemscore.DEInternal>
0.5261

> <Gold.Chemscore.Rot>
1.7980

> <Gold.Chemscore.Internal.Correction>
   9.000000E+99

> <Gold.Chemscore.Hbonds>
donor molecule, donor type, donor heavy atom, donor atom, acceptor molecule, acceptor atom, score
      L1  H     8    31       P1  7948  0.76
      L1  H    11    32       P1  7948  0.92
      L1  H    17    37       P1  7921  0.46

> <Gold.Chemscore.Hbond.Weighted>
-7.7980

> <Gold.Chemscore.Metal.Weighted>
-0.0000

> <Gold.Chemscore.Lipo.Weighted>
-8.9994

> <Gold.Chemscore.Internal_Hbond.Weighted>
0.0000

> <Gold.Chemscore.DEClash.Weighted>
1.8192

> <Gold.Chemscore.DEInternal.Weighted>
0.5261

> <Gold.Chemscore.Rot.Weighted>
4.6029

> <Gold.Chemscore.Internal.Correction.Weighted>
   9.000000E+99

> <Gold.Protein.RotatedTorsions>
[ 6907 6896 6895 6894 ] final   43.19 input  -60.11 | X-H torsion
[ 7974 7965 7964 7962 ] final   60.58 input  175.53 | X-H torsion
[ 8008 7997 7996 7995 ] final   -0.44 input   59.86 | X-H torsion
[ 10167 10162 10161 10158 ] final  -78.72 input  -65.29 | X-H torsion
[ 10718 10713 10712 10709 ] final -175.71 input   66.30 | X-H torsion
[ 10763 10752 10751 10750 ] final   38.67 input  -60.55 | X-H torsion
[ 11005 11000 10999 10996 ] final  161.73 input  -57.11 | X-H torsion

> <Gold.Protein.ActiveResidues>
 VAL166  LYS551  ARG553  GLY616  TRP617  ASP618  TYR619  PRO620  LYS621  CYS622 
 ASP623  PHE694  ASN695  SER759  ASP760  ASP761  ALA762  ILE779  LEU786  VAL792 
 PHE793  MET794  SER795  GLU796  ALA797  LYS798  CYS799  TRP800  GLU811  SER814 

> <Gold.Protein.RotatedAtoms>
  152.2172  134.8446  160.0490 H   0  0  0  0  0  0  0  0  0  0  0  0  # atno 6907 bound_to 6896
  151.9243  133.3589  159.3916 H   0  0  0  0  0  0  0  0  0  0  0  0  # atno 6908 bound_to 6896
  150.6991  134.4528  159.5388 H   0  0  0  0  0  0  0  0  0  0  0  0  # atno 6909 bound_to 6896
  145.8944  139.3534  143.0630 H   0  0  0  0  0  0  0  0  0  0  0  0  # atno 7974 bound_to 7965
  154.6581  140.2584  155.7139 H   0  0  0  0  0  0  0  0  0  0  0  0  # atno 8008 bound_to 7997
  156.2606  140.2854  156.0963 H   0  0  0  0  0  0  0  0  0  0  0  0  # atno 8009 bound_to 7997
  155.1350  140.0379  157.2774 H   0  0  0  0  0  0  0  0  0  0  0  0  # atno 8010 bound_to 7997
  140.4657  143.2440  151.8281 H   0  0  0  0  0  0  0  0  0  0  0  0  # atno 10167 bound_to 10162
  156.8039  130.9562  151.3118 H   0  0  0  0  0  0  0  0  0  0  0  0  # atno 10718 bound_to 10713
  152.9993  135.6243  154.2342 H   0  0  0  0  0  0  0  0  0  0  0  0  # atno 10763 bound_to 10752
  154.2084  135.2801  155.2969 H   0  0  0  0  0  0  0  0  0  0  0  0  # atno 10764 bound_to 10752
  154.5627  135.5700  153.7081 H   0  0  0  0  0  0  0  0  0  0  0  0  # atno 10765 bound_to 10752
  140.2187  134.8212  157.3198 H   0  0  0  0  0  0  0  0  0  0  0  0  # atno 11005 bound_to 11000
  145.8869  140.9328  143.0572 LP  0  0  0  0  0  0  0  0  0  0  0  0  # atno 17320 bound_to 7965
  144.6732  140.0854  143.7467 LP  0  0  0  0  0  0  0  0  0  0  0  0  # atno 17321 bound_to 7965
  139.4812  144.4953  151.9132 LP  0  0  0  0  0  0  0  0  0  0  0  0  # atno 17342 bound_to 10162
  140.4038  144.2458  150.5891 LP  0  0  0  0  0  0  0  0  0  0  0  0  # atno 17343 bound_to 10162
  157.6540  130.8908  149.9690 LP  0  0  0  0  0  0  0  0  0  0  0  0  # atno 17370 bound_to 10713
  156.1084  130.3651  150.0092 LP  0  0  0  0  0  0  0  0  0  0  0  0  # atno 17371 bound_to 10713
  140.1872  134.4416  155.7736 LP  0  0  0  0  0  0  0  0  0  0  0  0  # atno 17394 bound_to 11000
  141.2224  133.7010  156.7968 LP  0  0  0  0  0  0  0  0  0  0  0  0  # atno 17395 bound_to 11000

$$$$
