AV-unprocessed.smi:1897|AV-procd|sdf|7693|dock5
  -GOLD-   22720 9433D 1   1.00000     0.00000
 Structure written by MMmdl.
 38 40  0  0  0  0  0  0  0  0  3 V2000
  148.4820  123.1173  150.6403 C   0  0  0  0  0  0  0  0  0  0  0  0
  148.2999  124.4994  151.1675 C   0  0  0  0  0  0  0  0  0  0  0  0
  147.8816  124.7490  152.4108 N   0  0  0  0  0  0  0  0  0  0  0  0
  147.7888  126.1087  152.6677 N   0  0  0  0  0  0  0  0  0  0  0  0
  148.1223  126.8671  151.6132 C   0  0  0  0  0  0  0  0  0  0  0  0
  148.0841  128.2123  151.6487 N   0  5  0  0  0  0  0  0  0  0  0  0
  147.1253  128.8978  152.3238 C   0  0  0  0  0  0  0  0  0  0  0  0
  146.1929  128.3545  152.9149 O   0  0  0  0  0  0  0  0  0  0  0  0
  147.2025  130.2422  152.3296 N   0  0  0  0  0  0  0  0  0  0  0  0
  146.2295  131.1517  152.9252 C   0  0  1  0  0  0  0  0  0  0  0  0
  146.8385  132.4965  153.3435 C   0  0  0  0  0  0  0  0  0  0  0  0
  145.7146  133.5270  153.1353 C   0  0  0  0  0  0  0  0  0  0  0  0
  144.5570  132.7725  152.6053 N   0  3  1  0  0  0  0  0  0  0  0  0
  143.5751  133.5449  151.8021 C   0  0  0  0  0  0  0  0  0  0  0  0
  144.0538  133.7999  150.3630 C   0  0  0  0  0  0  0  0  0  0  0  0
  144.4508  132.4851  149.6842 C   0  0  0  0  0  0  0  0  0  0  0  0
  145.5400  131.7903  150.5076 C   0  0  0  0  0  0  0  0  0  0  0  0
  145.0895  131.5464  151.9718 C   0  0  1  0  0  0  0  0  0  0  0  0
  148.6084  125.9320  150.2005 S   0  0  0  0  0  0  0  0  0  0  0  0
  147.5235  122.7164  150.3107 H   0  0  0  0  0  0  0  0  0  0  0  0
  148.8887  122.4668  151.4151 H   0  0  0  0  0  0  0  0  0  0  0  0
  149.1695  123.1228  149.7944 H   0  0  0  0  0  0  0  0  0  0  0  0
  147.9796  130.6626  151.8407 H   0  0  0  0  0  0  0  0  0  0  0  0
  145.7994  130.6885  153.8156 H   0  0  0  0  0  0  0  0  0  0  0  0
  147.1899  132.4732  154.3755 H   0  0  0  0  0  0  0  0  0  0  0  0
  147.6913  132.7522  152.7126 H   0  0  0  0  0  0  0  0  0  0  0  0
  145.4411  134.0274  154.0646 H   0  0  0  0  0  0  0  0  0  0  0  0
  146.0395  134.2917  152.4287 H   0  0  0  0  0  0  0  0  0  0  0  0
  142.6460  132.9742  151.7733 H   0  0  0  0  0  0  0  0  0  0  0  0
  143.3455  134.4849  152.3049 H   0  0  0  0  0  0  0  0  0  0  0  0
  143.2639  134.2888  149.7919 H   0  0  0  0  0  0  0  0  0  0  0  0
  144.9010  134.4865  150.3630 H   0  0  0  0  0  0  0  0  0  0  0  0
  143.5813  131.8335  149.5910 H   0  0  0  0  0  0  0  0  0  0  0  0
  144.8097  132.6773  148.6728 H   0  0  0  0  0  0  0  0  0  0  0  0
  145.8032  130.8441  150.0334 H   0  0  0  0  0  0  0  0  0  0  0  0
  146.4432  132.4015  150.4867 H   0  0  0  0  0  0  0  0  0  0  0  0
  144.3110  130.7819  151.9755 H   0  0  0  0  0  0  0  0  0  0  0  0
  144.0621  132.4527  153.4256 H   0  0  0  0  0  0  0  0  0  0  0  0
  1  2  1  0  0  0  0
  1 20  1  0  0  0  0
  1 21  1  0  0  0  0
  1 22  1  0  0  0  0
  2 19  1  0  0  0  0
  2  3  2  0  0  0  0
  3  4  1  0  0  0  0
  4  5  2  0  0  0  0
  5  6  1  0  0  0  0
  5 19  1  0  0  0  0
  6  7  1  0  0  0  0
  7  8  2  0  0  0  0
  7  9  1  0  0  0  0
  9 10  1  0  0  0  0
  9 23  1  0  0  0  0
 10 18  1  0  0  0  0
 10 11  1  0  0  0  0
 10 24  1  0  0  0  0
 11 12  1  0  0  0  0
 11 25  1  0  0  0  0
 11 26  1  0  0  0  0
 12 13  1  0  0  0  0
 12 27  1  0  0  0  0
 12 28  1  0  0  0  0
 13 18  1  0  0  0  0
 13 14  1  0  0  0  0
 13 38  1  0  0  0  0
 14 15  1  0  0  0  0
 14 29  1  0  0  0  0
 14 30  1  0  0  0  0
 15 16  1  0  0  0  0
 15 31  1  0  0  0  0
 15 32  1  0  0  0  0
 16 17  1  0  0  0  0
 16 33  1  0  0  0  0
 16 34  1  0  0  0  0
 17 18  1  0  0  0  0
 17 35  1  0  0  0  0
 17 36  1  0  0  0  0
 18 37  1  0  0  0  0
M  CHG  1   6  -1
M  CHG  1  13   1
M  END
> <s_m_source_file>
AV-unprocessed.smi

> <i_m_source_file_index>
1897

> <i_lp_mmshare_version>
43012

> <i_f3d_flags>
0

> <s_epik_input>
W0NIM11jMW5uYyhzMSlbTkhdQyg9TylbTkhdW0NASF0oW0NIMl1bQ0gyXTIpW0NAQEhdKE4yMylbQ0gyXVtDSDJdW0NIMl1bQ0gyXTM=

> <s_epik_cmdline>
J2VwaWtfcHl0aG9uJywgJy1waCcsICc3LjAnLCAnLXRuJywgJzgnLCAnLW1hJywgJzIwMCcsICctbWV0YWxfYmluZGluZycsICctaW1hZScsICc8aW5maWxlLm1hZT4nLCAnLW9tYWUnLCAnPG91dGZpbGUubWFlPic=

> <r_lp_tautomer_probability>
1

> <r_epik_Ionization_Penalty>
3.77712

> <r_epik_Ionization_Penalty_Charging>
3.67739

> <r_epik_Ionization_Penalty_Neutral>
0.0997294

> <r_epik_State_Penalty>
3.67514

> <r_epik_Charging_Adjusted_Penalty>
7.35254

> <i_epik_Tot_Q>
0

> <i_epik_Tot_abs_Q>
2

> <r_epik_Metal_State_Penalty>
0.540795

> <b_epik_Metal_Only>
1

> <s_lp_Force_Field>
OPLS_2005

> <r_lp_Energy>
30.11

> <b_lp_Chiralities_Consistent>
1

> <s_lp_Variant>
AV-unprocessed.smi:1897-10

> <Gold.Version>
5.8.1

> <Gold.Id.Protein>
6NUR|6NUR_protein|mol2

> <Gold.PLP.Fitness>
41.3196

> <Gold.PLP.PLP>
-34.1444

> <Gold.PLP.part.hbond>
-3.7880

> <Gold.PLP.part.metal>
0.0000

> <Gold.PLP.part.buried>
-7.3190

> <Gold.PLP.part.nonpolar>
-25.8688

> <Gold.PLP.part.repulsive>
0.7913

> <Gold.PLP.ligand.clash>
0.0000

> <Gold.PLP.ligand.torsion>
0.6350

> <Gold.PLP.Chemscore.Hbond>
2.8136

> <Gold.PLP.Chemscore.CHOScore>
0.0000

> <Gold.PLP.Chemscore.Metal>
0.0000

> <Gold.Chemscore.Hbonds>
donor molecule, donor type, donor heavy atom, donor atom, acceptor molecule, acceptor atom, score
      L1  H     9    23       P1 10747  0.99
      L1  H    13    38       P1 10957  1.82

> <Gold.PLP.Chemscore.Internal.Correction>
0.0042

> <Gold.Rescore>
     Score         DG    S(hbond)    S(metal)    S(lipo)     H(rot)  DE(clash)    DE(int)     intcor
     13.26     -15.33       1.14        0.00      73.52       1.00       0.05       2.02       ----

> <Gold.Chemscore.Fitness>
13.2587

> <Gold.Chemscore.DG>
-15.3272

> <Gold.Chemscore.ZeroCoef>
-5.4800

> <Gold.Chemscore.Hbond>
1.1393

> <Gold.Chemscore.Metal>
0.0000

> <Gold.Chemscore.Lipo>
73.5219

> <Gold.Chemscore.Internal_Hbond>
0.0000

> <Gold.Chemscore.DEClash>
0.0512

> <Gold.Chemscore.DEInternal>
2.0173

> <Gold.Chemscore.Rot>
1.0000

> <Gold.Chemscore.Internal.Correction>
   9.000000E+99

> <Gold.Chemscore.Hbonds>
donor molecule, donor type, donor heavy atom, donor atom, acceptor molecule, acceptor atom, score
      L1  H     9    23       P1 10747  0.93
      L1  H    13    38       P1 10957  0.19

> <Gold.Chemscore.Hbond.Weighted>
-3.8052

> <Gold.Chemscore.Metal.Weighted>
-0.0000

> <Gold.Chemscore.Lipo.Weighted>
-8.6021

> <Gold.Chemscore.Internal_Hbond.Weighted>
0.0000

> <Gold.Chemscore.DEClash.Weighted>
0.0512

> <Gold.Chemscore.DEInternal.Weighted>
2.0173

> <Gold.Chemscore.Rot.Weighted>
2.5600

> <Gold.Chemscore.Internal.Correction.Weighted>
   9.000000E+99

> <Gold.Protein.RotatedTorsions>
[ 6907 6896 6895 6894 ] final  -85.42 input  -60.11 | X-H torsion
[ 7974 7965 7964 7962 ] final -113.49 input  175.53 | X-H torsion
[ 8008 7997 7996 7995 ] final  134.09 input   59.86 | X-H torsion
[ 10167 10162 10161 10158 ] final  151.63 input  -65.29 | X-H torsion
[ 10718 10713 10712 10709 ] final   56.22 input   66.30 | X-H torsion
[ 10763 10752 10751 10750 ] final  -64.12 input  -60.55 | X-H torsion
[ 11005 11000 10999 10996 ] final  -75.92 input  -57.11 | X-H torsion

> <Gold.Protein.ActiveResidues>
 VAL166  LYS551  ARG553  GLY616  TRP617  ASP618  TYR619  PRO620  LYS621  CYS622 
 ASP623  PHE694  ASN695  SER759  ASP760  ASP761  ALA762  ILE779  LEU786  VAL792 
 PHE793  MET794  SER795  GLU796  ALA797  LYS798  CYS799  TRP800  GLU811  SER814 

> <Gold.Protein.RotatedAtoms>
  150.6870  134.3207  159.4785 H   0  0  0  0  0  0  0  0  0  0  0  0  # atno 6907 bound_to 6896
  152.1083  134.9290  160.0576 H   0  0  0  0  0  0  0  0  0  0  0  0  # atno 6908 bound_to 6896
  152.0542  133.3998  159.4427 H   0  0  0  0  0  0  0  0  0  0  0  0  # atno 6909 bound_to 6896
  145.1315  140.8727  143.3755 H   0  0  0  0  0  0  0  0  0  0  0  0  # atno 7974 bound_to 7965
  156.2997  140.2505  156.3360 H   0  0  0  0  0  0  0  0  0  0  0  0  # atno 8008 bound_to 7997
  154.9100  140.0403  157.1960 H   0  0  0  0  0  0  0  0  0  0  0  0  # atno 8009 bound_to 7997
  154.8415  140.2891  155.5660 H   0  0  0  0  0  0  0  0  0  0  0  0  # atno 8010 bound_to 7997
  139.4839  144.5425  151.7540 H   0  0  0  0  0  0  0  0  0  0  0  0  # atno 10167 bound_to 10162
  157.5412  130.8699  149.8825 H   0  0  0  0  0  0  0  0  0  0  0  0  # atno 10718 bound_to 10713
  154.3252  135.6188  153.5526 H   0  0  0  0  0  0  0  0  0  0  0  0  # atno 10763 bound_to 10752
  152.9816  135.5733  154.5024 H   0  0  0  0  0  0  0  0  0  0  0  0  # atno 10764 bound_to 10752
  154.4700  135.2859  155.1626 H   0  0  0  0  0  0  0  0  0  0  0  0  # atno 10765 bound_to 10752
  141.1649  133.6964  156.7590 H   0  0  0  0  0  0  0  0  0  0  0  0  # atno 11005 bound_to 11000
  145.0631  139.3090  143.5870 LP  0  0  0  0  0  0  0  0  0  0  0  0  # atno 17320 bound_to 7965
  146.3513  140.0079  142.8670 LP  0  0  0  0  0  0  0  0  0  0  0  0  # atno 17321 bound_to 7965
  140.4967  144.1230  150.5961 LP  0  0  0  0  0  0  0  0  0  0  0  0  # atno 17342 bound_to 10162
  140.4110  143.2657  151.9833 LP  0  0  0  0  0  0  0  0  0  0  0  0  # atno 17343 bound_to 10162
  156.0499  130.3720  150.1227 LP  0  0  0  0  0  0  0  0  0  0  0  0  # atno 17370 bound_to 10713
  156.9407  130.9743  151.3516 LP  0  0  0  0  0  0  0  0  0  0  0  0  # atno 17371 bound_to 10713
  140.2548  134.8513  157.3702 LP  0  0  0  0  0  0  0  0  0  0  0  0  # atno 17394 bound_to 11000
  140.1668  134.4659  155.7858 LP  0  0  0  0  0  0  0  0  0  0  0  0  # atno 17395 bound_to 11000

$$$$
