AV-unprocessed.smi:2057|AV-procd|sdf|8340|dock1
  -GOLD-   2272011 03D 1   1.00000     0.00000
 Structure written by MMmdl.
 44 46  0  0  0  0  0  0  0  0  1 V2000
  147.1183  136.6677  162.0440 C   0  0  0  0  0  0  0  0  0  0  0  0
  148.3150  136.7680  161.2861 O   0  0  0  0  0  0  0  0  0  0  0  0
  148.2069  136.9111  159.9196 C   0  0  0  0  0  0  0  0  0  0  0  0
  147.0074  137.2395  159.2454 C   0  0  0  0  0  0  0  0  0  0  0  0
  146.9906  137.3772  157.8452 C   0  0  0  0  0  0  0  0  0  0  0  0
  148.1693  137.1855  157.0825 C   0  0  0  0  0  0  0  0  0  0  0  0
  148.2165  137.3251  155.7097 O   0  0  0  0  0  0  0  0  0  0  0  0
  147.0317  137.7053  155.0262 C   0  0  0  0  0  0  0  0  0  0  0  0
  149.3680  136.8407  157.7529 C   0  0  0  0  0  0  0  0  0  0  0  0
  150.6547  136.6360  156.9582 C   0  0  2  0  0  0  0  0  0  0  0  0
  151.2056  135.3420  157.1195 O   0  0  0  0  0  0  0  0  0  0  0  0
  151.7047  137.7033  157.3264 C   0  0  0  0  0  0  0  0  0  0  0  0
  151.4162  139.0059  156.7427 N   0  0  0  0  0  0  0  0  0  0  0  0
  151.0947  139.2891  155.4554 C   0  0  0  0  0  0  0  0  0  0  0  0
  150.9900  138.2045  154.4199 C   0  0  0  0  0  0  0  0  0  0  0  0
  149.9340  138.3883  153.4987 O   0  0  0  0  0  0  0  0  0  0  0  0
  150.8727  140.5782  155.1878 N   0  0  0  0  0  0  0  0  0  0  0  0
  151.0703  141.1844  156.4126 C   0  0  0  0  0  0  0  0  0  0  0  0
  150.9837  142.5438  156.7895 C   0  0  0  0  0  0  0  0  0  0  0  0
  151.2328  142.9326  158.1221 C   0  0  0  0  0  0  0  0  0  0  0  0
  151.5709  141.9697  159.0951 C   0  0  0  0  0  0  0  0  0  0  0  0
  151.6609  140.6099  158.7409 C   0  0  0  0  0  0  0  0  0  0  0  0
  151.4117  140.2273  157.4093 C   0  0  0  0  0  0  0  0  0  0  0  0
  149.3763  136.7170  159.1607 C   0  0  0  0  0  0  0  0  0  0  0  0
  147.3683  136.5652  163.0998 H   0  0  0  0  0  0  0  0  0  0  0  0
  146.5371  135.7905  161.7563 H   0  0  0  0  0  0  0  0  0  0  0  0
  146.5020  137.5614  161.9368 H   0  0  0  0  0  0  0  0  0  0  0  0
  146.0836  137.3972  159.7811 H   0  0  0  0  0  0  0  0  0  0  0  0
  146.0525  137.6361  157.3787 H   0  0  0  0  0  0  0  0  0  0  0  0
  147.2440  137.7857  153.9603 H   0  0  0  0  0  0  0  0  0  0  0  0
  146.6707  138.6777  155.3641 H   0  0  0  0  0  0  0  0  0  0  0  0
  146.2428  136.9625  155.1501 H   0  0  0  0  0  0  0  0  0  0  0  0
  150.4177  136.7163  155.8974 H   0  0  0  0  0  0  0  0  0  0  0  0
  151.9178  135.3950  157.7383 H   0  0  0  0  0  0  0  0  0  0  0  0
  151.7668  137.8151  158.4092 H   0  0  0  0  0  0  0  0  0  0  0  0
  152.6965  137.3860  157.0017 H   0  0  0  0  0  0  0  0  0  0  0  0
  151.9223  138.1464  153.8594 H   0  0  0  0  0  0  0  0  0  0  0  0
  150.8498  137.2470  154.9219 H   0  0  0  0  0  0  0  0  0  0  0  0
  149.7493  137.5599  153.0836 H   0  0  0  0  0  0  0  0  0  0  0  0
  150.7251  143.2885  156.0515 H   0  0  0  0  0  0  0  0  0  0  0  0
  151.1647  143.9743  158.3991 H   0  0  0  0  0  0  0  0  0  0  0  0
  151.7623  142.2755  160.1131 H   0  0  0  0  0  0  0  0  0  0  0  0
  151.9218  139.8697  159.4827 H   0  0  0  0  0  0  0  0  0  0  0  0
  150.2934  136.4747  159.6774 H   0  0  0  0  0  0  0  0  0  0  0  0
  1  2  1  0  0  0  0
  1 25  1  0  0  0  0
  1 26  1  0  0  0  0
  1 27  1  0  0  0  0
  2  3  1  0  0  0  0
  3 24  1  0  0  0  0
  3  4  2  0  0  0  0
  4  5  1  0  0  0  0
  4 28  1  0  0  0  0
  5  6  2  0  0  0  0
  5 29  1  0  0  0  0
  6  7  1  0  0  0  0
  6  9  1  0  0  0  0
  7  8  1  0  0  0  0
  8 30  1  0  0  0  0
  8 31  1  0  0  0  0
  8 32  1  0  0  0  0
  9 10  1  0  0  0  0
  9 24  2  0  0  0  0
 10 11  1  0  0  0  0
 10 12  1  0  0  0  0
 10 33  1  0  0  0  0
 11 34  1  0  0  0  0
 12 13  1  0  0  0  0
 12 35  1  0  0  0  0
 12 36  1  0  0  0  0
 13 23  1  0  0  0  0
 13 14  1  0  0  0  0
 14 15  1  0  0  0  0
 14 17  2  0  0  0  0
 15 16  1  0  0  0  0
 15 37  1  0  0  0  0
 15 38  1  0  0  0  0
 16 39  1  0  0  0  0
 17 18  1  0  0  0  0
 18 23  2  0  0  0  0
 18 19  1  0  0  0  0
 19 20  2  0  0  0  0
 19 40  1  0  0  0  0
 20 21  1  0  0  0  0
 20 41  1  0  0  0  0
 21 22  2  0  0  0  0
 21 42  1  0  0  0  0
 22 23  1  0  0  0  0
 22 43  1  0  0  0  0
 24 44  1  0  0  0  0
M  END
> <s_m_source_file>
AV-unprocessed.smi

> <i_m_source_file_index>
2057

> <i_lp_mmshare_version>
43012

> <i_f3d_flags>
0

> <s_epik_input>
W0NIM11PYzFbY0hdW2NIXWMoT1tDSDNdKWMoW2NIXTEpW0NASF0oW09IXSlbQ0gyXW4oYyhuMilbQ0gyXVtPSF0pYyhjMjMpW2NIXVtjSF1bY0hdW2NIXTM=

> <s_epik_cmdline>
J2VwaWtfcHl0aG9uJywgJy1waCcsICc3LjAnLCAnLXRuJywgJzgnLCAnLW1hJywgJzIwMCcsICctbWV0YWxfYmluZGluZycsICctaW1hZScsICc8aW5maWxlLm1hZT4nLCAnLW9tYWUnLCAnPG91dGZpbGUubWFlPic=

> <r_lp_tautomer_probability>
1

> <r_epik_Ionization_Penalty>
0.0634722

> <r_epik_Ionization_Penalty_Charging>
0

> <r_epik_Ionization_Penalty_Neutral>
0.0634722

> <r_epik_State_Penalty>
0.0551572

> <r_epik_Charging_Adjusted_Penalty>
0.0551572

> <i_epik_Tot_Q>
0

> <i_epik_Tot_abs_Q>
0

> <r_epik_Metal_State_Penalty>
5.78034e-05

> <b_epik_Metal_Only>
0

> <s_lp_Force_Field>
OPLS_2005

> <r_lp_Energy>
18.6198

> <b_lp_Chiralities_Consistent>
1

> <s_lp_Variant>
AV-unprocessed.smi:2057-1

> <Gold.Version>
5.8.1

> <Gold.Id.Protein>
6NUR|6NUR_protein|mol2

> <Gold.PLP.Fitness>
42.8785

> <Gold.PLP.PLP>
-35.2120

> <Gold.PLP.part.hbond>
-5.6771

> <Gold.PLP.part.metal>
0.0000

> <Gold.PLP.part.buried>
-5.2559

> <Gold.PLP.part.nonpolar>
-24.5979

> <Gold.PLP.part.repulsive>
0.1112

> <Gold.PLP.ligand.clash>
0.0000

> <Gold.PLP.ligand.torsion>
0.7688

> <Gold.PLP.Chemscore.Hbond>
3.0000

> <Gold.PLP.Chemscore.CHOScore>
0.0000

> <Gold.PLP.Chemscore.Metal>
0.0000

> <Gold.Chemscore.Hbonds>
donor molecule, donor type, donor heavy atom, donor atom, acceptor molecule, acceptor atom, score
      L1  H    16    39       P1  7948  1.00
      P1  H  6931  6943       L1     2  1.00
      P1  H  7989  7998       L1    17  0.96

> <Gold.PLP.Chemscore.Internal.Correction>
0.2041

> <Gold.Rescore>
     Score         DG    S(hbond)    S(metal)    S(lipo)     H(rot)  DE(clash)    DE(int)     intcor
     13.03     -15.22       2.52        0.00      80.70       3.17       0.13       2.06       ----

> <Gold.Chemscore.Fitness>
13.0268

> <Gold.Chemscore.DG>
-15.2211

> <Gold.Chemscore.ZeroCoef>
-5.4800

> <Gold.Chemscore.Hbond>
2.5167

> <Gold.Chemscore.Metal>
0.0000

> <Gold.Chemscore.Lipo>
80.6967

> <Gold.Chemscore.Internal_Hbond>
0.0000

> <Gold.Chemscore.DEClash>
0.1321

> <Gold.Chemscore.DEInternal>
2.0623

> <Gold.Chemscore.Rot>
3.1665

> <Gold.Chemscore.Internal.Correction>
   9.000000E+99

> <Gold.Chemscore.Hbonds>
donor molecule, donor type, donor heavy atom, donor atom, acceptor molecule, acceptor atom, score
      L1  H    16    39       P1  7948  0.55
      P1  H  6931  6943       L1     2  0.24
      P1  H  7989  7998       L1    17  0.51

> <Gold.Chemscore.Hbond.Weighted>
-8.4058

> <Gold.Chemscore.Metal.Weighted>
-0.0000

> <Gold.Chemscore.Lipo.Weighted>
-9.4415

> <Gold.Chemscore.Internal_Hbond.Weighted>
0.0000

> <Gold.Chemscore.DEClash.Weighted>
0.1321

> <Gold.Chemscore.DEInternal.Weighted>
2.0623

> <Gold.Chemscore.Rot.Weighted>
8.1062

> <Gold.Chemscore.Internal.Correction.Weighted>
   9.000000E+99

> <Gold.Protein.RotatedTorsions>
[ 6907 6896 6895 6894 ] final   80.20 input  -60.11 | X-H torsion
[ 7974 7965 7964 7962 ] final  115.59 input  175.53 | X-H torsion
[ 8008 7997 7996 7995 ] final  140.10 input   59.86 | X-H torsion
[ 10167 10162 10161 10158 ] final -116.80 input  -65.29 | X-H torsion
[ 10718 10713 10712 10709 ] final -178.17 input   66.30 | X-H torsion
[ 10763 10752 10751 10750 ] final  -67.14 input  -60.55 | X-H torsion
[ 11005 11000 10999 10996 ] final  109.42 input  -57.11 | X-H torsion

> <Gold.Protein.ActiveResidues>
 VAL166  LYS551  ARG553  GLY616  TRP617  ASP618  TYR619  PRO620  LYS621  CYS622 
 ASP623  PHE694  ASN695  SER759  ASP760  ASP761  ALA762  ILE779  LEU786  VAL792 
 PHE793  MET794  SER795  GLU796  ALA797  LYS798  CYS799  TRP800  GLU811  SER814 

> <Gold.Protein.RotatedAtoms>
  152.5226  134.3394  159.9211 H   0  0  0  0  0  0  0  0  0  0  0  0  # atno 6907 bound_to 6896
  151.3343  133.3981  159.2673 H   0  0  0  0  0  0  0  0  0  0  0  0  # atno 6908 bound_to 6896
  150.9855  134.9219  159.7927 H   0  0  0  0  0  0  0  0  0  0  0  0  # atno 6909 bound_to 6896
  145.1901  139.3005  143.4373 H   0  0  0  0  0  0  0  0  0  0  0  0  # atno 7974 bound_to 7965
  156.2983  140.2350  156.4346 H   0  0  0  0  0  0  0  0  0  0  0  0  # atno 8008 bound_to 7997
  154.8240  140.0436  157.1451 H   0  0  0  0  0  0  0  0  0  0  0  0  # atno 8009 bound_to 7997
  154.9282  140.3013  155.5184 H   0  0  0  0  0  0  0  0  0  0  0  0  # atno 8010 bound_to 7997
  140.0753  143.4839  152.1957 H   0  0  0  0  0  0  0  0  0  0  0  0  # atno 10167 bound_to 10162
  156.8404  130.9684  151.3100 H   0  0  0  0  0  0  0  0  0  0  0  0  # atno 10718 bound_to 10713
  154.3702  135.6097  153.5736 H   0  0  0  0  0  0  0  0  0  0  0  0  # atno 10763 bound_to 10752
  152.9790  135.5836  154.4531 H   0  0  0  0  0  0  0  0  0  0  0  0  # atno 10764 bound_to 10752
  154.4284  135.2847  155.1907 H   0  0  0  0  0  0  0  0  0  0  0  0  # atno 10765 bound_to 10752
  139.8862  134.9458  156.6124 H   0  0  0  0  0  0  0  0  0  0  0  0  # atno 11005 bound_to 11000
  146.3438  140.2110  142.8590 LP  0  0  0  0  0  0  0  0  0  0  0  0  # atno 17320 bound_to 7965
  145.0050  140.8665  143.5258 LP  0  0  0  0  0  0  0  0  0  0  0  0  # atno 17321 bound_to 7965
  139.5812  144.7511  151.3636 LP  0  0  0  0  0  0  0  0  0  0  0  0  # atno 17342 bound_to 10162
  140.7105  143.7402  150.7559 LP  0  0  0  0  0  0  0  0  0  0  0  0  # atno 17343 bound_to 10162
  157.6359  130.8766  149.9358 LP  0  0  0  0  0  0  0  0  0  0  0  0  # atno 17370 bound_to 10713
  156.0884  130.3666  150.0443 LP  0  0  0  0  0  0  0  0  0  0  0  0  # atno 17371 bound_to 10713
  140.7802  133.8666  155.8561 LP  0  0  0  0  0  0  0  0  0  0  0  0  # atno 17394 bound_to 11000
  140.9767  134.1459  157.4530 LP  0  0  0  0  0  0  0  0  0  0  0  0  # atno 17395 bound_to 11000

$$$$
