AV-unprocessed.smi:81|AV-procd|sdf|787|dock1
  -GOLD-   2262017153D 1   1.00000     0.00000
 Structure written by MMmdl.
 64 67  0  0  0  0  0  0  0  0  2 V2000
  152.2466  145.0154  159.0238 C   0  0  0  0  0  0  0  0  0  0  0  0
  151.8199  143.6538  159.5969 C   0  0  0  0  0  0  0  0  0  0  0  0
  152.4858  143.4101  160.9584 C   0  0  0  0  0  0  0  0  0  0  0  0
  152.1421  142.4968  158.6246 C   0  0  0  0  0  0  0  0  0  0  0  0
  151.2167  141.3640  158.7205 N   0  0  0  0  0  0  0  0  0  0  0  0
  151.7893  140.1977  159.1101 C   0  0  0  0  0  0  0  0  0  0  0  0
  151.1770  139.0148  158.8394 N   0  0  0  0  0  0  0  0  0  0  0  0
  151.7472  137.8656  159.2137 C   0  0  0  0  0  0  0  0  0  0  0  0
  152.9038  137.6771  159.8525 N   0  0  0  0  0  0  0  0  0  0  0  0
  153.5228  138.8630  160.1187 C   0  0  0  0  0  0  0  0  0  0  0  0
  153.0395  140.1579  159.7830 C   0  0  0  0  0  0  0  0  0  0  0  0
  153.9402  141.1279  160.2034 N   0  0  0  0  0  0  0  0  0  0  0  0
  154.9033  140.4443  160.7591 C   0  0  0  0  0  0  0  0  0  0  0  0
  154.7301  139.0782  160.7594 N   0  0  0  0  0  0  0  0  0  0  0  0
  155.6373  138.0840  161.3099 C   0  0  0  0  0  0  0  0  0  0  0  0
  154.9153  136.9428  162.0644 C   0  0  2  0  0  0  0  0  0  0  0  0
  154.3364  136.0625  161.1137 O   0  0  0  0  0  0  0  0  0  0  0  0
  153.8206  137.4188  163.0080 C   0  0  0  0  0  0  0  0  0  0  0  0
  153.7266  136.2739  164.0091 C   0  0  0  0  0  0  0  0  0  0  0  0
  155.0643  135.8194  164.1672 O   0  0  0  0  0  0  0  0  0  0  0  0
  155.8470  136.1750  163.0281 C   0  0  1  0  0  0  0  0  0  0  0  0
  156.5699  134.9462  162.4531 C   0  0  0  0  0  0  0  0  0  0  0  0
  150.1898  141.2660  157.6732 C   0  0  2  0  0  0  0  0  0  0  0  0
  150.7151  141.5716  156.2541 C   0  0  0  0  0  0  0  0  0  0  0  0
  149.6111  141.3712  155.2034 C   0  0  0  0  0  0  0  0  0  0  0  0
  148.4239  142.2062  155.5128 N   0  3  1  0  0  0  0  0  0  0  0  0
  147.3934  142.1320  154.4551 C   0  0  0  0  0  0  0  0  0  0  0  0
  147.8739  141.9133  156.8598 C   0  0  0  0  0  0  0  0  0  0  0  0
  148.9374  142.1262  157.9495 C   0  0  0  0  0  0  0  0  0  0  0  0
  153.3196  145.0461  158.8332 H   0  0  0  0  0  0  0  0  0  0  0  0
  152.0083  145.8236  159.7157 H   0  0  0  0  0  0  0  0  0  0  0  0
  151.7359  145.2320  158.0854 H   0  0  0  0  0  0  0  0  0  0  0  0
  150.7443  143.6852  159.7741 H   0  0  0  0  0  0  0  0  0  0  0  0
  153.5715  143.3664  160.8674 H   0  0  0  0  0  0  0  0  0  0  0  0
  152.1499  142.4697  161.3964 H   0  0  0  0  0  0  0  0  0  0  0  0
  152.2422  144.2050  161.6638 H   0  0  0  0  0  0  0  0  0  0  0  0
  152.1320  142.8767  157.6024 H   0  0  0  0  0  0  0  0  0  0  0  0
  153.1588  142.1435  158.8015 H   0  0  0  0  0  0  0  0  0  0  0  0
  151.1992  136.9686  158.9658 H   0  0  0  0  0  0  0  0  0  0  0  0
  155.7711  140.9214  161.1908 H   0  0  0  0  0  0  0  0  0  0  0  0
  156.2399  137.6767  160.4970 H   0  0  0  0  0  0  0  0  0  0  0  0
  156.3320  138.5971  161.9761 H   0  0  0  0  0  0  0  0  0  0  0  0
  153.5751  136.4819  160.7427 H   0  0  0  0  0  0  0  0  0  0  0  0
  154.1395  138.3235  163.5278 H   0  0  0  0  0  0  0  0  0  0  0  0
  152.8732  137.6337  162.5120 H   0  0  0  0  0  0  0  0  0  0  0  0
  153.2930  136.5812  164.9609 H   0  0  0  0  0  0  0  0  0  0  0  0
  153.1220  135.4604  163.6063 H   0  0  0  0  0  0  0  0  0  0  0  0
  156.6024  136.8663  163.4041 H   0  0  0  0  0  0  0  0  0  0  0  0
  157.1585  135.2133  161.5752 H   0  0  0  0  0  0  0  0  0  0  0  0
  155.8682  134.1635  162.1643 H   0  0  0  0  0  0  0  0  0  0  0  0
  157.2497  134.5190  163.1906 H   0  0  0  0  0  0  0  0  0  0  0  0
  149.8721  140.2223  157.6714 H   0  0  0  0  0  0  0  0  0  0  0  0
  151.0783  142.5981  156.1896 H   0  0  0  0  0  0  0  0  0  0  0  0
  151.5608  140.9238  156.0210 H   0  0  0  0  0  0  0  0  0  0  0  0
  149.9967  141.6352  154.2178 H   0  0  0  0  0  0  0  0  0  0  0  0
  149.3192  140.3207  155.1592 H   0  0  0  0  0  0  0  0  0  0  0  0
  146.9938  141.1207  154.3680 H   0  0  0  0  0  0  0  0  0  0  0  0
  147.8112  142.4196  153.4897 H   0  0  0  0  0  0  0  0  0  0  0  0
  146.5674  142.8094  154.6738 H   0  0  0  0  0  0  0  0  0  0  0  0
  147.0200  142.5632  157.0552 H   0  0  0  0  0  0  0  0  0  0  0  0
  147.5051  140.8866  156.8903 H   0  0  0  0  0  0  0  0  0  0  0  0
  148.5098  141.8790  158.9215 H   0  0  0  0  0  0  0  0  0  0  0  0
  149.2005  143.1837  157.9851 H   0  0  0  0  0  0  0  0  0  0  0  0
  148.7428  143.1646  155.5347 H   0  0  0  0  0  0  0  0  0  0  0  0
  1  2  1  0  0  0  0
  1 30  1  0  0  0  0
  1 31  1  0  0  0  0
  1 32  1  0  0  0  0
  2  3  1  0  0  0  0
  2  4  1  0  0  0  0
  2 33  1  0  0  0  0
  3 34  1  0  0  0  0
  3 35  1  0  0  0  0
  3 36  1  0  0  0  0
  4  5  1  0  0  0  0
  4 37  1  0  0  0  0
  4 38  1  0  0  0  0
  5  6  1  0  0  0  0
  5 23  1  0  0  0  0
  6 11  1  0  0  0  0
  6  7  2  0  0  0  0
  7  8  1  0  0  0  0
  8  9  2  0  0  0  0
  8 39  1  0  0  0  0
  9 10  1  0  0  0  0
 10 14  1  0  0  0  0
 10 11  2  0  0  0  0
 11 12  1  0  0  0  0
 12 13  2  0  0  0  0
 13 14  1  0  0  0  0
 13 40  1  0  0  0  0
 14 15  1  0  0  0  0
 15 16  1  0  0  0  0
 15 41  1  0  0  0  0
 15 42  1  0  0  0  0
 16 21  1  0  0  0  0
 16 17  1  0  0  0  0
 16 18  1  0  0  0  0
 17 43  1  0  0  0  0
 18 19  1  0  0  0  0
 18 44  1  0  0  0  0
 18 45  1  0  0  0  0
 19 20  1  0  0  0  0
 19 46  1  0  0  0  0
 19 47  1  0  0  0  0
 20 21  1  0  0  0  0
 21 22  1  0  0  0  0
 21 48  1  0  0  0  0
 22 49  1  0  0  0  0
 22 50  1  0  0  0  0
 22 51  1  0  0  0  0
 23 29  1  0  0  0  0
 23 24  1  0  0  0  0
 23 52  1  0  0  0  0
 24 25  1  0  0  0  0
 24 53  1  0  0  0  0
 24 54  1  0  0  0  0
 25 26  1  0  0  0  0
 25 55  1  0  0  0  0
 25 56  1  0  0  0  0
 26 27  1  0  0  0  0
 26 28  1  0  0  0  0
 26 64  1  0  0  0  0
 27 57  1  0  0  0  0
 27 58  1  0  0  0  0
 27 59  1  0  0  0  0
 28 29  1  0  0  0  0
 28 60  1  0  0  0  0
 28 61  1  0  0  0  0
 29 62  1  0  0  0  0
 29 63  1  0  0  0  0
M  CHG  1  26   1
M  END
> <s_m_source_file>
AV-unprocessed.smi

> <i_m_source_file_index>
81

> <i_lp_mmshare_version>
43012

> <i_f3d_flags>
0

> <s_epik_input>
W0NIMl0xW0NIMl1OKFtDSDNdKVtDSDJdW0NIMl1bQ0hdMU4oW0NIMl1bQ0hdKFtDSDNdKVtDSDNdKWMobltjSF1uMiljKGMyMyluW2NIXW4zW0NIMl1bQ0BAXTQoW09IXSlbQ0gyXVtDSDJdT1tDQEhdNFtDSDNd

> <s_epik_cmdline>
J2VwaWtfcHl0aG9uJywgJy1waCcsICc3LjAnLCAnLXRuJywgJzgnLCAnLW1hJywgJzIwMCcsICctbWV0YWxfYmluZGluZycsICctaW1hZScsICc8aW5maWxlLm1hZT4nLCAnLW9tYWUnLCAnPG91dGZpbGUubWFlPic=

> <r_lp_tautomer_probability>
1

> <r_epik_Ionization_Penalty>
0.00272708

> <r_epik_Ionization_Penalty_Charging>
0.00158983

> <r_epik_Ionization_Penalty_Neutral>
0.00113725

> <r_epik_State_Penalty>
-0

> <r_epik_Charging_Adjusted_Penalty>
0.00158983

> <i_epik_Tot_Q>
1

> <i_epik_Tot_abs_Q>
1

> <r_epik_Metal_State_Penalty>
-0

> <b_epik_Metal_Only>
0

> <s_lp_Force_Field>
OPLS_2005

> <r_lp_Energy>
45.4509

> <b_lp_Chiralities_Consistent>
1

> <s_lp_Variant>
AV-unprocessed.smi:81-2

> <Gold.Version>
5.8.1

> <Gold.Id.Protein>
6NUR|6NUR_protein|mol2

> <Gold.PLP.Fitness>
52.1220

> <Gold.PLP.PLP>
-50.7346

> <Gold.PLP.part.hbond>
-1.0000

> <Gold.PLP.part.metal>
0.0000

> <Gold.PLP.part.buried>
-8.1145

> <Gold.PLP.part.nonpolar>
-41.7469

> <Gold.PLP.part.repulsive>
0.1962

> <Gold.PLP.ligand.clash>
0.0008

> <Gold.PLP.ligand.torsion>
2.8060

> <Gold.PLP.Chemscore.Hbond>
2.0000

> <Gold.PLP.Chemscore.CHOScore>
0.0000

> <Gold.PLP.Chemscore.Metal>
0.0000

> <Gold.Chemscore.Hbonds>
donor molecule, donor type, donor heavy atom, donor atom, acceptor molecule, acceptor atom, score
      L1  H    26    64       P1  8028  2.00

> <Gold.PLP.Chemscore.Internal.Correction>
1.0003

> <Gold.Rescore>
     Score         DG    S(hbond)    S(metal)    S(lipo)     H(rot)  DE(clash)    DE(int)     intcor
     12.29     -16.36       0.99        0.00     121.05       2.58       0.07       4.00       ----

> <Gold.Chemscore.Fitness>
12.2901

> <Gold.Chemscore.DG>
-16.3613

> <Gold.Chemscore.ZeroCoef>
-5.4800

> <Gold.Chemscore.Hbond>
0.9930

> <Gold.Chemscore.Metal>
0.0000

> <Gold.Chemscore.Lipo>
121.0494

> <Gold.Chemscore.Internal_Hbond>
0.0000

> <Gold.Chemscore.DEClash>
0.0723

> <Gold.Chemscore.DEInternal>
3.9988

> <Gold.Chemscore.Rot>
2.5774

> <Gold.Chemscore.Internal.Correction>
   9.000000E+99

> <Gold.Chemscore.Hbonds>
donor molecule, donor type, donor heavy atom, donor atom, acceptor molecule, acceptor atom, score
      L1  H    26    64       P1  8028  0.96

> <Gold.Chemscore.Hbond.Weighted>
-3.3167

> <Gold.Chemscore.Metal.Weighted>
-0.0000

> <Gold.Chemscore.Lipo.Weighted>
-14.1628

> <Gold.Chemscore.Internal_Hbond.Weighted>
0.0000

> <Gold.Chemscore.DEClash.Weighted>
0.0723

> <Gold.Chemscore.DEInternal.Weighted>
3.9988

> <Gold.Chemscore.Rot.Weighted>
6.5982

> <Gold.Chemscore.Internal.Correction.Weighted>
   9.000000E+99

> <Gold.Protein.RotatedTorsions>
[ 6907 6896 6895 6894 ] final  -96.65 input  -60.11 | X-H torsion
[ 7974 7965 7964 7962 ] final -121.68 input  175.53 | X-H torsion
[ 8008 7997 7996 7995 ] final  157.35 input   59.86 | X-H torsion
[ 10167 10162 10161 10158 ] final -168.47 input  -65.29 | X-H torsion
[ 10718 10713 10712 10709 ] final  161.72 input   66.30 | X-H torsion
[ 10763 10752 10751 10750 ] final   36.84 input  -60.55 | X-H torsion
[ 11005 11000 10999 10996 ] final   50.16 input  -57.11 | X-H torsion

> <Gold.Protein.ActiveResidues>
 VAL166  LYS551  ARG553  GLY616  TRP617  ASP618  TYR619  PRO620  LYS621  CYS622 
 ASP623  PHE694  ASN695  SER759  ASP760  ASP761  ALA762  ILE779  LEU786  VAL792 
 PHE793  MET794  SER795  GLU796  ALA797  LYS798  CYS799  TRP800  GLU811  SER814 

> <Gold.Protein.RotatedAtoms>
  150.6994  134.1471  159.4126 H   0  0  0  0  0  0  0  0  0  0  0  0  # atno 6907 bound_to 6896
  151.9454  135.0192  160.0548 H   0  0  0  0  0  0  0  0  0  0  0  0  # atno 6908 bound_to 6896
  152.2057  133.4839  159.5119 H   0  0  0  0  0  0  0  0  0  0  0  0  # atno 6909 bound_to 6896
  145.0377  140.8119  143.4285 H   0  0  0  0  0  0  0  0  0  0  0  0  # atno 7974 bound_to 7965
  156.2369  140.1888  156.7094 H   0  0  0  0  0  0  0  0  0  0  0  0  # atno 8008 bound_to 7997
  154.6124  140.0620  156.9537 H   0  0  0  0  0  0  0  0  0  0  0  0  # atno 8009 bound_to 7997
  155.1995  140.3291  155.4348 H   0  0  0  0  0  0  0  0  0  0  0  0  # atno 8010 bound_to 7997
  139.5983  144.1065  152.1714 H   0  0  0  0  0  0  0  0  0  0  0  0  # atno 10167 bound_to 10162
  157.1326  131.0520  151.2364 H   0  0  0  0  0  0  0  0  0  0  0  0  # atno 10718 bound_to 10713
  153.0061  135.6294  154.2049 H   0  0  0  0  0  0  0  0  0  0  0  0  # atno 10763 bound_to 10752
  154.1793  135.2814  155.3059 H   0  0  0  0  0  0  0  0  0  0  0  0  # atno 10764 bound_to 10752
  154.5847  135.5636  153.7279 H   0  0  0  0  0  0  0  0  0  0  0  0  # atno 10765 bound_to 10752
  140.1041  134.5041  155.8735 H   0  0  0  0  0  0  0  0  0  0  0  0  # atno 11005 bound_to 11000
  145.1689  139.2416  143.5352 LP  0  0  0  0  0  0  0  0  0  0  0  0  # atno 17320 bound_to 7965
  146.3506  140.1434  142.8594 LP  0  0  0  0  0  0  0  0  0  0  0  0  # atno 17321 bound_to 7965
  140.0655  144.5822  150.7231 LP  0  0  0  0  0  0  0  0  0  0  0  0  # atno 17342 bound_to 10162
  140.7230  143.2607  151.4217 LP  0  0  0  0  0  0  0  0  0  0  0  0  # atno 17343 bound_to 10162
  157.4379  130.7527  149.7044 LP  0  0  0  0  0  0  0  0  0  0  0  0  # atno 17370 bound_to 10713
  155.9805  130.4029  150.3526 LP  0  0  0  0  0  0  0  0  0  0  0  0  # atno 17371 bound_to 10713
  141.2113  133.6705  156.6577 LP  0  0  0  0  0  0  0  0  0  0  0  0  # atno 17394 bound_to 11000
  140.3179  134.8032  157.4229 LP  0  0  0  0  0  0  0  0  0  0  0  0  # atno 17395 bound_to 11000

$$$$
