AV-unprocessed.smi:1839|AV-procd|sdf|7485|dock2
  -GOLD-   22720 9183D 1   1.00000     0.00000
 Structure written by MMmdl.
 46 47  0  0  0  0  0  0  0  0  1 V2000
  146.0481  135.0636  162.2084 C   0  0  0  0  0  0  0  0  0  0  0  0
  146.5289  135.4388  160.8785 N   0  0  0  0  0  0  0  0  0  0  0  0
  145.6705  134.9808  159.7793 C   0  0  0  0  0  0  0  0  0  0  0  0
  147.5015  136.3743  160.7406 C   0  0  0  0  0  0  0  0  0  0  0  0
  147.7371  137.2062  161.6191 O   0  0  0  0  0  0  0  0  0  0  0  0
  148.1735  136.3666  159.5647 N   0  0  0  0  0  0  0  0  0  0  0  0
  148.5214  135.1263  158.8564 C   0  0  0  0  0  0  0  0  0  0  0  0
  148.3083  135.3190  157.3451 C   0  0  0  0  0  0  0  0  0  0  0  0
  149.1129  136.5239  156.8286 C   0  0  0  0  0  0  0  0  0  0  0  0
  148.8378  137.7886  157.6725 C   0  0  2  0  0  0  0  0  0  0  0  0
  149.7260  138.9576  157.2265 C   0  0  0  0  0  0  0  0  0  0  0  0
  150.5821  138.7910  156.3570 O   0  0  0  0  0  0  0  0  0  0  0  0
  149.5151  140.1355  157.8337 N   0  0  0  0  0  0  0  0  0  0  0  0
  150.2551  141.3624  157.5621 C   0  0  0  0  0  0  0  0  0  0  0  0
  151.5482  141.4422  158.3913 C   0  0  0  0  0  0  0  0  0  0  0  0
  151.7178  142.7940  159.0580 C   0  0  0  0  0  0  0  0  0  0  0  0
  151.8990  143.9602  158.2842 C   0  0  0  0  0  0  0  0  0  0  0  0
  152.0413  145.1926  158.9506 C   0  0  0  0  0  0  0  0  0  0  0  0
  151.9965  145.2117  160.3581 C   0  0  0  0  0  0  0  0  0  0  0  0
  151.8087  143.9923  161.0389 C   0  0  0  0  0  0  0  0  0  0  0  0
  151.6704  142.8052  160.4096 N   0  0  0  0  0  0  0  0  0  0  0  0
  149.0413  137.4837  159.1736 C   0  0  0  0  0  0  0  0  0  0  0  0
  146.8679  134.9892  162.9247 H   0  0  0  0  0  0  0  0  0  0  0  0
  145.5518  134.0925  162.1890 H   0  0  0  0  0  0  0  0  0  0  0  0
  145.3360  135.8022  162.5786 H   0  0  0  0  0  0  0  0  0  0  0  0
  145.6126  135.7091  158.9689 H   0  0  0  0  0  0  0  0  0  0  0  0
  144.6480  134.8146  160.1206 H   0  0  0  0  0  0  0  0  0  0  0  0
  146.0384  134.0391  159.3719 H   0  0  0  0  0  0  0  0  0  0  0  0
  149.5668  134.8857  159.0561 H   0  0  0  0  0  0  0  0  0  0  0  0
  147.9500  134.2671  159.2086 H   0  0  0  0  0  0  0  0  0  0  0  0
  148.6016  134.4169  156.8073 H   0  0  0  0  0  0  0  0  0  0  0  0
  147.2486  135.4710  157.1384 H   0  0  0  0  0  0  0  0  0  0  0  0
  150.1752  136.2768  156.8621 H   0  0  0  0  0  0  0  0  0  0  0  0
  148.8719  136.7066  155.7808 H   0  0  0  0  0  0  0  0  0  0  0  0
  147.7939  138.0727  157.5243 H   0  0  0  0  0  0  0  0  0  0  0  0
  148.7920  140.1850  158.5368 H   0  0  0  0  0  0  0  0  0  0  0  0
  150.4795  141.4345  156.4966 H   0  0  0  0  0  0  0  0  0  0  0  0
  149.6068  142.2060  157.8005 H   0  0  0  0  0  0  0  0  0  0  0  0
  151.5496  140.6658  159.1579 H   0  0  0  0  0  0  0  0  0  0  0  0
  152.4160  141.2482  157.7594 H   0  0  0  0  0  0  0  0  0  0  0  0
  151.9256  143.9127  157.2053 H   0  0  0  0  0  0  0  0  0  0  0  0
  152.1814  146.1067  158.3926 H   0  0  0  0  0  0  0  0  0  0  0  0
  152.1030  146.1382  160.9026 H   0  0  0  0  0  0  0  0  0  0  0  0
  151.7683  143.9701  162.1180 H   0  0  0  0  0  0  0  0  0  0  0  0
  148.8184  138.3811  159.7546 H   0  0  0  0  0  0  0  0  0  0  0  0
  150.0805  137.2255  159.3859 H   0  0  0  0  0  0  0  0  0  0  0  0
  1  2  1  0  0  0  0
  1 23  1  0  0  0  0
  1 24  1  0  0  0  0
  1 25  1  0  0  0  0
  2  3  1  0  0  0  0
  2  4  1  0  0  0  0
  3 26  1  0  0  0  0
  3 27  1  0  0  0  0
  3 28  1  0  0  0  0
  4  5  2  0  0  0  0
  4  6  1  0  0  0  0
  6 22  1  0  0  0  0
  6  7  1  0  0  0  0
  7  8  1  0  0  0  0
  7 29  1  0  0  0  0
  7 30  1  0  0  0  0
  8  9  1  0  0  0  0
  8 31  1  0  0  0  0
  8 32  1  0  0  0  0
  9 10  1  0  0  0  0
  9 33  1  0  0  0  0
  9 34  1  0  0  0  0
 10 11  1  0  0  0  0
 10 22  1  0  0  0  0
 10 35  1  0  0  0  0
 11 12  2  0  0  0  0
 11 13  1  0  0  0  0
 13 14  1  0  0  0  0
 13 36  1  0  0  0  0
 14 15  1  0  0  0  0
 14 37  1  0  0  0  0
 14 38  1  0  0  0  0
 15 16  1  0  0  0  0
 15 39  1  0  0  0  0
 15 40  1  0  0  0  0
 16 21  1  0  0  0  0
 16 17  2  0  0  0  0
 17 18  1  0  0  0  0
 17 41  1  0  0  0  0
 18 19  2  0  0  0  0
 18 42  1  0  0  0  0
 19 20  1  0  0  0  0
 19 43  1  0  0  0  0
 20 21  2  0  0  0  0
 20 44  1  0  0  0  0
 22 45  1  0  0  0  0
 22 46  1  0  0  0  0
M  END
> <s_m_source_file>
AV-unprocessed.smi

> <i_m_source_file_index>
1839

> <i_lp_mmshare_version>
43012

> <i_f3d_flags>
0

> <s_epik_input>
W0NIM11OKFtDSDNdKUMoPU8pTjFbQ0gyXVtDSDJdW0NIMl1bQ0BIXShbQ0gyXTEpQyg9TylbTkhdW0NIMl1bQ0gyXWMyW2NIXVtjSF1bY0hdW2NIXW4y

> <s_epik_cmdline>
J2VwaWtfcHl0aG9uJywgJy1waCcsICc3LjAnLCAnLXRuJywgJzgnLCAnLW1hJywgJzIwMCcsICctbWV0YWxfYmluZGluZycsICctaW1hZScsICc8aW5maWxlLm1hZT4nLCAnLW9tYWUnLCAnPG91dGZpbGUubWFlPic=

> <r_epik_Ionization_Penalty>
0.0268631

> <r_epik_Ionization_Penalty_Charging>
0

> <r_epik_Ionization_Penalty_Neutral>
0.0268631

> <r_epik_State_Penalty>
0.0219025

> <r_epik_Charging_Adjusted_Penalty>
0.0219025

> <i_epik_Tot_Q>
0

> <i_epik_Tot_abs_Q>
0

> <r_epik_Metal_State_Penalty>
0.0209511

> <b_epik_Metal_Only>
0

> <s_lp_Force_Field>
OPLS_2005

> <r_lp_Energy>
47.8256

> <b_lp_Chiralities_Consistent>
1

> <s_lp_Variant>
AV-unprocessed.smi:1839-2

> <Gold.Version>
5.8.1

> <Gold.Id.Protein>
6NUR|6NUR_protein|mol2

> <Gold.PLP.Fitness>
41.1246

> <Gold.PLP.PLP>
-37.1880

> <Gold.PLP.part.hbond>
-2.7607

> <Gold.PLP.part.metal>
0.0000

> <Gold.PLP.part.buried>
-3.9906

> <Gold.PLP.part.nonpolar>
-30.4083

> <Gold.PLP.part.repulsive>
0.1974

> <Gold.PLP.ligand.clash>
0.0000

> <Gold.PLP.ligand.torsion>
1.2145

> <Gold.PLP.Chemscore.Hbond>
1.6820

> <Gold.PLP.Chemscore.CHOScore>
0.0000

> <Gold.PLP.Chemscore.Metal>
0.0000

> <Gold.Chemscore.Hbonds>
donor molecule, donor type, donor heavy atom, donor atom, acceptor molecule, acceptor atom, score
      P1  H  6931  6943       L1     5  1.00
      P1  H  6934  6947       L1     5  0.72

> <Gold.PLP.Chemscore.Internal.Correction>
1.3197

> <Gold.Rescore>
     Score         DG    S(hbond)    S(metal)    S(lipo)     H(rot)  DE(clash)    DE(int)     intcor
     15.97     -18.25       1.76        0.00      92.16       1.52       0.04       2.24       ----

> <Gold.Chemscore.Fitness>
15.9726

> <Gold.Chemscore.DG>
-18.2549

> <Gold.Chemscore.ZeroCoef>
-5.4800

> <Gold.Chemscore.Hbond>
1.7580

> <Gold.Chemscore.Metal>
0.0000

> <Gold.Chemscore.Lipo>
92.1592

> <Gold.Chemscore.Internal_Hbond>
0.0000

> <Gold.Chemscore.DEClash>
0.0425

> <Gold.Chemscore.DEInternal>
2.2398

> <Gold.Chemscore.Rot>
1.5155

> <Gold.Chemscore.Internal.Correction>
   9.000000E+99

> <Gold.Chemscore.Hbonds>
donor molecule, donor type, donor heavy atom, donor atom, acceptor molecule, acceptor atom, score
      P1  H  6931  6943       L1     5  0.95
      P1  H  6934  6947       L1     5  0.48

> <Gold.Chemscore.Hbond.Weighted>
-5.8719

> <Gold.Chemscore.Metal.Weighted>
-0.0000

> <Gold.Chemscore.Lipo.Weighted>
-10.7826

> <Gold.Chemscore.Internal_Hbond.Weighted>
0.0000

> <Gold.Chemscore.DEClash.Weighted>
0.0425

> <Gold.Chemscore.DEInternal.Weighted>
2.2398

> <Gold.Chemscore.Rot.Weighted>
3.8796

> <Gold.Chemscore.Internal.Correction.Weighted>
   9.000000E+99

> <Gold.Protein.RotatedTorsions>
[ 6907 6896 6895 6894 ] final  117.77 input  -60.11 | X-H torsion
[ 7974 7965 7964 7962 ] final -136.66 input  175.53 | X-H torsion
[ 8008 7997 7996 7995 ] final   39.22 input   59.86 | X-H torsion
[ 10167 10162 10161 10158 ] final  -60.63 input  -65.29 | X-H torsion
[ 10718 10713 10712 10709 ] final  -67.22 input   66.30 | X-H torsion
[ 10763 10752 10751 10750 ] final -122.32 input  -60.55 | X-H torsion
[ 11005 11000 10999 10996 ] final   28.28 input  -57.11 | X-H torsion

> <Gold.Protein.ActiveResidues>
 VAL166  LYS551  ARG553  GLY616  TRP617  ASP618  TYR619  PRO620  LYS621  CYS622 
 ASP623  PHE694  ASN695  SER759  ASP760  ASP761  ALA762  ILE779  LEU786  VAL792 
 PHE793  MET794  SER795  GLU796  ALA797  LYS798  CYS799  TRP800  GLU811  SER814 

> <Gold.Protein.RotatedAtoms>
  152.4589  133.7780  159.6834 H   0  0  0  0  0  0  0  0  0  0  0  0  # atno 6907 bound_to 6896
  150.8525  133.7755  159.3026 H   0  0  0  0  0  0  0  0  0  0  0  0  # atno 6908 bound_to 6896
  151.5346  135.1071  159.9963 H   0  0  0  0  0  0  0  0  0  0  0  0  # atno 6909 bound_to 6896
  144.8908  140.6639  143.5146 H   0  0  0  0  0  0  0  0  0  0  0  0  # atno 7974 bound_to 7965
  155.2331  140.3340  155.4301 H   0  0  0  0  0  0  0  0  0  0  0  0  # atno 8008 bound_to 7997
  156.2287  140.1840  156.7344 H   0  0  0  0  0  0  0  0  0  0  0  0  # atno 8009 bound_to 7997
  154.5941  140.0633  156.9264 H   0  0  0  0  0  0  0  0  0  0  0  0  # atno 8010 bound_to 7997
  140.6058  143.2373  151.5823 H   0  0  0  0  0  0  0  0  0  0  0  0  # atno 10167 bound_to 10162
  156.0569  130.4274  150.1823 H   0  0  0  0  0  0  0  0  0  0  0  0  # atno 10718 bound_to 10713
  154.8687  135.4137  154.2762 H   0  0  0  0  0  0  0  0  0  0  0  0  # atno 10763 bound_to 10752
  153.3663  135.7005  153.6678 H   0  0  0  0  0  0  0  0  0  0  0  0  # atno 10764 bound_to 10752
  153.5558  135.3620  155.2751 H   0  0  0  0  0  0  0  0  0  0  0  0  # atno 10765 bound_to 10752
  140.3173  134.2583  155.7723 H   0  0  0  0  0  0  0  0  0  0  0  0  # atno 11005 bound_to 11000
  145.3786  139.1642  143.4293 LP  0  0  0  0  0  0  0  0  0  0  0  0  # atno 17320 bound_to 7965
  146.3052  140.3865  142.8689 LP  0  0  0  0  0  0  0  0  0  0  0  0  # atno 17321 bound_to 7965
  139.5324  144.2877  152.1177 LP  0  0  0  0  0  0  0  0  0  0  0  0  # atno 17342 bound_to 10162
  140.2067  144.4604  150.6405 LP  0  0  0  0  0  0  0  0  0  0  0  0  # atno 17343 bound_to 10162
  156.9897  130.9889  151.3417 LP  0  0  0  0  0  0  0  0  0  0  0  0  # atno 17370 bound_to 10713
  157.5547  130.8205  149.8189 LP  0  0  0  0  0  0  0  0  0  0  0  0  # atno 17371 bound_to 10713
  141.2095  133.7748  156.9994 LP  0  0  0  0  0  0  0  0  0  0  0  0  # atno 17394 bound_to 11000
  140.0973  134.9557  157.1868 LP  0  0  0  0  0  0  0  0  0  0  0  0  # atno 17395 bound_to 11000

$$$$
