AV-unprocessed.smi:835|AV-procd|sdf|3887|dock5
  -GOLD-   22720 1343D 1   1.00000     0.00000
 Structure written by MMmdl.
 41 43  0  0  0  0  0  0  0  0  2 V2000
  145.5840  129.7789  151.9423 C   0  0  0  0  0  0  0  0  0  0  0  0
  146.2667  131.0776  152.2546 C   0  0  0  0  0  0  0  0  0  0  0  0
  145.8444  132.3955  151.9132 C   0  0  0  0  0  0  0  0  0  0  0  0
  146.8333  133.1759  152.4470 C   0  0  0  0  0  0  0  0  0  0  0  0
  146.9603  134.5293  152.4238 N   0  0  0  0  0  0  0  0  0  0  0  0
  146.1325  135.4586  152.9324 C   0  0  0  0  0  0  0  0  0  0  0  0
  145.0803  135.2306  153.5293 O   0  0  0  0  0  0  0  0  0  0  0  0
  146.6011  136.6959  152.7172 N   0  0  0  0  0  0  0  0  0  0  0  0
  145.9457  137.9198  153.1662 C   0  0  1  0  0  0  0  0  0  0  0  0
  145.7190  137.9949  154.6776 C   0  0  0  0  0  0  0  0  0  0  0  0
  145.7383  139.4999  154.9928 C   0  0  0  0  0  0  0  0  0  0  0  0
  146.2256  140.1893  153.7744 N   0  3  1  0  0  0  0  0  0  0  0  0
  147.1321  141.3261  154.0406 C   0  0  0  0  0  0  0  0  0  0  0  0
  146.7178  142.1650  155.2256 C   0  0  0  0  0  0  0  0  0  0  0  0
  146.4913  142.6751  153.8189 C   0  0  0  0  0  0  0  0  0  0  0  0
  146.8036  139.1527  152.9004 C   0  0  0  0  0  0  0  0  0  0  0  0
  147.7663  132.3618  153.0497 N   0  0  0  0  0  0  0  0  0  0  0  0
  148.9863  132.7183  153.7475 C   0  0  0  0  0  0  0  0  0  0  0  0
  147.4099  131.0646  152.9313 N   0  0  0  0  0  0  0  0  0  0  0  0
  144.7393  129.9300  151.2698 H   0  0  0  0  0  0  0  0  0  0  0  0
  145.2055  129.3080  152.8496 H   0  0  0  0  0  0  0  0  0  0  0  0
  146.2683  129.0787  151.4626 H   0  0  0  0  0  0  0  0  0  0  0  0
  144.9622  132.6942  151.3672 H   0  0  0  0  0  0  0  0  0  0  0  0
  147.7987  134.8733  151.9794 H   0  0  0  0  0  0  0  0  0  0  0  0
  147.4726  136.7964  152.2174 H   0  0  0  0  0  0  0  0  0  0  0  0
  144.9909  138.0391  152.6497 H   0  0  0  0  0  0  0  0  0  0  0  0
  144.7888  137.5144  154.9832 H   0  0  0  0  0  0  0  0  0  0  0  0
  146.5356  137.5026  155.2082 H   0  0  0  0  0  0  0  0  0  0  0  0
  144.7412  139.8689  155.2348 H   0  0  0  0  0  0  0  0  0  0  0  0
  146.3817  139.6979  155.8516 H   0  0  0  0  0  0  0  0  0  0  0  0
  148.1861  141.1704  153.8163 H   0  0  0  0  0  0  0  0  0  0  0  0
  145.8434  141.8561  155.7958 H   0  0  0  0  0  0  0  0  0  0  0  0
  147.5074  142.6385  155.8059 H   0  0  0  0  0  0  0  0  0  0  0  0
  147.1315  143.4842  153.4733 H   0  0  0  0  0  0  0  0  0  0  0  0
  145.4659  142.7060  153.4549 H   0  0  0  0  0  0  0  0  0  0  0  0
  147.8409  138.9662  153.1858 H   0  0  0  0  0  0  0  0  0  0  0  0
  146.7873  139.4576  151.8535 H   0  0  0  0  0  0  0  0  0  0  0  0
  148.7384  133.2367  154.6737 H   0  0  0  0  0  0  0  0  0  0  0  0
  149.5896  133.3753  153.1207 H   0  0  0  0  0  0  0  0  0  0  0  0
  149.5679  131.8266  153.9853 H   0  0  0  0  0  0  0  0  0  0  0  0
  145.4093  140.5467  153.2985 H   0  0  0  0  0  0  0  0  0  0  0  0
  1  2  1  0  0  0  0
  1 20  1  0  0  0  0
  1 21  1  0  0  0  0
  1 22  1  0  0  0  0
  2 19  2  0  0  0  0
  2  3  1  0  0  0  0
  3  4  2  0  0  0  0
  3 23  1  0  0  0  0
  4  5  1  0  0  0  0
  4 17  1  0  0  0  0
  5  6  1  0  0  0  0
  5 24  1  0  0  0  0
  6  7  2  0  0  0  0
  6  8  1  0  0  0  0
  8  9  1  0  0  0  0
  8 25  1  0  0  0  0
  9 16  1  0  0  0  0
  9 10  1  0  0  0  0
  9 26  1  0  0  0  0
 10 11  1  0  0  0  0
 10 27  1  0  0  0  0
 10 28  1  0  0  0  0
 11 12  1  0  0  0  0
 11 29  1  0  0  0  0
 11 30  1  0  0  0  0
 12 13  1  0  0  0  0
 12 16  1  0  0  0  0
 12 41  1  0  0  0  0
 13 15  1  0  0  0  0
 13 14  1  0  0  0  0
 13 31  1  0  0  0  0
 14 15  1  0  0  0  0
 14 32  1  0  0  0  0
 14 33  1  0  0  0  0
 15 34  1  0  0  0  0
 15 35  1  0  0  0  0
 16 36  1  0  0  0  0
 16 37  1  0  0  0  0
 17 18  1  0  0  0  0
 17 19  1  0  0  0  0
 18 38  1  0  0  0  0
 18 39  1  0  0  0  0
 18 40  1  0  0  0  0
M  CHG  1  12   1
M  END
> <s_m_source_file>
AV-unprocessed.smi

> <i_m_source_file_index>
835

> <i_lp_mmshare_version>
43012

> <i_f3d_flags>
0

> <s_epik_input>
W0NIM11jMVtjSF1jKG4objEpW0NIM10pW05IXUMoPU8pW05IXVtDQEBIXTJbQ0gyXVtDSDJdTihbQ0gyXTIpW0NIXTNbQ0gyXVtDSDJdMw==

> <s_epik_cmdline>
J2VwaWtfcHl0aG9uJywgJy1waCcsICc3LjAnLCAnLXRuJywgJzgnLCAnLW1hJywgJzIwMCcsICctbWV0YWxfYmluZGluZycsICctaW1hZScsICc8aW5maWxlLm1hZT4nLCAnLW9tYWUnLCAnPG91dGZpbGUubWFlPic=

> <r_lp_tautomer_probability>
1

> <r_epik_Ionization_Penalty>
0.000700689

> <r_epik_Ionization_Penalty_Charging>
0.000627528

> <r_epik_Ionization_Penalty_Neutral>
7.31611e-05

> <r_epik_State_Penalty>
0.00039643

> <r_epik_Charging_Adjusted_Penalty>
0.00102396

> <i_epik_Tot_Q>
1

> <i_epik_Tot_abs_Q>
1

> <r_epik_Metal_State_Penalty>
-0

> <b_epik_Metal_Only>
0

> <s_lp_Force_Field>
OPLS_2005

> <r_lp_Energy>
38.0069

> <b_lp_Chiralities_Consistent>
1

> <s_lp_Variant>
AV-unprocessed.smi:835-2

> <Gold.Version>
5.8.1

> <Gold.Id.Protein>
6NUR|6NUR_protein|mol2

> <Gold.PLP.Fitness>
41.9153

> <Gold.PLP.PLP>
-31.6319

> <Gold.PLP.part.hbond>
-3.0000

> <Gold.PLP.part.metal>
0.0000

> <Gold.PLP.part.buried>
-4.7329

> <Gold.PLP.part.nonpolar>
-25.0631

> <Gold.PLP.part.repulsive>
0.4106

> <Gold.PLP.ligand.clash>
0.0000

> <Gold.PLP.ligand.torsion>
1.4304

> <Gold.PLP.Chemscore.Hbond>
3.9600

> <Gold.PLP.Chemscore.CHOScore>
0.0000

> <Gold.PLP.Chemscore.Metal>
0.0000

> <Gold.Chemscore.Hbonds>
donor molecule, donor type, donor heavy atom, donor atom, acceptor molecule, acceptor atom, score
      L1  H     5    24       P1  7948  0.96
      L1  H     8    25       P1  7948  1.00
      L1  H    12    41       P1 10175  2.00

> <Gold.PLP.Chemscore.Internal.Correction>
1.2642

> <Gold.Rescore>
     Score         DG    S(hbond)    S(metal)    S(lipo)     H(rot)  DE(clash)    DE(int)     intcor
     16.97     -18.37       2.77        0.00      57.73       1.22       0.01       1.39       ----

> <Gold.Chemscore.Fitness>
16.9712

> <Gold.Chemscore.DG>
-18.3750

> <Gold.Chemscore.ZeroCoef>
-5.4800

> <Gold.Chemscore.Hbond>
2.7732

> <Gold.Chemscore.Metal>
0.0000

> <Gold.Chemscore.Lipo>
57.7327

> <Gold.Chemscore.Internal_Hbond>
0.0000

> <Gold.Chemscore.DEClash>
0.0110

> <Gold.Chemscore.DEInternal>
1.3927

> <Gold.Chemscore.Rot>
1.2196

> <Gold.Chemscore.Internal.Correction>
   9.000000E+99

> <Gold.Chemscore.Hbonds>
donor molecule, donor type, donor heavy atom, donor atom, acceptor molecule, acceptor atom, score
      L1  H     5    24       P1  7948  0.56
      L1  H     8    25       P1  7948  0.93
      L1  H    12    41       P1 10175  0.93

> <Gold.Chemscore.Hbond.Weighted>
-9.2626

> <Gold.Chemscore.Metal.Weighted>
-0.0000

> <Gold.Chemscore.Lipo.Weighted>
-6.7547

> <Gold.Chemscore.Internal_Hbond.Weighted>
0.0000

> <Gold.Chemscore.DEClash.Weighted>
0.0110

> <Gold.Chemscore.DEInternal.Weighted>
1.3927

> <Gold.Chemscore.Rot.Weighted>
3.1223

> <Gold.Chemscore.Internal.Correction.Weighted>
   9.000000E+99

> <Gold.Protein.RotatedTorsions>
[ 6907 6896 6895 6894 ] final -138.14 input  -60.11 | X-H torsion
[ 7974 7965 7964 7962 ] final   67.87 input  175.53 | X-H torsion
[ 8008 7997 7996 7995 ] final   27.57 input   59.86 | X-H torsion
[ 10167 10162 10161 10158 ] final   11.76 input  -65.29 | X-H torsion
[ 10718 10713 10712 10709 ] final  123.52 input   66.30 | X-H torsion
[ 10763 10752 10751 10750 ] final   10.74 input  -60.55 | X-H torsion
[ 11005 11000 10999 10996 ] final  -48.15 input  -57.11 | X-H torsion

> <Gold.Protein.ActiveResidues>
 VAL166  LYS551  ARG553  GLY616  TRP617  ASP618  TYR619  PRO620  LYS621  CYS622 
 ASP623  PHE694  ASN695  SER759  ASP760  ASP761  ALA762  ILE779  LEU786  VAL792 
 PHE793  MET794  SER795  GLU796  ALA797  LYS798  CYS799  TRP800  GLU811  SER814 

> <Gold.Protein.RotatedAtoms>
  151.0313  133.5788  159.2660 H   0  0  0  0  0  0  0  0  0  0  0  0  # atno 6907 bound_to 6896
  151.2869  135.0729  159.9199 H   0  0  0  0  0  0  0  0  0  0  0  0  # atno 6908 bound_to 6896
  152.5345  134.0018  159.7952 H   0  0  0  0  0  0  0  0  0  0  0  0  # atno 6909 bound_to 6896
  145.8095  139.3025  143.1107 H   0  0  0  0  0  0  0  0  0  0  0  0  # atno 7974 bound_to 7965
  155.0451  140.3173  155.4711 H   0  0  0  0  0  0  0  0  0  0  0  0  # atno 8008 bound_to 7997
  156.2846  140.2156  156.5519 H   0  0  0  0  0  0  0  0  0  0  0  0  # atno 8009 bound_to 7997
  154.7257  140.0485  157.0668 H   0  0  0  0  0  0  0  0  0  0  0  0  # atno 8010 bound_to 7997
  140.6111  143.8406  150.7066 H   0  0  0  0  0  0  0  0  0  0  0  0  # atno 10167 bound_to 10162
  157.5658  131.1086  150.8456 H   0  0  0  0  0  0  0  0  0  0  0  0  # atno 10718 bound_to 10713
  153.2000  135.6854  153.8243 H   0  0  0  0  0  0  0  0  0  0  0  0  # atno 10763 bound_to 10752
  153.7512  135.3223  155.3322 H   0  0  0  0  0  0  0  0  0  0  0  0  # atno 10764 bound_to 10752
  154.8166  135.4681  154.0762 H   0  0  0  0  0  0  0  0  0  0  0  0  # atno 10765 bound_to 10752
  141.0684  133.6687  156.3400 H   0  0  0  0  0  0  0  0  0  0  0  0  # atno 11005 bound_to 11000
  145.9793  140.8696  143.0123 LP  0  0  0  0  0  0  0  0  0  0  0  0  # atno 17320 bound_to 7965
  144.6759  140.2057  143.7382 LP  0  0  0  0  0  0  0  0  0  0  0  0  # atno 17321 bound_to 7965
  140.1974  143.3987  152.1817 LP  0  0  0  0  0  0  0  0  0  0  0  0  # atno 17342 bound_to 10162
  139.5362  144.7211  151.4886 LP  0  0  0  0  0  0  0  0  0  0  0  0  # atno 17343 bound_to 10162
  156.8941  130.5223  149.5285 LP  0  0  0  0  0  0  0  0  0  0  0  0  # atno 17370 bound_to 10713
  156.0707  130.5740  150.9377 LP  0  0  0  0  0  0  0  0  0  0  0  0  # atno 17371 bound_to 10713
  140.5726  134.5825  157.5461 LP  0  0  0  0  0  0  0  0  0  0  0  0  # atno 17394 bound_to 11000
  139.9498  134.7636  156.0474 LP  0  0  0  0  0  0  0  0  0  0  0  0  # atno 17395 bound_to 11000

$$$$
